MODEL 1
REMARK VINA RESULT:     -10.0      0.000      0.000
REMARK SMILES CC(C)c1cc(N2CCNCC2)c2ccc(OCc3cncc(-n4ccc5c(N)ncnc54)c3)cc2n1
REMARK SMILES IDX 18 1 17 4 16 5 4 6 5 7 37 8 6 9 36 11 13 12 35 13 14 14
REMARK SMILES IDX 15 16 2 19 1 21 3 25 7 29 8 30 12 31 9 32 11 35 10 38 19 44
REMARK SMILES IDX 20 45 34 46 21 47 23 49 22 51 24 53 25 54 33 55 26 56 27 58
REMARK SMILES IDX 32 59 28 61 31 62 30 63 29 65
REMARK H PARENT 18 2 18 3 5 10 35 15 14 17 15 18 2 20 1 22 1 23 1 24 3 26 3 27
REMARK H PARENT 3 28 8 33 8 34 12 36 12 37 9 39 9 40 11 41 11 42 10 43 20 48
REMARK H PARENT 34 50 22 52 25 57 26 60 31 64 29 66 29 67
REMARK Flexibility Score: inf
ROOT
ATOM      1  C   UNL     1     -47.197  34.929  26.687  1.00  0.00     0.115 C 
ATOM      2  H   UNL     1     -46.907  35.224  25.672  1.00  0.00     0.076 H 
ATOM      3  H   UNL     1     -48.295  34.932  26.705  1.00  0.00     0.076 H 
ENDROOT
BRANCH   1   4
ATOM      4  O   UNL     1     -46.689  33.607  26.882  1.00  0.00    -0.489 OA
BRANCH   4   5
ATOM      5  C   UNL     1     -47.245  32.578  26.174  1.00  0.00     0.122 A 
ATOM      6  C   UNL     1     -47.512  30.739  21.789  1.00  0.00     0.046 A 
ATOM      7  C   UNL     1     -48.316  29.684  22.203  1.00  0.00    -0.016 A 
ATOM      8  N   UNL     1     -47.073  31.690  22.644  1.00  0.00    -0.252 NA
ATOM      9  C   UNL     1     -48.691  29.584  23.546  1.00  0.00     0.048 A 
ATOM     10  H   UNL     1     -48.665  28.963  21.473  1.00  0.00     0.066 H 
ATOM     11  C   UNL     1     -47.416  31.608  23.939  1.00  0.00     0.076 A 
ATOM     12  C   UNL     1     -48.223  30.572  24.450  1.00  0.00     0.024 A 
ATOM     13  C   UNL     1     -46.950  32.586  24.807  1.00  0.00     0.007 A 
ATOM     14  C   UNL     1     -48.506  30.558  25.835  1.00  0.00    -0.047 A 
ATOM     15  H   UNL     1     -46.328  33.382  24.403  1.00  0.00     0.069 H 
ATOM     16  C   UNL     1     -48.023  31.551  26.690  1.00  0.00    -0.019 A 
ATOM     17  H   UNL     1     -49.099  29.748  26.255  1.00  0.00     0.063 H 
ATOM     18  H   UNL     1     -48.260  31.471  27.745  1.00  0.00     0.066 H 
BRANCH   6  19
ATOM     19  C   UNL     1     -47.106  30.867  20.334  1.00  0.00    -0.004 C 
ATOM     20  H   UNL     1     -46.778  29.888  19.964  1.00  0.00     0.036 H 
BRANCH  19  21
ATOM     21  C   UNL     1     -48.294  31.312  19.479  1.00  0.00    -0.057 C 
ATOM     22  H   UNL     1     -48.397  32.403  19.500  1.00  0.00     0.024 H 
ATOM     23  H   UNL     1     -48.161  31.007  18.435  1.00  0.00     0.024 H 
ATOM     24  H   UNL     1     -49.235  30.881  19.835  1.00  0.00     0.024 H 
ENDBRANCH  19  21
BRANCH  19  25
ATOM     25  C   UNL     1     -45.932  31.835  20.179  1.00  0.00    -0.057 C 
ATOM     26  H   UNL     1     -46.291  32.848  19.967  1.00  0.00     0.024 H 
ATOM     27  H   UNL     1     -45.280  31.530  19.352  1.00  0.00     0.024 H 
ATOM     28  H   UNL     1     -45.319  31.880  21.086  1.00  0.00     0.024 H 
ENDBRANCH  19  25
ENDBRANCH   6  19
BRANCH   9  29
ATOM     29  N   UNL     1     -49.541  28.550  24.001  1.00  0.00    -0.368 N 
ATOM     30  C   UNL     1     -50.775  28.443  23.181  1.00  0.00     0.030 C 
ATOM     31  C   UNL     1     -48.913  27.249  24.287  1.00  0.00     0.030 C 
ATOM     32  C   UNL     1     -51.473  27.072  23.377  1.00  0.00     0.013 C 
ATOM     33  H   UNL     1     -51.467  29.238  23.485  1.00  0.00     0.051 H 
ATOM     34  H   UNL     1     -50.560  28.573  22.112  1.00  0.00     0.051 H 
ATOM     35  C   UNL     1     -49.908  26.353  25.072  1.00  0.00     0.013 C 
ATOM     36  H   UNL     1     -48.640  26.741  23.355  1.00  0.00     0.051 H 
ATOM     37  H   UNL     1     -48.004  27.377  24.887  1.00  0.00     0.051 H 
ATOM     38  N   UNL     1     -51.342  26.537  24.745  1.00  0.00    -0.313 NA
ATOM     39  H   UNL     1     -51.060  26.342  22.669  1.00  0.00     0.045 H 
ATOM     40  H   UNL     1     -52.535  27.171  23.127  1.00  0.00     0.045 H 
ATOM     41  H   UNL     1     -49.787  26.541  26.146  1.00  0.00     0.045 H 
ATOM     42  H   UNL     1     -49.638  25.301  24.914  1.00  0.00     0.045 H 
ATOM     43  H   UNL     1     -51.685  27.267  25.374  1.00  0.00     0.122 HD
ENDBRANCH   9  29
ENDBRANCH   4   5
ENDBRANCH   1   4
BRANCH   1  44
ATOM     44  C   UNL     1     -46.612  35.944  27.635  1.00  0.00     0.010 A 
ATOM     45  C   UNL     1     -46.636  35.706  29.003  1.00  0.00     0.034 A 
ATOM     46  C   UNL     1     -46.081  37.168  27.204  1.00  0.00    -0.028 A 
ATOM     47  N   UNL     1     -46.157  36.565  29.924  1.00  0.00    -0.262 NA
ATOM     48  H   UNL     1     -47.052  34.790  29.414  1.00  0.00     0.084 H 
ATOM     49  C   UNL     1     -45.568  38.091  28.128  1.00  0.00     0.066 A 
ATOM     50  H   UNL     1     -46.094  37.374  26.138  1.00  0.00     0.065 H 
ATOM     51  C   UNL     1     -45.633  37.734  29.469  1.00  0.00     0.051 A 
ATOM     52  H   UNL     1     -45.255  38.354  30.273  1.00  0.00     0.086 H 
BRANCH  49  53
ATOM     53  N   UNL     1     -45.002  39.334  27.699  1.00  0.00    -0.300 N 
ATOM     54  C   UNL     1     -45.403  40.046  26.575  1.00  0.00     0.012 A 
ATOM     55  C   UNL     1     -43.967  40.061  28.295  1.00  0.00     0.150 A 
ATOM     56  C   UNL     1     -44.645  41.189  26.456  1.00  0.00    -0.031 A 
ATOM     57  H   UNL     1     -46.181  39.685  25.919  1.00  0.00     0.082 H 
ATOM     58  C   UNL     1     -43.738  41.210  27.541  1.00  0.00     0.061 A 
ATOM     59  N   UNL     1     -43.296  39.740  29.419  1.00  0.00    -0.218 NA
ATOM     60  H   UNL     1     -44.730  41.923  25.666  1.00  0.00     0.065 H 
ATOM     61  C   UNL     1     -42.730  42.080  27.980  1.00  0.00     0.136 A 
ATOM     62  C   UNL     1     -42.358  40.643  29.742  1.00  0.00     0.120 A 
ATOM     63  N   UNL     1     -42.046  41.779  29.097  1.00  0.00    -0.219 NA
ATOM     64  H   UNL     1     -41.781  40.431  30.636  1.00  0.00     0.106 H 
BRANCH  61  65
ATOM     65  N   UNL     1     -42.401  43.263  27.336  1.00  0.00    -0.383 N 
ATOM     66  H   UNL     1     -42.429  44.042  27.985  1.00  0.00     0.158 HD
ATOM     67  H   UNL     1     -42.854  43.405  26.444  1.00  0.00     0.158 HD
ENDBRANCH  61  65
ENDBRANCH  49  53
ENDBRANCH   1  44
TORSDOF 9
ENDMDL
MODEL 2
REMARK VINA RESULT:      -9.9      1.996      3.555
REMARK SMILES CC(C)c1cc(N2CCNCC2)c2ccc(OCc3cncc(-n4ccc5c(N)ncnc54)c3)cc2n1
REMARK SMILES IDX 18 1 17 4 16 5 4 6 5 7 37 8 6 9 36 11 13 12 35 13 14 14
REMARK SMILES IDX 15 16 2 19 1 21 3 25 7 29 8 30 12 31 9 32 11 35 10 38 19 44
REMARK SMILES IDX 20 45 34 46 21 47 23 49 22 51 24 53 25 54 33 55 26 56 27 58
REMARK SMILES IDX 32 59 28 61 31 62 30 63 29 65
REMARK H PARENT 18 2 18 3 5 10 35 15 14 17 15 18 2 20 1 22 1 23 1 24 3 26 3 27
REMARK H PARENT 3 28 8 33 8 34 12 36 12 37 9 39 9 40 11 41 11 42 10 43 20 48
REMARK H PARENT 34 50 22 52 25 57 26 60 31 64 29 66 29 67
REMARK Flexibility Score: inf
ROOT
ATOM      1  C   UNL     1     -47.475  34.237  26.117  1.00  0.00     0.115 C 
ATOM      2  H   UNL     1     -46.456  33.912  26.353  1.00  0.00     0.076 H 
ATOM      3  H   UNL     1     -47.533  34.292  25.022  1.00  0.00     0.076 H 
ENDROOT
BRANCH   1   4
ATOM      4  O   UNL     1     -48.347  33.222  26.622  1.00  0.00    -0.489 OA
BRANCH   4   5
ATOM      5  C   UNL     1     -48.704  32.192  25.796  1.00  0.00     0.122 A 
ATOM      6  C   UNL     1     -48.750  27.438  25.512  1.00  0.00     0.046 A 
ATOM      7  C   UNL     1     -49.349  27.447  24.257  1.00  0.00    -0.016 A 
ATOM      8  N   UNL     1     -48.445  28.577  26.173  1.00  0.00    -0.252 NA
ATOM      9  C   UNL     1     -49.656  28.667  23.645  1.00  0.00     0.048 A 
ATOM     10  H   UNL     1     -49.549  26.508  23.756  1.00  0.00     0.066 H 
ATOM     11  C   UNL     1     -48.737  29.758  25.605  1.00  0.00     0.076 A 
ATOM     12  C   UNL     1     -49.348  29.865  24.340  1.00  0.00     0.024 A 
ATOM     13  C   UNL     1     -48.427  30.918  26.301  1.00  0.00     0.007 A 
ATOM     14  C   UNL     1     -49.642  31.153  23.839  1.00  0.00    -0.047 A 
ATOM     15  H   UNL     1     -47.955  30.825  27.277  1.00  0.00     0.069 H 
ATOM     16  C   UNL     1     -49.323  32.307  24.559  1.00  0.00    -0.019 A 
ATOM     17  H   UNL     1     -50.144  31.257  22.880  1.00  0.00     0.063 H 
ATOM     18  H   UNL     1     -49.592  33.264  24.127  1.00  0.00     0.066 H 
BRANCH   6  19
ATOM     19  C   UNL     1     -48.402  26.125  26.184  1.00  0.00    -0.004 C 
ATOM     20  H   UNL     1     -48.292  26.290  27.263  1.00  0.00     0.036 H 
BRANCH  19  21
ATOM     21  C   UNL     1     -49.521  25.102  25.983  1.00  0.00    -0.057 C 
ATOM     22  H   UNL     1     -49.467  24.317  26.745  1.00  0.00     0.024 H 
ATOM     23  H   UNL     1     -50.505  25.578  26.060  1.00  0.00     0.024 H 
ATOM     24  H   UNL     1     -49.460  24.620  25.001  1.00  0.00     0.024 H 
ENDBRANCH  19  21
BRANCH  19  25
ATOM     25  C   UNL     1     -47.070  25.583  25.662  1.00  0.00    -0.057 C 
ATOM     26  H   UNL     1     -46.290  26.350  25.725  1.00  0.00     0.024 H 
ATOM     27  H   UNL     1     -47.156  25.278  24.613  1.00  0.00     0.024 H 
ATOM     28  H   UNL     1     -46.731  24.712  26.235  1.00  0.00     0.024 H 
ENDBRANCH  19  25
ENDBRANCH   6  19
BRANCH   9  29
ATOM     29  N   UNL     1     -50.227  28.721  22.353  1.00  0.00    -0.368 N 
ATOM     30  C   UNL     1     -49.215  28.497  21.288  1.00  0.00     0.030 C 
ATOM     31  C   UNL     1     -51.475  27.968  22.143  1.00  0.00     0.030 C 
ATOM     32  C   UNL     1     -49.882  28.114  19.941  1.00  0.00     0.013 C 
ATOM     33  H   UNL     1     -48.644  29.422  21.148  1.00  0.00     0.051 H 
ATOM     34  H   UNL     1     -48.509  27.703  21.564  1.00  0.00     0.051 H 
ATOM     35  C   UNL     1     -52.122  28.398  20.800  1.00  0.00     0.013 C 
ATOM     36  H   UNL     1     -51.272  26.891  22.110  1.00  0.00     0.051 H 
ATOM     37  H   UNL     1     -52.187  28.158  22.956  1.00  0.00     0.051 H 
ATOM     38  N   UNL     1     -51.181  28.775  19.719  1.00  0.00    -0.313 NA
ATOM     39  H   UNL     1     -50.024  27.026  19.895  1.00  0.00     0.045 H 
ATOM     40  H   UNL     1     -49.201  28.366  19.120  1.00  0.00     0.045 H 
ATOM     41  H   UNL     1     -52.781  29.256  20.979  1.00  0.00     0.045 H 
ATOM     42  H   UNL     1     -52.768  27.586  20.443  1.00  0.00     0.045 H 
ATOM     43  H   UNL     1     -51.014  29.779  19.825  1.00  0.00     0.122 HD
ENDBRANCH   9  29
ENDBRANCH   4   5
ENDBRANCH   1   4
BRANCH   1  44
ATOM     44  C   UNL     1     -47.681  35.582  26.764  1.00  0.00     0.010 A 
ATOM     45  C   UNL     1     -48.908  35.894  27.334  1.00  0.00     0.034 A 
ATOM     46  C   UNL     1     -46.695  36.579  26.773  1.00  0.00    -0.028 A 
ATOM     47  N   UNL     1     -49.189  37.078  27.913  1.00  0.00    -0.262 NA
ATOM     48  H   UNL     1     -49.728  35.181  27.345  1.00  0.00     0.084 H 
ATOM     49  C   UNL     1     -46.942  37.824  27.369  1.00  0.00     0.066 A 
ATOM     50  H   UNL     1     -45.746  36.352  26.296  1.00  0.00     0.065 H 
ATOM     51  C   UNL     1     -48.204  38.014  27.921  1.00  0.00     0.051 A 
ATOM     52  H   UNL     1     -48.507  38.925  28.423  1.00  0.00     0.086 H 
BRANCH  49  53
ATOM     53  N   UNL     1     -45.936  38.843  27.406  1.00  0.00    -0.300 N 
ATOM     54  C   UNL     1     -45.760  39.825  26.438  1.00  0.00     0.012 A 
ATOM     55  C   UNL     1     -44.957  39.052  28.382  1.00  0.00     0.150 A 
ATOM     56  C   UNL     1     -44.701  40.631  26.784  1.00  0.00    -0.031 A 
ATOM     57  H   UNL     1     -46.381  39.873  25.555  1.00  0.00     0.082 H 
ATOM     58  C   UNL     1     -44.189  40.155  28.013  1.00  0.00     0.061 A 
ATOM     59  N   UNL     1     -44.772  38.336  29.509  1.00  0.00    -0.218 NA
ATOM     60  H   UNL     1     -44.330  41.468  26.207  1.00  0.00     0.065 H 
ATOM     61  C   UNL     1     -43.147  40.531  28.872  1.00  0.00     0.136 A 
ATOM     62  C   UNL     1     -43.749  38.786  30.250  1.00  0.00     0.120 A 
ATOM     63  N   UNL     1     -42.942  39.830  30.000  1.00  0.00    -0.219 NA
ATOM     64  H   UNL     1     -43.551  38.242  31.168  1.00  0.00     0.106 H 
BRANCH  61  65
ATOM     65  N   UNL     1     -42.310  41.612  28.638  1.00  0.00    -0.383 N 
ATOM     66  H   UNL     1     -42.828  42.380  28.226  1.00  0.00     0.158 HD
ATOM     67  H   UNL     1     -41.426  41.383  28.207  1.00  0.00     0.158 HD
ENDBRANCH  61  65
ENDBRANCH  49  53
ENDBRANCH   1  44
TORSDOF 9
ENDMDL
MODEL 3
REMARK VINA RESULT:      -9.5      1.766      2.220
REMARK SMILES CC(C)c1cc(N2CCNCC2)c2ccc(OCc3cncc(-n4ccc5c(N)ncnc54)c3)cc2n1
REMARK SMILES IDX 18 1 17 4 16 5 4 6 5 7 37 8 6 9 36 11 13 12 35 13 14 14
REMARK SMILES IDX 15 16 2 19 1 21 3 25 7 29 8 30 12 31 9 32 11 35 10 38 19 44
REMARK SMILES IDX 20 45 34 46 21 47 23 49 22 51 24 53 25 54 33 55 26 56 27 58
REMARK SMILES IDX 32 59 28 61 31 62 30 63 29 65
REMARK H PARENT 18 2 18 3 5 10 35 15 14 17 15 18 2 20 1 22 1 23 1 24 3 26 3 27
REMARK H PARENT 3 28 8 33 8 34 12 36 12 37 9 39 9 40 11 41 11 42 10 43 20 48
REMARK H PARENT 34 50 22 52 25 57 26 60 31 64 29 66 29 67
REMARK Flexibility Score: inf
ROOT
ATOM      1  C   UNL     1     -47.541  34.397  26.849  1.00  0.00     0.115 C 
ATOM      2  H   UNL     1     -47.120  33.882  27.720  1.00  0.00     0.076 H 
ATOM      3  H   UNL     1     -46.804  34.287  26.042  1.00  0.00     0.076 H 
ENDROOT
BRANCH   1   4
ATOM      4  O   UNL     1     -48.754  33.712  26.525  1.00  0.00    -0.489 OA
BRANCH   4   5
ATOM      5  C   UNL     1     -48.677  32.475  25.950  1.00  0.00     0.122 A 
ATOM      6  C   UNL     1     -49.280  30.208  21.805  1.00  0.00     0.046 A 
ATOM      7  C   UNL     1     -48.909  28.980  22.340  1.00  0.00    -0.016 A 
ATOM      8  N   UNL     1     -49.322  31.336  22.549  1.00  0.00    -0.252 NA
ATOM      9  C   UNL     1     -48.561  28.890  23.691  1.00  0.00     0.048 A 
ATOM     10  H   UNL     1     -48.919  28.099  21.709  1.00  0.00     0.066 H 
ATOM     11  C   UNL     1     -48.984  31.272  23.846  1.00  0.00     0.076 A 
ATOM     12  C   UNL     1     -48.591  30.074  24.474  1.00  0.00     0.024 A 
ATOM     13  C   UNL     1     -49.021  32.441  24.595  1.00  0.00     0.007 A 
ATOM     14  C   UNL     1     -48.227  30.114  25.839  1.00  0.00    -0.047 A 
ATOM     15  H   UNL     1     -49.327  33.361  24.102  1.00  0.00     0.069 H 
ATOM     16  C   UNL     1     -48.269  31.303  26.571  1.00  0.00    -0.019 A 
ATOM     17  H   UNL     1     -47.888  29.206  26.333  1.00  0.00     0.063 H 
ATOM     18  H   UNL     1     -47.959  31.270  27.610  1.00  0.00     0.066 H 
BRANCH   6  19
ATOM     19  C   UNL     1     -49.671  30.319  20.344  1.00  0.00    -0.004 C 
ATOM     20  H   UNL     1     -49.568  29.336  19.868  1.00  0.00     0.036 H 
BRANCH  19  21
ATOM     21  C   UNL     1     -51.132  30.751  20.208  1.00  0.00    -0.057 C 
ATOM     22  H   UNL     1     -51.201  31.832  20.043  1.00  0.00     0.024 H 
ATOM     23  H   UNL     1     -51.610  30.251  19.358  1.00  0.00     0.024 H 
ATOM     24  H   UNL     1     -51.712  30.512  21.105  1.00  0.00     0.024 H 
ENDBRANCH  19  21
BRANCH  19  25
ATOM     25  C   UNL     1     -48.746  31.288  19.605  1.00  0.00    -0.057 C 
ATOM     26  H   UNL     1     -47.702  31.119  19.891  1.00  0.00     0.024 H 
ATOM     27  H   UNL     1     -48.995  32.328  19.847  1.00  0.00     0.024 H 
ATOM     28  H   UNL     1     -48.819  31.172  18.518  1.00  0.00     0.024 H 
ENDBRANCH  19  25
ENDBRANCH   6  19
BRANCH   9  29
ATOM     29  N   UNL     1     -48.218  27.654  24.286  1.00  0.00    -0.368 N 
ATOM     30  C   UNL     1     -46.751  27.421  24.278  1.00  0.00     0.030 C 
ATOM     31  C   UNL     1     -48.855  27.336  25.575  1.00  0.00     0.030 C 
ATOM     32  C   UNL     1     -46.342  26.325  25.296  1.00  0.00     0.013 C 
ATOM     33  H   UNL     1     -46.454  27.096  23.273  1.00  0.00     0.051 H 
ATOM     34  H   UNL     1     -46.196  28.338  24.514  1.00  0.00     0.051 H 
ATOM     35  C   UNL     1     -48.628  25.838  25.911  1.00  0.00     0.013 C 
ATOM     36  H   UNL     1     -48.424  27.947  26.377  1.00  0.00     0.051 H 
ATOM     37  H   UNL     1     -49.933  27.531  25.537  1.00  0.00     0.051 H 
ATOM     38  N   UNL     1     -47.347  25.256  25.443  1.00  0.00    -0.313 NA
ATOM     39  H   UNL     1     -46.163  26.780  26.278  1.00  0.00     0.045 H 
ATOM     40  H   UNL     1     -45.388  25.885  24.986  1.00  0.00     0.045 H 
ATOM     41  H   UNL     1     -49.441  25.246  25.471  1.00  0.00     0.045 H 
ATOM     42  H   UNL     1     -48.705  25.703  26.997  1.00  0.00     0.045 H 
ATOM     43  H   UNL     1     -47.526  24.897  24.501  1.00  0.00     0.122 HD
ENDBRANCH   9  29
ENDBRANCH   4   5
ENDBRANCH   1   4
BRANCH   1  44
ATOM     44  C   UNL     1     -47.748  35.839  27.234  1.00  0.00     0.010 A 
ATOM     45  C   UNL     1     -49.011  36.279  27.607  1.00  0.00     0.034 A 
ATOM     46  C   UNL     1     -46.722  36.793  27.184  1.00  0.00    -0.028 A 
ATOM     47  N   UNL     1     -49.293  37.553  27.945  1.00  0.00    -0.262 NA
ATOM     48  H   UNL     1     -49.861  35.604  27.648  1.00  0.00     0.084 H 
ATOM     49  C   UNL     1     -46.970  38.129  27.531  1.00  0.00     0.066 A 
ATOM     50  H   UNL     1     -45.741  36.460  26.858  1.00  0.00     0.065 H 
ATOM     51  C   UNL     1     -48.271  38.447  27.903  1.00  0.00     0.051 A 
ATOM     52  H   UNL     1     -48.581  39.440  28.209  1.00  0.00     0.086 H 
BRANCH  49  53
ATOM     53  N   UNL     1     -45.926  39.109  27.507  1.00  0.00    -0.300 N 
ATOM     54  C   UNL     1     -45.773  40.086  26.531  1.00  0.00     0.012 A 
ATOM     55  C   UNL     1     -44.881  39.279  28.420  1.00  0.00     0.150 A 
ATOM     56  C   UNL     1     -44.665  40.852  26.811  1.00  0.00    -0.031 A 
ATOM     57  H   UNL     1     -46.445  40.160  25.688  1.00  0.00     0.082 H 
ATOM     58  C   UNL     1     -44.096  40.353  28.006  1.00  0.00     0.061 A 
ATOM     59  N   UNL     1     -44.654  38.553  29.534  1.00  0.00    -0.218 NA
ATOM     60  H   UNL     1     -44.299  41.675  26.212  1.00  0.00     0.065 H 
ATOM     61  C   UNL     1     -42.990  40.687  28.799  1.00  0.00     0.136 A 
ATOM     62  C   UNL     1     -43.572  38.962  30.211  1.00  0.00     0.120 A 
ATOM     63  N   UNL     1     -42.743  39.976  29.912  1.00  0.00    -0.219 NA
ATOM     64  H   UNL     1     -43.337  38.408  31.114  1.00  0.00     0.106 H 
BRANCH  61  65
ATOM     65  N   UNL     1     -42.129  41.737  28.514  1.00  0.00    -0.383 N 
ATOM     66  H   UNL     1     -42.419  42.577  29.002  1.00  0.00     0.158 HD
ATOM     67  H   UNL     1     -41.893  41.843  27.538  1.00  0.00     0.158 HD
ENDBRANCH  61  65
ENDBRANCH  49  53
ENDBRANCH   1  44
TORSDOF 9
ENDMDL
MODEL 4
REMARK VINA RESULT:      -9.4      2.397     12.194
REMARK SMILES CC(C)c1cc(N2CCNCC2)c2ccc(OCc3cncc(-n4ccc5c(N)ncnc54)c3)cc2n1
REMARK SMILES IDX 18 1 17 4 16 5 4 6 5 7 37 8 6 9 36 11 13 12 35 13 14 14
REMARK SMILES IDX 15 16 2 19 1 21 3 25 7 29 8 30 12 31 9 32 11 35 10 38 19 44
REMARK SMILES IDX 20 45 34 46 21 47 23 49 22 51 24 53 25 54 33 55 26 56 27 58
REMARK SMILES IDX 32 59 28 61 31 62 30 63 29 65
REMARK H PARENT 18 2 18 3 5 10 35 15 14 17 15 18 2 20 1 22 1 23 1 24 3 26 3 27
REMARK H PARENT 3 28 8 33 8 34 12 36 12 37 9 39 9 40 11 41 11 42 10 43 20 48
REMARK H PARENT 34 50 22 52 25 57 26 60 31 64 29 66 29 67
REMARK Flexibility Score: inf
ROOT
ATOM      1  C   UNL     1     -46.317  35.976  27.081  1.00  0.00     0.115 C 
ATOM      2  H   UNL     1     -45.790  36.345  26.194  1.00  0.00     0.076 H 
ATOM      3  H   UNL     1     -45.546  35.571  27.749  1.00  0.00     0.076 H 
ENDROOT
BRANCH   1   4
ATOM      4  O   UNL     1     -46.956  37.111  27.670  1.00  0.00    -0.489 OA
BRANCH   4   5
ATOM      5  C   UNL     1     -46.537  38.361  27.310  1.00  0.00     0.122 A 
ATOM      6  C   UNL     1     -42.979  41.464  27.941  1.00  0.00     0.046 A 
ATOM      7  C   UNL     1     -43.555  42.406  27.096  1.00  0.00    -0.016 A 
ATOM      8  N   UNL     1     -43.565  40.274  28.200  1.00  0.00    -0.252 NA
ATOM      9  C   UNL     1     -44.779  42.128  26.481  1.00  0.00     0.048 A 
ATOM     10  H   UNL     1     -43.059  43.357  26.942  1.00  0.00     0.066 H 
ATOM     11  C   UNL     1     -44.738  39.985  27.614  1.00  0.00     0.076 A 
ATOM     12  C   UNL     1     -45.393  40.875  26.740  1.00  0.00     0.024 A 
ATOM     13  C   UNL     1     -45.322  38.755  27.881  1.00  0.00     0.007 A 
ATOM     14  C   UNL     1     -46.612  40.468  26.150  1.00  0.00    -0.047 A 
ATOM     15  H   UNL     1     -44.809  38.075  28.558  1.00  0.00     0.069 H 
ATOM     16  C   UNL     1     -47.179  39.223  26.432  1.00  0.00    -0.019 A 
ATOM     17  H   UNL     1     -47.116  41.126  25.447  1.00  0.00     0.063 H 
ATOM     18  H   UNL     1     -48.106  38.964  25.933  1.00  0.00     0.066 H 
BRANCH   6  19
ATOM     19  C   UNL     1     -41.657  41.755  28.623  1.00  0.00    -0.004 C 
ATOM     20  H   UNL     1     -41.596  42.828  28.848  1.00  0.00     0.036 H 
BRANCH  19  21
ATOM     21  C   UNL     1     -41.553  40.996  29.947  1.00  0.00    -0.057 C 
ATOM     22  H   UNL     1     -40.574  40.515  30.040  1.00  0.00     0.024 H 
ATOM     23  H   UNL     1     -41.675  41.675  30.798  1.00  0.00     0.024 H 
ATOM     24  H   UNL     1     -42.319  40.218  30.030  1.00  0.00     0.024 H 
ENDBRANCH  19  21
BRANCH  19  25
ATOM     25  C   UNL     1     -40.483  41.410  27.705  1.00  0.00    -0.057 C 
ATOM     26  H   UNL     1     -40.807  40.748  26.895  1.00  0.00     0.024 H 
ATOM     27  H   UNL     1     -39.690  40.896  28.261  1.00  0.00     0.024 H 
ATOM     28  H   UNL     1     -40.044  42.306  27.251  1.00  0.00     0.024 H 
ENDBRANCH  19  25
ENDBRANCH   6  19
BRANCH   9  29
ATOM     29  N   UNL     1     -45.419  43.074  25.648  1.00  0.00    -0.368 N 
ATOM     30  C   UNL     1     -46.135  44.113  26.433  1.00  0.00     0.030 C 
ATOM     31  C   UNL     1     -44.627  43.624  24.534  1.00  0.00     0.030 C 
ATOM     32  C   UNL     1     -46.444  45.365  25.572  1.00  0.00     0.013 C 
ATOM     33  H   UNL     1     -47.081  43.689  26.792  1.00  0.00     0.051 H 
ATOM     34  H   UNL     1     -45.553  44.428  27.308  1.00  0.00     0.051 H 
ATOM     35  C   UNL     1     -45.565  44.375  23.551  1.00  0.00     0.013 C 
ATOM     36  H   UNL     1     -43.873  44.325  24.909  1.00  0.00     0.051 H 
ATOM     37  H   UNL     1     -44.111  42.824  23.989  1.00  0.00     0.051 H 
ATOM     38  N   UNL     1     -46.735  45.051  24.161  1.00  0.00    -0.313 NA
ATOM     39  H   UNL     1     -45.597  46.062  25.614  1.00  0.00     0.045 H 
ATOM     40  H   UNL     1     -47.298  45.898  26.007  1.00  0.00     0.045 H 
ATOM     41  H   UNL     1     -45.944  43.664  22.806  1.00  0.00     0.045 H 
ATOM     42  H   UNL     1     -44.975  45.114  22.995  1.00  0.00     0.045 H 
ATOM     43  H   UNL     1     -47.489  44.360  24.169  1.00  0.00     0.122 HD
ENDBRANCH   9  29
ENDBRANCH   4   5
ENDBRANCH   1   4
BRANCH   1  44
ATOM     44  C   UNL     1     -47.283  34.914  26.622  1.00  0.00     0.010 A 
ATOM     45  C   UNL     1     -48.625  35.007  26.962  1.00  0.00     0.034 A 
ATOM     46  C   UNL     1     -46.879  33.782  25.899  1.00  0.00    -0.028 A 
ATOM     47  N   UNL     1     -49.554  34.094  26.615  1.00  0.00    -0.262 NA
ATOM     48  H   UNL     1     -49.009  35.843  27.540  1.00  0.00     0.084 H 
ATOM     49  C   UNL     1     -47.812  32.809  25.513  1.00  0.00     0.066 A 
ATOM     50  H   UNL     1     -45.823  33.687  25.662  1.00  0.00     0.065 H 
ATOM     51  C   UNL     1     -49.131  33.020  25.898  1.00  0.00     0.051 A 
ATOM     52  H   UNL     1     -49.943  32.349  25.646  1.00  0.00     0.086 H 
BRANCH  49  53
ATOM     53  N   UNL     1     -47.417  31.661  24.754  1.00  0.00    -0.300 N 
ATOM     54  C   UNL     1     -46.494  31.671  23.716  1.00  0.00     0.012 A 
ATOM     55  C   UNL     1     -47.861  30.342  24.891  1.00  0.00     0.150 A 
ATOM     56  C   UNL     1     -46.357  30.401  23.205  1.00  0.00    -0.031 A 
ATOM     57  H   UNL     1     -46.012  32.582  23.390  1.00  0.00     0.082 H 
ATOM     58  C   UNL     1     -47.213  29.552  23.943  1.00  0.00     0.061 A 
ATOM     59  N   UNL     1     -48.752  29.877  25.790  1.00  0.00    -0.218 NA
ATOM     60  H   UNL     1     -45.716  30.119  22.380  1.00  0.00     0.065 H 
ATOM     61  C   UNL     1     -47.524  28.186  23.921  1.00  0.00     0.136 A 
ATOM     62  C   UNL     1     -48.971  28.560  25.674  1.00  0.00     0.120 A 
ATOM     63  N   UNL     1     -48.412  27.701  24.806  1.00  0.00    -0.219 NA
ATOM     64  H   UNL     1     -49.686  28.133  26.370  1.00  0.00     0.106 H 
BRANCH  61  65
ATOM     65  N   UNL     1     -46.949  27.281  23.041  1.00  0.00    -0.383 N 
ATOM     66  H   UNL     1     -46.390  27.765  22.347  1.00  0.00     0.158 HD
ATOM     67  H   UNL     1     -47.572  26.565  22.696  1.00  0.00     0.158 HD
ENDBRANCH  61  65
ENDBRANCH  49  53
ENDBRANCH   1  44
TORSDOF 9
ENDMDL
MODEL 5
REMARK VINA RESULT:      -9.2      2.657     11.870
REMARK SMILES CC(C)c1cc(N2CCNCC2)c2ccc(OCc3cncc(-n4ccc5c(N)ncnc54)c3)cc2n1
REMARK SMILES IDX 18 1 17 4 16 5 4 6 5 7 37 8 6 9 36 11 13 12 35 13 14 14
REMARK SMILES IDX 15 16 2 19 1 21 3 25 7 29 8 30 12 31 9 32 11 35 10 38 19 44
REMARK SMILES IDX 20 45 34 46 21 47 23 49 22 51 24 53 25 54 33 55 26 56 27 58
REMARK SMILES IDX 32 59 28 61 31 62 30 63 29 65
REMARK H PARENT 18 2 18 3 5 10 35 15 14 17 15 18 2 20 1 22 1 23 1 24 3 26 3 27
REMARK H PARENT 3 28 8 33 8 34 12 36 12 37 9 39 9 40 11 41 11 42 10 43 20 48
REMARK H PARENT 34 50 22 52 25 57 26 60 31 64 29 66 29 67
REMARK Flexibility Score: inf
ROOT
ATOM      1  C   UNL     1     -47.638  36.519  27.126  1.00  0.00     0.115 C 
ATOM      2  H   UNL     1     -48.578  36.626  27.679  1.00  0.00     0.076 H 
ATOM      3  H   UNL     1     -47.804  36.986  26.146  1.00  0.00     0.076 H 
ENDROOT
BRANCH   1   4
ATOM      4  O   UNL     1     -46.650  37.236  27.870  1.00  0.00    -0.489 OA
BRANCH   4   5
ATOM      5  C   UNL     1     -46.276  38.478  27.439  1.00  0.00     0.122 A 
ATOM      6  C   UNL     1     -48.046  42.724  26.205  1.00  0.00     0.046 A 
ATOM      7  C   UNL     1     -46.786  43.259  25.961  1.00  0.00    -0.016 A 
ATOM      8  N   UNL     1     -48.221  41.445  26.608  1.00  0.00    -0.252 NA
ATOM      9  C   UNL     1     -45.650  42.462  26.137  1.00  0.00     0.048 A 
ATOM     10  H   UNL     1     -46.700  44.281  25.612  1.00  0.00     0.066 H 
ATOM     11  C   UNL     1     -47.143  40.667  26.789  1.00  0.00     0.076 A 
ATOM     12  C   UNL     1     -45.827  41.123  26.571  1.00  0.00     0.024 A 
ATOM     13  C   UNL     1     -47.338  39.360  27.213  1.00  0.00     0.007 A 
ATOM     14  C   UNL     1     -44.755  40.235  26.816  1.00  0.00    -0.047 A 
ATOM     15  H   UNL     1     -48.357  39.017  27.378  1.00  0.00     0.069 H 
ATOM     16  C   UNL     1     -44.976  38.925  27.246  1.00  0.00    -0.019 A 
ATOM     17  H   UNL     1     -43.731  40.579  26.687  1.00  0.00     0.063 H 
ATOM     18  H   UNL     1     -44.110  38.300  27.434  1.00  0.00     0.066 H 
BRANCH   6  19
ATOM     19  C   UNL     1     -49.287  43.571  26.009  1.00  0.00    -0.004 C 
ATOM     20  H   UNL     1     -49.372  44.284  26.839  1.00  0.00     0.036 H 
BRANCH  19  21
ATOM     21  C   UNL     1     -49.192  44.377  24.712  1.00  0.00    -0.057 C 
ATOM     22  H   UNL     1     -49.784  43.905  23.921  1.00  0.00     0.024 H 
ATOM     23  H   UNL     1     -49.572  45.395  24.855  1.00  0.00     0.024 H 
ATOM     24  H   UNL     1     -48.159  44.454  24.356  1.00  0.00     0.024 H 
ENDBRANCH  19  21
BRANCH  19  25
ATOM     25  C   UNL     1     -50.546  42.703  26.019  1.00  0.00    -0.057 C 
ATOM     26  H   UNL     1     -50.521  41.976  25.200  1.00  0.00     0.024 H 
ATOM     27  H   UNL     1     -51.446  43.317  25.893  1.00  0.00     0.024 H 
ATOM     28  H   UNL     1     -50.651  42.147  26.957  1.00  0.00     0.024 H 
ENDBRANCH  19  25
ENDBRANCH   6  19
BRANCH   9  29
ATOM     29  N   UNL     1     -44.353  42.954  25.860  1.00  0.00    -0.368 N 
ATOM     30  C   UNL     1     -43.373  42.556  26.903  1.00  0.00     0.030 C 
ATOM     31  C   UNL     1     -43.852  42.774  24.486  1.00  0.00     0.030 C 
ATOM     32  C   UNL     1     -41.914  42.694  26.396  1.00  0.00     0.013 C 
ATOM     33  H   UNL     1     -43.507  43.208  27.775  1.00  0.00     0.051 H 
ATOM     34  H   UNL     1     -43.530  41.520  27.229  1.00  0.00     0.051 H 
ATOM     35  C   UNL     1     -42.585  43.644  24.277  1.00  0.00     0.013 C 
ATOM     36  H   UNL     1     -43.595  41.723  24.306  1.00  0.00     0.051 H 
ATOM     37  H   UNL     1     -44.611  43.071  23.752  1.00  0.00     0.051 H 
ATOM     38  N   UNL     1     -41.719  43.823  25.468  1.00  0.00    -0.313 NA
ATOM     39  H   UNL     1     -41.606  41.767  25.896  1.00  0.00     0.045 H 
ATOM     40  H   UNL     1     -41.245  42.813  27.256  1.00  0.00     0.045 H 
ATOM     41  H   UNL     1     -42.888  44.641  23.935  1.00  0.00     0.045 H 
ATOM     42  H   UNL     1     -41.988  43.210  23.465  1.00  0.00     0.045 H 
ATOM     43  H   UNL     1     -42.068  44.656  25.949  1.00  0.00     0.122 HD
ENDBRANCH   9  29
ENDBRANCH   4   5
ENDBRANCH   1   4
BRANCH   1  44
ATOM     44  C   UNL     1     -47.350  35.044  27.009  1.00  0.00     0.010 A 
ATOM     45  C   UNL     1     -46.500  34.432  27.920  1.00  0.00     0.034 A 
ATOM     46  C   UNL     1     -47.864  34.250  25.974  1.00  0.00    -0.028 A 
ATOM     47  N   UNL     1     -46.169  33.126  27.879  1.00  0.00    -0.262 NA
ATOM     48  H   UNL     1     -46.045  34.987  28.735  1.00  0.00     0.084 H 
ATOM     49  C   UNL     1     -47.550  32.885  25.895  1.00  0.00     0.066 A 
ATOM     50  H   UNL     1     -48.502  34.733  25.239  1.00  0.00     0.065 H 
ATOM     51  C   UNL     1     -46.700  32.383  26.873  1.00  0.00     0.051 A 
ATOM     52  H   UNL     1     -46.399  31.343  26.928  1.00  0.00     0.086 H 
BRANCH  49  53
ATOM     53  N   UNL     1     -48.087  32.058  24.857  1.00  0.00    -0.300 N 
ATOM     54  C   UNL     1     -49.437  31.778  24.680  1.00  0.00     0.012 A 
ATOM     55  C   UNL     1     -47.395  31.383  23.847  1.00  0.00     0.150 A 
ATOM     56  C   UNL     1     -49.600  30.949  23.595  1.00  0.00    -0.031 A 
ATOM     57  H   UNL     1     -50.192  32.165  25.350  1.00  0.00     0.082 H 
ATOM     58  C   UNL     1     -48.316  30.697  23.058  1.00  0.00     0.061 A 
ATOM     59  N   UNL     1     -46.064  31.389  23.635  1.00  0.00    -0.218 NA
ATOM     60  H   UNL     1     -50.542  30.558  23.235  1.00  0.00     0.065 H 
ATOM     61  C   UNL     1     -47.814  29.954  21.981  1.00  0.00     0.136 A 
ATOM     62  C   UNL     1     -45.701  30.646  22.580  1.00  0.00     0.120 A 
ATOM     63  N   UNL     1     -46.490  29.943  21.752  1.00  0.00    -0.219 NA
ATOM     64  H   UNL     1     -44.637  30.610  22.367  1.00  0.00     0.106 H 
BRANCH  61  65
ATOM     65  N   UNL     1     -48.613  29.231  21.106  1.00  0.00    -0.383 N 
ATOM     66  H   UNL     1     -48.926  28.370  21.539  1.00  0.00     0.158 HD
ATOM     67  H   UNL     1     -48.257  29.158  20.164  1.00  0.00     0.158 HD
ENDBRANCH  61  65
ENDBRANCH  49  53
ENDBRANCH   1  44
TORSDOF 9
ENDMDL
MODEL 6
REMARK VINA RESULT:      -9.2      2.216      2.864
REMARK SMILES CC(C)c1cc(N2CCNCC2)c2ccc(OCc3cncc(-n4ccc5c(N)ncnc54)c3)cc2n1
REMARK SMILES IDX 18 1 17 4 16 5 4 6 5 7 37 8 6 9 36 11 13 12 35 13 14 14
REMARK SMILES IDX 15 16 2 19 1 21 3 25 7 29 8 30 12 31 9 32 11 35 10 38 19 44
REMARK SMILES IDX 20 45 34 46 21 47 23 49 22 51 24 53 25 54 33 55 26 56 27 58
REMARK SMILES IDX 32 59 28 61 31 62 30 63 29 65
REMARK H PARENT 18 2 18 3 5 10 35 15 14 17 15 18 2 20 1 22 1 23 1 24 3 26 3 27
REMARK H PARENT 3 28 8 33 8 34 12 36 12 37 9 39 9 40 11 41 11 42 10 43 20 48
REMARK H PARENT 34 50 22 52 25 57 26 60 31 64 29 66 29 67
REMARK Flexibility Score: inf
ROOT
ATOM      1  C   UNL     1     -47.356  35.086  26.361  1.00  0.00     0.115 C 
ATOM      2  H   UNL     1     -46.591  34.453  26.825  1.00  0.00     0.076 H 
ATOM      3  H   UNL     1     -47.055  35.211  25.313  1.00  0.00     0.076 H 
ENDROOT
BRANCH   1   4
ATOM      4  O   UNL     1     -48.586  34.362  26.454  1.00  0.00    -0.489 OA
BRANCH   4   5
ATOM      5  C   UNL     1     -48.601  33.044  26.092  1.00  0.00     0.122 A 
ATOM      6  C   UNL     1     -50.735  29.977  23.138  1.00  0.00     0.046 A 
ATOM      7  C   UNL     1     -49.972  28.904  23.585  1.00  0.00    -0.016 A 
ATOM      8  N   UNL     1     -50.592  31.223  23.642  1.00  0.00    -0.252 NA
ATOM      9  C   UNL     1     -49.018  29.103  24.588  1.00  0.00     0.048 A 
ATOM     10  H   UNL     1     -50.143  27.919  23.169  1.00  0.00     0.066 H 
ATOM     11  C   UNL     1     -49.677  31.436  24.600  1.00  0.00     0.076 A 
ATOM     12  C   UNL     1     -48.856  30.412  25.112  1.00  0.00     0.024 A 
ATOM     13  C   UNL     1     -49.534  32.723  25.101  1.00  0.00     0.007 A 
ATOM     14  C   UNL     1     -47.901  30.742  26.101  1.00  0.00    -0.047 A 
ATOM     15  H   UNL     1     -50.173  33.507  24.700  1.00  0.00     0.069 H 
ATOM     16  C   UNL     1     -47.774  32.045  26.587  1.00  0.00    -0.019 A 
ATOM     17  H   UNL     1     -47.235  29.972  26.484  1.00  0.00     0.063 H 
ATOM     18  H   UNL     1     -47.010  32.236  27.333  1.00  0.00     0.066 H 
BRANCH   6  19
ATOM     19  C   UNL     1     -51.780  29.775  22.059  1.00  0.00    -0.004 C 
ATOM     20  H   UNL     1     -52.706  29.409  22.520  1.00  0.00     0.036 H 
BRANCH  19  21
ATOM     21  C   UNL     1     -52.099  31.098  21.361  1.00  0.00    -0.057 C 
ATOM     22  H   UNL     1     -52.955  30.982  20.687  1.00  0.00     0.024 H 
ATOM     23  H   UNL     1     -52.350  31.875  22.092  1.00  0.00     0.024 H 
ATOM     24  H   UNL     1     -51.253  31.459  20.768  1.00  0.00     0.024 H 
ENDBRANCH  19  21
BRANCH  19  25
ATOM     25  C   UNL     1     -51.323  28.723  21.047  1.00  0.00    -0.057 C 
ATOM     26  H   UNL     1     -52.172  28.353  20.463  1.00  0.00     0.024 H 
ATOM     27  H   UNL     1     -50.866  27.865  21.555  1.00  0.00     0.024 H 
ATOM     28  H   UNL     1     -50.584  29.126  20.346  1.00  0.00     0.024 H 
ENDBRANCH  19  25
ENDBRANCH   6  19
BRANCH   9  29
ATOM     29  N   UNL     1     -48.250  28.032  25.100  1.00  0.00    -0.368 N 
ATOM     30  C   UNL     1     -49.097  27.013  25.772  1.00  0.00     0.030 C 
ATOM     31  C   UNL     1     -47.235  27.452  24.205  1.00  0.00     0.030 C 
ATOM     32  C   UNL     1     -48.348  25.664  25.929  1.00  0.00     0.013 C 
ATOM     33  H   UNL     1     -49.367  27.384  26.768  1.00  0.00     0.051 H 
ATOM     34  H   UNL     1     -50.026  26.831  25.216  1.00  0.00     0.051 H 
ATOM     35  C   UNL     1     -46.285  26.535  25.021  1.00  0.00     0.013 C 
ATOM     36  H   UNL     1     -47.712  26.857  23.418  1.00  0.00     0.051 H 
ATOM     37  H   UNL     1     -46.640  28.240  23.726  1.00  0.00     0.051 H 
ATOM     38  N   UNL     1     -46.901  25.820  26.165  1.00  0.00    -0.313 NA
ATOM     39  H   UNL     1     -48.498  25.050  25.031  1.00  0.00     0.045 H 
ATOM     40  H   UNL     1     -48.792  25.102  26.759  1.00  0.00     0.045 H 
ATOM     41  H   UNL     1     -45.458  27.138  25.415  1.00  0.00     0.045 H 
ATOM     42  H   UNL     1     -45.833  25.801  24.343  1.00  0.00     0.045 H 
ATOM     43  H   UNL     1     -46.806  26.440  26.972  1.00  0.00     0.122 HD
ENDBRANCH   9  29
ENDBRANCH   4   5
ENDBRANCH   1   4
BRANCH   1  44
ATOM     44  C   UNL     1     -47.372  36.395  27.106  1.00  0.00     0.010 A 
ATOM     45  C   UNL     1     -48.582  36.971  27.467  1.00  0.00     0.034 A 
ATOM     46  C   UNL     1     -46.204  37.107  27.415  1.00  0.00    -0.028 A 
ATOM     47  N   UNL     1     -48.692  38.148  28.113  1.00  0.00    -0.262 NA
ATOM     48  H   UNL     1     -49.530  36.490  27.241  1.00  0.00     0.084 H 
ATOM     49  C   UNL     1     -46.271  38.334  28.091  1.00  0.00     0.066 A 
ATOM     50  H   UNL     1     -45.256  36.677  27.103  1.00  0.00     0.065 H 
ATOM     51  C   UNL     1     -47.539  38.801  28.414  1.00  0.00     0.051 A 
ATOM     52  H   UNL     1     -47.718  39.726  28.950  1.00  0.00     0.086 H 
BRANCH  49  53
ATOM     53  N   UNL     1     -45.084  39.059  28.434  1.00  0.00    -0.300 N 
ATOM     54  C   UNL     1     -44.324  38.848  29.578  1.00  0.00     0.012 A 
ATOM     55  C   UNL     1     -44.468  40.091  27.720  1.00  0.00     0.150 A 
ATOM     56  C   UNL     1     -43.260  39.721  29.594  1.00  0.00    -0.031 A 
ATOM     57  H   UNL     1     -44.600  38.111  30.319  1.00  0.00     0.082 H 
ATOM     58  C   UNL     1     -43.339  40.507  28.422  1.00  0.00     0.061 A 
ATOM     59  N   UNL     1     -44.865  40.607  26.539  1.00  0.00    -0.218 NA
ATOM     60  H   UNL     1     -42.513  39.790  30.374  1.00  0.00     0.065 H 
ATOM     61  C   UNL     1     -42.577  41.542  27.863  1.00  0.00     0.136 A 
ATOM     62  C   UNL     1     -44.062  41.588  26.103  1.00  0.00     0.120 A 
ATOM     63  N   UNL     1     -42.955  42.073  26.688  1.00  0.00    -0.219 NA
ATOM     64  H   UNL     1     -44.339  42.044  25.158  1.00  0.00     0.106 H 
BRANCH  61  65
ATOM     65  N   UNL     1     -41.425  42.049  28.445  1.00  0.00    -0.383 N 
ATOM     66  H   UNL     1     -40.630  41.455  28.238  1.00  0.00     0.158 HD
ATOM     67  H   UNL     1     -41.526  42.346  29.405  1.00  0.00     0.158 HD
ENDBRANCH  61  65
ENDBRANCH  49  53
ENDBRANCH   1  44
TORSDOF 9
ENDMDL
MODEL 7
REMARK VINA RESULT:      -9.2      2.246      3.661
REMARK SMILES CC(C)c1cc(N2CCNCC2)c2ccc(OCc3cncc(-n4ccc5c(N)ncnc54)c3)cc2n1
REMARK SMILES IDX 18 1 17 4 16 5 4 6 5 7 37 8 6 9 36 11 13 12 35 13 14 14
REMARK SMILES IDX 15 16 2 19 1 21 3 25 7 29 8 30 12 31 9 32 11 35 10 38 19 44
REMARK SMILES IDX 20 45 34 46 21 47 23 49 22 51 24 53 25 54 33 55 26 56 27 58
REMARK SMILES IDX 32 59 28 61 31 62 30 63 29 65
REMARK H PARENT 18 2 18 3 5 10 35 15 14 17 15 18 2 20 1 22 1 23 1 24 3 26 3 27
REMARK H PARENT 3 28 8 33 8 34 12 36 12 37 9 39 9 40 11 41 11 42 10 43 20 48
REMARK H PARENT 34 50 22 52 25 57 26 60 31 64 29 66 29 67
REMARK Flexibility Score: inf
ROOT
ATOM      1  C   UNL     1     -48.469  36.016  27.719  1.00  0.00     0.115 C 
ATOM      2  H   UNL     1     -49.079  35.844  26.824  1.00  0.00     0.076 H 
ATOM      3  H   UNL     1     -49.048  35.622  28.564  1.00  0.00     0.076 H 
ENDROOT
BRANCH   1   4
ATOM      4  O   UNL     1     -47.265  35.268  27.534  1.00  0.00    -0.489 OA
BRANCH   4   5
ATOM      5  C   UNL     1     -47.291  34.171  26.719  1.00  0.00     0.122 A 
ATOM      6  C   UNL     1     -50.240  31.491  24.110  1.00  0.00     0.046 A 
ATOM      7  C   UNL     1     -49.215  30.656  23.679  1.00  0.00    -0.016 A 
ATOM      8  N   UNL     1     -50.020  32.527  24.950  1.00  0.00    -0.252 NA
ATOM      9  C   UNL     1     -47.907  30.882  24.117  1.00  0.00     0.048 A 
ATOM     10  H   UNL     1     -49.447  29.822  23.027  1.00  0.00     0.066 H 
ATOM     11  C   UNL     1     -48.770  32.765  25.377  1.00  0.00     0.076 A 
ATOM     12  C   UNL     1     -47.669  31.976  24.990  1.00  0.00     0.024 A 
ATOM     13  C   UNL     1     -48.559  33.838  26.231  1.00  0.00     0.007 A 
ATOM     14  C   UNL     1     -46.386  32.324  25.471  1.00  0.00    -0.047 A 
ATOM     15  H   UNL     1     -49.415  34.441  26.524  1.00  0.00     0.069 H 
ATOM     16  C   UNL     1     -46.198  33.411  26.327  1.00  0.00    -0.019 A 
ATOM     17  H   UNL     1     -45.519  31.748  25.156  1.00  0.00     0.063 H 
ATOM     18  H   UNL     1     -45.186  33.636  26.645  1.00  0.00     0.066 H 
BRANCH   6  19
ATOM     19  C   UNL     1     -51.665  31.252  23.652  1.00  0.00    -0.004 C 
ATOM     20  H   UNL     1     -52.356  31.665  24.397  1.00  0.00     0.036 H 
BRANCH  19  21
ATOM     21  C   UNL     1     -51.932  31.963  22.324  1.00  0.00    -0.057 C 
ATOM     22  H   UNL     1     -52.685  32.748  22.452  1.00  0.00     0.024 H 
ATOM     23  H   UNL     1     -51.020  32.432  21.940  1.00  0.00     0.024 H 
ATOM     24  H   UNL     1     -52.299  31.270  21.559  1.00  0.00     0.024 H 
ENDBRANCH  19  21
BRANCH  19  25
ATOM     25  C   UNL     1     -51.955  29.755  23.536  1.00  0.00    -0.057 C 
ATOM     26  H   UNL     1     -52.070  29.463  22.486  1.00  0.00     0.024 H 
ATOM     27  H   UNL     1     -52.883  29.495  24.059  1.00  0.00     0.024 H 
ATOM     28  H   UNL     1     -51.150  29.148  23.965  1.00  0.00     0.024 H 
ENDBRANCH  19  25
ENDBRANCH   6  19
BRANCH   9  29
ATOM     29  N   UNL     1     -46.843  30.032  23.737  1.00  0.00    -0.368 N 
ATOM     30  C   UNL     1     -47.068  28.630  24.172  1.00  0.00     0.030 C 
ATOM     31  C   UNL     1     -46.364  30.145  22.348  1.00  0.00     0.030 C 
ATOM     32  C   UNL     1     -46.164  27.639  23.394  1.00  0.00     0.013 C 
ATOM     33  H   UNL     1     -46.835  28.555  25.242  1.00  0.00     0.051 H 
ATOM     34  H   UNL     1     -48.114  28.328  24.033  1.00  0.00     0.051 H 
ATOM     35  C   UNL     1     -45.012  29.398  22.202  1.00  0.00     0.013 C 
ATOM     36  H   UNL     1     -47.090  29.702  21.655  1.00  0.00     0.051 H 
ATOM     37  H   UNL     1     -46.221  31.195  22.068  1.00  0.00     0.051 H 
ATOM     38  N   UNL     1     -44.841  28.196  23.052  1.00  0.00    -0.313 NA
ATOM     39  H   UNL     1     -46.667  27.327  22.470  1.00  0.00     0.045 H 
ATOM     40  H   UNL     1     -46.031  26.730  23.991  1.00  0.00     0.045 H 
ATOM     41  H   UNL     1     -44.194  30.090  22.440  1.00  0.00     0.045 H 
ATOM     42  H   UNL     1     -44.876  29.114  21.151  1.00  0.00     0.045 H 
ATOM     43  H   UNL     1     -44.432  28.524  23.930  1.00  0.00     0.122 HD
ENDBRANCH   9  29
ENDBRANCH   4   5
ENDBRANCH   1   4
BRANCH   1  44
ATOM     44  C   UNL     1     -48.243  37.502  27.831  1.00  0.00     0.010 A 
ATOM     45  C   UNL     1     -49.324  38.353  28.012  1.00  0.00     0.034 A 
ATOM     46  C   UNL     1     -46.976  38.088  27.706  1.00  0.00    -0.028 A 
ATOM     47  N   UNL     1     -49.219  39.694  28.100  1.00  0.00    -0.262 NA
ATOM     48  H   UNL     1     -50.340  37.975  28.094  1.00  0.00     0.084 H 
ATOM     49  C   UNL     1     -46.819  39.479  27.796  1.00  0.00     0.066 A 
ATOM     50  H   UNL     1     -46.132  37.428  27.529  1.00  0.00     0.065 H 
ATOM     51  C   UNL     1     -47.973  40.227  27.993  1.00  0.00     0.051 A 
ATOM     52  H   UNL     1     -47.978  41.306  28.095  1.00  0.00     0.086 H 
BRANCH  49  53
ATOM     53  N   UNL     1     -45.527  40.088  27.694  1.00  0.00    -0.300 N 
ATOM     54  C   UNL     1     -44.417  39.735  28.452  1.00  0.00     0.012 A 
ATOM     55  C   UNL     1     -45.128  41.127  26.847  1.00  0.00     0.150 A 
ATOM     56  C   UNL     1     -43.346  40.525  28.102  1.00  0.00    -0.031 A 
ATOM     57  H   UNL     1     -44.464  38.964  29.207  1.00  0.00     0.082 H 
ATOM     58  C   UNL     1     -43.784  41.405  27.085  1.00  0.00     0.061 A 
ATOM     59  N   UNL     1     -45.887  41.761  25.931  1.00  0.00    -0.218 NA
ATOM     60  H   UNL     1     -42.358  40.480  28.541  1.00  0.00     0.065 H 
ATOM     61  C   UNL     1     -43.192  42.424  26.326  1.00  0.00     0.136 A 
ATOM     62  C   UNL     1     -45.217  42.714  25.268  1.00  0.00     0.120 A 
ATOM     63  N   UNL     1     -43.930  43.072  25.409  1.00  0.00    -0.219 NA
ATOM     64  H   UNL     1     -45.783  43.262  24.521  1.00  0.00     0.106 H 
BRANCH  61  65
ATOM     65  N   UNL     1     -41.862  42.800  26.449  1.00  0.00    -0.383 N 
ATOM     66  H   UNL     1     -41.341  42.102  26.966  1.00  0.00     0.158 HD
ATOM     67  H   UNL     1     -41.713  43.763  26.718  1.00  0.00     0.158 HD
ENDBRANCH  61  65
ENDBRANCH  49  53
ENDBRANCH   1  44
TORSDOF 9
ENDMDL
