MODEL 1
REMARK VINA RESULT:     -10.5      0.000      0.000
REMARK SMILES O=C(NCc1ccc2cc(CN3CC(F)C3)[nH]c2c1)c1cc(=O)n2ccccc2n1
REMARK SMILES IDX 5 1 6 2 7 3 8 4 9 5 10 6 17 7 18 8 19 9 4 15 3 18 1 19 2 20
REMARK SMILES IDX 20 22 21 23 30 24 22 25 29 27 23 28 24 29 28 30 25 31 27 32
REMARK SMILES IDX 26 34 11 38 12 41 13 42 16 43 14 44 15 49
REMARK H PARENT 6 10 7 11 9 12 17 13 19 14 4 16 4 17 3 21 21 26 28 33 25 35
REMARK H PARENT 27 36 26 37 11 39 11 40 13 45 13 46 16 47 16 48 14 50
REMARK Flexibility Score: inf
ROOT
ATOM      1  C   UNL     1     -47.912  34.810  26.589  1.00  0.00    -0.027 A 
ATOM      2  C   UNL     1     -46.646  34.691  26.000  1.00  0.00    -0.057 A 
ATOM      3  C   UNL     1     -46.303  33.562  25.245  1.00  0.00    -0.052 A 
ATOM      4  C   UNL     1     -47.249  32.537  25.065  1.00  0.00    -0.000 A 
ATOM      5  C   UNL     1     -47.244  31.292  24.379  1.00  0.00    -0.032 A 
ATOM      6  C   UNL     1     -48.489  30.709  24.532  1.00  0.00     0.030 A 
ATOM      7  N   UNL     1     -49.229  31.552  25.329  1.00  0.00    -0.357 N 
ATOM      8  C   UNL     1     -48.504  32.675  25.652  1.00  0.00     0.046 A 
ATOM      9  C   UNL     1     -48.865  33.792  26.413  1.00  0.00    -0.033 A 
ATOM     10  H   UNL     1     -45.908  35.481  26.124  1.00  0.00     0.063 H 
ATOM     11  H   UNL     1     -45.316  33.483  24.797  1.00  0.00     0.063 H 
ATOM     12  H   UNL     1     -46.416  30.872  23.824  1.00  0.00     0.065 H 
ATOM     13  H   UNL     1     -50.181  31.386  25.626  1.00  0.00     0.166 HD
ATOM     14  H   UNL     1     -49.857  33.877  26.852  1.00  0.00     0.065 H 
ENDROOT
BRANCH   1  15
ATOM     15  C   UNL     1     -48.275  36.043  27.378  1.00  0.00     0.043 C 
ATOM     16  H   UNL     1     -48.473  35.786  28.424  1.00  0.00     0.054 H 
ATOM     17  H   UNL     1     -49.189  36.494  26.975  1.00  0.00     0.054 H 
BRANCH  15  18
ATOM     18  N   UNL     1     -47.193  36.995  27.367  1.00  0.00    -0.347 N 
ATOM     19  O   UNL     1     -46.545  36.702  29.557  1.00  0.00    -0.268 OA
ATOM     20  C   UNL     1     -46.462  37.298  28.490  1.00  0.00     0.270 C 
ATOM     21  H   UNL     1     -47.113  37.647  26.595  1.00  0.00     0.164 HD
BRANCH  20  22
ATOM     22  C   UNL     1     -45.543  38.478  28.273  1.00  0.00     0.136 A 
ATOM     23  C   UNL     1     -45.769  39.215  27.182  1.00  0.00     0.035 A 
ATOM     24  N   UNL     1     -44.543  38.715  29.189  1.00  0.00    -0.225 NA
ATOM     25  C   UNL     1     -44.893  40.365  26.928  1.00  0.00     0.258 A 
ATOM     26  H   UNL     1     -46.557  39.016  26.468  1.00  0.00     0.071 H 
ATOM     27  C   UNL     1     -43.769  39.731  28.956  1.00  0.00     0.140 A 
ATOM     28  O   UNL     1     -45.096  41.052  25.927  1.00  0.00    -0.269 OA
ATOM     29  N   UNL     1     -43.891  40.580  27.861  1.00  0.00    -0.268 N 
ATOM     30  C   UNL     1     -42.667  40.024  29.918  1.00  0.00    -0.019 A 
ATOM     31  C   UNL     1     -43.019  41.650  27.686  1.00  0.00     0.014 A 
ATOM     32  C   UNL     1     -41.853  41.065  29.705  1.00  0.00    -0.057 A 
ATOM     33  H   UNL     1     -42.562  39.368  30.773  1.00  0.00     0.066 H 
ATOM     34  C   UNL     1     -42.033  41.906  28.553  1.00  0.00    -0.045 A 
ATOM     35  H   UNL     1     -43.173  42.271  26.807  1.00  0.00     0.082 H 
ATOM     36  H   UNL     1     -41.046  41.293  30.393  1.00  0.00     0.062 H 
ATOM     37  H   UNL     1     -41.358  42.744  28.405  1.00  0.00     0.064 H 
ENDBRANCH  20  22
ENDBRANCH  15  18
ENDBRANCH   1  15
BRANCH   6  38
ATOM     38  C   UNL     1     -49.029  29.401  24.051  1.00  0.00     0.039 C 
ATOM     39  H   UNL     1     -50.113  29.392  24.220  1.00  0.00     0.050 H 
ATOM     40  H   UNL     1     -48.910  29.353  22.960  1.00  0.00     0.050 H 
BRANCH  38  41
ATOM     41  N   UNL     1     -48.472  28.168  24.610  1.00  0.00    -0.292 NA
ATOM     42  C   UNL     1     -48.686  27.967  26.059  1.00  0.00     0.031 C 
ATOM     43  C   UNL     1     -49.272  26.953  24.341  1.00  0.00     0.031 C 
ATOM     44  C   UNL     1     -48.871  26.458  25.753  1.00  0.00     0.125 C 
ATOM     45  H   UNL     1     -47.821  28.209  26.683  1.00  0.00     0.046 H 
ATOM     46  H   UNL     1     -49.577  28.413  26.510  1.00  0.00     0.046 H 
ATOM     47  H   UNL     1     -48.900  26.340  23.514  1.00  0.00     0.046 H 
ATOM     48  H   UNL     1     -50.352  27.075  24.226  1.00  0.00     0.046 H 
ATOM     49  F   UNL     1     -49.825  25.808  26.462  1.00  0.00    -0.245 F 
ATOM     50  H   UNL     1     -47.921  25.906  25.756  1.00  0.00     0.069 H 
ENDBRANCH  38  41
ENDBRANCH   6  38
TORSDOF 5
ENDMDL
MODEL 2
REMARK VINA RESULT:     -10.1      2.127      3.234
REMARK SMILES O=C(NCc1ccc2cc(CN3CC(F)C3)[nH]c2c1)c1cc(=O)n2ccccc2n1
REMARK SMILES IDX 5 1 6 2 7 3 8 4 9 5 10 6 17 7 18 8 19 9 4 15 3 18 1 19 2 20
REMARK SMILES IDX 20 22 21 23 30 24 22 25 29 27 23 28 24 29 28 30 25 31 27 32
REMARK SMILES IDX 26 34 11 38 12 41 13 42 16 43 14 44 15 49
REMARK H PARENT 6 10 7 11 9 12 17 13 19 14 4 16 4 17 3 21 21 26 28 33 25 35
REMARK H PARENT 27 36 26 37 11 39 11 40 13 45 13 46 16 47 16 48 14 50
REMARK Flexibility Score: inf
ROOT
ATOM      1  C   UNL     1     -46.588  35.642  28.300  1.00  0.00    -0.027 A 
ATOM      2  C   UNL     1     -47.939  35.760  27.946  1.00  0.00    -0.057 A 
ATOM      3  C   UNL     1     -48.491  34.975  26.925  1.00  0.00    -0.052 A 
ATOM      4  C   UNL     1     -47.678  34.043  26.254  1.00  0.00    -0.000 A 
ATOM      5  C   UNL     1     -47.898  33.109  25.205  1.00  0.00    -0.032 A 
ATOM      6  C   UNL     1     -46.714  32.433  24.972  1.00  0.00     0.030 A 
ATOM      7  N   UNL     1     -45.776  32.967  25.825  1.00  0.00    -0.357 N 
ATOM      8  C   UNL     1     -46.340  33.934  26.624  1.00  0.00     0.046 A 
ATOM      9  C   UNL     1     -45.769  34.712  27.637  1.00  0.00    -0.033 A 
ATOM     10  H   UNL     1     -48.581  36.470  28.462  1.00  0.00     0.063 H 
ATOM     11  H   UNL     1     -49.539  35.081  26.659  1.00  0.00     0.063 H 
ATOM     12  H   UNL     1     -48.830  32.945  24.682  1.00  0.00     0.065 H 
ATOM     13  H   UNL     1     -44.807  32.681  25.878  1.00  0.00     0.166 HD
ATOM     14  H   UNL     1     -44.722  34.598  27.911  1.00  0.00     0.065 H 
ENDROOT
BRANCH   1  15
ATOM     15  C   UNL     1     -46.016  36.476  29.418  1.00  0.00     0.043 C 
ATOM     16  H   UNL     1     -45.361  35.870  30.054  1.00  0.00     0.054 H 
ATOM     17  H   UNL     1     -46.821  36.861  30.054  1.00  0.00     0.054 H 
BRANCH  15  18
ATOM     18  N   UNL     1     -45.221  37.559  28.894  1.00  0.00    -0.347 N 
ATOM     19  O   UNL     1     -44.287  38.211  30.895  1.00  0.00    -0.268 OA
ATOM     20  C   UNL     1     -44.476  38.387  29.697  1.00  0.00     0.270 C 
ATOM     21  H   UNL     1     -45.395  37.891  27.952  1.00  0.00     0.164 HD
BRANCH  20  22
ATOM     22  C   UNL     1     -43.919  39.570  28.939  1.00  0.00     0.136 A 
ATOM     23  C   UNL     1     -42.909  40.223  29.517  1.00  0.00     0.035 A 
ATOM     24  N   UNL     1     -44.479  39.902  27.726  1.00  0.00    -0.225 NA
ATOM     25  C   UNL     1     -42.343  41.384  28.820  1.00  0.00     0.258 A 
ATOM     26  H   UNL     1     -42.479  39.953  30.472  1.00  0.00     0.071 H 
ATOM     27  C   UNL     1     -43.979  40.933  27.116  1.00  0.00     0.140 A 
ATOM     28  O   UNL     1     -41.409  41.990  29.343  1.00  0.00    -0.269 OA
ATOM     29  N   UNL     1     -42.927  41.702  27.603  1.00  0.00    -0.268 N 
ATOM     30  C   UNL     1     -44.557  41.334  25.801  1.00  0.00    -0.019 A 
ATOM     31  C   UNL     1     -42.447  42.792  26.885  1.00  0.00     0.014 A 
ATOM     32  C   UNL     1     -44.061  42.392  25.148  1.00  0.00    -0.057 A 
ATOM     33  H   UNL     1     -45.377  40.743  25.414  1.00  0.00     0.066 H 
ATOM     34  C   UNL     1     -42.971  43.146  25.705  1.00  0.00    -0.045 A 
ATOM     35  H   UNL     1     -41.624  43.349  27.326  1.00  0.00     0.082 H 
ATOM     36  H   UNL     1     -44.469  42.700  24.192  1.00  0.00     0.062 H 
ATOM     37  H   UNL     1     -42.588  44.001  25.154  1.00  0.00     0.064 H 
ENDBRANCH  20  22
ENDBRANCH  15  18
ENDBRANCH   1  15
BRANCH   6  38
ATOM     38  C   UNL     1     -46.365  31.374  23.977  1.00  0.00     0.039 C 
ATOM     39  H   UNL     1     -45.640  31.793  23.267  1.00  0.00     0.050 H 
ATOM     40  H   UNL     1     -45.824  30.572  24.496  1.00  0.00     0.050 H 
BRANCH  38  41
ATOM     41  N   UNL     1     -47.446  30.753  23.210  1.00  0.00    -0.292 NA
ATOM     42  C   UNL     1     -47.048  29.633  22.331  1.00  0.00     0.031 C 
ATOM     43  C   UNL     1     -48.295  29.822  23.984  1.00  0.00     0.031 C 
ATOM     44  C   UNL     1     -48.390  28.952  22.706  1.00  0.00     0.125 C 
ATOM     45  H   UNL     1     -46.944  29.899  21.276  1.00  0.00     0.046 H 
ATOM     46  H   UNL     1     -46.180  29.036  22.627  1.00  0.00     0.046 H 
ATOM     47  H   UNL     1     -49.244  30.249  24.324  1.00  0.00     0.046 H 
ATOM     48  H   UNL     1     -47.831  29.294  24.822  1.00  0.00     0.046 H 
ATOM     49  F   UNL     1     -48.359  27.609  22.882  1.00  0.00    -0.245 F 
ATOM     50  H   UNL     1     -49.216  29.253  22.047  1.00  0.00     0.069 H 
ENDBRANCH  38  41
ENDBRANCH   6  38
TORSDOF 5
ENDMDL
MODEL 3
REMARK VINA RESULT:     -10.1      1.595      2.195
REMARK SMILES O=C(NCc1ccc2cc(CN3CC(F)C3)[nH]c2c1)c1cc(=O)n2ccccc2n1
REMARK SMILES IDX 5 1 6 2 7 3 8 4 9 5 10 6 17 7 18 8 19 9 4 15 3 18 1 19 2 20
REMARK SMILES IDX 20 22 21 23 30 24 22 25 29 27 23 28 24 29 28 30 25 31 27 32
REMARK SMILES IDX 26 34 11 38 12 41 13 42 16 43 14 44 15 49
REMARK H PARENT 6 10 7 11 9 12 17 13 19 14 4 16 4 17 3 21 21 26 28 33 25 35
REMARK H PARENT 27 36 26 37 11 39 11 40 13 45 13 46 16 47 16 48 14 50
REMARK Flexibility Score: inf
ROOT
ATOM      1  C   UNL     1     -48.044  33.873  26.243  1.00  0.00    -0.027 A 
ATOM      2  C   UNL     1     -46.798  33.903  25.602  1.00  0.00    -0.057 A 
ATOM      3  C   UNL     1     -46.340  32.807  24.860  1.00  0.00    -0.052 A 
ATOM      4  C   UNL     1     -47.150  31.662  24.746  1.00  0.00    -0.000 A 
ATOM      5  C   UNL     1     -47.009  30.409  24.090  1.00  0.00    -0.032 A 
ATOM      6  C   UNL     1     -48.159  29.674  24.310  1.00  0.00     0.030 A 
ATOM      7  N   UNL     1     -48.972  30.436  25.118  1.00  0.00    -0.357 N 
ATOM      8  C   UNL     1     -48.388  31.653  25.382  1.00  0.00     0.046 A 
ATOM      9  C   UNL     1     -48.862  32.735  26.132  1.00  0.00    -0.033 A 
ATOM     10  H   UNL     1     -46.166  34.785  25.675  1.00  0.00     0.063 H 
ATOM     11  H   UNL     1     -45.370  32.844  24.372  1.00  0.00     0.063 H 
ATOM     12  H   UNL     1     -46.156  30.084  23.510  1.00  0.00     0.065 H 
ATOM     13  H   UNL     1     -49.881  30.156  25.460  1.00  0.00     0.166 HD
ATOM     14  H   UNL     1     -49.838  32.704  26.611  1.00  0.00     0.065 H 
ENDROOT
BRANCH   1  15
ATOM     15  C   UNL     1     -48.534  35.071  27.017  1.00  0.00     0.043 C 
ATOM     16  H   UNL     1     -48.881  34.771  28.012  1.00  0.00     0.054 H 
ATOM     17  H   UNL     1     -49.385  35.532  26.502  1.00  0.00     0.054 H 
BRANCH  15  18
ATOM     18  N   UNL     1     -47.474  36.030  27.203  1.00  0.00    -0.347 N 
ATOM     19  O   UNL     1     -46.892  35.389  29.336  1.00  0.00    -0.268 OA
ATOM     20  C   UNL     1     -46.788  36.155  28.385  1.00  0.00     0.270 C 
ATOM     21  H   UNL     1     -47.383  36.802  26.552  1.00  0.00     0.164 HD
BRANCH  20  22
ATOM     22  C   UNL     1     -45.889  37.370  28.400  1.00  0.00     0.136 A 
ATOM     23  C   UNL     1     -45.107  37.518  29.472  1.00  0.00     0.035 A 
ATOM     24  N   UNL     1     -45.933  38.238  27.332  1.00  0.00    -0.225 NA
ATOM     25  C   UNL     1     -44.225  38.689  29.531  1.00  0.00     0.258 A 
ATOM     26  H   UNL     1     -45.084  36.829  30.306  1.00  0.00     0.071 H 
ATOM     27  C   UNL     1     -45.154  39.275  27.393  1.00  0.00     0.140 A 
ATOM     28  O   UNL     1     -43.498  38.831  30.515  1.00  0.00    -0.269 OA
ATOM     29  N   UNL     1     -44.291  39.551  28.448  1.00  0.00    -0.268 N 
ATOM     30  C   UNL     1     -45.171  40.247  26.262  1.00  0.00    -0.019 A 
ATOM     31  C   UNL     1     -43.486  40.686  28.434  1.00  0.00     0.014 A 
ATOM     32  C   UNL     1     -44.378  41.325  26.295  1.00  0.00    -0.057 A 
ATOM     33  H   UNL     1     -45.841  40.042  25.437  1.00  0.00     0.066 H 
ATOM     34  C   UNL     1     -43.506  41.553  27.416  1.00  0.00    -0.045 A 
ATOM     35  H   UNL     1     -42.836  40.839  29.292  1.00  0.00     0.082 H 
ATOM     36  H   UNL     1     -44.378  42.044  25.483  1.00  0.00     0.062 H 
ATOM     37  H   UNL     1     -42.874  42.437  27.417  1.00  0.00     0.064 H 
ENDBRANCH  20  22
ENDBRANCH  15  18
ENDBRANCH   1  15
BRANCH   6  38
ATOM     38  C   UNL     1     -48.542  28.293  23.883  1.00  0.00     0.039 C 
ATOM     39  H   UNL     1     -49.534  28.339  23.416  1.00  0.00     0.050 H 
ATOM     40  H   UNL     1     -47.864  27.974  23.081  1.00  0.00     0.050 H 
BRANCH  38  41
ATOM     41  N   UNL     1     -48.564  27.233  24.892  1.00  0.00    -0.292 NA
ATOM     42  C   UNL     1     -47.283  26.526  25.108  1.00  0.00     0.031 C 
ATOM     43  C   UNL     1     -48.516  27.711  26.290  1.00  0.00     0.031 C 
ATOM     44  C   UNL     1     -47.645  26.471  26.614  1.00  0.00     0.125 C 
ATOM     45  H   UNL     1     -47.213  25.553  24.613  1.00  0.00     0.046 H 
ATOM     46  H   UNL     1     -46.358  27.079  24.922  1.00  0.00     0.046 H 
ATOM     47  H   UNL     1     -49.487  27.738  26.794  1.00  0.00     0.046 H 
ATOM     48  H   UNL     1     -47.997  28.655  26.484  1.00  0.00     0.046 H 
ATOM     49  F   UNL     1     -46.628  26.655  27.489  1.00  0.00    -0.245 F 
ATOM     50  H   UNL     1     -48.245  25.588  26.873  1.00  0.00     0.069 H 
ENDBRANCH  38  41
ENDBRANCH   6  38
TORSDOF 5
ENDMDL
MODEL 4
REMARK VINA RESULT:     -10.0      2.167      2.885
REMARK SMILES O=C(NCc1ccc2cc(CN3CC(F)C3)[nH]c2c1)c1cc(=O)n2ccccc2n1
REMARK SMILES IDX 5 1 6 2 7 3 8 4 9 5 10 6 17 7 18 8 19 9 4 15 3 18 1 19 2 20
REMARK SMILES IDX 20 22 21 23 30 24 22 25 29 27 23 28 24 29 28 30 25 31 27 32
REMARK SMILES IDX 26 34 11 38 12 41 13 42 16 43 14 44 15 49
REMARK H PARENT 6 10 7 11 9 12 17 13 19 14 4 16 4 17 3 21 21 26 28 33 25 35
REMARK H PARENT 27 36 26 37 11 39 11 40 13 45 13 46 16 47 16 48 14 50
REMARK Flexibility Score: inf
ROOT
ATOM      1  C   UNL     1     -48.046  35.475  26.863  1.00  0.00    -0.027 A 
ATOM      2  C   UNL     1     -46.756  35.441  26.316  1.00  0.00    -0.057 A 
ATOM      3  C   UNL     1     -46.285  34.306  25.644  1.00  0.00    -0.052 A 
ATOM      4  C   UNL     1     -47.125  33.185  25.507  1.00  0.00    -0.000 A 
ATOM      5  C   UNL     1     -46.981  31.906  24.903  1.00  0.00    -0.032 A 
ATOM      6  C   UNL     1     -48.170  31.218  25.060  1.00  0.00     0.030 A 
ATOM      7  N   UNL     1     -49.011  32.034  25.782  1.00  0.00    -0.357 N 
ATOM      8  C   UNL     1     -48.405  33.239  26.051  1.00  0.00     0.046 A 
ATOM      9  C   UNL     1     -48.893  34.361  26.729  1.00  0.00    -0.033 A 
ATOM     10  H   UNL     1     -46.100  36.303  26.407  1.00  0.00     0.063 H 
ATOM     11  H   UNL     1     -45.281  34.293  25.228  1.00  0.00     0.063 H 
ATOM     12  H   UNL     1     -46.101  31.534  24.398  1.00  0.00     0.065 H 
ATOM     13  H   UNL     1     -49.952  31.796  26.065  1.00  0.00     0.166 HD
ATOM     14  H   UNL     1     -49.902  34.378  27.135  1.00  0.00     0.065 H 
ENDROOT
BRANCH   1  15
ATOM     15  C   UNL     1     -48.548  36.714  27.561  1.00  0.00     0.043 C 
ATOM     16  H   UNL     1     -49.206  36.446  28.395  1.00  0.00     0.054 H 
ATOM     17  H   UNL     1     -49.135  37.327  26.868  1.00  0.00     0.054 H 
BRANCH  15  18
ATOM     18  N   UNL     1     -47.452  37.474  28.107  1.00  0.00    -0.347 N 
ATOM     19  O   UNL     1     -47.255  38.967  26.366  1.00  0.00    -0.268 OA
ATOM     20  C   UNL     1     -46.847  38.499  27.422  1.00  0.00     0.270 C 
ATOM     21  H   UNL     1     -46.939  37.106  28.900  1.00  0.00     0.164 HD
BRANCH  20  22
ATOM     22  C   UNL     1     -45.591  38.984  28.109  1.00  0.00     0.136 A 
ATOM     23  C   UNL     1     -45.282  38.396  29.266  1.00  0.00     0.035 A 
ATOM     24  N   UNL     1     -44.859  39.988  27.516  1.00  0.00    -0.225 NA
ATOM     25  C   UNL     1     -44.075  38.843  29.972  1.00  0.00     0.258 A 
ATOM     26  H   UNL     1     -45.868  37.609  29.723  1.00  0.00     0.071 H 
ATOM     27  C   UNL     1     -43.796  40.383  28.147  1.00  0.00     0.140 A 
ATOM     28  O   UNL     1     -43.781  38.303  31.038  1.00  0.00    -0.269 OA
ATOM     29  N   UNL     1     -43.358  39.858  29.359  1.00  0.00    -0.268 N 
ATOM     30  C   UNL     1     -42.973  41.473  27.547  1.00  0.00    -0.019 A 
ATOM     31  C   UNL     1     -42.203  40.337  29.969  1.00  0.00     0.014 A 
ATOM     32  C   UNL     1     -41.870  41.901  28.174  1.00  0.00    -0.057 A 
ATOM     33  H   UNL     1     -43.306  41.890  26.605  1.00  0.00     0.066 H 
ATOM     34  C   UNL     1     -41.470  41.315  29.425  1.00  0.00    -0.045 A 
ATOM     35  H   UNL     1     -41.921  39.882  30.915  1.00  0.00     0.082 H 
ATOM     36  H   UNL     1     -41.260  42.693  27.754  1.00  0.00     0.062 H 
ATOM     37  H   UNL     1     -40.571  41.682  29.912  1.00  0.00     0.064 H 
ENDBRANCH  20  22
ENDBRANCH  15  18
ENDBRANCH   1  15
BRANCH   6  38
ATOM     38  C   UNL     1     -48.570  29.837  24.651  1.00  0.00     0.039 C 
ATOM     39  H   UNL     1     -47.838  29.130  25.062  1.00  0.00     0.050 H 
ATOM     40  H   UNL     1     -49.517  29.586  25.146  1.00  0.00     0.050 H 
BRANCH  38  41
ATOM     41  N   UNL     1     -48.727  29.550  23.224  1.00  0.00    -0.292 NA
ATOM     42  C   UNL     1     -49.328  30.631  22.415  1.00  0.00     0.031 C 
ATOM     43  C   UNL     1     -47.484  29.671  22.432  1.00  0.00     0.031 C 
ATOM     44  C   UNL     1     -48.354  30.228  21.277  1.00  0.00     0.125 C 
ATOM     45  H   UNL     1     -50.388  30.491  22.187  1.00  0.00     0.046 H 
ATOM     46  H   UNL     1     -49.176  31.662  22.747  1.00  0.00     0.046 H 
ATOM     47  H   UNL     1     -46.989  28.718  22.217  1.00  0.00     0.046 H 
ATOM     48  H   UNL     1     -46.731  30.385  22.777  1.00  0.00     0.046 H 
ATOM     49  F   UNL     1     -47.822  31.238  20.549  1.00  0.00    -0.245 F 
ATOM     50  H   UNL     1     -48.761  29.438  20.632  1.00  0.00     0.069 H 
ENDBRANCH  38  41
ENDBRANCH   6  38
TORSDOF 5
ENDMDL
MODEL 5
REMARK VINA RESULT:      -9.7      4.154     11.245
REMARK SMILES O=C(NCc1ccc2cc(CN3CC(F)C3)[nH]c2c1)c1cc(=O)n2ccccc2n1
REMARK SMILES IDX 5 1 6 2 7 3 8 4 9 5 10 6 17 7 18 8 19 9 4 15 3 18 1 19 2 20
REMARK SMILES IDX 20 22 21 23 30 24 22 25 29 27 23 28 24 29 28 30 25 31 27 32
REMARK SMILES IDX 26 34 11 38 12 41 13 42 16 43 14 44 15 49
REMARK H PARENT 6 10 7 11 9 12 17 13 19 14 4 16 4 17 3 21 21 26 28 33 25 35
REMARK H PARENT 27 36 26 37 11 39 11 40 13 45 13 46 16 47 16 48 14 50
REMARK Flexibility Score: inf
ROOT
ATOM      1  C   UNL     1     -46.891  33.385  25.268  1.00  0.00    -0.027 A 
ATOM      2  C   UNL     1     -48.235  33.344  25.664  1.00  0.00    -0.057 A 
ATOM      3  C   UNL     1     -48.736  34.238  26.620  1.00  0.00    -0.052 A 
ATOM      4  C   UNL     1     -47.877  35.201  27.181  1.00  0.00    -0.000 A 
ATOM      5  C   UNL     1     -48.041  36.235  28.143  1.00  0.00    -0.032 A 
ATOM      6  C   UNL     1     -46.833  36.892  28.283  1.00  0.00     0.030 A 
ATOM      7  N   UNL     1     -45.934  36.251  27.461  1.00  0.00    -0.357 N 
ATOM      8  C   UNL     1     -46.547  35.233  26.771  1.00  0.00     0.046 A 
ATOM      9  C   UNL     1     -46.027  34.346  25.822  1.00  0.00    -0.033 A 
ATOM     10  H   UNL     1     -48.911  32.610  25.232  1.00  0.00     0.063 H 
ATOM     11  H   UNL     1     -49.779  34.191  26.919  1.00  0.00     0.063 H 
ATOM     12  H   UNL     1     -48.954  36.478  28.670  1.00  0.00     0.065 H 
ATOM     13  H   UNL     1     -44.959  36.500  27.359  1.00  0.00     0.166 HD
ATOM     14  H   UNL     1     -44.985  34.400  25.513  1.00  0.00     0.065 H 
ENDROOT
BRANCH   1  15
ATOM     15  C   UNL     1     -46.373  32.433  24.220  1.00  0.00     0.043 C 
ATOM     16  H   UNL     1     -45.279  32.387  24.249  1.00  0.00     0.054 H 
ATOM     17  H   UNL     1     -46.658  32.780  23.220  1.00  0.00     0.054 H 
BRANCH  15  18
ATOM     18  N   UNL     1     -46.865  31.098  24.453  1.00  0.00    -0.347 N 
ATOM     19  O   UNL     1     -48.264  30.995  22.626  1.00  0.00    -0.268 OA
ATOM     20  C   UNL     1     -47.832  30.518  23.669  1.00  0.00     0.270 C 
ATOM     21  H   UNL     1     -46.693  30.655  25.348  1.00  0.00     0.164 HD
BRANCH  20  22
ATOM     22  C   UNL     1     -48.332  29.215  24.248  1.00  0.00     0.136 A 
ATOM     23  C   UNL     1     -49.656  29.046  24.277  1.00  0.00     0.035 A 
ATOM     24  N   UNL     1     -47.413  28.300  24.710  1.00  0.00    -0.225 NA
ATOM     25  C   UNL     1     -50.185  27.798  24.839  1.00  0.00     0.258 A 
ATOM     26  H   UNL     1     -50.368  29.774  23.912  1.00  0.00     0.071 H 
ATOM     27  C   UNL     1     -47.887  27.200  25.212  1.00  0.00     0.140 A 
ATOM     28  O   UNL     1     -51.405  27.633  24.866  1.00  0.00    -0.269 OA
ATOM     29  N   UNL     1     -49.241  26.896  25.303  1.00  0.00    -0.268 N 
ATOM     30  C   UNL     1     -46.929  26.181  25.730  1.00  0.00    -0.019 A 
ATOM     31  C   UNL     1     -49.667  25.691  25.853  1.00  0.00     0.014 A 
ATOM     32  C   UNL     1     -47.388  25.037  26.252  1.00  0.00    -0.057 A 
ATOM     33  H   UNL     1     -45.873  26.410  25.666  1.00  0.00     0.066 H 
ATOM     34  C   UNL     1     -48.802  24.781  26.316  1.00  0.00    -0.045 A 
ATOM     35  H   UNL     1     -50.740  25.519  25.893  1.00  0.00     0.082 H 
ATOM     36  H   UNL     1     -46.707  24.285  26.635  1.00  0.00     0.062 H 
ATOM     37  H   UNL     1     -49.146  23.845  26.745  1.00  0.00     0.064 H 
ENDBRANCH  20  22
ENDBRANCH  15  18
ENDBRANCH   1  15
BRANCH   6  38
ATOM     38  C   UNL     1     -46.426  38.027  29.166  1.00  0.00     0.039 C 
ATOM     39  H   UNL     1     -47.193  38.156  29.940  1.00  0.00     0.050 H 
ATOM     40  H   UNL     1     -45.517  37.738  29.711  1.00  0.00     0.050 H 
BRANCH  38  41
ATOM     41  N   UNL     1     -46.176  39.333  28.553  1.00  0.00    -0.292 NA
ATOM     42  C   UNL     1     -44.775  39.603  28.167  1.00  0.00     0.031 C 
ATOM     43  C   UNL     1     -46.569  39.431  27.131  1.00  0.00     0.031 C 
ATOM     44  C   UNL     1     -45.332  40.339  26.921  1.00  0.00     0.125 C 
ATOM     45  H   UNL     1     -44.225  40.235  28.869  1.00  0.00     0.046 H 
ATOM     46  H   UNL     1     -44.146  38.749  27.899  1.00  0.00     0.046 H 
ATOM     47  H   UNL     1     -47.534  39.918  26.960  1.00  0.00     0.046 H 
ATOM     48  H   UNL     1     -46.530  38.517  26.532  1.00  0.00     0.046 H 
ATOM     49  F   UNL     1     -44.647  40.175  25.763  1.00  0.00    -0.245 F 
ATOM     50  H   UNL     1     -45.545  41.399  27.115  1.00  0.00     0.069 H 
ENDBRANCH  38  41
ENDBRANCH   6  38
TORSDOF 5
ENDMDL
MODEL 6
REMARK VINA RESULT:      -9.7      2.079      3.001
REMARK SMILES O=C(NCc1ccc2cc(CN3CC(F)C3)[nH]c2c1)c1cc(=O)n2ccccc2n1
REMARK SMILES IDX 5 1 6 2 7 3 8 4 9 5 10 6 17 7 18 8 19 9 4 15 3 18 1 19 2 20
REMARK SMILES IDX 20 22 21 23 30 24 22 25 29 27 23 28 24 29 28 30 25 31 27 32
REMARK SMILES IDX 26 34 11 38 12 41 13 42 16 43 14 44 15 49
REMARK H PARENT 6 10 7 11 9 12 17 13 19 14 4 16 4 17 3 21 21 26 28 33 25 35
REMARK H PARENT 27 36 26 37 11 39 11 40 13 45 13 46 16 47 16 48 14 50
REMARK Flexibility Score: inf
ROOT
ATOM      1  C   UNL     1     -46.349  35.718  27.736  1.00  0.00    -0.027 A 
ATOM      2  C   UNL     1     -47.747  35.751  27.647  1.00  0.00    -0.057 A 
ATOM      3  C   UNL     1     -48.443  34.842  26.840  1.00  0.00    -0.052 A 
ATOM      4  C   UNL     1     -47.726  33.872  26.116  1.00  0.00    -0.000 A 
ATOM      5  C   UNL     1     -48.095  32.823  25.229  1.00  0.00    -0.032 A 
ATOM      6  C   UNL     1     -46.944  32.167  24.834  1.00  0.00     0.030 A 
ATOM      7  N   UNL     1     -45.888  32.820  25.426  1.00  0.00    -0.357 N 
ATOM      8  C   UNL     1     -46.338  33.848  26.221  1.00  0.00     0.046 A 
ATOM      9  C   UNL     1     -45.624  34.750  27.018  1.00  0.00    -0.033 A 
ATOM     10  H   UNL     1     -48.314  36.491  28.208  1.00  0.00     0.063 H 
ATOM     11  H   UNL     1     -49.527  34.883  26.778  1.00  0.00     0.063 H 
ATOM     12  H   UNL     1     -49.100  32.572  24.921  1.00  0.00     0.065 H 
ATOM     13  H   UNL     1     -44.914  32.575  25.313  1.00  0.00     0.166 HD
ATOM     14  H   UNL     1     -44.540  34.702  27.089  1.00  0.00     0.065 H 
ENDROOT
BRANCH   1  15
ATOM     15  C   UNL     1     -45.616  36.686  28.629  1.00  0.00     0.043 C 
ATOM     16  H   UNL     1     -44.684  36.243  28.995  1.00  0.00     0.054 H 
ATOM     17  H   UNL     1     -46.227  36.928  29.507  1.00  0.00     0.054 H 
BRANCH  15  18
ATOM     18  N   UNL     1     -45.267  37.885  27.909  1.00  0.00    -0.347 N 
ATOM     19  O   UNL     1     -44.174  38.941  29.638  1.00  0.00    -0.268 OA
ATOM     20  C   UNL     1     -44.635  38.949  28.503  1.00  0.00     0.270 C 
ATOM     21  H   UNL     1     -45.706  38.072  27.014  1.00  0.00     0.164 HD
BRANCH  20  22
ATOM     22  C   UNL     1     -44.582  40.160  27.600  1.00  0.00     0.136 A 
ATOM     23  C   UNL     1     -45.743  40.562  27.077  1.00  0.00     0.035 A 
ATOM     24  N   UNL     1     -43.366  40.761  27.370  1.00  0.00    -0.225 NA
ATOM     25  C   UNL     1     -45.737  41.729  26.187  1.00  0.00     0.258 A 
ATOM     26  H   UNL     1     -46.693  40.079  27.264  1.00  0.00     0.071 H 
ATOM     27  C   UNL     1     -43.365  41.790  26.578  1.00  0.00     0.140 A 
ATOM     28  O   UNL     1     -46.803  42.108  25.703  1.00  0.00    -0.269 OA
ATOM     29  N   UNL     1     -44.499  42.314  25.966  1.00  0.00    -0.268 N 
ATOM     30  C   UNL     1     -42.069  42.472  26.294  1.00  0.00    -0.019 A 
ATOM     31  C   UNL     1     -44.413  43.423  25.131  1.00  0.00     0.014 A 
ATOM     32  C   UNL     1     -42.037  43.536  25.482  1.00  0.00    -0.057 A 
ATOM     33  H   UNL     1     -41.180  42.071  26.764  1.00  0.00     0.066 H 
ATOM     34  C   UNL     1     -43.247  44.029  24.881  1.00  0.00    -0.045 A 
ATOM     35  H   UNL     1     -45.339  43.778  24.686  1.00  0.00     0.082 H 
ATOM     36  H   UNL     1     -41.104  44.043  25.263  1.00  0.00     0.062 H 
ATOM     37  H   UNL     1     -43.191  44.894  24.226  1.00  0.00     0.064 H 
ENDBRANCH  20  22
ENDBRANCH  15  18
ENDBRANCH   1  15
BRANCH   6  38
ATOM     38  C   UNL     1     -46.737  31.018  23.899  1.00  0.00     0.039 C 
ATOM     39  H   UNL     1     -46.922  31.369  22.876  1.00  0.00     0.050 H 
ATOM     40  H   UNL     1     -45.676  30.740  23.917  1.00  0.00     0.050 H 
BRANCH  38  41
ATOM     41  N   UNL     1     -47.518  29.798  24.109  1.00  0.00    -0.292 NA
ATOM     42  C   UNL     1     -48.790  29.714  23.361  1.00  0.00     0.031 C 
ATOM     43  C   UNL     1     -47.024  28.617  23.370  1.00  0.00     0.031 C 
ATOM     44  C   UNL     1     -48.505  28.201  23.180  1.00  0.00     0.125 C 
ATOM     45  H   UNL     1     -49.680  29.949  23.952  1.00  0.00     0.046 H 
ATOM     46  H   UNL     1     -48.856  30.242  22.405  1.00  0.00     0.046 H 
ATOM     47  H   UNL     1     -46.424  27.925  23.969  1.00  0.00     0.046 H 
ATOM     48  H   UNL     1     -46.510  28.793  22.421  1.00  0.00     0.046 H 
ATOM     49  F   UNL     1     -48.835  27.660  21.983  1.00  0.00    -0.245 F 
ATOM     50  H   UNL     1     -48.886  27.595  24.014  1.00  0.00     0.069 H 
ENDBRANCH  38  41
ENDBRANCH   6  38
TORSDOF 5
ENDMDL
MODEL 7
REMARK VINA RESULT:      -9.4      2.715      4.578
REMARK SMILES O=C(NCc1ccc2cc(CN3CC(F)C3)[nH]c2c1)c1cc(=O)n2ccccc2n1
REMARK SMILES IDX 5 1 6 2 7 3 8 4 9 5 10 6 17 7 18 8 19 9 4 15 3 18 1 19 2 20
REMARK SMILES IDX 20 22 21 23 30 24 22 25 29 27 23 28 24 29 28 30 25 31 27 32
REMARK SMILES IDX 26 34 11 38 12 41 13 42 16 43 14 44 15 49
REMARK H PARENT 6 10 7 11 9 12 17 13 19 14 4 16 4 17 3 21 21 26 28 33 25 35
REMARK H PARENT 27 36 26 37 11 39 11 40 13 45 13 46 16 47 16 48 14 50
REMARK Flexibility Score: inf
ROOT
ATOM      1  C   UNL     1     -45.716  37.669  28.276  1.00  0.00    -0.027 A 
ATOM      2  C   UNL     1     -47.020  38.002  27.885  1.00  0.00    -0.057 A 
ATOM      3  C   UNL     1     -47.858  37.056  27.280  1.00  0.00    -0.052 A 
ATOM      4  C   UNL     1     -47.386  35.747  27.073  1.00  0.00    -0.000 A 
ATOM      5  C   UNL     1     -47.946  34.569  26.509  1.00  0.00    -0.032 A 
ATOM      6  C   UNL     1     -47.007  33.558  26.598  1.00  0.00     0.030 A 
ATOM      7  N   UNL     1     -45.880  34.109  27.163  1.00  0.00    -0.357 N 
ATOM      8  C   UNL     1     -46.091  35.432  27.474  1.00  0.00     0.046 A 
ATOM      9  C   UNL     1     -45.237  36.363  28.076  1.00  0.00    -0.033 A 
ATOM     10  H   UNL     1     -47.400  39.008  28.047  1.00  0.00     0.063 H 
ATOM     11  H   UNL     1     -48.865  37.331  26.978  1.00  0.00     0.063 H 
ATOM     12  H   UNL     1     -48.938  34.471  26.089  1.00  0.00     0.065 H 
ATOM     13  H   UNL     1     -45.017  33.613  27.345  1.00  0.00     0.166 HD
ATOM     14  H   UNL     1     -44.233  36.086  28.389  1.00  0.00     0.065 H 
ENDROOT
BRANCH   1  15
ATOM     15  C   UNL     1     -44.836  38.691  28.950  1.00  0.00     0.043 C 
ATOM     16  H   UNL     1     -43.899  38.232  29.283  1.00  0.00     0.054 H 
ATOM     17  H   UNL     1     -45.335  39.093  29.840  1.00  0.00     0.054 H 
BRANCH  15  18
ATOM     18  N   UNL     1     -44.494  39.753  28.038  1.00  0.00    -0.347 N 
ATOM     19  O   UNL     1     -42.701  40.573  29.227  1.00  0.00    -0.268 OA
ATOM     20  C   UNL     1     -43.492  40.656  28.295  1.00  0.00     0.270 C 
ATOM     21  H   UNL     1     -45.149  40.012  27.309  1.00  0.00     0.164 HD
BRANCH  20  22
ATOM     22  C   UNL     1     -43.479  41.795  27.302  1.00  0.00     0.136 A 
ATOM     23  C   UNL     1     -42.305  42.071  26.729  1.00  0.00     0.035 A 
ATOM     24  N   UNL     1     -44.652  42.472  27.056  1.00  0.00    -0.225 NA
ATOM     25  C   UNL     1     -42.245  43.176  25.765  1.00  0.00     0.258 A 
ATOM     26  H   UNL     1     -41.389  41.532  26.933  1.00  0.00     0.071 H 
ATOM     27  C   UNL     1     -44.592  43.452  26.206  1.00  0.00     0.140 A 
ATOM     28  O   UNL     1     -41.168  43.434  25.229  1.00  0.00    -0.269 OA
ATOM     29  N   UNL     1     -43.438  43.846  25.538  1.00  0.00    -0.268 N 
ATOM     30  C   UNL     1     -45.837  44.219  25.912  1.00  0.00    -0.019 A 
ATOM     31  C   UNL     1     -43.459  44.907  24.639  1.00  0.00     0.014 A 
ATOM     32  C   UNL     1     -45.807  45.233  25.039  1.00  0.00    -0.057 A 
ATOM     33  H   UNL     1     -46.741  43.922  26.429  1.00  0.00     0.066 H 
ATOM     34  C   UNL     1     -44.580  45.590  24.380  1.00  0.00    -0.045 A 
ATOM     35  H   UNL     1     -42.520  45.160  24.154  1.00  0.00     0.082 H 
ATOM     36  H   UNL     1     -46.701  45.804  24.814  1.00  0.00     0.062 H 
ATOM     37  H   UNL     1     -44.584  46.418  23.677  1.00  0.00     0.064 H 
ENDBRANCH  20  22
ENDBRANCH  15  18
ENDBRANCH   1  15
BRANCH   6  38
ATOM     38  C   UNL     1     -47.047  32.134  26.144  1.00  0.00     0.039 C 
ATOM     39  H   UNL     1     -46.039  31.848  25.817  1.00  0.00     0.050 H 
ATOM     40  H   UNL     1     -47.256  31.496  27.013  1.00  0.00     0.050 H 
BRANCH  38  41
ATOM     41  N   UNL     1     -47.990  31.765  25.087  1.00  0.00    -0.292 NA
ATOM     42  C   UNL     1     -47.388  31.211  23.856  1.00  0.00     0.031 C 
ATOM     43  C   UNL     1     -48.686  30.478  25.305  1.00  0.00     0.031 C 
ATOM     44  C   UNL     1     -48.603  30.252  23.774  1.00  0.00     0.125 C 
ATOM     45  H   UNL     1     -47.307  31.925  23.031  1.00  0.00     0.046 H 
ATOM     46  H   UNL     1     -46.439  30.675  23.948  1.00  0.00     0.046 H 
ATOM     47  H   UNL     1     -49.701  30.574  25.704  1.00  0.00     0.046 H 
ATOM     48  H   UNL     1     -48.159  29.709  25.876  1.00  0.00     0.046 H 
ATOM     49  F   UNL     1     -48.350  28.987  23.361  1.00  0.00    -0.245 F 
ATOM     50  H   UNL     1     -49.454  30.690  23.234  1.00  0.00     0.069 H 
ENDBRANCH  38  41
ENDBRANCH   6  38
TORSDOF 5
ENDMDL
