MODEL 1
REMARK VINA RESULT:     -11.0      0.000      0.000
REMARK SMILES Cn1ccc(-c2cn(-c3cncc(CCc4ccc5ccc(N6CCC6)nc5c4)c3)c3ncnc(N)c23)n1
REMARK SMILES IDX 9 1 10 2 11 3 12 4 13 5 30 6 8 10 6 11 7 12 37 13 31 15
REMARK SMILES IDX 35 16 32 17 34 18 33 19 5 21 2 22 3 23 38 24 4 25 1 28 36 32
REMARK SMILES IDX 14 35 15 38 16 41 17 42 29 43 18 44 28 46 19 48 27 50 20 51
REMARK SMILES IDX 22 52 21 53 23 56 24 57 26 58 25 59
REMARK H PARENT 10 7 12 8 30 9 7 14 33 20 3 26 4 27 1 29 1 30 1 31 36 33 36 34
REMARK H PARENT 14 36 14 37 15 39 15 40 17 45 29 47 18 49 20 54 21 55 24 60
REMARK H PARENT 24 61 26 62 26 63 25 64 25 65
REMARK Flexibility Score: inf
ROOT
ATOM      1  C   UNL     1     -45.782  38.225  27.887  1.00  0.00     0.066 A 
ATOM      2  C   UNL     1     -45.995  37.805  29.197  1.00  0.00     0.051 A 
ATOM      3  N   UNL     1     -46.588  36.635  29.544  1.00  0.00    -0.262 NA
ATOM      4  C   UNL     1     -47.001  35.837  28.537  1.00  0.00     0.030 A 
ATOM      5  C   UNL     1     -46.835  36.144  27.195  1.00  0.00    -0.027 A 
ATOM      6  C   UNL     1     -46.205  37.356  26.878  1.00  0.00    -0.032 A 
ATOM      7  H   UNL     1     -45.721  38.399  30.062  1.00  0.00     0.086 H 
ATOM      8  H   UNL     1     -47.485  34.918  28.853  1.00  0.00     0.084 H 
ATOM      9  H   UNL     1     -46.067  37.588  25.828  1.00  0.00     0.065 H 
ENDROOT
BRANCH   1  10
ATOM     10  N   UNL     1     -45.177  39.493  27.603  1.00  0.00    -0.299 N 
ATOM     11  C   UNL     1     -44.741  41.456  26.570  1.00  0.00     0.033 A 
ATOM     12  C   UNL     1     -45.547  40.335  26.568  1.00  0.00     0.021 A 
ATOM     13  C   UNL     1     -43.840  41.332  27.663  1.00  0.00     0.071 A 
ATOM     14  H   UNL     1     -46.355  40.087  25.896  1.00  0.00     0.083 H 
ATOM     15  C   UNL     1     -44.120  40.110  28.277  1.00  0.00     0.150 A 
ATOM     16  C   UNL     1     -42.805  42.097  28.232  1.00  0.00     0.137 A 
ATOM     17  N   UNL     1     -43.452  39.611  29.336  1.00  0.00    -0.218 NA
ATOM     18  N   UNL     1     -42.117  41.606  29.279  1.00  0.00    -0.219 NA
ATOM     19  C   UNL     1     -42.473  40.410  29.770  1.00  0.00     0.120 A 
ATOM     20  H   UNL     1     -41.902  40.051  30.622  1.00  0.00     0.106 H 
BRANCH  11  21
ATOM     21  C   UNL     1     -44.804  42.560  25.608  1.00  0.00     0.095 A 
ATOM     22  N   UNL     1     -45.255  44.420  24.705  1.00  0.00    -0.275 N 
ATOM     23  C   UNL     1     -44.454  43.789  23.800  1.00  0.00     0.025 A 
ATOM     24  N   UNL     1     -45.477  43.700  25.821  1.00  0.00    -0.173 NA
ATOM     25  C   UNL     1     -44.139  42.572  24.360  1.00  0.00    -0.016 A 
ATOM     26  H   UNL     1     -44.184  44.241  22.856  1.00  0.00     0.084 H 
ATOM     27  H   UNL     1     -43.524  41.801  23.920  1.00  0.00     0.066 H 
BRANCH  22  28
ATOM     28  C   UNL     1     -45.851  45.727  24.574  1.00  0.00     0.030 C 
ATOM     29  H   UNL     1     -45.067  46.436  24.298  1.00  0.00     0.048 H 
ATOM     30  H   UNL     1     -46.302  46.019  25.527  1.00  0.00     0.048 H 
ATOM     31  H   UNL     1     -46.619  45.679  23.798  1.00  0.00     0.048 H 
ENDBRANCH  22  28
ENDBRANCH  11  21
BRANCH  16  32
ATOM     32  N   UNL     1     -42.425  43.352  27.778  1.00  0.00    -0.383 N 
ATOM     33  H   UNL     1     -42.369  43.399  26.756  1.00  0.00     0.158 HD
ATOM     34  H   UNL     1     -41.633  43.706  28.296  1.00  0.00     0.158 HD
ENDBRANCH  16  32
ENDBRANCH   1  10
BRANCH   5  35
ATOM     35  C   UNL     1     -47.356  35.240  26.107  1.00  0.00    -0.022 C 
ATOM     36  H   UNL     1     -46.535  35.005  25.419  1.00  0.00     0.032 H 
ATOM     37  H   UNL     1     -48.098  35.782  25.507  1.00  0.00     0.032 H 
BRANCH  35  38
ATOM     38  C   UNL     1     -47.951  33.926  26.640  1.00  0.00    -0.024 C 
ATOM     39  H   UNL     1     -49.030  34.044  26.802  1.00  0.00     0.032 H 
ATOM     40  H   UNL     1     -47.521  33.712  27.627  1.00  0.00     0.032 H 
BRANCH  38  41
ATOM     41  C   UNL     1     -47.696  32.735  25.746  1.00  0.00    -0.046 A 
ATOM     42  C   UNL     1     -46.751  32.807  24.720  1.00  0.00    -0.058 A 
ATOM     43  C   UNL     1     -48.367  31.519  25.964  1.00  0.00    -0.032 A 
ATOM     44  C   UNL     1     -46.477  31.684  23.941  1.00  0.00    -0.053 A 
ATOM     45  H   UNL     1     -46.203  33.729  24.534  1.00  0.00     0.063 H 
ATOM     46  C   UNL     1     -48.107  30.383  25.208  1.00  0.00     0.073 A 
ATOM     47  H   UNL     1     -49.102  31.443  26.763  1.00  0.00     0.065 H 
ATOM     48  C   UNL     1     -47.148  30.473  24.184  1.00  0.00     0.000 A 
ATOM     49  H   UNL     1     -45.729  31.753  23.156  1.00  0.00     0.063 H 
ATOM     50  N   UNL     1     -48.765  29.243  25.482  1.00  0.00    -0.231 NA
ATOM     51  C   UNL     1     -46.884  29.324  23.436  1.00  0.00    -0.049 A 
ATOM     52  C   UNL     1     -48.509  28.136  24.747  1.00  0.00     0.129 A 
ATOM     53  C   UNL     1     -47.569  28.147  23.723  1.00  0.00    -0.019 A 
ATOM     54  H   UNL     1     -46.144  29.332  22.641  1.00  0.00     0.063 H 
ATOM     55  H   UNL     1     -47.352  27.246  23.158  1.00  0.00     0.066 H 
BRANCH  52  56
ATOM     56  N   UNL     1     -49.185  26.944  25.068  1.00  0.00    -0.356 N 
ATOM     57  C   UNL     1     -50.508  26.829  25.607  1.00  0.00     0.021 C 
ATOM     58  C   UNL     1     -48.667  25.933  25.945  1.00  0.00     0.021 C 
ATOM     59  C   UNL     1     -50.106  25.421  26.059  1.00  0.00    -0.018 C 
ATOM     60  H   UNL     1     -50.703  27.539  26.419  1.00  0.00     0.049 H 
ATOM     61  H   UNL     1     -51.295  26.879  24.851  1.00  0.00     0.049 H 
ATOM     62  H   UNL     1     -47.957  25.259  25.462  1.00  0.00     0.049 H 
ATOM     63  H   UNL     1     -48.248  26.341  26.872  1.00  0.00     0.049 H 
ATOM     64  H   UNL     1     -50.432  25.132  27.061  1.00  0.00     0.030 H 
ATOM     65  H   UNL     1     -50.362  24.628  25.347  1.00  0.00     0.030 H 
ENDBRANCH  52  56
ENDBRANCH  38  41
ENDBRANCH  35  38
ENDBRANCH   5  35
TORSDOF 8
ENDMDL
MODEL 2
REMARK VINA RESULT:     -11.0      1.846     12.664
REMARK SMILES Cn1ccc(-c2cn(-c3cncc(CCc4ccc5ccc(N6CCC6)nc5c4)c3)c3ncnc(N)c23)n1
REMARK SMILES IDX 9 1 10 2 11 3 12 4 13 5 30 6 8 10 6 11 7 12 37 13 31 15
REMARK SMILES IDX 35 16 32 17 34 18 33 19 5 21 2 22 3 23 38 24 4 25 1 28 36 32
REMARK SMILES IDX 14 35 15 38 16 41 17 42 29 43 18 44 28 46 19 48 27 50 20 51
REMARK SMILES IDX 22 52 21 53 23 56 24 57 26 58 25 59
REMARK H PARENT 10 7 12 8 30 9 7 14 33 20 3 26 4 27 1 29 1 30 1 31 36 33 36 34
REMARK H PARENT 14 36 14 37 15 39 15 40 17 45 29 47 18 49 20 54 21 55 24 60
REMARK H PARENT 24 61 26 62 26 63 25 64 25 65
REMARK Flexibility Score: inf
ROOT
ATOM      1  C   UNL     1     -48.246  33.297  25.996  1.00  0.00     0.066 A 
ATOM      2  C   UNL     1     -49.493  33.771  26.396  1.00  0.00     0.051 A 
ATOM      3  N   UNL     1     -49.706  34.974  26.987  1.00  0.00    -0.262 NA
ATOM      4  C   UNL     1     -48.623  35.751  27.198  1.00  0.00     0.030 A 
ATOM      5  C   UNL     1     -47.334  35.391  26.834  1.00  0.00    -0.027 A 
ATOM      6  C   UNL     1     -47.158  34.145  26.215  1.00  0.00    -0.032 A 
ATOM      7  H   UNL     1     -50.407  33.198  26.291  1.00  0.00     0.086 H 
ATOM      8  H   UNL     1     -48.830  36.699  27.686  1.00  0.00     0.084 H 
ATOM      9  H   UNL     1     -46.151  33.870  25.921  1.00  0.00     0.065 H 
ENDROOT
BRANCH   1  10
ATOM     10  N   UNL     1     -48.100  31.997  25.409  1.00  0.00    -0.299 N 
ATOM     11  C   UNL     1     -48.357  29.777  25.072  1.00  0.00     0.033 A 
ATOM     12  C   UNL     1     -48.746  30.852  25.845  1.00  0.00     0.021 A 
ATOM     13  C   UNL     1     -47.446  30.262  24.093  1.00  0.00     0.071 A 
ATOM     14  H   UNL     1     -49.437  30.872  26.674  1.00  0.00     0.083 H 
ATOM     15  C   UNL     1     -47.296  31.629  24.327  1.00  0.00     0.150 A 
ATOM     16  C   UNL     1     -46.714  29.725  23.017  1.00  0.00     0.137 A 
ATOM     17  N   UNL     1     -46.482  32.444  23.627  1.00  0.00    -0.218 NA
ATOM     18  N   UNL     1     -45.885  30.522  22.318  1.00  0.00    -0.219 NA
ATOM     19  C   UNL     1     -45.817  31.819  22.653  1.00  0.00     0.120 A 
ATOM     20  H   UNL     1     -45.145  32.433  22.059  1.00  0.00     0.106 H 
BRANCH  11  21
ATOM     21  C   UNL     1     -48.798  28.389  25.247  1.00  0.00     0.095 A 
ATOM     22  N   UNL     1     -48.887  26.370  25.870  1.00  0.00    -0.275 N 
ATOM     23  C   UNL     1     -50.016  26.545  25.128  1.00  0.00     0.025 A 
ATOM     24  N   UNL     1     -48.130  27.479  25.969  1.00  0.00    -0.173 NA
ATOM     25  C   UNL     1     -49.990  27.855  24.708  1.00  0.00    -0.016 A 
ATOM     26  H   UNL     1     -50.725  25.747  24.960  1.00  0.00     0.084 H 
ATOM     27  H   UNL     1     -50.727  28.348  24.091  1.00  0.00     0.066 H 
BRANCH  22  28
ATOM     28  C   UNL     1     -48.458  25.158  26.526  1.00  0.00     0.030 C 
ATOM     29  H   UNL     1     -48.834  24.306  25.954  1.00  0.00     0.048 H 
ATOM     30  H   UNL     1     -48.859  25.132  27.542  1.00  0.00     0.048 H 
ATOM     31  H   UNL     1     -47.366  25.150  26.556  1.00  0.00     0.048 H 
ENDBRANCH  22  28
ENDBRANCH  11  21
BRANCH  16  32
ATOM     32  N   UNL     1     -46.779  28.398  22.616  1.00  0.00    -0.383 N 
ATOM     33  H   UNL     1     -46.882  27.755  23.406  1.00  0.00     0.158 HD
ATOM     34  H   UNL     1     -46.059  28.183  21.942  1.00  0.00     0.158 HD
ENDBRANCH  16  32
ENDBRANCH   1  10
BRANCH   5  35
ATOM     35  C   UNL     1     -46.152  36.275  27.135  1.00  0.00    -0.022 C 
ATOM     36  H   UNL     1     -46.141  37.107  26.420  1.00  0.00     0.032 H 
ATOM     37  H   UNL     1     -45.224  35.717  26.952  1.00  0.00     0.032 H 
BRANCH  35  38
ATOM     38  C   UNL     1     -46.165  36.845  28.563  1.00  0.00    -0.024 C 
ATOM     39  H   UNL     1     -45.932  36.050  29.283  1.00  0.00     0.032 H 
ATOM     40  H   UNL     1     -47.181  37.181  28.805  1.00  0.00     0.032 H 
BRANCH  38  41
ATOM     41  C   UNL     1     -45.222  38.008  28.763  1.00  0.00    -0.046 A 
ATOM     42  C   UNL     1     -44.421  38.084  29.904  1.00  0.00    -0.058 A 
ATOM     43  C   UNL     1     -45.096  39.005  27.780  1.00  0.00    -0.032 A 
ATOM     44  C   UNL     1     -43.508  39.127  30.050  1.00  0.00    -0.053 A 
ATOM     45  H   UNL     1     -44.483  37.321  30.678  1.00  0.00     0.063 H 
ATOM     46  C   UNL     1     -44.188  40.051  27.897  1.00  0.00     0.073 A 
ATOM     47  H   UNL     1     -45.707  38.959  26.881  1.00  0.00     0.065 H 
ATOM     48  C   UNL     1     -43.386  40.107  29.050  1.00  0.00     0.000 A 
ATOM     49  H   UNL     1     -42.882  39.164  30.939  1.00  0.00     0.063 H 
ATOM     50  N   UNL     1     -44.099  40.960  26.910  1.00  0.00    -0.231 NA
ATOM     51  C   UNL     1     -42.468  41.154  29.154  1.00  0.00    -0.049 A 
ATOM     52  C   UNL     1     -43.213  41.976  27.023  1.00  0.00     0.129 A 
ATOM     53  C   UNL     1     -42.380  42.093  28.132  1.00  0.00    -0.019 A 
ATOM     54  H   UNL     1     -41.815  41.240  30.017  1.00  0.00     0.063 H 
ATOM     55  H   UNL     1     -41.655  42.896  28.199  1.00  0.00     0.066 H 
BRANCH  52  56
ATOM     56  N   UNL     1     -43.110  42.901  25.968  1.00  0.00    -0.356 N 
ATOM     57  C   UNL     1     -43.749  42.811  24.687  1.00  0.00     0.021 C 
ATOM     58  C   UNL     1     -41.869  43.337  25.394  1.00  0.00     0.021 C 
ATOM     59  C   UNL     1     -42.694  43.806  24.191  1.00  0.00    -0.018 C 
ATOM     60  H   UNL     1     -43.685  41.810  24.246  1.00  0.00     0.049 H 
ATOM     61  H   UNL     1     -44.780  43.172  24.686  1.00  0.00     0.049 H 
ATOM     62  H   UNL     1     -41.375  44.123  25.970  1.00  0.00     0.049 H 
ATOM     63  H   UNL     1     -41.178  42.513  25.185  1.00  0.00     0.049 H 
ATOM     64  H   UNL     1     -42.266  43.595  23.208  1.00  0.00     0.030 H 
ATOM     65  H   UNL     1     -43.005  44.856  24.237  1.00  0.00     0.030 H 
ENDBRANCH  52  56
ENDBRANCH  38  41
ENDBRANCH  35  38
ENDBRANCH   5  35
TORSDOF 8
ENDMDL
MODEL 3
REMARK VINA RESULT:     -10.9      1.989     12.949
REMARK SMILES Cn1ccc(-c2cn(-c3cncc(CCc4ccc5ccc(N6CCC6)nc5c4)c3)c3ncnc(N)c23)n1
REMARK SMILES IDX 9 1 10 2 11 3 12 4 13 5 30 6 8 10 6 11 7 12 37 13 31 15
REMARK SMILES IDX 35 16 32 17 34 18 33 19 5 21 2 22 3 23 38 24 4 25 1 28 36 32
REMARK SMILES IDX 14 35 15 38 16 41 17 42 29 43 18 44 28 46 19 48 27 50 20 51
REMARK SMILES IDX 22 52 21 53 23 56 24 57 26 58 25 59
REMARK H PARENT 10 7 12 8 30 9 7 14 33 20 3 26 4 27 1 29 1 30 1 31 36 33 36 34
REMARK H PARENT 14 36 14 37 15 39 15 40 17 45 29 47 18 49 20 54 21 55 24 60
REMARK H PARENT 24 61 26 62 26 63 25 64 25 65
REMARK Flexibility Score: inf
ROOT
ATOM      1  C   UNL     1     -47.785  32.125  25.177  1.00  0.00     0.066 A 
ATOM      2  C   UNL     1     -46.584  32.631  24.687  1.00  0.00     0.051 A 
ATOM      3  N   UNL     1     -46.063  33.838  25.023  1.00  0.00    -0.262 NA
ATOM      4  C   UNL     1     -46.772  34.589  25.891  1.00  0.00     0.030 A 
ATOM      5  C   UNL     1     -47.975  34.187  26.453  1.00  0.00    -0.027 A 
ATOM      6  C   UNL     1     -48.473  32.928  26.089  1.00  0.00    -0.032 A 
ATOM      7  H   UNL     1     -45.969  32.105  23.965  1.00  0.00     0.086 H 
ATOM      8  H   UNL     1     -46.332  35.555  26.124  1.00  0.00     0.084 H 
ATOM      9  H   UNL     1     -49.407  32.611  26.539  1.00  0.00     0.065 H 
ENDROOT
BRANCH   1  10
ATOM     10  N   UNL     1     -48.285  30.852  24.745  1.00  0.00    -0.299 N 
ATOM     11  C   UNL     1     -49.147  28.765  24.840  1.00  0.00     0.033 A 
ATOM     12  C   UNL     1     -48.775  29.866  25.585  1.00  0.00     0.021 A 
ATOM     13  C   UNL     1     -48.905  29.072  23.472  1.00  0.00     0.071 A 
ATOM     14  H   UNL     1     -48.828  30.006  26.654  1.00  0.00     0.083 H 
ATOM     15  C   UNL     1     -48.364  30.358  23.440  1.00  0.00     0.150 A 
ATOM     16  C   UNL     1     -49.071  28.431  22.231  1.00  0.00     0.137 A 
ATOM     17  N   UNL     1     -47.965  30.997  22.323  1.00  0.00    -0.218 NA
ATOM     18  N   UNL     1     -48.663  29.048  21.107  1.00  0.00    -0.219 NA
ATOM     19  C   UNL     1     -48.144  30.279  21.210  1.00  0.00     0.120 A 
ATOM     20  H   UNL     1     -47.836  30.750  20.280  1.00  0.00     0.106 H 
BRANCH  11  21
ATOM     21  C   UNL     1     -49.680  27.507  25.374  1.00  0.00     0.095 A 
ATOM     22  N   UNL     1     -50.993  26.067  26.195  1.00  0.00    -0.275 N 
ATOM     23  C   UNL     1     -49.829  25.387  25.992  1.00  0.00     0.025 A 
ATOM     24  N   UNL     1     -50.935  27.358  25.819  1.00  0.00    -0.173 NA
ATOM     25  C   UNL     1     -48.950  26.299  25.452  1.00  0.00    -0.016 A 
ATOM     26  H   UNL     1     -49.720  24.341  26.242  1.00  0.00     0.084 H 
ATOM     27  H   UNL     1     -47.925  26.114  25.167  1.00  0.00     0.066 H 
BRANCH  22  28
ATOM     28  C   UNL     1     -52.217  25.544  26.751  1.00  0.00     0.030 C 
ATOM     29  H   UNL     1     -52.935  26.363  26.835  1.00  0.00     0.048 H 
ATOM     30  H   UNL     1     -52.017  25.120  27.739  1.00  0.00     0.048 H 
ATOM     31  H   UNL     1     -52.595  24.767  26.082  1.00  0.00     0.048 H 
ENDBRANCH  22  28
ENDBRANCH  11  21
BRANCH  16  32
ATOM     32  N   UNL     1     -49.634  27.172  22.075  1.00  0.00    -0.383 N 
ATOM     33  H   UNL     1     -50.291  26.940  22.825  1.00  0.00     0.158 HD
ATOM     34  H   UNL     1     -48.931  26.481  21.853  1.00  0.00     0.158 HD
ENDBRANCH  16  32
ENDBRANCH   1  10
BRANCH   5  35
ATOM     35  C   UNL     1     -48.752  35.084  27.381  1.00  0.00    -0.022 C 
ATOM     36  H   UNL     1     -48.480  34.843  28.416  1.00  0.00     0.032 H 
ATOM     37  H   UNL     1     -49.822  34.856  27.297  1.00  0.00     0.032 H 
BRANCH  35  38
ATOM     38  C   UNL     1     -48.500  36.581  27.135  1.00  0.00    -0.024 C 
ATOM     39  H   UNL     1     -49.415  37.151  27.340  1.00  0.00     0.032 H 
ATOM     40  H   UNL     1     -48.280  36.738  26.072  1.00  0.00     0.032 H 
BRANCH  38  41
ATOM     41  C   UNL     1     -47.354  37.146  27.943  1.00  0.00    -0.046 A 
ATOM     42  C   UNL     1     -46.975  36.552  29.148  1.00  0.00    -0.058 A 
ATOM     43  C   UNL     1     -46.619  38.246  27.468  1.00  0.00    -0.032 A 
ATOM     44  C   UNL     1     -45.877  37.042  29.854  1.00  0.00    -0.053 A 
ATOM     45  H   UNL     1     -47.514  35.690  29.536  1.00  0.00     0.063 H 
ATOM     46  C   UNL     1     -45.516  38.748  28.148  1.00  0.00     0.073 A 
ATOM     47  H   UNL     1     -46.896  38.718  26.527  1.00  0.00     0.065 H 
ATOM     48  C   UNL     1     -45.145  38.133  29.356  1.00  0.00     0.000 A 
ATOM     49  H   UNL     1     -45.586  36.559  30.784  1.00  0.00     0.063 H 
ATOM     50  N   UNL     1     -44.838  39.788  27.629  1.00  0.00    -0.231 NA
ATOM     51  C   UNL     1     -44.028  38.636  30.027  1.00  0.00    -0.049 A 
ATOM     52  C   UNL     1     -43.763  40.275  28.290  1.00  0.00     0.129 A 
ATOM     53  C   UNL     1     -43.332  39.713  29.487  1.00  0.00    -0.019 A 
ATOM     54  H   UNL     1     -43.689  38.192  30.958  1.00  0.00     0.063 H 
ATOM     55  H   UNL     1     -42.452  40.094  29.994  1.00  0.00     0.066 H 
BRANCH  52  56
ATOM     56  N   UNL     1     -43.047  41.343  27.718  1.00  0.00    -0.356 N 
ATOM     57  C   UNL     1     -42.809  42.627  28.310  1.00  0.00     0.021 C 
ATOM     58  C   UNL     1     -43.339  41.914  26.434  1.00  0.00     0.021 C 
ATOM     59  C   UNL     1     -42.526  43.130  26.891  1.00  0.00    -0.018 C 
ATOM     60  H   UNL     1     -43.701  43.052  28.784  1.00  0.00     0.049 H 
ATOM     61  H   UNL     1     -41.960  42.641  28.997  1.00  0.00     0.049 H 
ATOM     62  H   UNL     1     -42.920  41.346  25.599  1.00  0.00     0.049 H 
ATOM     63  H   UNL     1     -44.406  42.105  26.280  1.00  0.00     0.049 H 
ATOM     64  H   UNL     1     -42.947  44.107  26.639  1.00  0.00     0.030 H 
ATOM     65  H   UNL     1     -41.469  43.102  26.603  1.00  0.00     0.030 H 
ENDBRANCH  52  56
ENDBRANCH  38  41
ENDBRANCH  35  38
ENDBRANCH   5  35
TORSDOF 8
ENDMDL
MODEL 4
REMARK VINA RESULT:     -10.6      2.224     12.464
REMARK SMILES Cn1ccc(-c2cn(-c3cncc(CCc4ccc5ccc(N6CCC6)nc5c4)c3)c3ncnc(N)c23)n1
REMARK SMILES IDX 9 1 10 2 11 3 12 4 13 5 30 6 8 10 6 11 7 12 37 13 31 15
REMARK SMILES IDX 35 16 32 17 34 18 33 19 5 21 2 22 3 23 38 24 4 25 1 28 36 32
REMARK SMILES IDX 14 35 15 38 16 41 17 42 29 43 18 44 28 46 19 48 27 50 20 51
REMARK SMILES IDX 22 52 21 53 23 56 24 57 26 58 25 59
REMARK H PARENT 10 7 12 8 30 9 7 14 33 20 3 26 4 27 1 29 1 30 1 31 36 33 36 34
REMARK H PARENT 14 36 14 37 15 39 15 40 17 45 29 47 18 49 20 54 21 55 24 60
REMARK H PARENT 24 61 26 62 26 63 25 64 25 65
REMARK Flexibility Score: inf
ROOT
ATOM      1  C   UNL     1     -47.228  33.249  26.053  1.00  0.00     0.066 A 
ATOM      2  C   UNL     1     -46.517  32.825  27.173  1.00  0.00     0.051 A 
ATOM      3  N   UNL     1     -45.965  33.656  28.094  1.00  0.00    -0.262 NA
ATOM      4  C   UNL     1     -46.122  34.981  27.892  1.00  0.00     0.030 A 
ATOM      5  C   UNL     1     -46.817  35.520  26.821  1.00  0.00    -0.027 A 
ATOM      6  C   UNL     1     -47.383  34.628  25.899  1.00  0.00    -0.032 A 
ATOM      7  H   UNL     1     -46.320  31.782  27.391  1.00  0.00     0.086 H 
ATOM      8  H   UNL     1     -45.654  35.615  28.641  1.00  0.00     0.084 H 
ATOM      9  H   UNL     1     -47.936  35.052  25.068  1.00  0.00     0.065 H 
ENDROOT
BRANCH   1  10
ATOM     10  N   UNL     1     -47.751  32.307  25.107  1.00  0.00    -0.299 N 
ATOM     11  C   UNL     1     -49.169  30.846  24.125  1.00  0.00     0.033 A 
ATOM     12  C   UNL     1     -49.002  31.719  25.182  1.00  0.00     0.021 A 
ATOM     13  C   UNL     1     -47.987  30.899  23.336  1.00  0.00     0.071 A 
ATOM     14  H   UNL     1     -49.692  31.954  25.978  1.00  0.00     0.083 H 
ATOM     15  C   UNL     1     -47.124  31.797  23.967  1.00  0.00     0.150 A 
ATOM     16  C   UNL     1     -47.516  30.302  22.152  1.00  0.00     0.137 A 
ATOM     17  N   UNL     1     -45.880  32.095  23.542  1.00  0.00    -0.218 NA
ATOM     18  N   UNL     1     -46.270  30.576  21.723  1.00  0.00    -0.219 NA
ATOM     19  C   UNL     1     -45.532  31.446  22.427  1.00  0.00     0.120 A 
ATOM     20  H   UNL     1     -44.535  31.651  22.044  1.00  0.00     0.106 H 
BRANCH  11  21
ATOM     21  C   UNL     1     -50.349  30.011  23.880  1.00  0.00     0.095 A 
ATOM     22  N   UNL     1     -51.625  28.334  23.702  1.00  0.00    -0.275 N 
ATOM     23  C   UNL     1     -52.424  29.399  23.409  1.00  0.00     0.025 A 
ATOM     24  N   UNL     1     -50.359  28.677  24.003  1.00  0.00    -0.173 NA
ATOM     25  C   UNL     1     -51.621  30.511  23.519  1.00  0.00    -0.016 A 
ATOM     26  H   UNL     1     -53.467  29.283  23.150  1.00  0.00     0.084 H 
ATOM     27  H   UNL     1     -51.916  31.537  23.351  1.00  0.00     0.066 H 
BRANCH  22  28
ATOM     28  C   UNL     1     -52.006  26.942  23.717  1.00  0.00     0.030 C 
ATOM     29  H   UNL     1     -52.245  26.662  24.746  1.00  0.00     0.048 H 
ATOM     30  H   UNL     1     -51.176  26.334  23.347  1.00  0.00     0.048 H 
ATOM     31  H   UNL     1     -52.878  26.816  23.071  1.00  0.00     0.048 H 
ENDBRANCH  22  28
ENDBRANCH  11  21
BRANCH  16  32
ATOM     32  N   UNL     1     -48.257  29.423  21.376  1.00  0.00    -0.383 N 
ATOM     33  H   UNL     1     -48.007  28.444  21.545  1.00  0.00     0.158 HD
ATOM     34  H   UNL     1     -48.295  29.725  20.413  1.00  0.00     0.158 HD
ENDBRANCH  16  32
ENDBRANCH   1  10
BRANCH   5  35
ATOM     35  C   UNL     1     -46.923  37.009  26.616  1.00  0.00    -0.022 C 
ATOM     36  H   UNL     1     -47.865  37.229  26.097  1.00  0.00     0.032 H 
ATOM     37  H   UNL     1     -46.128  37.341  25.936  1.00  0.00     0.032 H 
BRANCH  35  38
ATOM     38  C   UNL     1     -46.880  37.810  27.928  1.00  0.00    -0.024 C 
ATOM     39  H   UNL     1     -46.808  37.122  28.781  1.00  0.00     0.032 H 
ATOM     40  H   UNL     1     -47.830  38.344  28.054  1.00  0.00     0.032 H 
BRANCH  38  41
ATOM     41  C   UNL     1     -45.757  38.819  27.989  1.00  0.00    -0.046 A 
ATOM     42  C   UNL     1     -44.808  38.763  29.012  1.00  0.00    -0.058 A 
ATOM     43  C   UNL     1     -45.620  39.797  26.989  1.00  0.00    -0.032 A 
ATOM     44  C   UNL     1     -43.740  39.659  29.024  1.00  0.00    -0.053 A 
ATOM     45  H   UNL     1     -44.877  38.009  29.793  1.00  0.00     0.063 H 
ATOM     46  C   UNL     1     -44.560  40.697  26.974  1.00  0.00     0.073 A 
ATOM     47  H   UNL     1     -46.346  39.852  26.181  1.00  0.00     0.065 H 
ATOM     48  C   UNL     1     -43.611  40.621  28.008  1.00  0.00     0.000 A 
ATOM     49  H   UNL     1     -43.002  39.594  29.820  1.00  0.00     0.063 H 
ATOM     50  N   UNL     1     -44.471  41.594  25.976  1.00  0.00    -0.231 NA
ATOM     51  C   UNL     1     -42.543  41.521  27.978  1.00  0.00    -0.049 A 
ATOM     52  C   UNL     1     -43.438  42.467  25.959  1.00  0.00     0.129 A 
ATOM     53  C   UNL     1     -42.456  42.448  26.945  1.00  0.00    -0.019 A 
ATOM     54  H   UNL     1     -41.774  41.500  28.745  1.00  0.00     0.063 H 
ATOM     55  H   UNL     1     -41.618  43.135  26.906  1.00  0.00     0.066 H 
BRANCH  52  56
ATOM     56  N   UNL     1     -43.343  43.378  24.892  1.00  0.00    -0.356 N 
ATOM     57  C   UNL     1     -44.210  43.453  23.752  1.00  0.00     0.021 C 
ATOM     58  C   UNL     1     -42.166  43.567  24.093  1.00  0.00     0.021 C 
ATOM     59  C   UNL     1     -43.083  44.225  23.057  1.00  0.00    -0.018 C 
ATOM     60  H   UNL     1     -44.435  42.472  23.320  1.00  0.00     0.049 H 
ATOM     61  H   UNL     1     -45.128  44.017  23.936  1.00  0.00     0.049 H 
ATOM     62  H   UNL     1     -41.424  44.221  24.558  1.00  0.00     0.049 H 
ATOM     63  H   UNL     1     -41.708  42.625  23.771  1.00  0.00     0.049 H 
ATOM     64  H   UNL     1     -42.895  43.956  22.015  1.00  0.00     0.030 H 
ATOM     65  H   UNL     1     -43.159  45.314  23.147  1.00  0.00     0.030 H 
ENDBRANCH  52  56
ENDBRANCH  38  41
ENDBRANCH  35  38
ENDBRANCH   5  35
TORSDOF 8
ENDMDL
MODEL 5
REMARK VINA RESULT:     -10.4      1.674      2.561
REMARK SMILES Cn1ccc(-c2cn(-c3cncc(CCc4ccc5ccc(N6CCC6)nc5c4)c3)c3ncnc(N)c23)n1
REMARK SMILES IDX 9 1 10 2 11 3 12 4 13 5 30 6 8 10 6 11 7 12 37 13 31 15
REMARK SMILES IDX 35 16 32 17 34 18 33 19 5 21 2 22 3 23 38 24 4 25 1 28 36 32
REMARK SMILES IDX 14 35 15 38 16 41 17 42 29 43 18 44 28 46 19 48 27 50 20 51
REMARK SMILES IDX 22 52 21 53 23 56 24 57 26 58 25 59
REMARK H PARENT 10 7 12 8 30 9 7 14 33 20 3 26 4 27 1 29 1 30 1 31 36 33 36 34
REMARK H PARENT 14 36 14 37 15 39 15 40 17 45 29 47 18 49 20 54 21 55 24 60
REMARK H PARENT 24 61 26 62 26 63 25 64 25 65
REMARK Flexibility Score: inf
ROOT
ATOM      1  C   UNL     1     -46.113  38.161  27.956  1.00  0.00     0.066 A 
ATOM      2  C   UNL     1     -46.384  38.054  29.318  1.00  0.00     0.051 A 
ATOM      3  N   UNL     1     -46.550  36.881  29.980  1.00  0.00    -0.262 NA
ATOM      4  C   UNL     1     -46.446  35.749  29.252  1.00  0.00     0.030 A 
ATOM      5  C   UNL     1     -46.170  35.730  27.893  1.00  0.00    -0.027 A 
ATOM      6  C   UNL     1     -45.993  36.963  27.249  1.00  0.00    -0.032 A 
ATOM      7  H   UNL     1     -46.512  38.913  29.966  1.00  0.00     0.086 H 
ATOM      8  H   UNL     1     -46.601  34.831  29.812  1.00  0.00     0.084 H 
ATOM      9  H   UNL     1     -45.765  36.944  26.189  1.00  0.00     0.065 H 
ENDROOT
BRANCH   1  10
ATOM     10  N   UNL     1     -45.985  39.441  27.323  1.00  0.00    -0.299 N 
ATOM     11  C   UNL     1     -45.037  41.227  26.312  1.00  0.00     0.033 A 
ATOM     12  C   UNL     1     -44.803  39.968  26.830  1.00  0.00     0.021 A 
ATOM     13  C   UNL     1     -46.424  41.500  26.462  1.00  0.00     0.071 A 
ATOM     14  H   UNL     1     -43.875  39.420  26.879  1.00  0.00     0.083 H 
ATOM     15  C   UNL     1     -46.985  40.391  27.097  1.00  0.00     0.150 A 
ATOM     16  C   UNL     1     -47.304  42.551  26.141  1.00  0.00     0.137 A 
ATOM     17  N   UNL     1     -48.282  40.281  27.448  1.00  0.00    -0.218 NA
ATOM     18  N   UNL     1     -48.598  42.464  26.500  1.00  0.00    -0.219 NA
ATOM     19  C   UNL     1     -49.012  41.350  27.121  1.00  0.00     0.120 A 
ATOM     20  H   UNL     1     -50.066  41.311  27.385  1.00  0.00     0.106 H 
BRANCH  11  21
ATOM     21  C   UNL     1     -44.026  42.116  25.730  1.00  0.00     0.095 A 
ATOM     22  N   UNL     1     -42.979  43.354  24.372  1.00  0.00    -0.275 N 
ATOM     23  C   UNL     1     -42.243  43.410  25.518  1.00  0.00     0.025 A 
ATOM     24  N   UNL     1     -44.076  42.581  24.474  1.00  0.00    -0.173 NA
ATOM     25  C   UNL     1     -42.902  42.614  26.427  1.00  0.00    -0.016 A 
ATOM     26  H   UNL     1     -41.336  43.992  25.593  1.00  0.00     0.084 H 
ATOM     27  H   UNL     1     -42.603  42.417  27.446  1.00  0.00     0.066 H 
BRANCH  22  28
ATOM     28  C   UNL     1     -42.693  44.020  23.124  1.00  0.00     0.030 C 
ATOM     29  H   UNL     1     -43.551  44.646  22.865  1.00  0.00     0.048 H 
ATOM     30  H   UNL     1     -42.526  43.273  22.343  1.00  0.00     0.048 H 
ATOM     31  H   UNL     1     -41.796  44.629  23.256  1.00  0.00     0.048 H 
ENDBRANCH  22  28
ENDBRANCH  11  21
BRANCH  16  32
ATOM     32  N   UNL     1     -46.925  43.706  25.472  1.00  0.00    -0.383 N 
ATOM     33  H   UNL     1     -46.056  44.104  25.838  1.00  0.00     0.158 HD
ATOM     34  H   UNL     1     -47.705  44.337  25.357  1.00  0.00     0.158 HD
ENDBRANCH  16  32
ENDBRANCH   1  10
BRANCH   5  35
ATOM     35  C   UNL     1     -46.112  34.440  27.117  1.00  0.00    -0.022 C 
ATOM     36  H   UNL     1     -45.800  33.634  27.793  1.00  0.00     0.032 H 
ATOM     37  H   UNL     1     -45.323  34.507  26.357  1.00  0.00     0.032 H 
BRANCH  35  38
ATOM     38  C   UNL     1     -47.453  34.057  26.470  1.00  0.00    -0.024 C 
ATOM     39  H   UNL     1     -47.847  34.908  25.898  1.00  0.00     0.032 H 
ATOM     40  H   UNL     1     -48.189  33.860  27.259  1.00  0.00     0.032 H 
BRANCH  38  41
ATOM     41  C   UNL     1     -47.375  32.837  25.582  1.00  0.00    -0.046 A 
ATOM     42  C   UNL     1     -46.475  32.792  24.515  1.00  0.00    -0.058 A 
ATOM     43  C   UNL     1     -48.168  31.707  25.847  1.00  0.00    -0.032 A 
ATOM     44  C   UNL     1     -46.365  31.638  23.741  1.00  0.00    -0.053 A 
ATOM     45  H   UNL     1     -45.836  33.644  24.292  1.00  0.00     0.063 H 
ATOM     46  C   UNL     1     -48.072  30.542  25.096  1.00  0.00     0.073 A 
ATOM     47  H   UNL     1     -48.871  31.721  26.678  1.00  0.00     0.065 H 
ATOM     48  C   UNL     1     -47.156  30.514  24.030  1.00  0.00     0.000 A 
ATOM     49  H   UNL     1     -45.649  31.615  22.922  1.00  0.00     0.063 H 
ATOM     50  N   UNL     1     -48.842  29.486  25.415  1.00  0.00    -0.231 NA
ATOM     51  C   UNL     1     -47.057  29.335  23.288  1.00  0.00    -0.049 A 
ATOM     52  C   UNL     1     -48.746  28.351  24.685  1.00  0.00     0.129 A 
ATOM     53  C   UNL     1     -47.857  28.246  23.620  1.00  0.00    -0.019 A 
ATOM     54  H   UNL     1     -46.358  29.252  22.461  1.00  0.00     0.063 H 
ATOM     55  H   UNL     1     -47.769  27.322  23.060  1.00  0.00     0.066 H 
BRANCH  52  56
ATOM     56  N   UNL     1     -49.536  27.246  25.052  1.00  0.00    -0.356 N 
ATOM     57  C   UNL     1     -50.966  27.211  25.146  1.00  0.00     0.021 C 
ATOM     58  C   UNL     1     -49.370  26.502  26.268  1.00  0.00     0.021 C 
ATOM     59  C   UNL     1     -50.789  25.974  26.033  1.00  0.00    -0.018 C 
ATOM     60  H   UNL     1     -51.383  28.089  25.652  1.00  0.00     0.049 H 
ATOM     61  H   UNL     1     -51.464  27.041  24.188  1.00  0.00     0.049 H 
ATOM     62  H   UNL     1     -48.570  25.760  26.220  1.00  0.00     0.049 H 
ATOM     63  H   UNL     1     -49.257  27.141  27.151  1.00  0.00     0.049 H 
ATOM     64  H   UNL     1     -51.432  25.924  26.915  1.00  0.00     0.030 H 
ATOM     65  H   UNL     1     -50.833  25.021  25.493  1.00  0.00     0.030 H 
ENDBRANCH  52  56
ENDBRANCH  38  41
ENDBRANCH  35  38
ENDBRANCH   5  35
TORSDOF 8
ENDMDL
MODEL 6
REMARK VINA RESULT:     -10.3      2.444      4.834
REMARK SMILES Cn1ccc(-c2cn(-c3cncc(CCc4ccc5ccc(N6CCC6)nc5c4)c3)c3ncnc(N)c23)n1
REMARK SMILES IDX 9 1 10 2 11 3 12 4 13 5 30 6 8 10 6 11 7 12 37 13 31 15
REMARK SMILES IDX 35 16 32 17 34 18 33 19 5 21 2 22 3 23 38 24 4 25 1 28 36 32
REMARK SMILES IDX 14 35 15 38 16 41 17 42 29 43 18 44 28 46 19 48 27 50 20 51
REMARK SMILES IDX 22 52 21 53 23 56 24 57 26 58 25 59
REMARK H PARENT 10 7 12 8 30 9 7 14 33 20 3 26 4 27 1 29 1 30 1 31 36 33 36 34
REMARK H PARENT 14 36 14 37 15 39 15 40 17 45 29 47 18 49 20 54 21 55 24 60
REMARK H PARENT 24 61 26 62 26 63 25 64 25 65
REMARK Flexibility Score: inf
ROOT
ATOM      1  C   UNL     1     -43.442  41.605  27.774  1.00  0.00     0.066 A 
ATOM      2  C   UNL     1     -42.584  41.640  28.870  1.00  0.00     0.051 A 
ATOM      3  N   UNL     1     -42.472  40.649  29.791  1.00  0.00    -0.262 NA
ATOM      4  C   UNL     1     -43.257  39.566  29.622  1.00  0.00     0.030 A 
ATOM      5  C   UNL     1     -44.142  39.414  28.565  1.00  0.00    -0.027 A 
ATOM      6  C   UNL     1     -44.219  40.454  27.627  1.00  0.00    -0.032 A 
ATOM      7  H   UNL     1     -41.943  42.484  29.095  1.00  0.00     0.086 H 
ATOM      8  H   UNL     1     -43.152  38.801  30.387  1.00  0.00     0.084 H 
ATOM      9  H   UNL     1     -44.904  40.328  26.796  1.00  0.00     0.065 H 
ENDROOT
BRANCH   1  10
ATOM     10  N   UNL     1     -43.527  42.709  26.863  1.00  0.00    -0.299 N 
ATOM     11  C   UNL     1     -43.408  43.891  24.940  1.00  0.00     0.033 A 
ATOM     12  C   UNL     1     -43.251  42.642  25.508  1.00  0.00     0.021 A 
ATOM     13  C   UNL     1     -43.821  44.780  25.970  1.00  0.00     0.071 A 
ATOM     14  H   UNL     1     -42.961  41.717  25.033  1.00  0.00     0.083 H 
ATOM     15  C   UNL     1     -43.876  44.032  27.147  1.00  0.00     0.150 A 
ATOM     16  C   UNL     1     -44.165  46.141  26.075  1.00  0.00     0.137 A 
ATOM     17  N   UNL     1     -44.196  44.528  28.359  1.00  0.00    -0.218 NA
ATOM     18  N   UNL     1     -44.470  46.656  27.280  1.00  0.00    -0.219 NA
ATOM     19  C   UNL     1     -44.473  45.835  28.340  1.00  0.00     0.120 A 
ATOM     20  H   UNL     1     -44.735  46.284  29.294  1.00  0.00     0.106 H 
BRANCH  11  21
ATOM     21  C   UNL     1     -43.174  44.229  23.532  1.00  0.00     0.095 A 
ATOM     22  N   UNL     1     -43.415  45.026  21.588  1.00  0.00    -0.275 N 
ATOM     23  C   UNL     1     -42.206  44.397  21.548  1.00  0.00     0.025 A 
ATOM     24  N   UNL     1     -44.023  44.949  22.786  1.00  0.00    -0.173 NA
ATOM     25  C   UNL     1     -42.017  43.868  22.805  1.00  0.00    -0.016 A 
ATOM     26  H   UNL     1     -41.597  44.374  20.656  1.00  0.00     0.084 H 
ATOM     27  H   UNL     1     -41.165  43.294  23.140  1.00  0.00     0.066 H 
BRANCH  22  28
ATOM     28  C   UNL     1     -44.062  45.731  20.508  1.00  0.00     0.030 C 
ATOM     29  H   UNL     1     -45.067  45.322  20.383  1.00  0.00     0.048 H 
ATOM     30  H   UNL     1     -43.486  45.595  19.588  1.00  0.00     0.048 H 
ATOM     31  H   UNL     1     -44.106  46.791  20.766  1.00  0.00     0.048 H 
ENDBRANCH  22  28
ENDBRANCH  11  21
BRANCH  16  32
ATOM     32  N   UNL     1     -44.206  47.017  25.000  1.00  0.00    -0.383 N 
ATOM     33  H   UNL     1     -43.764  47.917  25.210  1.00  0.00     0.158 HD
ATOM     34  H   UNL     1     -45.126  47.046  24.585  1.00  0.00     0.158 HD
ENDBRANCH  16  32
ENDBRANCH   1  10
BRANCH   5  35
ATOM     35  C   UNL     1     -45.032  38.203  28.447  1.00  0.00    -0.022 C 
ATOM     36  H   UNL     1     -45.478  37.995  29.428  1.00  0.00     0.032 H 
ATOM     37  H   UNL     1     -44.421  37.324  28.209  1.00  0.00     0.032 H 
BRANCH  35  38
ATOM     38  C   UNL     1     -46.158  38.374  27.414  1.00  0.00    -0.024 C 
ATOM     39  H   UNL     1     -45.737  38.705  26.456  1.00  0.00     0.032 H 
ATOM     40  H   UNL     1     -46.827  39.179  27.742  1.00  0.00     0.032 H 
BRANCH  38  41
ATOM     41  C   UNL     1     -46.986  37.127  27.204  1.00  0.00    -0.046 A 
ATOM     42  C   UNL     1     -48.314  37.077  27.632  1.00  0.00    -0.058 A 
ATOM     43  C   UNL     1     -46.450  36.018  26.528  1.00  0.00    -0.032 A 
ATOM     44  C   UNL     1     -49.089  35.947  27.378  1.00  0.00    -0.053 A 
ATOM     45  H   UNL     1     -48.764  37.924  28.146  1.00  0.00     0.063 H 
ATOM     46  C   UNL     1     -47.203  34.882  26.254  1.00  0.00     0.073 A 
ATOM     47  H   UNL     1     -45.419  36.041  26.181  1.00  0.00     0.065 H 
ATOM     48  C   UNL     1     -48.541  34.853  26.687  1.00  0.00     0.000 A 
ATOM     49  H   UNL     1     -50.126  35.929  27.706  1.00  0.00     0.063 H 
ATOM     50  N   UNL     1     -46.640  33.863  25.581  1.00  0.00    -0.231 NA
ATOM     51  C   UNL     1     -49.294  33.713  26.398  1.00  0.00    -0.049 A 
ATOM     52  C   UNL     1     -47.375  32.760  25.312  1.00  0.00     0.129 A 
ATOM     53  C   UNL     1     -48.706  32.661  25.703  1.00  0.00    -0.019 A 
ATOM     54  H   UNL     1     -50.335  33.641  26.698  1.00  0.00     0.063 H 
ATOM     55  H   UNL     1     -49.293  31.783  25.458  1.00  0.00     0.066 H 
BRANCH  52  56
ATOM     56  N   UNL     1     -46.779  31.716  24.581  1.00  0.00    -0.356 N 
ATOM     57  C   UNL     1     -46.136  31.825  23.304  1.00  0.00     0.021 C 
ATOM     58  C   UNL     1     -47.450  30.501  24.215  1.00  0.00     0.021 C 
ATOM     59  C   UNL     1     -46.347  30.313  23.168  1.00  0.00    -0.018 C 
ATOM     60  H   UNL     1     -46.700  32.437  22.591  1.00  0.00     0.049 H 
ATOM     61  H   UNL     1     -45.097  32.156  23.363  1.00  0.00     0.049 H 
ATOM     62  H   UNL     1     -47.478  29.760  25.017  1.00  0.00     0.049 H 
ATOM     63  H   UNL     1     -48.451  30.669  23.803  1.00  0.00     0.049 H 
ATOM     64  H   UNL     1     -46.676  29.965  22.186  1.00  0.00     0.030 H 
ATOM     65  H   UNL     1     -45.500  29.706  23.507  1.00  0.00     0.030 H 
ENDBRANCH  52  56
ENDBRANCH  38  41
ENDBRANCH  35  38
ENDBRANCH   5  35
TORSDOF 8
ENDMDL
MODEL 7
REMARK VINA RESULT:      -9.9      1.517      2.136
REMARK SMILES Cn1ccc(-c2cn(-c3cncc(CCc4ccc5ccc(N6CCC6)nc5c4)c3)c3ncnc(N)c23)n1
REMARK SMILES IDX 9 1 10 2 11 3 12 4 13 5 30 6 8 10 6 11 7 12 37 13 31 15
REMARK SMILES IDX 35 16 32 17 34 18 33 19 5 21 2 22 3 23 38 24 4 25 1 28 36 32
REMARK SMILES IDX 14 35 15 38 16 41 17 42 29 43 18 44 28 46 19 48 27 50 20 51
REMARK SMILES IDX 22 52 21 53 23 56 24 57 26 58 25 59
REMARK H PARENT 10 7 12 8 30 9 7 14 33 20 3 26 4 27 1 29 1 30 1 31 36 33 36 34
REMARK H PARENT 14 36 14 37 15 39 15 40 17 45 29 47 18 49 20 54 21 55 24 60
REMARK H PARENT 24 61 26 62 26 63 25 64 25 65
REMARK Flexibility Score: inf
ROOT
ATOM      1  C   UNL     1     -45.624  39.475  27.361  1.00  0.00     0.066 A 
ATOM      2  C   UNL     1     -44.951  38.996  28.481  1.00  0.00     0.051 A 
ATOM      3  N   UNL     1     -45.173  37.784  29.053  1.00  0.00    -0.262 NA
ATOM      4  C   UNL     1     -46.118  37.006  28.486  1.00  0.00     0.030 A 
ATOM      5  C   UNL     1     -46.845  37.371  27.364  1.00  0.00    -0.027 A 
ATOM      6  C   UNL     1     -46.577  38.625  26.796  1.00  0.00    -0.032 A 
ATOM      7  H   UNL     1     -44.201  39.569  29.014  1.00  0.00     0.086 H 
ATOM      8  H   UNL     1     -46.278  36.051  28.980  1.00  0.00     0.084 H 
ATOM      9  H   UNL     1     -47.140  38.904  25.911  1.00  0.00     0.065 H 
ENDROOT
BRANCH   1  10
ATOM     10  N   UNL     1     -45.355  40.783  26.837  1.00  0.00    -0.299 N 
ATOM     11  C   UNL     1     -45.700  42.797  25.872  1.00  0.00     0.033 A 
ATOM     12  C   UNL     1     -46.308  41.635  26.304  1.00  0.00     0.021 A 
ATOM     13  C   UNL     1     -44.312  42.688  26.163  1.00  0.00     0.071 A 
ATOM     14  H   UNL     1     -47.352  41.365  26.265  1.00  0.00     0.083 H 
ATOM     15  C   UNL     1     -44.123  41.435  26.746  1.00  0.00     0.150 A 
ATOM     16  C   UNL     1     -43.166  43.490  26.012  1.00  0.00     0.137 A 
ATOM     17  N   UNL     1     -42.930  40.939  27.133  1.00  0.00    -0.218 NA
ATOM     18  N   UNL     1     -41.965  43.004  26.377  1.00  0.00    -0.219 NA
ATOM     19  C   UNL     1     -41.912  41.776  26.913  1.00  0.00     0.120 A 
ATOM     20  H   UNL     1     -40.928  41.422  27.206  1.00  0.00     0.106 H 
BRANCH  11  21
ATOM     21  C   UNL     1     -46.373  43.926  25.221  1.00  0.00     0.095 A 
ATOM     22  N   UNL     1     -46.856  45.457  23.845  1.00  0.00    -0.275 N 
ATOM     23  C   UNL     1     -47.841  45.525  24.785  1.00  0.00     0.025 A 
ATOM     24  N   UNL     1     -45.953  44.487  24.078  1.00  0.00    -0.173 NA
ATOM     25  C   UNL     1     -47.556  44.535  25.698  1.00  0.00    -0.016 A 
ATOM     26  H   UNL     1     -48.639  46.251  24.733  1.00  0.00     0.084 H 
ATOM     27  H   UNL     1     -48.122  44.297  26.587  1.00  0.00     0.066 H 
BRANCH  22  28
ATOM     28  C   UNL     1     -46.710  46.296  22.680  1.00  0.00     0.030 C 
ATOM     29  H   UNL     1     -46.635  45.653  21.800  1.00  0.00     0.048 H 
ATOM     30  H   UNL     1     -45.805  46.902  22.779  1.00  0.00     0.048 H 
ATOM     31  H   UNL     1     -47.587  46.945  22.610  1.00  0.00     0.048 H 
ENDBRANCH  22  28
ENDBRANCH  11  21
BRANCH  16  32
ATOM     32  N   UNL     1     -43.179  44.777  25.493  1.00  0.00    -0.383 N 
ATOM     33  H   UNL     1     -44.128  45.140  25.370  1.00  0.00     0.158 HD
ATOM     34  H   UNL     1     -42.551  44.863  24.707  1.00  0.00     0.158 HD
ENDBRANCH  16  32
ENDBRANCH   1  10
BRANCH   5  35
ATOM     35  C   UNL     1     -47.924  36.484  26.797  1.00  0.00    -0.022 C 
ATOM     36  H   UNL     1     -47.791  36.416  25.710  1.00  0.00     0.032 H 
ATOM     37  H   UNL     1     -48.902  36.959  26.945  1.00  0.00     0.032 H 
BRANCH  35  38
ATOM     38  C   UNL     1     -47.919  35.065  27.389  1.00  0.00    -0.024 C 
ATOM     39  H   UNL     1     -48.882  34.862  27.876  1.00  0.00     0.032 H 
ATOM     40  H   UNL     1     -47.164  35.011  28.184  1.00  0.00     0.032 H 
BRANCH  38  41
ATOM     41  C   UNL     1     -47.619  33.984  26.378  1.00  0.00    -0.046 A 
ATOM     42  C   UNL     1     -46.513  34.091  25.531  1.00  0.00    -0.058 A 
ATOM     43  C   UNL     1     -48.415  32.828  26.309  1.00  0.00    -0.032 A 
ATOM     44  C   UNL     1     -46.208  33.059  24.645  1.00  0.00    -0.053 A 
ATOM     45  H   UNL     1     -45.868  34.966  25.570  1.00  0.00     0.063 H 
ATOM     46  C   UNL     1     -48.128  31.781  25.441  1.00  0.00     0.073 A 
ATOM     47  H   UNL     1     -49.277  32.723  26.965  1.00  0.00     0.065 H 
ATOM     48  C   UNL     1     -47.008  31.905  24.600  1.00  0.00     0.000 A 
ATOM     49  H   UNL     1     -45.336  33.152  24.003  1.00  0.00     0.063 H 
ATOM     50  N   UNL     1     -48.915  30.690  25.439  1.00  0.00    -0.231 NA
ATOM     51  C   UNL     1     -46.719  30.843  23.740  1.00  0.00    -0.049 A 
ATOM     52  C   UNL     1     -48.633  29.671  24.596  1.00  0.00     0.129 A 
ATOM     53  C   UNL     1     -47.538  29.718  23.741  1.00  0.00    -0.019 A 
ATOM     54  H   UNL     1     -45.859  30.879  23.078  1.00  0.00     0.063 H 
ATOM     55  H   UNL     1     -47.306  28.883  23.089  1.00  0.00     0.066 H 
BRANCH  52  56
ATOM     56  N   UNL     1     -49.449  28.525  24.629  1.00  0.00    -0.356 N 
ATOM     57  C   UNL     1     -49.021  27.177  24.865  1.00  0.00     0.021 C 
ATOM     58  C   UNL     1     -50.331  28.131  23.568  1.00  0.00     0.021 C 
ATOM     59  C   UNL     1     -50.335  26.739  24.208  1.00  0.00    -0.018 C 
ATOM     60  H   UNL     1     -48.115  26.912  24.309  1.00  0.00     0.049 H 
ATOM     61  H   UNL     1     -48.914  26.930  25.924  1.00  0.00     0.049 H 
ATOM     62  H   UNL     1     -51.285  28.662  23.574  1.00  0.00     0.049 H 
ATOM     63  H   UNL     1     -49.863  28.180  22.578  1.00  0.00     0.049 H 
ATOM     64  H   UNL     1     -50.264  25.895  23.518  1.00  0.00     0.030 H 
ATOM     65  H   UNL     1     -51.157  26.567  24.913  1.00  0.00     0.030 H 
ENDBRANCH  52  56
ENDBRANCH  38  41
ENDBRANCH  35  38
ENDBRANCH   5  35
TORSDOF 8
ENDMDL
