MODEL 1
REMARK VINA RESULT:     -11.1      0.000      0.000
REMARK SMILES O=C(NCc1ccc2cc(CN3C[C@H]4C[C@H]4C3)[nH]c2c1)c1cc(=O)n2ccccc2n1
REMARK SMILES IDX 5 1 6 2 7 3 8 4 9 5 10 6 18 7 19 8 20 9 4 15 3 18 1 19 2 20
REMARK SMILES IDX 21 22 22 23 31 24 23 25 30 27 24 28 25 29 29 30 26 31 28 32
REMARK SMILES IDX 27 34 11 38 12 41 13 42 17 43 14 44 16 47 15 50
REMARK H PARENT 6 10 7 11 9 12 18 13 20 14 4 16 4 17 3 21 22 26 29 33 26 35
REMARK H PARENT 28 36 27 37 11 39 11 40 13 45 13 46 17 48 17 49 14 51 16 52
REMARK H PARENT 15 53 15 54
REMARK Flexibility Score: inf
ROOT
ATOM      1  C   UNL     1     -48.038  34.453  26.412  1.00  0.00    -0.027 A 
ATOM      2  C   UNL     1     -46.755  34.387  25.852  1.00  0.00    -0.057 A 
ATOM      3  C   UNL     1     -46.356  33.290  25.079  1.00  0.00    -0.052 A 
ATOM      4  C   UNL     1     -47.260  32.234  24.864  1.00  0.00    -0.000 A 
ATOM      5  C   UNL     1     -47.193  31.004  24.155  1.00  0.00    -0.032 A 
ATOM      6  C   UNL     1     -48.406  30.358  24.299  1.00  0.00     0.030 A 
ATOM      7  N   UNL     1     -49.203  31.164  25.077  1.00  0.00    -0.357 N 
ATOM      8  C   UNL     1     -48.529  32.311  25.432  1.00  0.00     0.046 A 
ATOM      9  C   UNL     1     -48.946  33.399  26.212  1.00  0.00    -0.033 A 
ATOM     10  H   UNL     1     -46.048  35.198  26.020  1.00  0.00     0.063 H 
ATOM     11  H   UNL     1     -45.358  33.256  24.653  1.00  0.00     0.063 H 
ATOM     12  H   UNL     1     -46.346  30.623  23.601  1.00  0.00     0.065 H 
ATOM     13  H   UNL     1     -50.150  30.951  25.355  1.00  0.00     0.166 HD
ATOM     14  H   UNL     1     -49.941  33.424  26.645  1.00  0.00     0.065 H 
ENDROOT
BRANCH   1  15
ATOM     15  C   UNL     1     -48.426  35.640  27.259  1.00  0.00     0.043 C 
ATOM     16  H   UNL     1     -48.703  35.315  28.268  1.00  0.00     0.054 H 
ATOM     17  H   UNL     1     -49.299  36.142  26.829  1.00  0.00     0.054 H 
BRANCH  15  18
ATOM     18  N   UNL     1     -47.321  36.555  27.393  1.00  0.00    -0.347 N 
ATOM     19  O   UNL     1     -46.857  36.113  29.602  1.00  0.00    -0.268 OA
ATOM     20  C   UNL     1     -46.671  36.767  28.583  1.00  0.00     0.270 C 
ATOM     21  H   UNL     1     -47.153  37.241  26.664  1.00  0.00     0.164 HD
BRANCH  20  22
ATOM     22  C   UNL     1     -45.697  37.918  28.507  1.00  0.00     0.136 A 
ATOM     23  C   UNL     1     -44.878  38.071  29.550  1.00  0.00     0.035 A 
ATOM     24  N   UNL     1     -45.715  38.731  27.396  1.00  0.00    -0.225 NA
ATOM     25  C   UNL     1     -43.918  39.182  29.523  1.00  0.00     0.258 A 
ATOM     26  H   UNL     1     -44.875  37.427  30.419  1.00  0.00     0.071 H 
ATOM     27  C   UNL     1     -44.869  39.715  27.380  1.00  0.00     0.140 A 
ATOM     28  O   UNL     1     -43.154  39.327  30.476  1.00  0.00    -0.269 OA
ATOM     29  N   UNL     1     -43.960  39.989  28.396  1.00  0.00    -0.268 N 
ATOM     30  C   UNL     1     -44.856  40.625  26.198  1.00  0.00    -0.019 A 
ATOM     31  C   UNL     1     -43.084  41.065  28.300  1.00  0.00     0.014 A 
ATOM     32  C   UNL     1     -43.994  41.647  26.152  1.00  0.00    -0.057 A 
ATOM     33  H   UNL     1     -45.561  40.420  25.404  1.00  0.00     0.066 H 
ATOM     34  C   UNL     1     -43.077  41.878  27.237  1.00  0.00    -0.045 A 
ATOM     35  H   UNL     1     -42.400  41.220  29.131  1.00  0.00     0.082 H 
ATOM     36  H   UNL     1     -43.969  42.321  25.302  1.00  0.00     0.062 H 
ATOM     37  H   UNL     1     -42.389  42.714  27.174  1.00  0.00     0.064 H 
ENDBRANCH  20  22
ENDBRANCH  15  18
ENDBRANCH   1  15
BRANCH   6  38
ATOM     38  C   UNL     1     -48.883  29.048  23.763  1.00  0.00     0.039 C 
ATOM     39  H   UNL     1     -48.020  28.550  23.302  1.00  0.00     0.050 H 
ATOM     40  H   UNL     1     -49.619  29.203  22.963  1.00  0.00     0.050 H 
BRANCH  38  41
ATOM     41  N   UNL     1     -49.426  28.202  24.820  1.00  0.00    -0.297 NA
ATOM     42  C   UNL     1     -49.867  26.880  24.350  1.00  0.00     0.002 C 
ATOM     43  C   UNL     1     -48.464  28.010  25.915  1.00  0.00     0.002 C 
ATOM     44  C   UNL     1     -49.853  26.068  25.610  1.00  0.00    -0.024 C 
ATOM     45  H   UNL     1     -50.874  26.925  23.923  1.00  0.00     0.043 H 
ATOM     46  H   UNL     1     -49.181  26.444  23.613  1.00  0.00     0.043 H 
ATOM     47  C   UNL     1     -48.978  26.774  26.586  1.00  0.00    -0.024 C 
ATOM     48  H   UNL     1     -48.470  28.868  26.593  1.00  0.00     0.043 H 
ATOM     49  H   UNL     1     -47.441  27.844  25.552  1.00  0.00     0.043 H 
ATOM     50  C   UNL     1     -48.606  25.392  26.118  1.00  0.00    -0.045 C 
ATOM     51  H   UNL     1     -50.827  25.735  25.936  1.00  0.00     0.032 H 
ATOM     52  H   UNL     1     -49.345  26.931  27.590  1.00  0.00     0.032 H 
ATOM     53  H   UNL     1     -47.765  25.279  25.444  1.00  0.00     0.027 H 
ATOM     54  H   UNL     1     -48.727  24.572  26.818  1.00  0.00     0.027 H 
ENDBRANCH  38  41
ENDBRANCH   6  38
TORSDOF 5
ENDMDL
MODEL 2
REMARK VINA RESULT:     -10.6      1.661      2.280
REMARK SMILES O=C(NCc1ccc2cc(CN3C[C@H]4C[C@H]4C3)[nH]c2c1)c1cc(=O)n2ccccc2n1
REMARK SMILES IDX 5 1 6 2 7 3 8 4 9 5 10 6 18 7 19 8 20 9 4 15 3 18 1 19 2 20
REMARK SMILES IDX 21 22 22 23 31 24 23 25 30 27 24 28 25 29 29 30 26 31 28 32
REMARK SMILES IDX 27 34 11 38 12 41 13 42 17 43 14 44 16 47 15 50
REMARK H PARENT 6 10 7 11 9 12 18 13 20 14 4 16 4 17 3 21 22 26 29 33 26 35
REMARK H PARENT 28 36 27 37 11 39 11 40 13 45 13 46 17 48 17 49 14 51 16 52
REMARK H PARENT 15 53 15 54
REMARK Flexibility Score: inf
ROOT
ATOM      1  C   UNL     1     -47.788  35.280  26.821  1.00  0.00    -0.027 A 
ATOM      2  C   UNL     1     -46.484  35.126  26.330  1.00  0.00    -0.057 A 
ATOM      3  C   UNL     1     -46.109  33.984  25.611  1.00  0.00    -0.052 A 
ATOM      4  C   UNL     1     -47.059  32.974  25.380  1.00  0.00    -0.000 A 
ATOM      5  C   UNL     1     -47.026  31.720  24.711  1.00  0.00    -0.032 A 
ATOM      6  C   UNL     1     -48.279  31.146  24.811  1.00  0.00     0.030 A 
ATOM      7  N   UNL     1     -49.067  32.019  25.522  1.00  0.00    -0.357 N 
ATOM      8  C   UNL     1     -48.349  33.138  25.879  1.00  0.00     0.046 A 
ATOM      9  C   UNL     1     -48.742  34.271  26.604  1.00  0.00    -0.033 A 
ATOM     10  H   UNL     1     -45.741  35.902  26.511  1.00  0.00     0.063 H 
ATOM     11  H   UNL     1     -45.095  33.883  25.238  1.00  0.00     0.063 H 
ATOM     12  H   UNL     1     -46.175  31.275  24.213  1.00  0.00     0.065 H 
ATOM     13  H   UNL     1     -50.037  31.867  25.757  1.00  0.00     0.166 HD
ATOM     14  H   UNL     1     -49.754  34.365  26.984  1.00  0.00     0.065 H 
ENDROOT
BRANCH   1  15
ATOM     15  C   UNL     1     -48.150  36.512  27.612  1.00  0.00     0.043 C 
ATOM     16  H   UNL     1     -48.391  36.245  28.647  1.00  0.00     0.054 H 
ATOM     17  H   UNL     1     -49.040  36.988  27.185  1.00  0.00     0.054 H 
BRANCH  15  18
ATOM     18  N   UNL     1     -47.045  37.435  27.655  1.00  0.00    -0.347 N 
ATOM     19  O   UNL     1     -48.271  39.318  28.151  1.00  0.00    -0.268 OA
ATOM     20  C   UNL     1     -47.210  38.784  27.852  1.00  0.00     0.270 C 
ATOM     21  H   UNL     1     -46.140  37.144  27.302  1.00  0.00     0.164 HD
BRANCH  20  22
ATOM     22  C   UNL     1     -45.927  39.554  27.646  1.00  0.00     0.136 A 
ATOM     23  C   UNL     1     -45.789  40.170  26.470  1.00  0.00     0.035 A 
ATOM     24  N   UNL     1     -44.992  39.570  28.657  1.00  0.00    -0.225 NA
ATOM     25  C   UNL     1     -44.554  40.926  26.222  1.00  0.00     0.258 A 
ATOM     26  H   UNL     1     -46.529  40.149  25.682  1.00  0.00     0.071 H 
ATOM     27  C   UNL     1     -43.901  40.233  28.430  1.00  0.00     0.140 A 
ATOM     28  O   UNL     1     -44.420  41.503  25.144  1.00  0.00    -0.269 OA
ATOM     29  N   UNL     1     -43.627  40.921  27.253  1.00  0.00    -0.268 N 
ATOM     30  C   UNL     1     -42.857  40.274  29.494  1.00  0.00    -0.019 A 
ATOM     31  C   UNL     1     -42.430  41.611  27.090  1.00  0.00     0.014 A 
ATOM     32  C   UNL     1     -41.721  40.952  29.291  1.00  0.00    -0.057 A 
ATOM     33  H   UNL     1     -43.061  39.740  30.413  1.00  0.00     0.066 H 
ATOM     34  C   UNL     1     -41.497  41.644  28.050  1.00  0.00    -0.045 A 
ATOM     35  H   UNL     1     -42.282  42.127  26.145  1.00  0.00     0.082 H 
ATOM     36  H   UNL     1     -40.949  40.993  30.052  1.00  0.00     0.062 H 
ATOM     37  H   UNL     1     -40.567  42.185  27.911  1.00  0.00     0.064 H 
ENDBRANCH  20  22
ENDBRANCH  15  18
ENDBRANCH   1  15
BRANCH   6  38
ATOM     38  C   UNL     1     -48.801  29.847  24.288  1.00  0.00     0.039 C 
ATOM     39  H   UNL     1     -48.586  29.818  23.213  1.00  0.00     0.050 H 
ATOM     40  H   UNL     1     -49.893  29.801  24.391  1.00  0.00     0.050 H 
BRANCH  38  41
ATOM     41  N   UNL     1     -48.163  28.711  24.944  1.00  0.00    -0.297 NA
ATOM     42  C   UNL     1     -48.701  28.423  26.282  1.00  0.00     0.002 C 
ATOM     43  C   UNL     1     -48.256  27.489  24.132  1.00  0.00     0.002 C 
ATOM     44  C   UNL     1     -48.310  26.990  26.486  1.00  0.00    -0.024 C 
ATOM     45  H   UNL     1     -48.244  29.067  27.041  1.00  0.00     0.043 H 
ATOM     46  H   UNL     1     -49.792  28.526  26.329  1.00  0.00     0.043 H 
ATOM     47  C   UNL     1     -48.032  26.408  25.144  1.00  0.00    -0.024 C 
ATOM     48  H   UNL     1     -47.485  27.478  23.356  1.00  0.00     0.043 H 
ATOM     49  H   UNL     1     -49.241  27.369  23.664  1.00  0.00     0.043 H 
ATOM     50  C   UNL     1     -49.151  25.847  25.981  1.00  0.00    -0.045 C 
ATOM     51  H   UNL     1     -47.592  26.833  27.277  1.00  0.00     0.032 H 
ATOM     52  H   UNL     1     -47.119  25.847  25.003  1.00  0.00     0.032 H 
ATOM     53  H   UNL     1     -50.174  26.046  25.683  1.00  0.00     0.027 H 
ATOM     54  H   UNL     1     -49.003  24.874  26.435  1.00  0.00     0.027 H 
ENDBRANCH  38  41
ENDBRANCH   6  38
TORSDOF 5
ENDMDL
MODEL 3
REMARK VINA RESULT:     -10.5      2.523      3.463
REMARK SMILES O=C(NCc1ccc2cc(CN3C[C@H]4C[C@H]4C3)[nH]c2c1)c1cc(=O)n2ccccc2n1
REMARK SMILES IDX 5 1 6 2 7 3 8 4 9 5 10 6 18 7 19 8 20 9 4 15 3 18 1 19 2 20
REMARK SMILES IDX 21 22 22 23 31 24 23 25 30 27 24 28 25 29 29 30 26 31 28 32
REMARK SMILES IDX 27 34 11 38 12 41 13 42 17 43 14 44 16 47 15 50
REMARK H PARENT 6 10 7 11 9 12 18 13 20 14 4 16 4 17 3 21 22 26 29 33 26 35
REMARK H PARENT 28 36 27 37 11 39 11 40 13 45 13 46 17 48 17 49 14 51 16 52
REMARK H PARENT 15 53 15 54
REMARK Flexibility Score: inf
ROOT
ATOM      1  C   UNL     1     -46.625  35.570  28.559  1.00  0.00    -0.027 A 
ATOM      2  C   UNL     1     -47.876  35.966  28.067  1.00  0.00    -0.057 A 
ATOM      3  C   UNL     1     -48.509  35.260  27.037  1.00  0.00    -0.052 A 
ATOM      4  C   UNL     1     -47.874  34.132  26.486  1.00  0.00    -0.000 A 
ATOM      5  C   UNL     1     -48.215  33.209  25.460  1.00  0.00    -0.032 A 
ATOM      6  C   UNL     1     -47.186  32.294  25.346  1.00  0.00     0.030 A 
ATOM      7  N   UNL     1     -46.233  32.640  26.274  1.00  0.00    -0.357 N 
ATOM      8  C   UNL     1     -46.628  33.754  26.980  1.00  0.00     0.046 A 
ATOM      9  C   UNL     1     -45.978  34.451  28.008  1.00  0.00    -0.033 A 
ATOM     10  H   UNL     1     -48.370  36.842  28.486  1.00  0.00     0.063 H 
ATOM     11  H   UNL     1     -49.478  35.581  26.670  1.00  0.00     0.063 H 
ATOM     12  H   UNL     1     -49.115  33.213  24.860  1.00  0.00     0.065 H 
ATOM     13  H   UNL     1     -45.362  32.152  26.423  1.00  0.00     0.166 HD
ATOM     14  H   UNL     1     -45.003  34.133  28.365  1.00  0.00     0.065 H 
ENDROOT
BRANCH   1  15
ATOM     15  C   UNL     1     -45.962  36.369  29.653  1.00  0.00     0.043 C 
ATOM     16  H   UNL     1     -45.277  35.735  30.229  1.00  0.00     0.054 H 
ATOM     17  H   UNL     1     -46.714  36.750  30.352  1.00  0.00     0.054 H 
BRANCH  15  18
ATOM     18  N   UNL     1     -45.183  37.446  29.099  1.00  0.00    -0.347 N 
ATOM     19  O   UNL     1     -44.331  38.228  31.088  1.00  0.00    -0.268 OA
ATOM     20  C   UNL     1     -44.484  38.336  29.877  1.00  0.00     0.270 C 
ATOM     21  H   UNL     1     -45.326  37.717  28.132  1.00  0.00     0.164 HD
BRANCH  20  22
ATOM     22  C   UNL     1     -43.927  39.486  29.073  1.00  0.00     0.136 A 
ATOM     23  C   UNL     1     -42.881  40.126  29.600  1.00  0.00     0.035 A 
ATOM     24  N   UNL     1     -44.521  39.806  27.873  1.00  0.00    -0.225 NA
ATOM     25  C   UNL     1     -42.310  41.256  28.857  1.00  0.00     0.258 A 
ATOM     26  H   UNL     1     -42.424  39.867  30.547  1.00  0.00     0.071 H 
ATOM     27  C   UNL     1     -44.017  40.810  27.223  1.00  0.00     0.140 A 
ATOM     28  O   UNL     1     -41.342  41.848  29.332  1.00  0.00    -0.269 OA
ATOM     29  N   UNL     1     -42.930  41.562  27.655  1.00  0.00    -0.268 N 
ATOM     30  C   UNL     1     -44.631  41.197  25.920  1.00  0.00    -0.019 A 
ATOM     31  C   UNL     1     -42.448  42.624  26.896  1.00  0.00     0.014 A 
ATOM     32  C   UNL     1     -44.131  42.226  25.225  1.00  0.00    -0.057 A 
ATOM     33  H   UNL     1     -45.478  40.618  25.577  1.00  0.00     0.066 H 
ATOM     34  C   UNL     1     -43.004  42.966  25.727  1.00  0.00    -0.045 A 
ATOM     35  H   UNL     1     -41.595  43.168  27.294  1.00  0.00     0.082 H 
ATOM     36  H   UNL     1     -44.564  42.524  24.277  1.00  0.00     0.062 H 
ATOM     37  H   UNL     1     -42.619  43.796  25.144  1.00  0.00     0.064 H 
ENDBRANCH  20  22
ENDBRANCH  15  18
ENDBRANCH   1  15
BRANCH   6  38
ATOM     38  C   UNL     1     -47.025  31.115  24.442  1.00  0.00     0.039 C 
ATOM     39  H   UNL     1     -47.470  30.250  24.951  1.00  0.00     0.050 H 
ATOM     40  H   UNL     1     -45.962  30.882  24.298  1.00  0.00     0.050 H 
BRANCH  38  41
ATOM     41  N   UNL     1     -47.694  31.326  23.163  1.00  0.00    -0.297 NA
ATOM     42  C   UNL     1     -46.991  30.721  22.022  1.00  0.00     0.002 C 
ATOM     43  C   UNL     1     -49.075  30.822  23.179  1.00  0.00     0.002 C 
ATOM     44  C   UNL     1     -48.080  30.599  21.000  1.00  0.00    -0.024 C 
ATOM     45  H   UNL     1     -46.186  31.369  21.662  1.00  0.00     0.043 H 
ATOM     46  H   UNL     1     -46.581  29.731  22.256  1.00  0.00     0.043 H 
ATOM     47  C   UNL     1     -49.381  30.663  21.722  1.00  0.00    -0.024 C 
ATOM     48  H   UNL     1     -49.747  31.543  23.654  1.00  0.00     0.043 H 
ATOM     49  H   UNL     1     -49.164  29.855  23.692  1.00  0.00     0.043 H 
ATOM     50  C   UNL     1     -49.016  29.418  20.957  1.00  0.00    -0.045 C 
ATOM     51  H   UNL     1     -47.943  31.220  20.127  1.00  0.00     0.032 H 
ATOM     52  H   UNL     1     -50.146  31.328  21.351  1.00  0.00     0.032 H 
ATOM     53  H   UNL     1     -48.751  28.525  21.511  1.00  0.00     0.027 H 
ATOM     54  H   UNL     1     -49.540  29.225  20.028  1.00  0.00     0.027 H 
ENDBRANCH  38  41
ENDBRANCH   6  38
TORSDOF 5
ENDMDL
MODEL 4
REMARK VINA RESULT:     -10.3      2.811     11.417
REMARK SMILES O=C(NCc1ccc2cc(CN3C[C@H]4C[C@H]4C3)[nH]c2c1)c1cc(=O)n2ccccc2n1
REMARK SMILES IDX 5 1 6 2 7 3 8 4 9 5 10 6 18 7 19 8 20 9 4 15 3 18 1 19 2 20
REMARK SMILES IDX 21 22 22 23 31 24 23 25 30 27 24 28 25 29 29 30 26 31 28 32
REMARK SMILES IDX 27 34 11 38 12 41 13 42 17 43 14 44 16 47 15 50
REMARK H PARENT 6 10 7 11 9 12 18 13 20 14 4 16 4 17 3 21 22 26 29 33 26 35
REMARK H PARENT 28 36 27 37 11 39 11 40 13 45 13 46 17 48 17 49 14 51 16 52
REMARK H PARENT 15 53 15 54
REMARK Flexibility Score: inf
ROOT
ATOM      1  C   UNL     1     -48.030  34.168  26.585  1.00  0.00    -0.027 A 
ATOM      2  C   UNL     1     -46.769  33.688  26.963  1.00  0.00    -0.057 A 
ATOM      3  C   UNL     1     -45.772  34.555  27.430  1.00  0.00    -0.052 A 
ATOM      4  C   UNL     1     -46.044  35.932  27.518  1.00  0.00    -0.000 A 
ATOM      5  C   UNL     1     -45.292  37.064  27.933  1.00  0.00    -0.032 A 
ATOM      6  C   UNL     1     -46.088  38.184  27.797  1.00  0.00     0.030 A 
ATOM      7  N   UNL     1     -47.302  37.760  27.311  1.00  0.00    -0.357 N 
ATOM      8  C   UNL     1     -47.300  36.394  27.133  1.00  0.00     0.046 A 
ATOM      9  C   UNL     1     -48.308  35.543  26.660  1.00  0.00    -0.033 A 
ATOM     10  H   UNL     1     -46.549  32.624  26.891  1.00  0.00     0.063 H 
ATOM     11  H   UNL     1     -44.801  34.166  27.718  1.00  0.00     0.063 H 
ATOM     12  H   UNL     1     -44.269  37.065  28.289  1.00  0.00     0.065 H 
ATOM     13  H   UNL     1     -48.088  38.359  27.107  1.00  0.00     0.166 HD
ATOM     14  H   UNL     1     -49.275  35.938  26.362  1.00  0.00     0.065 H 
ENDROOT
BRANCH   1  15
ATOM     15  C   UNL     1     -49.071  33.208  26.065  1.00  0.00     0.043 C 
ATOM     16  H   UNL     1     -49.460  33.553  25.100  1.00  0.00     0.054 H 
ATOM     17  H   UNL     1     -49.919  33.158  26.756  1.00  0.00     0.054 H 
BRANCH  15  18
ATOM     18  N   UNL     1     -48.502  31.902  25.854  1.00  0.00    -0.347 N 
ATOM     19  O   UNL     1     -49.033  31.721  23.622  1.00  0.00    -0.268 OA
ATOM     20  C   UNL     1     -48.596  31.234  24.658  1.00  0.00     0.270 C 
ATOM     21  H   UNL     1     -48.227  31.344  26.655  1.00  0.00     0.164 HD
BRANCH  20  22
ATOM     22  C   UNL     1     -48.107  29.809  24.757  1.00  0.00     0.136 A 
ATOM     23  C   UNL     1     -47.143  29.452  23.906  1.00  0.00     0.035 A 
ATOM     24  N   UNL     1     -48.676  28.976  25.694  1.00  0.00    -0.225 NA
ATOM     25  C   UNL     1     -46.641  28.073  23.961  1.00  0.00     0.258 A 
ATOM     26  H   UNL     1     -46.705  30.115  23.172  1.00  0.00     0.071 H 
ATOM     27  C   UNL     1     -48.234  27.756  25.735  1.00  0.00     0.140 A 
ATOM     28  O   UNL     1     -45.748  27.737  23.185  1.00  0.00    -0.269 OA
ATOM     29  N   UNL     1     -47.235  27.253  24.909  1.00  0.00    -0.268 N 
ATOM     30  C   UNL     1     -48.825  26.816  26.730  1.00  0.00    -0.019 A 
ATOM     31  C   UNL     1     -46.816  25.931  25.019  1.00  0.00     0.014 A 
ATOM     32  C   UNL     1     -48.388  25.553  26.798  1.00  0.00    -0.057 A 
ATOM     33  H   UNL     1     -49.604  27.199  27.376  1.00  0.00     0.066 H 
ATOM     34  C   UNL     1     -47.350  25.092  25.915  1.00  0.00    -0.045 A 
ATOM     35  H   UNL     1     -46.030  25.605  24.342  1.00  0.00     0.082 H 
ATOM     36  H   UNL     1     -48.806  24.853  27.514  1.00  0.00     0.062 H 
ATOM     37  H   UNL     1     -47.015  24.063  25.990  1.00  0.00     0.064 H 
ENDBRANCH  20  22
ENDBRANCH  15  18
ENDBRANCH   1  15
BRANCH   6  38
ATOM     38  C   UNL     1     -45.808  39.622  28.093  1.00  0.00     0.039 C 
ATOM     39  H   UNL     1     -45.864  39.748  29.181  1.00  0.00     0.050 H 
ATOM     40  H   UNL     1     -46.588  40.263  27.662  1.00  0.00     0.050 H 
BRANCH  38  41
ATOM     41  N   UNL     1     -44.485  40.016  27.624  1.00  0.00    -0.297 NA
ATOM     42  C   UNL     1     -44.504  41.154  26.692  1.00  0.00     0.002 C 
ATOM     43  C   UNL     1     -43.584  40.344  28.739  1.00  0.00     0.002 C 
ATOM     44  C   UNL     1     -43.105  41.682  26.797  1.00  0.00    -0.024 C 
ATOM     45  H   UNL     1     -44.725  40.828  25.670  1.00  0.00     0.043 H 
ATOM     46  H   UNL     1     -45.222  41.929  26.988  1.00  0.00     0.043 H 
ATOM     47  C   UNL     1     -42.531  41.175  28.074  1.00  0.00    -0.024 C 
ATOM     48  H   UNL     1     -43.162  39.435  29.176  1.00  0.00     0.043 H 
ATOM     49  H   UNL     1     -44.083  40.925  29.525  1.00  0.00     0.043 H 
ATOM     50  C   UNL     1     -42.691  42.658  27.867  1.00  0.00    -0.045 C 
ATOM     51  H   UNL     1     -42.523  41.581  25.893  1.00  0.00     0.032 H 
ATOM     52  H   UNL     1     -41.550  40.722  28.056  1.00  0.00     0.032 H 
ATOM     53  H   UNL     1     -43.463  43.181  28.421  1.00  0.00     0.027 H 
ATOM     54  H   UNL     1     -41.794  43.243  27.696  1.00  0.00     0.027 H 
ENDBRANCH  38  41
ENDBRANCH   6  38
TORSDOF 5
ENDMDL
MODEL 5
REMARK VINA RESULT:     -10.0      1.777      2.366
REMARK SMILES O=C(NCc1ccc2cc(CN3C[C@H]4C[C@H]4C3)[nH]c2c1)c1cc(=O)n2ccccc2n1
REMARK SMILES IDX 5 1 6 2 7 3 8 4 9 5 10 6 18 7 19 8 20 9 4 15 3 18 1 19 2 20
REMARK SMILES IDX 21 22 22 23 31 24 23 25 30 27 24 28 25 29 29 30 26 31 28 32
REMARK SMILES IDX 27 34 11 38 12 41 13 42 17 43 14 44 16 47 15 50
REMARK H PARENT 6 10 7 11 9 12 18 13 20 14 4 16 4 17 3 21 22 26 29 33 26 35
REMARK H PARENT 28 36 27 37 11 39 11 40 13 45 13 46 17 48 17 49 14 51 16 52
REMARK H PARENT 15 53 15 54
REMARK Flexibility Score: inf
ROOT
ATOM      1  C   UNL     1     -47.770  35.230  26.819  1.00  0.00    -0.027 A 
ATOM      2  C   UNL     1     -46.503  35.057  26.248  1.00  0.00    -0.057 A 
ATOM      3  C   UNL     1     -46.199  33.925  25.482  1.00  0.00    -0.052 A 
ATOM      4  C   UNL     1     -47.186  32.943  25.285  1.00  0.00    -0.000 A 
ATOM      5  C   UNL     1     -47.224  31.705  24.587  1.00  0.00    -0.032 A 
ATOM      6  C   UNL     1     -48.482  31.158  24.748  1.00  0.00     0.030 A 
ATOM      7  N   UNL     1     -49.205  32.032  25.525  1.00  0.00    -0.357 N 
ATOM      8  C   UNL     1     -48.440  33.125  25.864  1.00  0.00     0.046 A 
ATOM      9  C   UNL     1     -48.761  34.249  26.637  1.00  0.00    -0.033 A 
ATOM     10  H   UNL     1     -45.731  35.811  26.402  1.00  0.00     0.063 H 
ATOM     11  H   UNL     1     -45.212  33.809  25.047  1.00  0.00     0.063 H 
ATOM     12  H   UNL     1     -46.415  31.253  24.029  1.00  0.00     0.065 H 
ATOM     13  H   UNL     1     -50.163  31.897  25.814  1.00  0.00     0.166 HD
ATOM     14  H   UNL     1     -49.746  34.357  27.079  1.00  0.00     0.065 H 
ENDROOT
BRANCH   1  15
ATOM     15  C   UNL     1     -48.055  36.451  27.659  1.00  0.00     0.043 C 
ATOM     16  H   UNL     1     -48.241  36.164  28.700  1.00  0.00     0.054 H 
ATOM     17  H   UNL     1     -48.955  36.957  27.296  1.00  0.00     0.054 H 
BRANCH  15  18
ATOM     18  N   UNL     1     -46.926  37.346  27.657  1.00  0.00    -0.347 N 
ATOM     19  O   UNL     1     -46.150  36.821  29.759  1.00  0.00    -0.268 OA
ATOM     20  C   UNL     1     -46.104  37.508  28.745  1.00  0.00     0.270 C 
ATOM     21  H   UNL     1     -46.854  38.054  26.935  1.00  0.00     0.164 HD
BRANCH  20  22
ATOM     22  C   UNL     1     -45.131  38.648  28.563  1.00  0.00     0.136 A 
ATOM     23  C   UNL     1     -44.247  38.835  29.545  1.00  0.00     0.035 A 
ATOM     24  N   UNL     1     -45.215  39.417  27.424  1.00  0.00    -0.225 NA
ATOM     25  C   UNL     1     -43.285  39.936  29.415  1.00  0.00     0.258 A 
ATOM     26  H   UNL     1     -44.192  38.225  30.438  1.00  0.00     0.071 H 
ATOM     27  C   UNL     1     -44.367  40.394  27.317  1.00  0.00     0.140 A 
ATOM     28  O   UNL     1     -42.462  40.113  30.312  1.00  0.00    -0.269 OA
ATOM     29  N   UNL     1     -43.394  40.700  28.262  1.00  0.00    -0.268 N 
ATOM     30  C   UNL     1     -44.424  41.257  26.102  1.00  0.00    -0.019 A 
ATOM     31  C   UNL     1     -42.520  41.765  28.070  1.00  0.00     0.014 A 
ATOM     32  C   UNL     1     -43.561  42.271  25.962  1.00  0.00    -0.057 A 
ATOM     33  H   UNL     1     -45.179  41.028  25.362  1.00  0.00     0.066 H 
ATOM     34  C   UNL     1     -42.577  42.536  26.977  1.00  0.00    -0.045 A 
ATOM     35  H   UNL     1     -41.785  41.947  28.849  1.00  0.00     0.082 H 
ATOM     36  H   UNL     1     -43.587  42.911  25.087  1.00  0.00     0.062 H 
ATOM     37  H   UNL     1     -41.890  43.364  26.838  1.00  0.00     0.064 H 
ENDBRANCH  20  22
ENDBRANCH  15  18
ENDBRANCH   1  15
BRANCH   6  38
ATOM     38  C   UNL     1     -49.067  29.886  24.228  1.00  0.00     0.039 C 
ATOM     39  H   UNL     1     -49.991  29.697  24.789  1.00  0.00     0.050 H 
ATOM     40  H   UNL     1     -48.397  29.041  24.434  1.00  0.00     0.050 H 
BRANCH  38  41
ATOM     41  N   UNL     1     -49.371  29.979  22.805  1.00  0.00    -0.297 NA
ATOM     42  C   UNL     1     -48.412  29.266  21.948  1.00  0.00     0.002 C 
ATOM     43  C   UNL     1     -50.723  29.486  22.501  1.00  0.00     0.002 C 
ATOM     44  C   UNL     1     -49.198  29.054  20.689  1.00  0.00    -0.024 C 
ATOM     45  H   UNL     1     -47.521  29.874  21.757  1.00  0.00     0.043 H 
ATOM     46  H   UNL     1     -48.107  28.300  22.369  1.00  0.00     0.043 H 
ATOM     47  C   UNL     1     -50.640  29.193  21.035  1.00  0.00    -0.024 C 
ATOM     48  H   UNL     1     -51.473  30.252  22.715  1.00  0.00     0.043 H 
ATOM     49  H   UNL     1     -50.971  28.572  23.056  1.00  0.00     0.043 H 
ATOM     50  C   UNL     1     -50.125  27.880  20.507  1.00  0.00    -0.045 C 
ATOM     51  H   UNL     1     -48.819  29.590  19.832  1.00  0.00     0.032 H 
ATOM     52  H   UNL     1     -51.262  29.824  20.417  1.00  0.00     0.032 H 
ATOM     53  H   UNL     1     -50.041  27.041  21.189  1.00  0.00     0.027 H 
ATOM     54  H   UNL     1     -50.393  27.603  19.494  1.00  0.00     0.027 H 
ENDBRANCH  38  41
ENDBRANCH   6  38
TORSDOF 5
ENDMDL
MODEL 6
REMARK VINA RESULT:      -9.9      2.210      3.247
REMARK SMILES O=C(NCc1ccc2cc(CN3C[C@H]4C[C@H]4C3)[nH]c2c1)c1cc(=O)n2ccccc2n1
REMARK SMILES IDX 5 1 6 2 7 3 8 4 9 5 10 6 18 7 19 8 20 9 4 15 3 18 1 19 2 20
REMARK SMILES IDX 21 22 22 23 31 24 23 25 30 27 24 28 25 29 29 30 26 31 28 32
REMARK SMILES IDX 27 34 11 38 12 41 13 42 17 43 14 44 16 47 15 50
REMARK H PARENT 6 10 7 11 9 12 18 13 20 14 4 16 4 17 3 21 22 26 29 33 26 35
REMARK H PARENT 28 36 27 37 11 39 11 40 13 45 13 46 17 48 17 49 14 51 16 52
REMARK H PARENT 15 53 15 54
REMARK Flexibility Score: inf
ROOT
ATOM      1  C   UNL     1     -47.633  36.637  27.329  1.00  0.00    -0.027 A 
ATOM      2  C   UNL     1     -46.282  36.291  27.187  1.00  0.00    -0.057 A 
ATOM      3  C   UNL     1     -45.900  35.009  26.773  1.00  0.00    -0.052 A 
ATOM      4  C   UNL     1     -46.893  34.051  26.496  1.00  0.00    -0.000 A 
ATOM      5  C   UNL     1     -46.868  32.696  26.070  1.00  0.00    -0.032 A 
ATOM      6  C   UNL     1     -48.172  32.251  25.969  1.00  0.00     0.030 A 
ATOM      7  N   UNL     1     -48.984  33.302  26.323  1.00  0.00    -0.357 N 
ATOM      8  C   UNL     1     -48.231  34.407  26.648  1.00  0.00     0.046 A 
ATOM      9  C   UNL     1     -48.632  35.684  27.065  1.00  0.00    -0.033 A 
ATOM     10  H   UNL     1     -45.508  37.026  27.405  1.00  0.00     0.063 H 
ATOM     11  H   UNL     1     -44.850  34.759  26.668  1.00  0.00     0.063 H 
ATOM     12  H   UNL     1     -45.988  32.099  25.864  1.00  0.00     0.065 H 
ATOM     13  H   UNL     1     -49.993  33.274  26.347  1.00  0.00     0.166 HD
ATOM     14  H   UNL     1     -49.684  35.927  27.179  1.00  0.00     0.065 H 
ENDROOT
BRANCH   1  15
ATOM     15  C   UNL     1     -48.007  38.020  27.800  1.00  0.00     0.043 C 
ATOM     16  H   UNL     1     -48.280  38.002  28.861  1.00  0.00     0.054 H 
ATOM     17  H   UNL     1     -48.879  38.385  27.247  1.00  0.00     0.054 H 
BRANCH  15  18
ATOM     18  N   UNL     1     -46.894  38.925  27.661  1.00  0.00    -0.347 N 
ATOM     19  O   UNL     1     -47.966  40.488  26.356  1.00  0.00    -0.268 OA
ATOM     20  C   UNL     1     -46.949  40.056  26.885  1.00  0.00     0.270 C 
ATOM     21  H   UNL     1     -45.969  38.622  27.943  1.00  0.00     0.164 HD
BRANCH  20  22
ATOM     22  C   UNL     1     -45.598  40.716  26.738  1.00  0.00     0.136 A 
ATOM     23  C   UNL     1     -44.702  40.450  27.691  1.00  0.00     0.035 A 
ATOM     24  N   UNL     1     -45.377  41.542  25.659  1.00  0.00    -0.225 NA
ATOM     25  C   UNL     1     -43.377  41.075  27.594  1.00  0.00     0.258 A 
ATOM     26  H   UNL     1     -44.889  39.801  28.536  1.00  0.00     0.071 H 
ATOM     27  C   UNL     1     -44.206  42.098  25.582  1.00  0.00     0.140 A 
ATOM     28  O   UNL     1     -42.542  40.830  28.463  1.00  0.00    -0.269 OA
ATOM     29  N   UNL     1     -43.181  41.907  26.502  1.00  0.00    -0.268 N 
ATOM     30  C   UNL     1     -43.923  43.005  24.432  1.00  0.00    -0.019 A 
ATOM     31  C   UNL     1     -41.952  42.540  26.344  1.00  0.00     0.014 A 
ATOM     32  C   UNL     1     -42.724  43.591  24.324  1.00  0.00    -0.057 A 
ATOM     33  H   UNL     1     -44.715  43.161  23.712  1.00  0.00     0.066 H 
ATOM     34  C   UNL     1     -41.704  43.353  25.310  1.00  0.00    -0.045 A 
ATOM     35  H   UNL     1     -41.197  42.345  27.101  1.00  0.00     0.082 H 
ATOM     36  H   UNL     1     -42.498  44.255  23.496  1.00  0.00     0.062 H 
ATOM     37  H   UNL     1     -40.742  43.841  25.198  1.00  0.00     0.064 H 
ENDBRANCH  20  22
ENDBRANCH  15  18
ENDBRANCH   1  15
BRANCH   6  38
ATOM     38  C   UNL     1     -48.721  30.924  25.560  1.00  0.00     0.039 C 
ATOM     39  H   UNL     1     -49.790  31.062  25.355  1.00  0.00     0.050 H 
ATOM     40  H   UNL     1     -48.651  30.205  26.387  1.00  0.00     0.050 H 
BRANCH  38  41
ATOM     41  N   UNL     1     -48.057  30.415  24.365  1.00  0.00    -0.297 NA
ATOM     42  C   UNL     1     -48.114  28.951  24.236  1.00  0.00     0.002 C 
ATOM     43  C   UNL     1     -48.607  31.011  23.138  1.00  0.00     0.002 C 
ATOM     44  C   UNL     1     -47.882  28.746  22.770  1.00  0.00    -0.024 C 
ATOM     45  H   UNL     1     -47.329  28.469  24.829  1.00  0.00     0.043 H 
ATOM     46  H   UNL     1     -49.089  28.539  24.525  1.00  0.00     0.043 H 
ATOM     47  C   UNL     1     -48.189  30.032  22.085  1.00  0.00    -0.024 C 
ATOM     48  H   UNL     1     -48.176  32.000  22.960  1.00  0.00     0.043 H 
ATOM     49  H   UNL     1     -49.701  31.093  23.165  1.00  0.00     0.043 H 
ATOM     50  C   UNL     1     -49.001  28.805  21.762  1.00  0.00    -0.045 C 
ATOM     51  H   UNL     1     -46.957  28.242  22.532  1.00  0.00     0.032 H 
ATOM     52  H   UNL     1     -47.477  30.421  21.372  1.00  0.00     0.032 H 
ATOM     53  H   UNL     1     -50.023  28.749  22.117  1.00  0.00     0.027 H 
ATOM     54  H   UNL     1     -48.838  28.332  20.800  1.00  0.00     0.027 H 
ENDBRANCH  38  41
ENDBRANCH   6  38
TORSDOF 5
ENDMDL
MODEL 7
REMARK VINA RESULT:      -9.9      2.224      3.283
REMARK SMILES O=C(NCc1ccc2cc(CN3C[C@H]4C[C@H]4C3)[nH]c2c1)c1cc(=O)n2ccccc2n1
REMARK SMILES IDX 5 1 6 2 7 3 8 4 9 5 10 6 18 7 19 8 20 9 4 15 3 18 1 19 2 20
REMARK SMILES IDX 21 22 22 23 31 24 23 25 30 27 24 28 25 29 29 30 26 31 28 32
REMARK SMILES IDX 27 34 11 38 12 41 13 42 17 43 14 44 16 47 15 50
REMARK H PARENT 6 10 7 11 9 12 18 13 20 14 4 16 4 17 3 21 22 26 29 33 26 35
REMARK H PARENT 28 36 27 37 11 39 11 40 13 45 13 46 17 48 17 49 14 51 16 52
REMARK H PARENT 15 53 15 54
REMARK Flexibility Score: inf
ROOT
ATOM      1  C   UNL     1     -47.855  35.146  26.747  1.00  0.00    -0.027 A 
ATOM      2  C   UNL     1     -46.582  35.083  26.167  1.00  0.00    -0.057 A 
ATOM      3  C   UNL     1     -46.185  33.979  25.401  1.00  0.00    -0.052 A 
ATOM      4  C   UNL     1     -47.084  32.913  25.215  1.00  0.00    -0.000 A 
ATOM      5  C   UNL     1     -47.018  31.674  24.522  1.00  0.00    -0.032 A 
ATOM      6  C   UNL     1     -48.222  31.020  24.695  1.00  0.00     0.030 A 
ATOM      7  N   UNL     1     -49.013  31.829  25.474  1.00  0.00    -0.357 N 
ATOM      8  C   UNL     1     -48.344  32.986  25.804  1.00  0.00     0.046 A 
ATOM      9  C   UNL     1     -48.757  34.081  26.576  1.00  0.00    -0.033 A 
ATOM     10  H   UNL     1     -45.878  35.902  26.312  1.00  0.00     0.063 H 
ATOM     11  H   UNL     1     -45.195  33.948  24.959  1.00  0.00     0.063 H 
ATOM     12  H   UNL     1     -46.177  31.293  23.958  1.00  0.00     0.065 H 
ATOM     13  H   UNL     1     -49.954  31.612  25.771  1.00  0.00     0.166 HD
ATOM     14  H   UNL     1     -49.745  34.104  27.026  1.00  0.00     0.065 H 
ENDROOT
BRANCH   1  15
ATOM     15  C   UNL     1     -48.239  36.340  27.585  1.00  0.00     0.043 C 
ATOM     16  H   UNL     1     -48.475  36.029  28.609  1.00  0.00     0.054 H 
ATOM     17  H   UNL     1     -49.137  36.816  27.176  1.00  0.00     0.054 H 
BRANCH  15  18
ATOM     18  N   UNL     1     -47.151  37.280  27.664  1.00  0.00    -0.347 N 
ATOM     19  O   UNL     1     -48.433  39.174  27.910  1.00  0.00    -0.268 OA
ATOM     20  C   UNL     1     -47.344  38.637  27.749  1.00  0.00     0.270 C 
ATOM     21  H   UNL     1     -46.214  36.978  27.418  1.00  0.00     0.164 HD
BRANCH  20  22
ATOM     22  C   UNL     1     -46.055  39.410  27.607  1.00  0.00     0.136 A 
ATOM     23  C   UNL     1     -45.878  40.063  26.457  1.00  0.00     0.035 A 
ATOM     24  N   UNL     1     -45.152  39.390  28.647  1.00  0.00    -0.225 NA
ATOM     25  C   UNL     1     -44.636  40.823  26.271  1.00  0.00     0.258 A 
ATOM     26  H   UNL     1     -46.594  40.068  25.646  1.00  0.00     0.071 H 
ATOM     27  C   UNL     1     -44.052  40.058  28.475  1.00  0.00     0.140 A 
ATOM     28  O   UNL     1     -44.467  41.433  25.217  1.00  0.00    -0.269 OA
ATOM     29  N   UNL     1     -43.741  40.782  27.330  1.00  0.00    -0.268 N 
ATOM     30  C   UNL     1     -43.042  40.061  29.573  1.00  0.00    -0.019 A 
ATOM     31  C   UNL     1     -42.538  41.474  27.227  1.00  0.00     0.014 A 
ATOM     32  C   UNL     1     -41.899  40.742  29.427  1.00  0.00    -0.057 A 
ATOM     33  H   UNL     1     -43.275  39.499  30.467  1.00  0.00     0.066 H 
ATOM     34  C   UNL     1     -41.636  41.473  28.216  1.00  0.00    -0.045 A 
ATOM     35  H   UNL     1     -42.360  42.019  26.304  1.00  0.00     0.082 H 
ATOM     36  H   UNL     1     -41.151  40.757  30.212  1.00  0.00     0.062 H 
ATOM     37  H   UNL     1     -40.701  42.016  28.124  1.00  0.00     0.064 H 
ENDBRANCH  20  22
ENDBRANCH  15  18
ENDBRANCH   1  15
BRANCH   6  38
ATOM     38  C   UNL     1     -48.697  29.699  24.183  1.00  0.00     0.039 C 
ATOM     39  H   UNL     1     -49.241  29.208  25.000  1.00  0.00     0.050 H 
ATOM     40  H   UNL     1     -47.845  29.050  23.940  1.00  0.00     0.050 H 
BRANCH  38  41
ATOM     41  N   UNL     1     -49.581  29.856  23.034  1.00  0.00    -0.297 NA
ATOM     42  C   UNL     1     -50.983  30.111  23.398  1.00  0.00     0.002 C 
ATOM     43  C   UNL     1     -49.130  30.933  22.140  1.00  0.00     0.002 C 
ATOM     44  C   UNL     1     -51.530  30.748  22.156  1.00  0.00    -0.024 C 
ATOM     45  H   UNL     1     -51.510  29.178  23.626  1.00  0.00     0.043 H 
ATOM     46  H   UNL     1     -51.080  30.798  24.248  1.00  0.00     0.043 H 
ATOM     47  C   UNL     1     -50.373  31.259  21.371  1.00  0.00    -0.024 C 
ATOM     48  H   UNL     1     -48.331  30.581  21.481  1.00  0.00     0.043 H 
ATOM     49  H   UNL     1     -48.782  31.817  22.689  1.00  0.00     0.043 H 
ATOM     50  C   UNL     1     -51.406  32.225  21.888  1.00  0.00    -0.045 C 
ATOM     51  H   UNL     1     -52.280  30.160  21.648  1.00  0.00     0.032 H 
ATOM     52  H   UNL     1     -50.320  31.027  20.317  1.00  0.00     0.032 H 
ATOM     53  H   UNL     1     -51.141  32.882  22.709  1.00  0.00     0.027 H 
ATOM     54  H   UNL     1     -52.089  32.665  21.170  1.00  0.00     0.027 H 
ENDBRANCH  38  41
ENDBRANCH   6  38
TORSDOF 5
ENDMDL
