MODEL 1
REMARK VINA RESULT:     -11.2      0.000      0.000
REMARK SMILES O=C(NCc1ccc2cc(CNCc3ccccc3)[nH]c2c1)c1cc(=O)n2ccccc2n1
REMARK SMILES IDX 5 1 6 2 7 3 8 4 9 5 10 6 20 7 21 8 22 9 4 15 3 18 1 19 2 20
REMARK SMILES IDX 23 22 24 23 33 24 25 25 32 27 26 28 27 29 31 30 28 31 30 32
REMARK SMILES IDX 29 34 11 38 12 41 13 43 14 46 15 47 19 48 16 49 18 51 17 53
REMARK H PARENT 6 10 7 11 9 12 20 13 22 14 4 16 4 17 3 21 24 26 31 33 28 35
REMARK H PARENT 30 36 29 37 11 39 11 40 12 42 13 44 13 45 15 50 19 52 16 54
REMARK H PARENT 18 55 17 56
REMARK Flexibility Score: inf
ROOT
ATOM      1  C   UNL     1     -48.049  35.462  26.786  1.00  0.00    -0.027 A 
ATOM      2  C   UNL     1     -46.765  35.322  26.242  1.00  0.00    -0.057 A 
ATOM      3  C   UNL     1     -46.379  34.142  25.593  1.00  0.00    -0.052 A 
ATOM      4  C   UNL     1     -47.294  33.077  25.493  1.00  0.00    -0.000 A 
ATOM      5  C   UNL     1     -47.241  31.778  24.918  1.00  0.00    -0.032 A 
ATOM      6  C   UNL     1     -48.461  31.166  25.131  1.00  0.00     0.030 A 
ATOM      7  N   UNL     1     -49.244  32.059  25.823  1.00  0.00    -0.357 N 
ATOM      8  C   UNL     1     -48.561  33.230  26.051  1.00  0.00     0.046 A 
ATOM      9  C   UNL     1     -48.967  34.401  26.703  1.00  0.00    -0.033 A 
ATOM     10  H   UNL     1     -46.048  36.137  26.321  1.00  0.00     0.063 H 
ATOM     11  H   UNL     1     -45.382  34.052  25.171  1.00  0.00     0.063 H 
ATOM     12  H   UNL     1     -46.396  31.339  24.403  1.00  0.00     0.065 H 
ATOM     13  H   UNL     1     -50.204  31.876  26.086  1.00  0.00     0.166 HD
ATOM     14  H   UNL     1     -49.961  34.485  27.133  1.00  0.00     0.065 H 
ENDROOT
BRANCH   1  15
ATOM     15  C   UNL     1     -48.430  36.729  27.507  1.00  0.00     0.043 C 
ATOM     16  H   UNL     1     -49.098  36.513  28.348  1.00  0.00     0.054 H 
ATOM     17  H   UNL     1     -48.973  37.410  26.840  1.00  0.00     0.054 H 
BRANCH  15  18
ATOM     18  N   UNL     1     -47.262  37.405  28.004  1.00  0.00    -0.347 N 
ATOM     19  O   UNL     1     -47.163  38.973  26.331  1.00  0.00    -0.268 OA
ATOM     20  C   UNL     1     -46.713  38.484  27.361  1.00  0.00     0.270 C 
ATOM     21  H   UNL     1     -46.797  37.076  28.845  1.00  0.00     0.164 HD
BRANCH  20  22
ATOM     22  C   UNL     1     -45.483  39.009  28.061  1.00  0.00     0.136 A 
ATOM     23  C   UNL     1     -45.160  38.424  29.215  1.00  0.00     0.035 A 
ATOM     24  N   UNL     1     -44.781  40.041  27.479  1.00  0.00    -0.225 NA
ATOM     25  C   UNL     1     -43.971  38.904  29.928  1.00  0.00     0.258 A 
ATOM     26  H   UNL     1     -45.720  37.613  29.662  1.00  0.00     0.071 H 
ATOM     27  C   UNL     1     -43.730  40.462  28.113  1.00  0.00     0.140 A 
ATOM     28  O   UNL     1     -43.665  38.370  30.995  1.00  0.00    -0.269 OA
ATOM     29  N   UNL     1     -43.280  39.944  29.323  1.00  0.00    -0.268 N 
ATOM     30  C   UNL     1     -42.939  41.578  27.521  1.00  0.00    -0.019 A 
ATOM     31  C   UNL     1     -42.142  40.452  29.940  1.00  0.00     0.014 A 
ATOM     32  C   UNL     1     -41.850  42.034  28.153  1.00  0.00    -0.057 A 
ATOM     33  H   UNL     1     -43.281  41.989  26.580  1.00  0.00     0.066 H 
ATOM     34  C   UNL     1     -41.436  41.455  29.402  1.00  0.00    -0.045 A 
ATOM     35  H   UNL     1     -41.848  39.999  30.884  1.00  0.00     0.082 H 
ATOM     36  H   UNL     1     -41.261  42.845  27.737  1.00  0.00     0.062 H 
ATOM     37  H   UNL     1     -40.550  41.844  29.892  1.00  0.00     0.064 H 
ENDBRANCH  20  22
ENDBRANCH  15  18
ENDBRANCH   1  15
BRANCH   6  38
ATOM     38  C   UNL     1     -48.960  29.813  24.761  1.00  0.00     0.036 C 
ATOM     39  H   UNL     1     -49.008  29.182  25.657  1.00  0.00     0.049 H 
ATOM     40  H   UNL     1     -49.975  29.912  24.360  1.00  0.00     0.049 H 
BRANCH  38  41
ATOM     41  N   UNL     1     -48.072  29.222  23.766  1.00  0.00    -0.307 NA
ATOM     42  H   UNL     1     -47.127  29.198  24.150  1.00  0.00     0.123 HD
BRANCH  41  43
ATOM     43  C   UNL     1     -48.478  27.852  23.459  1.00  0.00     0.021 C 
ATOM     44  H   UNL     1     -49.554  27.803  23.250  1.00  0.00     0.048 H 
ATOM     45  H   UNL     1     -47.962  27.490  22.560  1.00  0.00     0.048 H 
BRANCH  43  46
ATOM     46  C   UNL     1     -48.147  26.930  24.607  1.00  0.00    -0.034 A 
ATOM     47  C   UNL     1     -49.161  26.244  25.291  1.00  0.00    -0.058 A 
ATOM     48  C   UNL     1     -46.818  26.767  25.027  1.00  0.00    -0.058 A 
ATOM     49  C   UNL     1     -48.850  25.402  26.362  1.00  0.00    -0.062 A 
ATOM     50  H   UNL     1     -50.201  26.362  24.997  1.00  0.00     0.063 H 
ATOM     51  C   UNL     1     -46.509  25.926  26.096  1.00  0.00    -0.062 A 
ATOM     52  H   UNL     1     -46.020  27.306  24.520  1.00  0.00     0.063 H 
ATOM     53  C   UNL     1     -47.524  25.243  26.762  1.00  0.00    -0.062 A 
ATOM     54  H   UNL     1     -49.642  24.873  26.885  1.00  0.00     0.062 H 
ATOM     55  H   UNL     1     -45.476  25.807  26.411  1.00  0.00     0.062 H 
ATOM     56  H   UNL     1     -47.282  24.588  27.596  1.00  0.00     0.062 H 
ENDBRANCH  43  46
ENDBRANCH  41  43
ENDBRANCH  38  41
ENDBRANCH   6  38
TORSDOF 7
ENDMDL
MODEL 2
REMARK VINA RESULT:     -11.1      1.217      2.056
REMARK SMILES O=C(NCc1ccc2cc(CNCc3ccccc3)[nH]c2c1)c1cc(=O)n2ccccc2n1
REMARK SMILES IDX 5 1 6 2 7 3 8 4 9 5 10 6 20 7 21 8 22 9 4 15 3 18 1 19 2 20
REMARK SMILES IDX 23 22 24 23 33 24 25 25 32 27 26 28 27 29 31 30 28 31 30 32
REMARK SMILES IDX 29 34 11 38 12 41 13 43 14 46 15 47 19 48 16 49 18 51 17 53
REMARK H PARENT 6 10 7 11 9 12 20 13 22 14 4 16 4 17 3 21 24 26 31 33 28 35
REMARK H PARENT 30 36 29 37 11 39 11 40 12 42 13 44 13 45 15 50 19 52 16 54
REMARK H PARENT 18 55 17 56
REMARK Flexibility Score: inf
ROOT
ATOM      1  C   UNL     1     -47.750  34.636  26.833  1.00  0.00    -0.027 A 
ATOM      2  C   UNL     1     -46.460  34.468  26.309  1.00  0.00    -0.057 A 
ATOM      3  C   UNL     1     -46.194  33.493  25.339  1.00  0.00    -0.052 A 
ATOM      4  C   UNL     1     -47.239  32.663  24.890  1.00  0.00    -0.000 A 
ATOM      5  C   UNL     1     -47.324  31.605  23.943  1.00  0.00    -0.032 A 
ATOM      6  C   UNL     1     -48.629  31.155  23.921  1.00  0.00     0.030 A 
ATOM      7  N   UNL     1     -49.330  31.909  24.833  1.00  0.00    -0.357 N 
ATOM      8  C   UNL     1     -48.510  32.836  25.431  1.00  0.00     0.046 A 
ATOM      9  C   UNL     1     -48.797  33.804  26.400  1.00  0.00    -0.033 A 
ATOM     10  H   UNL     1     -45.645  35.099  26.656  1.00  0.00     0.063 H 
ATOM     11  H   UNL     1     -45.190  33.380  24.939  1.00  0.00     0.063 H 
ATOM     12  H   UNL     1     -46.512  31.216  23.343  1.00  0.00     0.065 H 
ATOM     13  H   UNL     1     -50.324  31.806  24.998  1.00  0.00     0.166 HD
ATOM     14  H   UNL     1     -49.799  33.909  26.806  1.00  0.00     0.065 H 
ENDROOT
BRANCH   1  15
ATOM     15  C   UNL     1     -48.003  35.670  27.898  1.00  0.00     0.043 C 
ATOM     16  H   UNL     1     -47.935  35.225  28.897  1.00  0.00     0.054 H 
ATOM     17  H   UNL     1     -49.014  36.086  27.807  1.00  0.00     0.054 H 
BRANCH  15  18
ATOM     18  N   UNL     1     -47.053  36.746  27.803  1.00  0.00    -0.347 N 
ATOM     19  O   UNL     1     -46.376  36.661  29.994  1.00  0.00    -0.268 OA
ATOM     20  C   UNL     1     -46.311  37.162  28.878  1.00  0.00     0.270 C 
ATOM     21  H   UNL     1     -46.926  37.243  26.927  1.00  0.00     0.164 HD
BRANCH  20  22
ATOM     22  C   UNL     1     -45.399  38.315  28.538  1.00  0.00     0.136 A 
ATOM     23  C   UNL     1     -45.621  38.926  27.372  1.00  0.00     0.035 A 
ATOM     24  N   UNL     1     -44.411  38.663  29.431  1.00  0.00    -0.225 NA
ATOM     25  C   UNL     1     -44.757  40.054  27.003  1.00  0.00     0.258 A 
ATOM     26  H   UNL     1     -46.401  38.643  26.678  1.00  0.00     0.071 H 
ATOM     27  C   UNL     1     -43.649  39.661  29.101  1.00  0.00     0.140 A 
ATOM     28  O   UNL     1     -44.954  40.623  25.930  1.00  0.00    -0.269 OA
ATOM     29  N   UNL     1     -43.769  40.384  27.920  1.00  0.00    -0.268 N 
ATOM     30  C   UNL     1     -42.565  40.072  30.038  1.00  0.00    -0.019 A 
ATOM     31  C   UNL     1     -42.911  41.442  27.638  1.00  0.00     0.014 A 
ATOM     32  C   UNL     1     -41.764  41.097  29.724  1.00  0.00    -0.057 A 
ATOM     33  H   UNL     1     -42.464  39.514  30.960  1.00  0.00     0.066 H 
ATOM     34  C   UNL     1     -41.940  41.807  28.486  1.00  0.00    -0.045 A 
ATOM     35  H   UNL     1     -43.062  41.965  26.697  1.00  0.00     0.082 H 
ATOM     36  H   UNL     1     -40.970  41.412  30.393  1.00  0.00     0.062 H 
ATOM     37  H   UNL     1     -41.275  42.634  28.256  1.00  0.00     0.064 H 
ENDBRANCH  20  22
ENDBRANCH  15  18
ENDBRANCH   1  15
BRANCH   6  38
ATOM     38  C   UNL     1     -49.282  30.071  23.138  1.00  0.00     0.036 C 
ATOM     39  H   UNL     1     -50.357  30.056  23.356  1.00  0.00     0.049 H 
ATOM     40  H   UNL     1     -49.155  30.285  22.070  1.00  0.00     0.049 H 
BRANCH  38  41
ATOM     41  N   UNL     1     -48.674  28.790  23.478  1.00  0.00    -0.307 NA
ATOM     42  H   UNL     1     -47.736  28.964  23.843  1.00  0.00     0.123 HD
BRANCH  41  43
ATOM     43  C   UNL     1     -49.448  28.106  24.511  1.00  0.00     0.021 C 
ATOM     44  H   UNL     1     -49.836  28.823  25.245  1.00  0.00     0.048 H 
ATOM     45  H   UNL     1     -50.317  27.601  24.070  1.00  0.00     0.048 H 
BRANCH  43  46
ATOM     46  C   UNL     1     -48.600  27.075  25.216  1.00  0.00    -0.034 A 
ATOM     47  C   UNL     1     -47.229  26.966  24.942  1.00  0.00    -0.058 A 
ATOM     48  C   UNL     1     -49.178  26.190  26.138  1.00  0.00    -0.058 A 
ATOM     49  C   UNL     1     -46.452  26.002  25.588  1.00  0.00    -0.062 A 
ATOM     50  H   UNL     1     -46.756  27.630  24.222  1.00  0.00     0.063 H 
ATOM     51  C   UNL     1     -48.400  25.228  26.783  1.00  0.00    -0.062 A 
ATOM     52  H   UNL     1     -50.244  26.247  26.350  1.00  0.00     0.063 H 
ATOM     53  C   UNL     1     -47.037  25.136  26.509  1.00  0.00    -0.062 A 
ATOM     54  H   UNL     1     -45.389  25.927  25.371  1.00  0.00     0.062 H 
ATOM     55  H   UNL     1     -48.859  24.548  27.496  1.00  0.00     0.062 H 
ATOM     56  H   UNL     1     -46.432  24.385  27.011  1.00  0.00     0.062 H 
ENDBRANCH  43  46
ENDBRANCH  41  43
ENDBRANCH  38  41
ENDBRANCH   6  38
TORSDOF 7
ENDMDL
MODEL 3
REMARK VINA RESULT:     -11.1      2.952     12.000
REMARK SMILES O=C(NCc1ccc2cc(CNCc3ccccc3)[nH]c2c1)c1cc(=O)n2ccccc2n1
REMARK SMILES IDX 5 1 6 2 7 3 8 4 9 5 10 6 20 7 21 8 22 9 4 15 3 18 1 19 2 20
REMARK SMILES IDX 23 22 24 23 33 24 25 25 32 27 26 28 27 29 31 30 28 31 30 32
REMARK SMILES IDX 29 34 11 38 12 41 13 43 14 46 15 47 19 48 16 49 18 51 17 53
REMARK H PARENT 6 10 7 11 9 12 20 13 22 14 4 16 4 17 3 21 24 26 31 33 28 35
REMARK H PARENT 30 36 29 37 11 39 11 40 12 42 13 44 13 45 15 50 19 52 16 54
REMARK H PARENT 18 55 17 56
REMARK Flexibility Score: inf
ROOT
ATOM      1  C   UNL     1     -46.800  33.583  25.539  1.00  0.00    -0.027 A 
ATOM      2  C   UNL     1     -48.125  33.880  25.886  1.00  0.00    -0.057 A 
ATOM      3  C   UNL     1     -48.419  34.755  26.939  1.00  0.00    -0.052 A 
ATOM      4  C   UNL     1     -47.364  35.339  27.666  1.00  0.00    -0.000 A 
ATOM      5  C   UNL     1     -47.300  36.246  28.760  1.00  0.00    -0.032 A 
ATOM      6  C   UNL     1     -45.969  36.466  29.055  1.00  0.00     0.030 A 
ATOM      7  N   UNL     1     -45.231  35.712  28.173  1.00  0.00    -0.357 N 
ATOM      8  C   UNL     1     -46.054  35.022  27.315  1.00  0.00     0.046 A 
ATOM      9  C   UNL     1     -45.740  34.151  26.266  1.00  0.00    -0.033 A 
ATOM     10  H   UNL     1     -48.947  33.427  25.335  1.00  0.00     0.063 H 
ATOM     11  H   UNL     1     -49.451  34.979  27.192  1.00  0.00     0.063 H 
ATOM     12  H   UNL     1     -48.142  36.689  29.275  1.00  0.00     0.065 H 
ATOM     13  H   UNL     1     -44.219  35.709  28.150  1.00  0.00     0.166 HD
ATOM     14  H   UNL     1     -44.707  33.920  26.022  1.00  0.00     0.065 H 
ENDROOT
BRANCH   1  15
ATOM     15  C   UNL     1     -46.510  32.614  24.422  1.00  0.00     0.043 C 
ATOM     16  H   UNL     1     -45.430  32.502  24.274  1.00  0.00     0.054 H 
ATOM     17  H   UNL     1     -46.922  32.977  23.473  1.00  0.00     0.054 H 
BRANCH  15  18
ATOM     18  N   UNL     1     -47.077  31.323  24.707  1.00  0.00    -0.347 N 
ATOM     19  O   UNL     1     -47.971  30.990  22.620  1.00  0.00    -0.268 OA
ATOM     20  C   UNL     1     -47.777  30.610  23.768  1.00  0.00     0.270 C 
ATOM     21  H   UNL     1     -46.987  30.916  25.632  1.00  0.00     0.164 HD
BRANCH  20  22
ATOM     22  C   UNL     1     -48.289  29.296  24.305  1.00  0.00     0.136 A 
ATOM     23  C   UNL     1     -49.612  29.125  24.299  1.00  0.00     0.035 A 
ATOM     24  N   UNL     1     -47.379  28.368  24.761  1.00  0.00    -0.225 NA
ATOM     25  C   UNL     1     -50.152  27.861  24.812  1.00  0.00     0.258 A 
ATOM     26  H   UNL     1     -50.317  29.863  23.938  1.00  0.00     0.071 H 
ATOM     27  C   UNL     1     -47.862  27.251  25.214  1.00  0.00     0.140 A 
ATOM     28  O   UNL     1     -51.372  27.695  24.810  1.00  0.00    -0.269 OA
ATOM     29  N   UNL     1     -49.216  26.943  25.266  1.00  0.00    -0.268 N 
ATOM     30  C   UNL     1     -46.914  26.217  25.718  1.00  0.00    -0.019 A 
ATOM     31  C   UNL     1     -49.654  25.721  25.767  1.00  0.00     0.014 A 
ATOM     32  C   UNL     1     -47.382  25.056  26.191  1.00  0.00    -0.057 A 
ATOM     33  H   UNL     1     -45.857  26.448  25.682  1.00  0.00     0.066 H 
ATOM     34  C   UNL     1     -48.796  24.797  26.218  1.00  0.00    -0.045 A 
ATOM     35  H   UNL     1     -50.727  25.547  25.778  1.00  0.00     0.082 H 
ATOM     36  H   UNL     1     -46.708  24.291  26.562  1.00  0.00     0.062 H 
ATOM     37  H   UNL     1     -49.148  23.847  26.608  1.00  0.00     0.064 H 
ENDBRANCH  20  22
ENDBRANCH  15  18
ENDBRANCH   1  15
BRANCH   6  38
ATOM     38  C   UNL     1     -45.319  37.305  30.099  1.00  0.00     0.036 C 
ATOM     39  H   UNL     1     -45.722  37.041  31.085  1.00  0.00     0.049 H 
ATOM     40  H   UNL     1     -44.244  37.089  30.103  1.00  0.00     0.049 H 
BRANCH  38  41
ATOM     41  N   UNL     1     -45.557  38.714  29.809  1.00  0.00    -0.307 NA
ATOM     42  H   UNL     1     -45.055  39.275  30.499  1.00  0.00     0.123 HD
BRANCH  41  43
ATOM     43  C   UNL     1     -45.055  39.062  28.482  1.00  0.00     0.021 C 
ATOM     44  H   UNL     1     -44.789  38.160  27.918  1.00  0.00     0.048 H 
ATOM     45  H   UNL     1     -45.827  39.584  27.903  1.00  0.00     0.048 H 
BRANCH  43  46
ATOM     46  C   UNL     1     -43.846  39.960  28.590  1.00  0.00    -0.034 A 
ATOM     47  C   UNL     1     -43.511  40.840  27.550  1.00  0.00    -0.058 A 
ATOM     48  C   UNL     1     -43.022  39.908  29.724  1.00  0.00    -0.058 A 
ATOM     49  C   UNL     1     -42.384  41.658  27.650  1.00  0.00    -0.062 A 
ATOM     50  H   UNL     1     -44.124  40.892  26.653  1.00  0.00     0.063 H 
ATOM     51  C   UNL     1     -41.896  40.727  29.822  1.00  0.00    -0.062 A 
ATOM     52  H   UNL     1     -43.255  39.218  30.533  1.00  0.00     0.063 H 
ATOM     53  C   UNL     1     -41.579  41.603  28.787  1.00  0.00    -0.062 A 
ATOM     54  H   UNL     1     -42.133  42.338  26.840  1.00  0.00     0.062 H 
ATOM     55  H   UNL     1     -41.266  40.678  30.706  1.00  0.00     0.062 H 
ATOM     56  H   UNL     1     -40.701  42.240  28.863  1.00  0.00     0.062 H 
ENDBRANCH  43  46
ENDBRANCH  41  43
ENDBRANCH  38  41
ENDBRANCH   6  38
TORSDOF 7
ENDMDL
MODEL 4
REMARK VINA RESULT:     -10.8      1.647      2.767
REMARK SMILES O=C(NCc1ccc2cc(CNCc3ccccc3)[nH]c2c1)c1cc(=O)n2ccccc2n1
REMARK SMILES IDX 5 1 6 2 7 3 8 4 9 5 10 6 20 7 21 8 22 9 4 15 3 18 1 19 2 20
REMARK SMILES IDX 23 22 24 23 33 24 25 25 32 27 26 28 27 29 31 30 28 31 30 32
REMARK SMILES IDX 29 34 11 38 12 41 13 43 14 46 15 47 19 48 16 49 18 51 17 53
REMARK H PARENT 6 10 7 11 9 12 20 13 22 14 4 16 4 17 3 21 24 26 31 33 28 35
REMARK H PARENT 30 36 29 37 11 39 11 40 12 42 13 44 13 45 15 50 19 52 16 54
REMARK H PARENT 18 55 17 56
REMARK Flexibility Score: inf
ROOT
ATOM      1  C   UNL     1     -46.721  35.007  27.663  1.00  0.00    -0.027 A 
ATOM      2  C   UNL     1     -48.085  35.008  27.337  1.00  0.00    -0.057 A 
ATOM      3  C   UNL     1     -48.600  34.128  26.377  1.00  0.00    -0.052 A 
ATOM      4  C   UNL     1     -47.732  33.234  25.723  1.00  0.00    -0.000 A 
ATOM      5  C   UNL     1     -47.908  32.232  24.729  1.00  0.00    -0.032 A 
ATOM      6  C   UNL     1     -46.676  31.666  24.469  1.00  0.00     0.030 A 
ATOM      7  N   UNL     1     -45.762  32.303  25.275  1.00  0.00    -0.357 N 
ATOM      8  C   UNL     1     -46.378  33.256  26.050  1.00  0.00     0.046 A 
ATOM      9  C   UNL     1     -45.843  34.127  27.007  1.00  0.00    -0.033 A 
ATOM     10  H   UNL     1     -48.762  35.701  27.832  1.00  0.00     0.063 H 
ATOM     11  H   UNL     1     -49.660  34.137  26.140  1.00  0.00     0.063 H 
ATOM     12  H   UNL     1     -48.842  31.957  24.255  1.00  0.00     0.065 H 
ATOM     13  H   UNL     1     -44.779  32.063  25.306  1.00  0.00     0.166 HD
ATOM     14  H   UNL     1     -44.781  34.123  27.234  1.00  0.00     0.065 H 
ENDROOT
BRANCH   1  15
ATOM     15  C   UNL     1     -46.186  35.985  28.676  1.00  0.00     0.043 C 
ATOM     16  H   UNL     1     -45.247  35.621  29.110  1.00  0.00     0.054 H 
ATOM     17  H   UNL     1     -46.890  36.111  29.507  1.00  0.00     0.054 H 
BRANCH  15  18
ATOM     18  N   UNL     1     -45.950  37.268  28.072  1.00  0.00    -0.347 N 
ATOM     19  O   UNL     1     -44.535  38.044  29.703  1.00  0.00    -0.268 OA
ATOM     20  C   UNL     1     -45.136  38.208  28.649  1.00  0.00     0.270 C 
ATOM     21  H   UNL     1     -46.409  37.518  27.201  1.00  0.00     0.164 HD
BRANCH  20  22
ATOM     22  C   UNL     1     -45.060  39.481  27.840  1.00  0.00     0.136 A 
ATOM     23  C   UNL     1     -46.204  39.918  27.310  1.00  0.00     0.035 A 
ATOM     24  N   UNL     1     -43.840  40.104  27.700  1.00  0.00    -0.225 NA
ATOM     25  C   UNL     1     -46.175  41.152  26.517  1.00  0.00     0.258 A 
ATOM     26  H   UNL     1     -47.157  39.419  27.427  1.00  0.00     0.071 H 
ATOM     27  C   UNL     1     -43.819  41.195  26.997  1.00  0.00     0.140 A 
ATOM     28  O   UNL     1     -47.225  41.563  26.023  1.00  0.00    -0.269 OA
ATOM     29  N   UNL     1     -44.934  41.761  26.390  1.00  0.00    -0.268 N 
ATOM     30  C   UNL     1     -42.520  41.903  26.818  1.00  0.00    -0.019 A 
ATOM     31  C   UNL     1     -44.828  42.935  25.651  1.00  0.00     0.014 A 
ATOM     32  C   UNL     1     -42.467  43.031  26.099  1.00  0.00    -0.057 A 
ATOM     33  H   UNL     1     -41.646  41.470  27.288  1.00  0.00     0.066 H 
ATOM     34  C   UNL     1     -43.657  43.566  25.495  1.00  0.00    -0.045 A 
ATOM     35  H   UNL     1     -45.741  43.322  25.204  1.00  0.00     0.082 H 
ATOM     36  H   UNL     1     -41.531  43.561  25.958  1.00  0.00     0.062 H 
ATOM     37  H   UNL     1     -43.586  44.482  24.917  1.00  0.00     0.064 H 
ENDBRANCH  20  22
ENDBRANCH  15  18
ENDBRANCH   1  15
BRANCH   6  38
ATOM     38  C   UNL     1     -46.267  30.592  23.522  1.00  0.00     0.036 C 
ATOM     39  H   UNL     1     -46.113  31.021  22.525  1.00  0.00     0.049 H 
ATOM     40  H   UNL     1     -45.314  30.170  23.862  1.00  0.00     0.049 H 
BRANCH  38  41
ATOM     41  N   UNL     1     -47.298  29.560  23.482  1.00  0.00    -0.307 NA
ATOM     42  H   UNL     1     -47.844  29.683  22.628  1.00  0.00     0.123 HD
BRANCH  41  43
ATOM     43  C   UNL     1     -46.696  28.229  23.454  1.00  0.00     0.021 C 
ATOM     44  H   UNL     1     -46.891  27.735  22.495  1.00  0.00     0.048 H 
ATOM     45  H   UNL     1     -45.606  28.296  23.563  1.00  0.00     0.048 H 
BRANCH  43  46
ATOM     46  C   UNL     1     -47.240  27.377  24.576  1.00  0.00    -0.034 A 
ATOM     47  C   UNL     1     -48.516  27.620  25.106  1.00  0.00    -0.058 A 
ATOM     48  C   UNL     1     -46.464  26.346  25.126  1.00  0.00    -0.058 A 
ATOM     49  C   UNL     1     -49.009  26.837  26.153  1.00  0.00    -0.062 A 
ATOM     50  H   UNL     1     -49.134  28.421  24.709  1.00  0.00     0.063 H 
ATOM     51  C   UNL     1     -46.958  25.565  26.171  1.00  0.00    -0.062 A 
ATOM     52  H   UNL     1     -45.464  26.156  24.740  1.00  0.00     0.063 H 
ATOM     53  C   UNL     1     -48.230  25.809  26.683  1.00  0.00    -0.062 A 
ATOM     54  H   UNL     1     -49.999  27.031  26.556  1.00  0.00     0.062 H 
ATOM     55  H   UNL     1     -46.347  24.769  26.588  1.00  0.00     0.062 H 
ATOM     56  H   UNL     1     -48.614  25.201  27.498  1.00  0.00     0.062 H 
ENDBRANCH  43  46
ENDBRANCH  41  43
ENDBRANCH  38  41
ENDBRANCH   6  38
TORSDOF 7
ENDMDL
MODEL 5
REMARK VINA RESULT:     -10.4      2.500      3.924
REMARK SMILES O=C(NCc1ccc2cc(CNCc3ccccc3)[nH]c2c1)c1cc(=O)n2ccccc2n1
REMARK SMILES IDX 5 1 6 2 7 3 8 4 9 5 10 6 20 7 21 8 22 9 4 15 3 18 1 19 2 20
REMARK SMILES IDX 23 22 24 23 33 24 25 25 32 27 26 28 27 29 31 30 28 31 30 32
REMARK SMILES IDX 29 34 11 38 12 41 13 43 14 46 15 47 19 48 16 49 18 51 17 53
REMARK H PARENT 6 10 7 11 9 12 20 13 22 14 4 16 4 17 3 21 24 26 31 33 28 35
REMARK H PARENT 30 36 29 37 11 39 11 40 12 42 13 44 13 45 15 50 19 52 16 54
REMARK H PARENT 18 55 17 56
REMARK Flexibility Score: inf
ROOT
ATOM      1  C   UNL     1     -47.206  36.067  27.551  1.00  0.00    -0.027 A 
ATOM      2  C   UNL     1     -45.912  35.641  27.221  1.00  0.00    -0.057 A 
ATOM      3  C   UNL     1     -45.703  34.479  26.466  1.00  0.00    -0.052 A 
ATOM      4  C   UNL     1     -46.812  33.723  26.041  1.00  0.00    -0.000 A 
ATOM      5  C   UNL     1     -46.964  32.530  25.282  1.00  0.00    -0.032 A 
ATOM      6  C   UNL     1     -48.314  32.256  25.181  1.00  0.00     0.030 A 
ATOM      7  N   UNL     1     -48.978  33.248  25.863  1.00  0.00    -0.357 N 
ATOM      8  C   UNL     1     -48.089  34.155  26.390  1.00  0.00     0.046 A 
ATOM      9  C   UNL     1     -48.319  35.313  27.142  1.00  0.00    -0.033 A 
ATOM     10  H   UNL     1     -45.049  36.214  27.551  1.00  0.00     0.063 H 
ATOM     11  H   UNL     1     -44.694  34.165  26.214  1.00  0.00     0.063 H 
ATOM     12  H   UNL     1     -46.165  31.935  24.857  1.00  0.00     0.065 H 
ATOM     13  H   UNL     1     -49.986  33.307  25.924  1.00  0.00     0.166 HD
ATOM     14  H   UNL     1     -49.329  35.619  27.402  1.00  0.00     0.065 H 
ENDROOT
BRANCH   1  15
ATOM     15  C   UNL     1     -47.403  37.303  28.389  1.00  0.00     0.043 C 
ATOM     16  H   UNL     1     -47.272  37.076  29.454  1.00  0.00     0.054 H 
ATOM     17  H   UNL     1     -48.420  37.696  28.273  1.00  0.00     0.054 H 
BRANCH  15  18
ATOM     18  N   UNL     1     -46.467  38.328  28.015  1.00  0.00    -0.347 N 
ATOM     19  O   UNL     1     -45.046  38.014  29.790  1.00  0.00    -0.268 OA
ATOM     20  C   UNL     1     -45.351  38.607  28.763  1.00  0.00     0.270 C 
ATOM     21  H   UNL     1     -46.627  38.893  27.187  1.00  0.00     0.164 HD
BRANCH  20  22
ATOM     22  C   UNL     1     -44.533  39.734  28.181  1.00  0.00     0.136 A 
ATOM     23  C   UNL     1     -43.488  40.144  28.902  1.00  0.00     0.035 A 
ATOM     24  N   UNL     1     -44.905  40.262  26.965  1.00  0.00    -0.225 NA
ATOM     25  C   UNL     1     -42.665  41.238  28.372  1.00  0.00     0.258 A 
ATOM     26  H   UNL     1     -43.206  39.720  29.857  1.00  0.00     0.071 H 
ATOM     27  C   UNL     1     -44.174  41.229  26.501  1.00  0.00     0.140 A 
ATOM     28  O   UNL     1     -41.699  41.623  29.031  1.00  0.00    -0.269 OA
ATOM     29  N   UNL     1     -43.060  41.753  27.146  1.00  0.00    -0.268 N 
ATOM     30  C   UNL     1     -44.540  41.833  25.188  1.00  0.00    -0.019 A 
ATOM     31  C   UNL     1     -42.328  42.793  26.581  1.00  0.00     0.014 A 
ATOM     32  C   UNL     1     -43.805  42.831  24.683  1.00  0.00    -0.057 A 
ATOM     33  H   UNL     1     -45.406  41.431  24.677  1.00  0.00     0.066 H 
ATOM     34  C   UNL     1     -42.662  43.329  25.400  1.00  0.00    -0.045 A 
ATOM     35  H   UNL     1     -41.468  43.153  27.141  1.00  0.00     0.082 H 
ATOM     36  H   UNL     1     -44.055  43.283  23.729  1.00  0.00     0.062 H 
ATOM     37  H   UNL     1     -42.084  44.140  24.969  1.00  0.00     0.064 H 
ENDBRANCH  20  22
ENDBRANCH  15  18
ENDBRANCH   1  15
BRANCH   6  38
ATOM     38  C   UNL     1     -49.043  31.141  24.518  1.00  0.00     0.036 C 
ATOM     39  H   UNL     1     -49.741  30.684  25.231  1.00  0.00     0.049 H 
ATOM     40  H   UNL     1     -49.627  31.550  23.685  1.00  0.00     0.049 H 
BRANCH  38  41
ATOM     41  N   UNL     1     -48.086  30.152  24.035  1.00  0.00    -0.307 NA
ATOM     42  H   UNL     1     -48.078  29.365  24.686  1.00  0.00     0.123 HD
BRANCH  41  43
ATOM     43  C   UNL     1     -48.477  29.653  22.718  1.00  0.00     0.021 C 
ATOM     44  H   UNL     1     -48.220  28.592  22.613  1.00  0.00     0.048 H 
ATOM     45  H   UNL     1     -49.564  29.733  22.583  1.00  0.00     0.048 H 
BRANCH  43  46
ATOM     46  C   UNL     1     -47.798  30.445  21.627  1.00  0.00    -0.034 A 
ATOM     47  C   UNL     1     -46.456  30.833  21.753  1.00  0.00    -0.058 A 
ATOM     48  C   UNL     1     -48.509  30.829  20.480  1.00  0.00    -0.058 A 
ATOM     49  C   UNL     1     -45.836  31.576  20.746  1.00  0.00    -0.062 A 
ATOM     50  H   UNL     1     -45.884  30.561  22.637  1.00  0.00     0.063 H 
ATOM     51  C   UNL     1     -47.888  31.571  19.475  1.00  0.00    -0.062 A 
ATOM     52  H   UNL     1     -49.556  30.553  20.374  1.00  0.00     0.063 H 
ATOM     53  C   UNL     1     -46.552  31.943  19.608  1.00  0.00    -0.062 A 
ATOM     54  H   UNL     1     -44.795  31.871  20.851  1.00  0.00     0.062 H 
ATOM     55  H   UNL     1     -48.449  31.863  18.592  1.00  0.00     0.062 H 
ATOM     56  H   UNL     1     -46.069  32.523  18.825  1.00  0.00     0.062 H 
ENDBRANCH  43  46
ENDBRANCH  41  43
ENDBRANCH  38  41
ENDBRANCH   6  38
TORSDOF 7
ENDMDL
MODEL 6
REMARK VINA RESULT:     -10.4      1.879      2.412
REMARK SMILES O=C(NCc1ccc2cc(CNCc3ccccc3)[nH]c2c1)c1cc(=O)n2ccccc2n1
REMARK SMILES IDX 5 1 6 2 7 3 8 4 9 5 10 6 20 7 21 8 22 9 4 15 3 18 1 19 2 20
REMARK SMILES IDX 23 22 24 23 33 24 25 25 32 27 26 28 27 29 31 30 28 31 30 32
REMARK SMILES IDX 29 34 11 38 12 41 13 43 14 46 15 47 19 48 16 49 18 51 17 53
REMARK H PARENT 6 10 7 11 9 12 20 13 22 14 4 16 4 17 3 21 24 26 31 33 28 35
REMARK H PARENT 30 36 29 37 11 39 11 40 12 42 13 44 13 45 15 50 19 52 16 54
REMARK H PARENT 18 55 17 56
REMARK Flexibility Score: inf
ROOT
ATOM      1  C   UNL     1     -46.952  36.402  28.059  1.00  0.00    -0.027 A 
ATOM      2  C   UNL     1     -45.675  35.829  27.984  1.00  0.00    -0.057 A 
ATOM      3  C   UNL     1     -45.475  34.585  27.372  1.00  0.00    -0.052 A 
ATOM      4  C   UNL     1     -46.577  33.896  26.831  1.00  0.00    -0.000 A 
ATOM      5  C   UNL     1     -46.733  32.654  26.156  1.00  0.00    -0.032 A 
ATOM      6  C   UNL     1     -48.071  32.496  25.855  1.00  0.00     0.030 A 
ATOM      7  N   UNL     1     -48.726  33.607  26.334  1.00  0.00    -0.357 N 
ATOM      8  C   UNL     1     -47.840  34.475  26.927  1.00  0.00     0.046 A 
ATOM      9  C   UNL     1     -48.061  35.717  27.534  1.00  0.00    -0.033 A 
ATOM     10  H   UNL     1     -44.819  36.351  28.406  1.00  0.00     0.063 H 
ATOM     11  H   UNL     1     -44.478  34.158  27.317  1.00  0.00     0.063 H 
ATOM     12  H   UNL     1     -45.945  31.951  25.919  1.00  0.00     0.065 H 
ATOM     13  H   UNL     1     -49.719  33.763  26.222  1.00  0.00     0.166 HD
ATOM     14  H   UNL     1     -49.060  36.138  27.597  1.00  0.00     0.065 H 
ENDROOT
BRANCH   1  15
ATOM     15  C   UNL     1     -47.146  37.726  28.751  1.00  0.00     0.043 C 
ATOM     16  H   UNL     1     -47.067  37.613  29.838  1.00  0.00     0.054 H 
ATOM     17  H   UNL     1     -48.145  38.130  28.549  1.00  0.00     0.054 H 
BRANCH  15  18
ATOM     18  N   UNL     1     -46.165  38.681  28.311  1.00  0.00    -0.347 N 
ATOM     19  O   UNL     1     -47.317  39.365  26.447  1.00  0.00    -0.268 OA
ATOM     20  C   UNL     1     -46.332  39.428  27.174  1.00  0.00     0.270 C 
ATOM     21  H   UNL     1     -45.302  38.808  28.831  1.00  0.00     0.164 HD
BRANCH  20  22
ATOM     22  C   UNL     1     -45.163  40.345  26.908  1.00  0.00     0.136 A 
ATOM     23  C   UNL     1     -44.189  40.347  27.820  1.00  0.00     0.035 A 
ATOM     24  N   UNL     1     -45.168  41.109  25.763  1.00  0.00    -0.225 NA
ATOM     25  C   UNL     1     -43.033  41.223  27.600  1.00  0.00     0.258 A 
ATOM     26  H   UNL     1     -44.197  39.741  28.717  1.00  0.00     0.071 H 
ATOM     27  C   UNL     1     -44.143  41.883  25.572  1.00  0.00     0.140 A 
ATOM     28  O   UNL     1     -42.130  41.232  28.437  1.00  0.00    -0.269 OA
ATOM     29  N   UNL     1     -43.062  41.983  26.440  1.00  0.00    -0.268 N 
ATOM     30  C   UNL     1     -44.106  42.729  24.346  1.00  0.00    -0.019 A 
ATOM     31  C   UNL     1     -42.000  42.839  26.164  1.00  0.00     0.014 A 
ATOM     32  C   UNL     1     -43.062  43.536  24.122  1.00  0.00    -0.057 A 
ATOM     33  H   UNL     1     -44.944  42.657  23.664  1.00  0.00     0.066 H 
ATOM     34  C   UNL     1     -41.973  43.595  25.059  1.00  0.00    -0.045 A 
ATOM     35  H   UNL     1     -41.187  42.867  26.886  1.00  0.00     0.082 H 
ATOM     36  H   UNL     1     -43.017  44.159  23.235  1.00  0.00     0.062 H 
ATOM     37  H   UNL     1     -41.140  44.260  24.854  1.00  0.00     0.064 H 
ENDBRANCH  20  22
ENDBRANCH  15  18
ENDBRANCH   1  15
BRANCH   6  38
ATOM     38  C   UNL     1     -48.802  31.394  25.172  1.00  0.00     0.036 C 
ATOM     39  H   UNL     1     -49.620  31.044  25.813  1.00  0.00     0.049 H 
ATOM     40  H   UNL     1     -49.239  31.784  24.245  1.00  0.00     0.049 H 
BRANCH  38  41
ATOM     41  N   UNL     1     -47.877  30.303  24.882  1.00  0.00    -0.307 NA
ATOM     42  H   UNL     1     -47.394  30.051  25.745  1.00  0.00     0.123 HD
BRANCH  41  43
ATOM     43  C   UNL     1     -48.599  29.127  24.400  1.00  0.00     0.021 C 
ATOM     44  H   UNL     1     -49.674  29.224  24.595  1.00  0.00     0.048 H 
ATOM     45  H   UNL     1     -48.480  29.021  23.314  1.00  0.00     0.048 H 
BRANCH  43  46
ATOM     46  C   UNL     1     -48.079  27.875  25.065  1.00  0.00    -0.034 A 
ATOM     47  C   UNL     1     -48.727  27.339  26.188  1.00  0.00    -0.058 A 
ATOM     48  C   UNL     1     -46.920  27.246  24.586  1.00  0.00    -0.058 A 
ATOM     49  C   UNL     1     -48.233  26.188  26.807  1.00  0.00    -0.062 A 
ATOM     50  H   UNL     1     -49.618  27.814  26.589  1.00  0.00     0.063 H 
ATOM     51  C   UNL     1     -46.430  26.096  25.206  1.00  0.00    -0.062 A 
ATOM     52  H   UNL     1     -46.394  27.659  23.728  1.00  0.00     0.063 H 
ATOM     53  C   UNL     1     -47.087  25.567  26.315  1.00  0.00    -0.062 A 
ATOM     54  H   UNL     1     -48.743  25.778  27.675  1.00  0.00     0.062 H 
ATOM     55  H   UNL     1     -45.532  25.616  24.826  1.00  0.00     0.062 H 
ATOM     56  H   UNL     1     -46.703  24.672  26.798  1.00  0.00     0.062 H 
ENDBRANCH  43  46
ENDBRANCH  41  43
ENDBRANCH  38  41
ENDBRANCH   6  38
TORSDOF 7
ENDMDL
MODEL 7
REMARK VINA RESULT:     -10.3      1.839      3.197
REMARK SMILES O=C(NCc1ccc2cc(CNCc3ccccc3)[nH]c2c1)c1cc(=O)n2ccccc2n1
REMARK SMILES IDX 5 1 6 2 7 3 8 4 9 5 10 6 20 7 21 8 22 9 4 15 3 18 1 19 2 20
REMARK SMILES IDX 23 22 24 23 33 24 25 25 32 27 26 28 27 29 31 30 28 31 30 32
REMARK SMILES IDX 29 34 11 38 12 41 13 43 14 46 15 47 19 48 16 49 18 51 17 53
REMARK H PARENT 6 10 7 11 9 12 20 13 22 14 4 16 4 17 3 21 24 26 31 33 28 35
REMARK H PARENT 30 36 29 37 11 39 11 40 12 42 13 44 13 45 15 50 19 52 16 54
REMARK H PARENT 18 55 17 56
REMARK Flexibility Score: inf
ROOT
ATOM      1  C   UNL     1     -48.027  35.282  26.711  1.00  0.00    -0.027 A 
ATOM      2  C   UNL     1     -46.745  35.182  26.153  1.00  0.00    -0.057 A 
ATOM      3  C   UNL     1     -46.345  34.031  25.462  1.00  0.00    -0.052 A 
ATOM      4  C   UNL     1     -47.243  32.954  25.335  1.00  0.00    -0.000 A 
ATOM      5  C   UNL     1     -47.173  31.676  24.716  1.00  0.00    -0.032 A 
ATOM      6  C   UNL     1     -48.380  31.036  24.918  1.00  0.00     0.030 A 
ATOM      7  N   UNL     1     -49.173  31.893  25.646  1.00  0.00    -0.357 N 
ATOM      8  C   UNL     1     -48.507  33.067  25.907  1.00  0.00     0.046 A 
ATOM      9  C   UNL     1     -48.927  34.208  26.601  1.00  0.00    -0.033 A 
ATOM     10  H   UNL     1     -46.042  36.006  26.253  1.00  0.00     0.063 H 
ATOM     11  H   UNL     1     -45.350  33.971  25.030  1.00  0.00     0.063 H 
ATOM     12  H   UNL     1     -46.325  31.269  24.181  1.00  0.00     0.065 H 
ATOM     13  H   UNL     1     -50.127  31.685  25.911  1.00  0.00     0.166 HD
ATOM     14  H   UNL     1     -49.919  34.262  27.041  1.00  0.00     0.065 H 
ENDROOT
BRANCH   1  15
ATOM     15  C   UNL     1     -48.423  36.518  27.476  1.00  0.00     0.043 C 
ATOM     16  H   UNL     1     -49.072  36.262  28.322  1.00  0.00     0.054 H 
ATOM     17  H   UNL     1     -48.992  37.207  26.840  1.00  0.00     0.054 H 
BRANCH  15  18
ATOM     18  N   UNL     1     -47.261  37.204  27.975  1.00  0.00    -0.347 N 
ATOM     19  O   UNL     1     -47.480  39.051  26.631  1.00  0.00    -0.268 OA
ATOM     20  C   UNL     1     -46.877  38.431  27.498  1.00  0.00     0.270 C 
ATOM     21  H   UNL     1     -46.678  36.776  28.687  1.00  0.00     0.164 HD
BRANCH  20  22
ATOM     22  C   UNL     1     -45.619  38.939  28.159  1.00  0.00     0.136 A 
ATOM     23  C   UNL     1     -45.277  38.360  29.312  1.00  0.00     0.035 A 
ATOM     24  N   UNL     1     -44.912  39.950  27.548  1.00  0.00    -0.225 NA
ATOM     25  C   UNL     1     -44.060  38.825  29.989  1.00  0.00     0.258 A 
ATOM     26  H   UNL     1     -45.842  37.566  29.783  1.00  0.00     0.071 H 
ATOM     27  C   UNL     1     -43.837  40.358  28.150  1.00  0.00     0.140 A 
ATOM     28  O   UNL     1     -43.737  38.297  31.052  1.00  0.00    -0.269 OA
ATOM     29  N   UNL     1     -43.366  39.844  29.353  1.00  0.00    -0.268 N 
ATOM     30  C   UNL     1     -43.040  41.451  27.524  1.00  0.00    -0.019 A 
ATOM     31  C   UNL     1     -42.202  40.336  29.935  1.00  0.00     0.014 A 
ATOM     32  C   UNL     1     -41.926  41.891  28.122  1.00  0.00    -0.057 A 
ATOM     33  H   UNL     1     -43.399  41.857  26.587  1.00  0.00     0.066 H 
ATOM     34  C   UNL     1     -41.491  41.318  29.366  1.00  0.00    -0.045 A 
ATOM     35  H   UNL     1     -41.892  39.888  30.876  1.00  0.00     0.082 H 
ATOM     36  H   UNL     1     -41.332  42.686  27.681  1.00  0.00     0.062 H 
ATOM     37  H   UNL     1     -40.585  41.695  29.829  1.00  0.00     0.064 H 
ENDBRANCH  20  22
ENDBRANCH  15  18
ENDBRANCH   1  15
BRANCH   6  38
ATOM     38  C   UNL     1     -48.860  29.688  24.508  1.00  0.00     0.036 C 
ATOM     39  H   UNL     1     -49.120  29.104  25.399  1.00  0.00     0.049 H 
ATOM     40  H   UNL     1     -49.766  29.808  23.903  1.00  0.00     0.049 H 
BRANCH  38  41
ATOM     41  N   UNL     1     -47.819  29.014  23.740  1.00  0.00    -0.307 NA
ATOM     42  H   UNL     1     -47.481  28.218  24.283  1.00  0.00     0.123 HD
BRANCH  41  43
ATOM     43  C   UNL     1     -48.351  28.513  22.475  1.00  0.00     0.021 C 
ATOM     44  H   UNL     1     -47.776  27.645  22.128  1.00  0.00     0.048 H 
ATOM     45  H   UNL     1     -49.389  28.179  22.599  1.00  0.00     0.048 H 
BRANCH  43  46
ATOM     46  C   UNL     1     -48.315  29.592  21.419  1.00  0.00    -0.034 A 
ATOM     47  C   UNL     1     -47.193  30.422  21.280  1.00  0.00    -0.058 A 
ATOM     48  C   UNL     1     -49.419  29.799  20.578  1.00  0.00    -0.058 A 
ATOM     49  C   UNL     1     -47.171  31.427  20.310  1.00  0.00    -0.062 A 
ATOM     50  H   UNL     1     -46.329  30.293  21.927  1.00  0.00     0.063 H 
ATOM     51  C   UNL     1     -49.395  30.803  19.610  1.00  0.00    -0.062 A 
ATOM     52  H   UNL     1     -50.306  29.177  20.685  1.00  0.00     0.063 H 
ATOM     53  C   UNL     1     -48.271  31.615  19.475  1.00  0.00    -0.062 A 
ATOM     54  H   UNL     1     -46.297  32.064  20.208  1.00  0.00     0.062 H 
ATOM     55  H   UNL     1     -50.256  30.954  18.964  1.00  0.00     0.062 H 
ATOM     56  H   UNL     1     -48.254  32.399  18.721  1.00  0.00     0.062 H 
ENDBRANCH  43  46
ENDBRANCH  41  43
ENDBRANCH  38  41
ENDBRANCH   6  38
TORSDOF 7
ENDMDL
