MODEL 1
REMARK VINA RESULT:      -9.4      0.000      0.000
REMARK SMILES CNc1ccc2ccc(OCc3nc(-n4cc(Cl)c5c(N)ncnc54)cs3)cc2n1
REMARK SMILES IDX 11 1 10 4 9 5 3 6 4 7 30 8 5 9 29 11 6 12 28 14 7 15 8 17
REMARK SMILES IDX 2 20 1 22 12 26 13 27 27 28 14 29 26 30 15 32 16 33 25 34
REMARK SMILES IDX 17 35 19 37 24 38 18 39 20 40 23 41 22 42 21 44
REMARK H PARENT 11 2 11 3 4 10 5 13 28 16 7 18 8 19 2 21 1 23 1 24 1 25 26 31
REMARK H PARENT 16 36 23 43 21 45 21 46
REMARK Flexibility Score: inf
ROOT
ATOM      1  C   UNL     1     -45.961  34.489  27.442  1.00  0.00     0.140 C 
ATOM      2  H   UNL     1     -45.344  33.925  28.152  1.00  0.00     0.078 H 
ATOM      3  H   UNL     1     -45.492  34.479  26.452  1.00  0.00     0.078 H 
ENDROOT
BRANCH   1   4
ATOM      4  O   UNL     1     -47.279  33.936  27.388  1.00  0.00    -0.486 OA
BRANCH   4   5
ATOM      5  C   UNL     1     -47.574  33.141  26.316  1.00  0.00     0.122 A 
ATOM      6  C   UNL     1     -46.518  30.455  22.532  1.00  0.00     0.126 A 
ATOM      7  C   UNL     1     -47.860  30.190  22.285  1.00  0.00    -0.019 A 
ATOM      8  N   UNL     1     -46.129  31.222  23.571  1.00  0.00    -0.231 NA
ATOM      9  C   UNL     1     -48.830  30.744  23.115  1.00  0.00    -0.049 A 
ATOM     10  H   UNL     1     -48.152  29.546  21.462  1.00  0.00     0.066 H 
ATOM     11  C   UNL     1     -47.060  31.759  24.380  1.00  0.00     0.076 A 
ATOM     12  C   UNL     1     -48.439  31.548  24.186  1.00  0.00     0.001 A 
ATOM     13  H   UNL     1     -49.879  30.537  22.923  1.00  0.00     0.063 H 
ATOM     14  C   UNL     1     -46.653  32.553  25.446  1.00  0.00     0.007 A 
ATOM     15  C   UNL     1     -49.372  32.132  25.055  1.00  0.00    -0.049 A 
ATOM     16  H   UNL     1     -45.583  32.690  25.571  1.00  0.00     0.069 H 
ATOM     17  C   UNL     1     -48.937  32.925  26.115  1.00  0.00    -0.019 A 
ATOM     18  H   UNL     1     -50.438  31.972  24.914  1.00  0.00     0.063 H 
ATOM     19  H   UNL     1     -49.662  33.376  26.788  1.00  0.00     0.066 H 
BRANCH   6  20
ATOM     20  N   UNL     1     -45.564  29.856  21.689  1.00  0.00    -0.373 N 
ATOM     21  H   UNL     1     -45.027  30.585  21.228  1.00  0.00     0.161 HD
BRANCH  20  22
ATOM     22  C   UNL     1     -44.707  28.886  22.350  1.00  0.00     0.005 C 
ATOM     23  H   UNL     1     -43.660  29.001  22.046  1.00  0.00     0.045 H 
ATOM     24  H   UNL     1     -44.785  28.955  23.440  1.00  0.00     0.045 H 
ATOM     25  H   UNL     1     -45.024  27.879  22.063  1.00  0.00     0.045 H 
ENDBRANCH  20  22
ENDBRANCH   6  20
ENDBRANCH   4   5
ENDBRANCH   1   4
BRANCH   1  26
ATOM     26  C   UNL     1     -46.088  35.905  27.925  1.00  0.00     0.133 A 
ATOM     27  N   UNL     1     -45.125  36.802  27.867  1.00  0.00    -0.220 NA
ATOM     28  S   UNL     1     -47.579  36.476  28.570  1.00  0.00    -0.122 S 
ATOM     29  C   UNL     1     -45.557  38.007  28.385  1.00  0.00     0.149 A 
ATOM     30  C   UNL     1     -46.867  38.019  28.821  1.00  0.00     0.036 A 
ATOM     31  H   UNL     1     -47.444  38.819  29.259  1.00  0.00     0.078 H 
BRANCH  29  32
ATOM     32  N   UNL     1     -44.647  39.115  28.429  1.00  0.00    -0.283 N 
ATOM     33  C   UNL     1     -43.703  39.322  29.419  1.00  0.00     0.032 A 
ATOM     34  C   UNL     1     -44.541  40.164  27.518  1.00  0.00     0.152 A 
ATOM     35  C   UNL     1     -43.009  40.473  29.139  1.00  0.00     0.072 A 
ATOM     36  H   UNL     1     -43.598  38.633  30.246  1.00  0.00     0.084 H 
ATOM     37  C   UNL     1     -43.523  41.016  27.939  1.00  0.00     0.080 A 
ATOM     38  N   UNL     1     -45.289  40.341  26.410  1.00  0.00    -0.218 NA
ATOM     39  Cl  UNL     1     -41.756  41.128  30.084  1.00  0.00    -0.082 Cl
ATOM     40  C   UNL     1     -43.261  42.137  27.135  1.00  0.00     0.137 A 
ATOM     41  C   UNL     1     -44.953  41.441  25.728  1.00  0.00     0.120 A 
ATOM     42  N   UNL     1     -43.999  42.338  26.029  1.00  0.00    -0.219 NA
ATOM     43  H   UNL     1     -45.519  41.633  24.822  1.00  0.00     0.106 H 
BRANCH  40  44
ATOM     44  N   UNL     1     -42.281  43.076  27.412  1.00  0.00    -0.383 N 
ATOM     45  H   UNL     1     -42.373  43.896  26.823  1.00  0.00     0.158 HD
ATOM     46  H   UNL     1     -42.071  43.228  28.389  1.00  0.00     0.158 HD
ENDBRANCH  40  44
ENDBRANCH  29  32
ENDBRANCH   1  26
TORSDOF 7
ENDMDL
MODEL 2
REMARK VINA RESULT:      -9.3      1.606      2.140
REMARK SMILES CNc1ccc2ccc(OCc3nc(-n4cc(Cl)c5c(N)ncnc54)cs3)cc2n1
REMARK SMILES IDX 11 1 10 4 9 5 3 6 4 7 30 8 5 9 29 11 6 12 28 14 7 15 8 17
REMARK SMILES IDX 2 20 1 22 12 26 13 27 27 28 14 29 26 30 15 32 16 33 25 34
REMARK SMILES IDX 17 35 19 37 24 38 18 39 20 40 23 41 22 42 21 44
REMARK H PARENT 11 2 11 3 4 10 5 13 28 16 7 18 8 19 2 21 1 23 1 24 1 25 26 31
REMARK H PARENT 16 36 23 43 21 45 21 46
REMARK Flexibility Score: inf
ROOT
ATOM      1  C   UNL     1     -47.519  35.511  27.326  1.00  0.00     0.140 C 
ATOM      2  H   UNL     1     -48.505  35.909  27.059  1.00  0.00     0.078 H 
ATOM      3  H   UNL     1     -47.630  34.693  28.049  1.00  0.00     0.078 H 
ENDROOT
BRANCH   1   4
ATOM      4  O   UNL     1     -46.834  35.064  26.153  1.00  0.00    -0.486 OA
BRANCH   4   5
ATOM      5  C   UNL     1     -47.147  33.817  25.688  1.00  0.00     0.122 A 
ATOM      6  C   UNL     1     -46.517  29.951  22.985  1.00  0.00     0.126 A 
ATOM      7  C   UNL     1     -47.639  29.332  23.525  1.00  0.00    -0.019 A 
ATOM      8  N   UNL     1     -46.125  31.178  23.387  1.00  0.00    -0.231 NA
ATOM      9  C   UNL     1     -48.390  29.998  24.488  1.00  0.00    -0.049 A 
ATOM     10  H   UNL     1     -47.921  28.333  23.210  1.00  0.00     0.066 H 
ATOM     11  C   UNL     1     -46.844  31.828  24.320  1.00  0.00     0.076 A 
ATOM     12  C   UNL     1     -47.999  31.272  24.903  1.00  0.00     0.001 A 
ATOM     13  H   UNL     1     -49.266  29.515  24.911  1.00  0.00     0.063 H 
ATOM     14  C   UNL     1     -46.438  33.093  24.727  1.00  0.00     0.007 A 
ATOM     15  C   UNL     1     -48.717  31.989  25.871  1.00  0.00    -0.049 A 
ATOM     16  H   UNL     1     -45.540  33.489  24.263  1.00  0.00     0.069 H 
ATOM     17  C   UNL     1     -48.289  33.257  26.259  1.00  0.00    -0.019 A 
ATOM     18  H   UNL     1     -49.609  31.567  26.328  1.00  0.00     0.063 H 
ATOM     19  H   UNL     1     -48.847  33.811  27.010  1.00  0.00     0.066 H 
BRANCH   6  20
ATOM     20  N   UNL     1     -45.766  29.237  22.033  1.00  0.00    -0.373 N 
ATOM     21  H   UNL     1     -45.594  29.837  21.232  1.00  0.00     0.161 HD
BRANCH  20  22
ATOM     22  C   UNL     1     -44.538  28.658  22.552  1.00  0.00     0.005 C 
ATOM     23  H   UNL     1     -44.345  27.669  22.121  1.00  0.00     0.045 H 
ATOM     24  H   UNL     1     -43.678  29.313  22.376  1.00  0.00     0.045 H 
ATOM     25  H   UNL     1     -44.636  28.532  23.635  1.00  0.00     0.045 H 
ENDBRANCH  20  22
ENDBRANCH   6  20
ENDBRANCH   4   5
ENDBRANCH   1   4
BRANCH   1  26
ATOM     26  C   UNL     1     -46.698  36.610  27.933  1.00  0.00     0.133 A 
ATOM     27  N   UNL     1     -46.242  37.654  27.271  1.00  0.00    -0.220 NA
ATOM     28  S   UNL     1     -46.323  36.594  29.615  1.00  0.00    -0.122 S 
ATOM     29  C   UNL     1     -45.527  38.484  28.112  1.00  0.00     0.149 A 
ATOM     30  C   UNL     1     -45.461  38.067  29.426  1.00  0.00     0.036 A 
ATOM     31  H   UNL     1     -44.975  38.525  30.274  1.00  0.00     0.078 H 
BRANCH  29  32
ATOM     32  N   UNL     1     -44.930  39.674  27.576  1.00  0.00    -0.283 N 
ATOM     33  C   UNL     1     -45.322  40.293  26.403  1.00  0.00     0.032 A 
ATOM     34  C   UNL     1     -43.875  40.409  28.111  1.00  0.00     0.152 A 
ATOM     35  C   UNL     1     -44.537  41.402  26.201  1.00  0.00     0.072 A 
ATOM     36  H   UNL     1     -46.130  39.898  25.803  1.00  0.00     0.084 H 
ATOM     37  C   UNL     1     -43.619  41.493  27.274  1.00  0.00     0.080 A 
ATOM     38  N   UNL     1     -43.201  40.135  29.247  1.00  0.00    -0.218 NA
ATOM     39  Cl  UNL     1     -44.651  42.469  24.882  1.00  0.00    -0.082 Cl
ATOM     40  C   UNL     1     -42.585  42.361  27.656  1.00  0.00     0.137 A 
ATOM     41  C   UNL     1     -42.239  41.027  29.508  1.00  0.00     0.120 A 
ATOM     42  N   UNL     1     -41.896  42.104  28.782  1.00  0.00    -0.219 NA
ATOM     43  H   UNL     1     -41.666  40.859  30.414  1.00  0.00     0.106 H 
BRANCH  40  44
ATOM     44  N   UNL     1     -42.210  43.484  26.937  1.00  0.00    -0.383 N 
ATOM     45  H   UNL     1     -42.466  44.338  27.417  1.00  0.00     0.158 HD
ATOM     46  H   UNL     1     -41.298  43.451  26.503  1.00  0.00     0.158 HD
ENDBRANCH  40  44
ENDBRANCH  29  32
ENDBRANCH   1  26
TORSDOF 7
ENDMDL
MODEL 3
REMARK VINA RESULT:      -9.3      2.050      2.825
REMARK SMILES CNc1ccc2ccc(OCc3nc(-n4cc(Cl)c5c(N)ncnc54)cs3)cc2n1
REMARK SMILES IDX 11 1 10 4 9 5 3 6 4 7 30 8 5 9 29 11 6 12 28 14 7 15 8 17
REMARK SMILES IDX 2 20 1 22 12 26 13 27 27 28 14 29 26 30 15 32 16 33 25 34
REMARK SMILES IDX 17 35 19 37 24 38 18 39 20 40 23 41 22 42 21 44
REMARK H PARENT 11 2 11 3 4 10 5 13 28 16 7 18 8 19 2 21 1 23 1 24 1 25 26 31
REMARK H PARENT 16 36 23 43 21 45 21 46
REMARK Flexibility Score: inf
ROOT
ATOM      1  C   UNL     1     -45.966  34.590  28.100  1.00  0.00     0.140 C 
ATOM      2  H   UNL     1     -46.183  33.939  28.955  1.00  0.00     0.078 H 
ATOM      3  H   UNL     1     -45.044  34.262  27.606  1.00  0.00     0.078 H 
ENDROOT
BRANCH   1   4
ATOM      4  O   UNL     1     -47.065  34.584  27.185  1.00  0.00    -0.486 OA
BRANCH   4   5
ATOM      5  C   UNL     1     -47.141  33.533  26.314  1.00  0.00     0.122 A 
ATOM      6  C   UNL     1     -48.794  29.352  24.753  1.00  0.00     0.126 A 
ATOM      7  C   UNL     1     -47.978  29.394  23.629  1.00  0.00    -0.019 A 
ATOM      8  N   UNL     1     -48.794  30.347  25.664  1.00  0.00    -0.231 NA
ATOM      9  C   UNL     1     -47.123  30.477  23.445  1.00  0.00    -0.049 A 
ATOM     10  H   UNL     1     -48.013  28.599  22.892  1.00  0.00     0.066 H 
ATOM     11  C   UNL     1     -47.974  31.399  25.492  1.00  0.00     0.076 A 
ATOM     12  C   UNL     1     -47.108  31.506  24.387  1.00  0.00     0.001 A 
ATOM     13  H   UNL     1     -46.485  30.511  22.566  1.00  0.00     0.063 H 
ATOM     14  C   UNL     1     -47.975  32.419  26.437  1.00  0.00     0.007 A 
ATOM     15  C   UNL     1     -46.268  32.622  24.253  1.00  0.00    -0.049 A 
ATOM     16  H   UNL     1     -48.659  32.308  27.272  1.00  0.00     0.069 H 
ATOM     17  C   UNL     1     -46.288  33.629  25.215  1.00  0.00    -0.019 A 
ATOM     18  H   UNL     1     -45.598  32.714  23.401  1.00  0.00     0.063 H 
ATOM     19  H   UNL     1     -45.637  34.493  25.109  1.00  0.00     0.066 H 
BRANCH   6  20
ATOM     20  N   UNL     1     -49.664  28.255  24.892  1.00  0.00    -0.373 N 
ATOM     21  H   UNL     1     -49.706  27.754  24.009  1.00  0.00     0.161 HD
BRANCH  20  22
ATOM     22  C   UNL     1     -49.342  27.373  26.001  1.00  0.00     0.005 C 
ATOM     23  H   UNL     1     -50.246  27.003  26.498  1.00  0.00     0.045 H 
ATOM     24  H   UNL     1     -48.725  26.528  25.678  1.00  0.00     0.045 H 
ATOM     25  H   UNL     1     -48.765  27.933  26.743  1.00  0.00     0.045 H 
ENDBRANCH  20  22
ENDBRANCH   6  20
ENDBRANCH   4   5
ENDBRANCH   1   4
BRANCH   1  26
ATOM     26  C   UNL     1     -45.799  35.999  28.590  1.00  0.00     0.133 A 
ATOM     27  N   UNL     1     -45.314  36.987  27.867  1.00  0.00    -0.220 NA
ATOM     28  S   UNL     1     -46.293  36.435  30.181  1.00  0.00    -0.122 S 
ATOM     29  C   UNL     1     -45.293  38.157  28.601  1.00  0.00     0.149 A 
ATOM     30  C   UNL     1     -45.786  38.048  29.886  1.00  0.00     0.036 A 
ATOM     31  H   UNL     1     -45.883  38.798  30.656  1.00  0.00     0.078 H 
BRANCH  29  32
ATOM     32  N   UNL     1     -44.781  39.353  27.995  1.00  0.00    -0.283 N 
ATOM     33  C   UNL     1     -45.238  39.892  26.806  1.00  0.00     0.032 A 
ATOM     34  C   UNL     1     -43.759  40.173  28.466  1.00  0.00     0.152 A 
ATOM     35  C   UNL     1     -44.526  41.034  26.532  1.00  0.00     0.072 A 
ATOM     36  H   UNL     1     -46.036  39.423  26.247  1.00  0.00     0.084 H 
ATOM     37  C   UNL     1     -43.589  41.228  27.573  1.00  0.00     0.080 A 
ATOM     38  N   UNL     1     -43.042  39.992  29.594  1.00  0.00    -0.218 NA
ATOM     39  Cl  UNL     1     -44.736  42.029  25.168  1.00  0.00    -0.082 Cl
ATOM     40  C   UNL     1     -42.599  42.173  27.887  1.00  0.00     0.137 A 
ATOM     41  C   UNL     1     -42.128  40.949  29.787  1.00  0.00     0.120 A 
ATOM     42  N   UNL     1     -41.867  42.009  29.004  1.00  0.00    -0.219 NA
ATOM     43  H   UNL     1     -41.523  40.859  30.684  1.00  0.00     0.106 H 
BRANCH  40  44
ATOM     44  N   UNL     1     -42.308  43.280  27.107  1.00  0.00    -0.383 N 
ATOM     45  H   UNL     1     -42.785  44.108  27.442  1.00  0.00     0.158 HD
ATOM     46  H   UNL     1     -41.345  43.383  26.820  1.00  0.00     0.158 HD
ENDBRANCH  40  44
ENDBRANCH  29  32
ENDBRANCH   1  26
TORSDOF 7
ENDMDL
MODEL 4
REMARK VINA RESULT:      -9.3      3.259     10.434
REMARK SMILES CNc1ccc2ccc(OCc3nc(-n4cc(Cl)c5c(N)ncnc54)cs3)cc2n1
REMARK SMILES IDX 11 1 10 4 9 5 3 6 4 7 30 8 5 9 29 11 6 12 28 14 7 15 8 17
REMARK SMILES IDX 2 20 1 22 12 26 13 27 27 28 14 29 26 30 15 32 16 33 25 34
REMARK SMILES IDX 17 35 19 37 24 38 18 39 20 40 23 41 22 42 21 44
REMARK H PARENT 11 2 11 3 4 10 5 13 28 16 7 18 8 19 2 21 1 23 1 24 1 25 26 31
REMARK H PARENT 16 36 23 43 21 45 21 46
REMARK Flexibility Score: inf
ROOT
ATOM      1  C   UNL     1     -46.817  36.627  26.866  1.00  0.00     0.140 C 
ATOM      2  H   UNL     1     -47.782  37.032  26.537  1.00  0.00     0.078 H 
ATOM      3  H   UNL     1     -46.009  37.043  26.253  1.00  0.00     0.078 H 
ENDROOT
BRANCH   1   4
ATOM      4  O   UNL     1     -46.607  36.917  28.250  1.00  0.00    -0.486 OA
BRANCH   4   5
ATOM      5  C   UNL     1     -45.622  37.814  28.554  1.00  0.00     0.122 A 
ATOM      6  C   UNL     1     -42.799  41.553  27.712  1.00  0.00     0.126 A 
ATOM      7  C   UNL     1     -42.174  41.419  28.947  1.00  0.00    -0.019 A 
ATOM      8  N   UNL     1     -43.789  40.720  27.328  1.00  0.00    -0.231 NA
ATOM      9  C   UNL     1     -42.560  40.391  29.801  1.00  0.00    -0.049 A 
ATOM     10  H   UNL     1     -41.400  42.117  29.250  1.00  0.00     0.066 H 
ATOM     11  C   UNL     1     -44.170  39.725  28.149  1.00  0.00     0.076 A 
ATOM     12  C   UNL     1     -43.575  39.518  29.408  1.00  0.00     0.001 A 
ATOM     13  H   UNL     1     -42.072  40.286  30.766  1.00  0.00     0.063 H 
ATOM     14  C   UNL     1     -45.187  38.868  27.746  1.00  0.00     0.007 A 
ATOM     15  C   UNL     1     -44.006  38.465  30.229  1.00  0.00    -0.049 A 
ATOM     16  H   UNL     1     -45.628  39.059  26.773  1.00  0.00     0.069 H 
ATOM     17  C   UNL     1     -45.026  37.619  29.799  1.00  0.00    -0.019 A 
ATOM     18  H   UNL     1     -43.554  38.299  31.204  1.00  0.00     0.063 H 
ATOM     19  H   UNL     1     -45.359  36.803  30.437  1.00  0.00     0.066 H 
BRANCH   6  20
ATOM     20  N   UNL     1     -42.401  42.620  26.886  1.00  0.00    -0.373 N 
ATOM     21  H   UNL     1     -41.469  42.431  26.530  1.00  0.00     0.161 HD
BRANCH  20  22
ATOM     22  C   UNL     1     -43.336  42.930  25.818  1.00  0.00     0.005 C 
ATOM     23  H   UNL     1     -43.653  42.027  25.284  1.00  0.00     0.045 H 
ATOM     24  H   UNL     1     -44.215  43.465  26.194  1.00  0.00     0.045 H 
ATOM     25  H   UNL     1     -42.842  43.585  25.093  1.00  0.00     0.045 H 
ENDBRANCH  20  22
ENDBRANCH   6  20
ENDBRANCH   4   5
ENDBRANCH   1   4
BRANCH   1  26
ATOM     26  C   UNL     1     -46.840  35.133  26.719  1.00  0.00     0.133 A 
ATOM     27  N   UNL     1     -47.455  34.488  25.750  1.00  0.00    -0.220 NA
ATOM     28  S   UNL     1     -45.990  34.134  27.835  1.00  0.00    -0.122 S 
ATOM     29  C   UNL     1     -47.285  33.125  25.894  1.00  0.00     0.149 A 
ATOM     30  C   UNL     1     -46.517  32.744  26.976  1.00  0.00     0.036 A 
ATOM     31  H   UNL     1     -46.233  31.758  27.311  1.00  0.00     0.078 H 
BRANCH  29  32
ATOM     32  N   UNL     1     -47.895  32.240  24.943  1.00  0.00    -0.283 N 
ATOM     33  C   UNL     1     -49.248  31.957  24.885  1.00  0.00     0.032 A 
ATOM     34  C   UNL     1     -47.267  31.517  23.932  1.00  0.00     0.152 A 
ATOM     35  C   UNL     1     -49.474  31.078  23.854  1.00  0.00     0.072 A 
ATOM     36  H   UNL     1     -49.945  32.403  25.580  1.00  0.00     0.084 H 
ATOM     37  C   UNL     1     -48.234  30.792  23.238  1.00  0.00     0.080 A 
ATOM     38  N   UNL     1     -45.947  31.506  23.655  1.00  0.00    -0.218 NA
ATOM     39  Cl  UNL     1     -50.988  30.442  23.410  1.00  0.00    -0.082 Cl
ATOM     40  C   UNL     1     -47.788  30.001  22.168  1.00  0.00     0.137 A 
ATOM     41  C   UNL     1     -45.640  30.717  22.620  1.00  0.00     0.120 A 
ATOM     42  N   UNL     1     -46.475  29.971  21.877  1.00  0.00    -0.219 NA
ATOM     43  H   UNL     1     -44.591  30.673  22.348  1.00  0.00     0.106 H 
BRANCH  40  44
ATOM     44  N   UNL     1     -48.620  29.226  21.378  1.00  0.00    -0.383 N 
ATOM     45  H   UNL     1     -49.586  29.293  21.675  1.00  0.00     0.158 HD
ATOM     46  H   UNL     1     -48.439  29.247  20.384  1.00  0.00     0.158 HD
ENDBRANCH  40  44
ENDBRANCH  29  32
ENDBRANCH   1  26
TORSDOF 7
ENDMDL
MODEL 5
REMARK VINA RESULT:      -9.0      3.750     10.763
REMARK SMILES CNc1ccc2ccc(OCc3nc(-n4cc(Cl)c5c(N)ncnc54)cs3)cc2n1
REMARK SMILES IDX 11 1 10 4 9 5 3 6 4 7 30 8 5 9 29 11 6 12 28 14 7 15 8 17
REMARK SMILES IDX 2 20 1 22 12 26 13 27 27 28 14 29 26 30 15 32 16 33 25 34
REMARK SMILES IDX 17 35 19 37 24 38 18 39 20 40 23 41 22 42 21 44
REMARK H PARENT 11 2 11 3 4 10 5 13 28 16 7 18 8 19 2 21 1 23 1 24 1 25 26 31
REMARK H PARENT 16 36 23 43 21 45 21 46
REMARK Flexibility Score: inf
ROOT
ATOM      1  C   UNL     1     -48.382  34.775  27.075  1.00  0.00     0.140 C 
ATOM      2  H   UNL     1     -48.065  34.591  28.109  1.00  0.00     0.078 H 
ATOM      3  H   UNL     1     -49.477  34.779  27.016  1.00  0.00     0.078 H 
ENDROOT
BRANCH   1   4
ATOM      4  O   UNL     1     -47.843  36.013  26.607  1.00  0.00    -0.486 OA
BRANCH   4   5
ATOM      5  C   UNL     1     -46.946  36.648  27.422  1.00  0.00     0.122 A 
ATOM      6  C   UNL     1     -43.775  40.020  28.525  1.00  0.00     0.126 A 
ATOM      7  C   UNL     1     -43.574  39.484  29.792  1.00  0.00    -0.019 A 
ATOM      8  N   UNL     1     -44.645  39.468  27.655  1.00  0.00    -0.231 NA
ATOM      9  C   UNL     1     -44.270  38.339  30.168  1.00  0.00    -0.049 A 
ATOM     10  H   UNL     1     -42.891  39.959  30.489  1.00  0.00     0.066 H 
ATOM     11  C   UNL     1     -45.325  38.363  28.011  1.00  0.00     0.076 A 
ATOM     12  C   UNL     1     -45.165  37.755  29.271  1.00  0.00     0.001 A 
ATOM     13  H   UNL     1     -44.114  37.920  31.158  1.00  0.00     0.063 H 
ATOM     14  C   UNL     1     -46.217  37.797  27.109  1.00  0.00     0.007 A 
ATOM     15  C   UNL     1     -45.894  36.602  29.597  1.00  0.00    -0.049 A 
ATOM     16  H   UNL     1     -46.321  38.295  26.150  1.00  0.00     0.069 H 
ATOM     17  C   UNL     1     -46.780  36.054  28.672  1.00  0.00    -0.019 A 
ATOM     18  H   UNL     1     -45.779  36.127  30.568  1.00  0.00     0.063 H 
ATOM     19  H   UNL     1     -47.345  35.160  28.927  1.00  0.00     0.066 H 
BRANCH   6  20
ATOM     20  N   UNL     1     -43.074  41.193  28.189  1.00  0.00    -0.373 N 
ATOM     21  H   UNL     1     -42.113  40.949  27.964  1.00  0.00     0.161 HD
BRANCH  20  22
ATOM     22  C   UNL     1     -43.695  41.980  27.137  1.00  0.00     0.005 C 
ATOM     23  H   UNL     1     -44.749  42.183  27.355  1.00  0.00     0.045 H 
ATOM     24  H   UNL     1     -43.163  42.923  26.971  1.00  0.00     0.045 H 
ATOM     25  H   UNL     1     -43.654  41.414  26.201  1.00  0.00     0.045 H 
ENDBRANCH  20  22
ENDBRANCH   6  20
ENDBRANCH   4   5
ENDBRANCH   1   4
BRANCH   1  26
ATOM     26  C   UNL     1     -47.835  33.687  26.197  1.00  0.00     0.133 A 
ATOM     27  N   UNL     1     -48.508  32.616  25.830  1.00  0.00    -0.220 NA
ATOM     28  S   UNL     1     -46.242  33.803  25.553  1.00  0.00    -0.122 S 
ATOM     29  C   UNL     1     -47.729  31.811  25.021  1.00  0.00     0.149 A 
ATOM     30  C   UNL     1     -46.463  32.295  24.762  1.00  0.00     0.036 A 
ATOM     31  H   UNL     1     -45.667  31.871  24.169  1.00  0.00     0.078 H 
BRANCH  29  32
ATOM     32  N   UNL     1     -48.276  30.580  24.527  1.00  0.00    -0.283 N 
ATOM     33  C   UNL     1     -48.772  29.562  25.321  1.00  0.00     0.032 A 
ATOM     34  C   UNL     1     -48.406  30.182  23.198  1.00  0.00     0.152 A 
ATOM     35  C   UNL     1     -49.214  28.542  24.515  1.00  0.00     0.072 A 
ATOM     36  H   UNL     1     -48.773  29.643  26.400  1.00  0.00     0.084 H 
ATOM     37  C   UNL     1     -48.993  28.919  23.169  1.00  0.00     0.080 A 
ATOM     38  N   UNL     1     -48.032  30.885  22.110  1.00  0.00    -0.218 NA
ATOM     39  Cl  UNL     1     -49.897  27.080  25.052  1.00  0.00    -0.082 Cl
ATOM     40  C   UNL     1     -49.215  28.350  21.905  1.00  0.00     0.137 A 
ATOM     41  C   UNL     1     -48.288  30.243  20.965  1.00  0.00     0.120 A 
ATOM     42  N   UNL     1     -48.844  29.031  20.806  1.00  0.00    -0.219 NA
ATOM     43  H   UNL     1     -48.012  30.764  20.054  1.00  0.00     0.106 H 
BRANCH  40  44
ATOM     44  N   UNL     1     -49.791  27.107  21.705  1.00  0.00    -0.383 N 
ATOM     45  H   UNL     1     -50.084  26.981  20.743  1.00  0.00     0.158 HD
ATOM     46  H   UNL     1     -49.337  26.326  22.157  1.00  0.00     0.158 HD
ENDBRANCH  40  44
ENDBRANCH  29  32
ENDBRANCH   1  26
TORSDOF 7
ENDMDL
MODEL 6
REMARK VINA RESULT:      -8.9      4.030     10.705
REMARK SMILES CNc1ccc2ccc(OCc3nc(-n4cc(Cl)c5c(N)ncnc54)cs3)cc2n1
REMARK SMILES IDX 11 1 10 4 9 5 3 6 4 7 30 8 5 9 29 11 6 12 28 14 7 15 8 17
REMARK SMILES IDX 2 20 1 22 12 26 13 27 27 28 14 29 26 30 15 32 16 33 25 34
REMARK SMILES IDX 17 35 19 37 24 38 18 39 20 40 23 41 22 42 21 44
REMARK H PARENT 11 2 11 3 4 10 5 13 28 16 7 18 8 19 2 21 1 23 1 24 1 25 26 31
REMARK H PARENT 16 36 23 43 21 45 21 46
REMARK Flexibility Score: inf
ROOT
ATOM      1  C   UNL     1     -48.929  33.571  26.283  1.00  0.00     0.140 C 
ATOM      2  H   UNL     1     -49.681  33.625  27.079  1.00  0.00     0.078 H 
ATOM      3  H   UNL     1     -49.034  34.431  25.612  1.00  0.00     0.078 H 
ENDROOT
BRANCH   1   4
ATOM      4  O   UNL     1     -47.616  33.523  26.848  1.00  0.00    -0.486 OA
BRANCH   4   5
ATOM      5  C   UNL     1     -47.055  34.714  27.217  1.00  0.00     0.122 A 
ATOM      6  C   UNL     1     -46.094  39.349  26.733  1.00  0.00     0.126 A 
ATOM      7  C   UNL     1     -45.350  39.367  27.907  1.00  0.00    -0.019 A 
ATOM      8  N   UNL     1     -46.692  38.223  26.292  1.00  0.00    -0.231 NA
ATOM      9  C   UNL     1     -45.199  38.193  28.638  1.00  0.00    -0.049 A 
ATOM     10  H   UNL     1     -44.901  40.289  28.261  1.00  0.00     0.066 H 
ATOM     11  C   UNL     1     -46.553  37.084  26.994  1.00  0.00     0.076 A 
ATOM     12  C   UNL     1     -45.804  37.020  28.185  1.00  0.00     0.001 A 
ATOM     13  H   UNL     1     -44.618  38.205  29.556  1.00  0.00     0.063 H 
ATOM     14  C   UNL     1     -47.168  35.926  26.533  1.00  0.00     0.007 A 
ATOM     15  C   UNL     1     -45.687  35.808  28.881  1.00  0.00    -0.049 A 
ATOM     16  H   UNL     1     -47.743  36.012  25.616  1.00  0.00     0.069 H 
ATOM     17  C   UNL     1     -46.312  34.662  28.395  1.00  0.00    -0.019 A 
ATOM     18  H   UNL     1     -45.112  35.750  29.803  1.00  0.00     0.063 H 
ATOM     19  H   UNL     1     -46.220  33.723  28.937  1.00  0.00     0.066 H 
BRANCH   6  20
ATOM     20  N   UNL     1     -46.247  40.561  26.034  1.00  0.00    -0.373 N 
ATOM     21  H   UNL     1     -46.511  40.357  25.074  1.00  0.00     0.161 HD
BRANCH  20  22
ATOM     22  C   UNL     1     -47.163  41.500  26.660  1.00  0.00     0.005 C 
ATOM     23  H   UNL     1     -46.680  42.054  27.473  1.00  0.00     0.045 H 
ATOM     24  H   UNL     1     -47.581  42.203  25.931  1.00  0.00     0.045 H 
ATOM     25  H   UNL     1     -48.001  40.943  27.092  1.00  0.00     0.045 H 
ENDBRANCH  20  22
ENDBRANCH   6  20
ENDBRANCH   4   5
ENDBRANCH   1   4
BRANCH   1  26
ATOM     26  C   UNL     1     -49.130  32.301  25.508  1.00  0.00     0.133 A 
ATOM     27  N   UNL     1     -48.364  31.235  25.612  1.00  0.00    -0.220 NA
ATOM     28  S   UNL     1     -50.457  32.143  24.421  1.00  0.00    -0.122 S 
ATOM     29  C   UNL     1     -48.813  30.234  24.772  1.00  0.00     0.149 A 
ATOM     30  C   UNL     1     -49.942  30.549  24.041  1.00  0.00     0.036 A 
ATOM     31  H   UNL     1     -50.490  29.957  23.324  1.00  0.00     0.078 H 
BRANCH  29  32
ATOM     32  N   UNL     1     -48.101  28.990  24.725  1.00  0.00    -0.283 N 
ATOM     33  C   UNL     1     -48.443  27.858  25.443  1.00  0.00     0.032 A 
ATOM     34  C   UNL     1     -46.965  28.690  23.977  1.00  0.00     0.152 A 
ATOM     35  C   UNL     1     -47.547  26.858  25.152  1.00  0.00     0.072 A 
ATOM     36  H   UNL     1     -49.299  27.850  26.104  1.00  0.00     0.084 H 
ATOM     37  C   UNL     1     -46.608  27.366  24.224  1.00  0.00     0.080 A 
ATOM     38  N   UNL     1     -46.306  29.526  23.150  1.00  0.00    -0.218 NA
ATOM     39  Cl  UNL     1     -47.568  25.289  25.807  1.00  0.00    -0.082 Cl
ATOM     40  C   UNL     1     -45.480  26.875  23.547  1.00  0.00     0.137 A 
ATOM     41  C   UNL     1     -45.249  28.951  22.565  1.00  0.00     0.120 A 
ATOM     42  N   UNL     1     -44.804  27.693  22.721  1.00  0.00    -0.219 NA
ATOM     43  H   UNL     1     -44.682  29.576  21.882  1.00  0.00     0.106 H 
BRANCH  40  44
ATOM     44  N   UNL     1     -44.998  25.583  23.679  1.00  0.00    -0.383 N 
ATOM     45  H   UNL     1     -44.852  25.145  22.778  1.00  0.00     0.158 HD
ATOM     46  H   UNL     1     -44.288  25.442  24.385  1.00  0.00     0.158 HD
ENDBRANCH  40  44
ENDBRANCH  29  32
ENDBRANCH   1  26
TORSDOF 7
ENDMDL
MODEL 7
REMARK VINA RESULT:      -8.7      2.174      2.897
REMARK SMILES CNc1ccc2ccc(OCc3nc(-n4cc(Cl)c5c(N)ncnc54)cs3)cc2n1
REMARK SMILES IDX 11 1 10 4 9 5 3 6 4 7 30 8 5 9 29 11 6 12 28 14 7 15 8 17
REMARK SMILES IDX 2 20 1 22 12 26 13 27 27 28 14 29 26 30 15 32 16 33 25 34
REMARK SMILES IDX 17 35 19 37 24 38 18 39 20 40 23 41 22 42 21 44
REMARK H PARENT 11 2 11 3 4 10 5 13 28 16 7 18 8 19 2 21 1 23 1 24 1 25 26 31
REMARK H PARENT 16 36 23 43 21 45 21 46
REMARK Flexibility Score: inf
ROOT
ATOM      1  C   UNL     1     -47.018  36.610  27.423  1.00  0.00     0.140 C 
ATOM      2  H   UNL     1     -48.038  36.915  27.160  1.00  0.00     0.078 H 
ATOM      3  H   UNL     1     -47.035  35.995  28.331  1.00  0.00     0.078 H 
ENDROOT
BRANCH   1   4
ATOM      4  O   UNL     1     -46.422  35.898  26.337  1.00  0.00    -0.486 OA
BRANCH   4   5
ATOM      5  C   UNL     1     -46.972  34.689  26.010  1.00  0.00     0.122 A 
ATOM      6  C   UNL     1     -47.005  30.390  23.970  1.00  0.00     0.126 A 
ATOM      7  C   UNL     1     -48.288  30.126  24.435  1.00  0.00    -0.019 A 
ATOM      8  N   UNL     1     -46.377  31.551  24.248  1.00  0.00    -0.231 NA
ATOM      9  C   UNL     1     -48.952  31.088  25.190  1.00  0.00    -0.049 A 
ATOM     10  H   UNL     1     -48.765  29.174  24.226  1.00  0.00     0.066 H 
ATOM     11  C   UNL     1     -47.012  32.485  24.980  1.00  0.00     0.076 A 
ATOM     12  C   UNL     1     -48.316  32.297  25.474  1.00  0.00     0.001 A 
ATOM     13  H   UNL     1     -49.955  30.882  25.555  1.00  0.00     0.063 H 
ATOM     14  C   UNL     1     -46.362  33.681  25.259  1.00  0.00     0.007 A 
ATOM     15  C   UNL     1     -48.937  33.301  26.231  1.00  0.00    -0.049 A 
ATOM     16  H   UNL     1     -45.355  33.792  24.869  1.00  0.00     0.069 H 
ATOM     17  C   UNL     1     -48.263  34.492  26.495  1.00  0.00    -0.019 A 
ATOM     18  H   UNL     1     -49.944  33.163  26.620  1.00  0.00     0.063 H 
ATOM     19  H   UNL     1     -48.747  35.269  27.083  1.00  0.00     0.066 H 
BRANCH   6  20
ATOM     20  N   UNL     1     -46.354  29.384  23.233  1.00  0.00    -0.373 N 
ATOM     21  H   UNL     1     -45.352  29.551  23.261  1.00  0.00     0.161 HD
BRANCH  20  22
ATOM     22  C   UNL     1     -46.689  28.030  23.642  1.00  0.00     0.005 C 
ATOM     23  H   UNL     1     -47.086  27.443  22.806  1.00  0.00     0.045 H 
ATOM     24  H   UNL     1     -45.827  27.516  24.080  1.00  0.00     0.045 H 
ATOM     25  H   UNL     1     -47.467  28.075  24.411  1.00  0.00     0.045 H 
ENDBRANCH  20  22
ENDBRANCH   6  20
ENDBRANCH   4   5
ENDBRANCH   1   4
BRANCH   1  26
ATOM     26  C   UNL     1     -46.189  37.838  27.664  1.00  0.00     0.133 A 
ATOM     27  N   UNL     1     -46.244  38.930  26.931  1.00  0.00    -0.220 NA
ATOM     28  S   UNL     1     -45.100  37.908  28.996  1.00  0.00    -0.122 S 
ATOM     29  C   UNL     1     -45.362  39.879  27.411  1.00  0.00     0.149 A 
ATOM     30  C   UNL     1     -44.650  39.499  28.531  1.00  0.00     0.036 A 
ATOM     31  H   UNL     1     -43.909  40.042  29.098  1.00  0.00     0.078 H 
BRANCH  29  32
ATOM     32  N   UNL     1     -45.258  41.141  26.737  1.00  0.00    -0.283 N 
ATOM     33  C   UNL     1     -46.331  41.863  26.246  1.00  0.00     0.032 A 
ATOM     34  C   UNL     1     -44.099  41.859  26.452  1.00  0.00     0.152 A 
ATOM     35  C   UNL     1     -45.864  43.018  25.668  1.00  0.00     0.072 A 
ATOM     36  H   UNL     1     -47.345  41.501  26.347  1.00  0.00     0.084 H 
ATOM     37  C   UNL     1     -44.455  43.033  25.792  1.00  0.00     0.080 A 
ATOM     38  N   UNL     1     -42.836  41.494  26.754  1.00  0.00    -0.218 NA
ATOM     39  Cl  UNL     1     -46.821  44.211  24.925  1.00  0.00    -0.082 Cl
ATOM     40  C   UNL     1     -43.411  43.898  25.427  1.00  0.00     0.137 A 
ATOM     41  C   UNL     1     -41.928  42.392  26.356  1.00  0.00     0.120 A 
ATOM     42  N   UNL     1     -42.143  43.552  25.714  1.00  0.00    -0.219 NA
ATOM     43  H   UNL     1     -40.892  42.154  26.577  1.00  0.00     0.106 H 
BRANCH  40  44
ATOM     44  N   UNL     1     -43.596  45.103  24.771  1.00  0.00    -0.383 N 
ATOM     45  H   UNL     1     -42.852  45.286  24.109  1.00  0.00     0.158 HD
ATOM     46  H   UNL     1     -44.541  45.310  24.477  1.00  0.00     0.158 HD
ENDBRANCH  40  44
ENDBRANCH  29  32
ENDBRANCH   1  26
TORSDOF 7
ENDMDL
