MODEL 1
REMARK VINA RESULT:     -11.2      0.000      0.000
REMARK SMILES Nc1ncnc2c1c(-n1cccn1)cn2[C@@H]1O[C@H](COc2ccc3ccc(N4CCC4)nc3c2)[C@@H](O)[C@@H]1F
REMARK SMILES IDX 19 1 18 4 16 5 17 6 37 7 35 9 38 10 15 14 2 15 3 16 7 17
REMARK SMILES IDX 4 18 6 19 8 20 5 21 14 23 1 25 9 28 10 29 13 30 11 31 12 33
REMARK SMILES IDX 36 36 20 38 21 39 22 40 34 41 23 42 33 44 24 46 32 48 25 49
REMARK SMILES IDX 27 50 26 51 28 54 29 55 31 56 30 57
REMARK H PARENT 19 2 19 3 16 8 37 11 18 12 35 13 4 22 14 24 1 26 1 27 10 32
REMARK H PARENT 11 34 12 35 36 37 22 43 34 45 23 47 25 52 26 53 29 58 29 59
REMARK H PARENT 31 60 31 61 30 62 30 63
REMARK Flexibility Score: inf
ROOT
ATOM      1  C   UNL     1     -47.460  36.340  27.205  1.00  0.00     0.117 C 
ATOM      2  H   UNL     1     -46.991  36.490  26.224  1.00  0.00     0.073 H 
ATOM      3  H   UNL     1     -48.021  37.247  27.459  1.00  0.00     0.073 H 
ENDROOT
BRANCH   1   4
ATOM      4  C   UNL     1     -46.355  36.089  28.238  1.00  0.00     0.123 C 
ATOM      5  C   UNL     1     -45.028  37.868  28.965  1.00  0.00     0.170 C 
ATOM      6  O   UNL     1     -45.210  36.901  27.899  1.00  0.00    -0.345 OA
ATOM      7  C   UNL     1     -46.312  37.891  29.779  1.00  0.00     0.173 C 
ATOM      8  H   UNL     1     -44.180  37.509  29.560  1.00  0.00     0.088 H 
ATOM      9  C   UNL     1     -46.768  36.455  29.669  1.00  0.00     0.119 C 
ATOM     10  F   UNL     1     -47.252  38.682  29.186  1.00  0.00    -0.239 F 
ATOM     11  H   UNL     1     -46.159  38.243  30.803  1.00  0.00     0.074 H 
ATOM     12  H   UNL     1     -46.046  35.038  28.188  1.00  0.00     0.067 H 
ATOM     13  H   UNL     1     -47.838  36.335  29.860  1.00  0.00     0.066 H 
BRANCH   5  14
ATOM     14  N   UNL     1     -44.661  39.161  28.410  1.00  0.00    -0.301 N 
ATOM     15  C   UNL     1     -42.562  42.011  28.566  1.00  0.00     0.138 A 
ATOM     16  N   UNL     1     -41.725  41.668  29.568  1.00  0.00    -0.219 NA
ATOM     17  C   UNL     1     -43.556  41.099  28.162  1.00  0.00     0.087 A 
ATOM     18  C   UNL     1     -41.904  40.485  30.179  1.00  0.00     0.120 A 
ATOM     19  C   UNL     1     -43.623  39.917  28.894  1.00  0.00     0.149 A 
ATOM     20  C   UNL     1     -44.582  41.011  27.167  1.00  0.00     0.096 A 
ATOM     21  N   UNL     1     -42.831  39.551  29.916  1.00  0.00    -0.218 NA
ATOM     22  H   UNL     1     -41.213  40.261  30.986  1.00  0.00     0.106 H 
ATOM     23  C   UNL     1     -45.259  39.818  27.364  1.00  0.00     0.035 A 
ATOM     24  H   UNL     1     -46.094  39.371  26.841  1.00  0.00     0.084 H 
BRANCH  15  25
ATOM     25  N   UNL     1     -42.380  43.264  28.012  1.00  0.00    -0.383 N 
ATOM     26  H   UNL     1     -43.109  43.518  27.362  1.00  0.00     0.158 HD
ATOM     27  H   UNL     1     -42.060  43.977  28.672  1.00  0.00     0.158 HD
ENDBRANCH  15  25
BRANCH  20  28
ATOM     28  N   UNL     1     -44.868  41.956  26.137  1.00  0.00    -0.239 N 
ATOM     29  C   UNL     1     -44.134  42.141  24.978  1.00  0.00     0.031 A 
ATOM     30  N   UNL     1     -45.902  42.842  26.190  1.00  0.00    -0.176 NA
ATOM     31  C   UNL     1     -44.728  43.152  24.265  1.00  0.00    -0.024 A 
ATOM     32  H   UNL     1     -43.267  41.534  24.764  1.00  0.00     0.084 H 
ATOM     33  C   UNL     1     -45.813  43.543  25.059  1.00  0.00     0.049 A 
ATOM     34  H   UNL     1     -44.419  43.548  23.309  1.00  0.00     0.066 H 
ATOM     35  H   UNL     1     -46.546  44.316  24.863  1.00  0.00     0.086 H 
ENDBRANCH  20  28
ENDBRANCH   5  14
BRANCH   9  36
ATOM     36  O   UNL     1     -46.053  35.661  30.623  1.00  0.00    -0.387 OA
ATOM     37  H   UNL     1     -46.710  35.259  31.219  1.00  0.00     0.211 HD
ENDBRANCH   9  36
ENDBRANCH   1   4
BRANCH   1  38
ATOM     38  O   UNL     1     -48.322  35.201  27.171  1.00  0.00    -0.491 OA
BRANCH  38  39
ATOM     39  C   UNL     1     -47.945  34.163  26.365  1.00  0.00     0.121 A 
ATOM     40  C   UNL     1     -46.724  34.344  25.717  1.00  0.00    -0.019 A 
ATOM     41  C   UNL     1     -48.665  32.986  26.149  1.00  0.00     0.007 A 
ATOM     42  C   UNL     1     -46.229  33.360  24.866  1.00  0.00    -0.049 A 
ATOM     43  H   UNL     1     -46.154  35.256  25.877  1.00  0.00     0.066 H 
ATOM     44  C   UNL     1     -48.196  31.988  25.303  1.00  0.00     0.076 A 
ATOM     45  H   UNL     1     -49.619  32.806  26.634  1.00  0.00     0.069 H 
ATOM     46  C   UNL     1     -46.961  32.181  24.656  1.00  0.00     0.001 A 
ATOM     47  H   UNL     1     -45.274  33.515  24.370  1.00  0.00     0.063 H 
ATOM     48  N   UNL     1     -48.933  30.876  25.130  1.00  0.00    -0.231 NA
ATOM     49  C   UNL     1     -46.501  31.167  23.814  1.00  0.00    -0.049 A 
ATOM     50  C   UNL     1     -48.483  29.901  24.307  1.00  0.00     0.129 A 
ATOM     51  C   UNL     1     -47.267  30.018  23.641  1.00  0.00    -0.019 A 
ATOM     52  H   UNL     1     -45.550  31.258  23.294  1.00  0.00     0.063 H 
ATOM     53  H   UNL     1     -46.908  29.220  23.001  1.00  0.00     0.066 H 
BRANCH  50  54
ATOM     54  N   UNL     1     -49.260  28.739  24.151  1.00  0.00    -0.356 N 
ATOM     55  C   UNL     1     -50.695  28.727  24.089  1.00  0.00     0.021 C 
ATOM     56  C   UNL     1     -49.140  27.765  23.105  1.00  0.00     0.021 C 
ATOM     57  C   UNL     1     -50.566  27.334  23.463  1.00  0.00    -0.018 C 
ATOM     58  H   UNL     1     -51.173  28.769  25.069  1.00  0.00     0.049 H 
ATOM     59  H   UNL     1     -51.102  29.495  23.423  1.00  0.00     0.049 H 
ATOM     60  H   UNL     1     -49.028  28.214  22.113  1.00  0.00     0.049 H 
ATOM     61  H   UNL     1     -48.361  27.021  23.286  1.00  0.00     0.049 H 
ATOM     62  H   UNL     1     -51.228  27.129  22.618  1.00  0.00     0.030 H 
ATOM     63  H   UNL     1     -50.623  26.509  24.183  1.00  0.00     0.030 H 
ENDBRANCH  50  54
ENDBRANCH  38  39
ENDBRANCH   1  38
TORSDOF 8
ENDMDL
MODEL 2
REMARK VINA RESULT:      -9.9      2.192     10.866
REMARK SMILES Nc1ncnc2c1c(-n1cccn1)cn2[C@@H]1O[C@H](COc2ccc3ccc(N4CCC4)nc3c2)[C@@H](O)[C@@H]1F
REMARK SMILES IDX 19 1 18 4 16 5 17 6 37 7 35 9 38 10 15 14 2 15 3 16 7 17
REMARK SMILES IDX 4 18 6 19 8 20 5 21 14 23 1 25 9 28 10 29 13 30 11 31 12 33
REMARK SMILES IDX 36 36 20 38 21 39 22 40 34 41 23 42 33 44 24 46 32 48 25 49
REMARK SMILES IDX 27 50 26 51 28 54 29 55 31 56 30 57
REMARK H PARENT 19 2 19 3 16 8 37 11 18 12 35 13 4 22 14 24 1 26 1 27 10 32
REMARK H PARENT 11 34 12 35 36 37 22 43 34 45 23 47 25 52 26 53 29 58 29 59
REMARK H PARENT 31 60 31 61 30 62 30 63
REMARK Flexibility Score: inf
ROOT
ATOM      1  C   UNL     1     -48.321  35.473  26.919  1.00  0.00     0.117 C 
ATOM      2  H   UNL     1     -49.287  35.018  26.665  1.00  0.00     0.073 H 
ATOM      3  H   UNL     1     -47.913  35.937  26.013  1.00  0.00     0.073 H 
ENDROOT
BRANCH   1   4
ATOM      4  C   UNL     1     -47.382  34.372  27.424  1.00  0.00     0.123 C 
ATOM      5  C   UNL     1     -46.957  32.510  26.078  1.00  0.00     0.170 C 
ATOM      6  O   UNL     1     -47.905  33.091  27.009  1.00  0.00    -0.345 OA
ATOM      7  C   UNL     1     -46.027  33.626  25.626  1.00  0.00     0.173 C 
ATOM      8  H   UNL     1     -46.416  31.736  26.635  1.00  0.00     0.088 H 
ATOM      9  C   UNL     1     -45.958  34.486  26.866  1.00  0.00     0.119 C 
ATOM     10  F   UNL     1     -46.595  34.362  24.629  1.00  0.00    -0.239 F 
ATOM     11  H   UNL     1     -45.059  33.256  25.275  1.00  0.00     0.074 H 
ATOM     12  H   UNL     1     -47.364  34.386  28.519  1.00  0.00     0.067 H 
ATOM     13  H   UNL     1     -45.652  35.514  26.652  1.00  0.00     0.066 H 
BRANCH   5  14
ATOM     14  N   UNL     1     -47.662  31.857  24.987  1.00  0.00    -0.301 N 
ATOM     15  C   UNL     1     -47.494  30.278  21.820  1.00  0.00     0.138 A 
ATOM     16  N   UNL     1     -46.163  30.262  21.603  1.00  0.00    -0.219 NA
ATOM     17  C   UNL     1     -47.984  30.811  23.027  1.00  0.00     0.087 A 
ATOM     18  C   UNL     1     -45.353  30.803  22.529  1.00  0.00     0.120 A 
ATOM     19  C   UNL     1     -47.026  31.342  23.885  1.00  0.00     0.149 A 
ATOM     20  C   UNL     1     -49.247  30.986  23.681  1.00  0.00     0.096 A 
ATOM     21  N   UNL     1     -45.696  31.374  23.694  1.00  0.00    -0.218 NA
ATOM     22  H   UNL     1     -44.292  30.776  22.303  1.00  0.00     0.106 H 
ATOM     23  C   UNL     1     -49.014  31.655  24.873  1.00  0.00     0.035 A 
ATOM     24  H   UNL     1     -49.686  31.983  25.655  1.00  0.00     0.084 H 
BRANCH  15  25
ATOM     25  N   UNL     1     -48.290  29.768  20.811  1.00  0.00    -0.383 N 
ATOM     26  H   UNL     1     -49.105  29.284  21.157  1.00  0.00     0.158 HD
ATOM     27  H   UNL     1     -48.410  30.393  20.010  1.00  0.00     0.158 HD
ENDBRANCH  15  25
BRANCH  20  28
ATOM     28  N   UNL     1     -50.525  30.547  23.223  1.00  0.00    -0.239 N 
ATOM     29  C   UNL     1     -51.268  29.511  23.761  1.00  0.00     0.031 A 
ATOM     30  N   UNL     1     -51.165  31.081  22.146  1.00  0.00    -0.176 NA
ATOM     31  C   UNL     1     -52.421  29.398  23.025  1.00  0.00    -0.024 A 
ATOM     32  H   UNL     1     -50.916  28.958  24.619  1.00  0.00     0.084 H 
ATOM     33  C   UNL     1     -52.303  30.392  22.046  1.00  0.00     0.049 A 
ATOM     34  H   UNL     1     -53.228  28.697  23.176  1.00  0.00     0.066 H 
ATOM     35  H   UNL     1     -53.000  30.644  21.257  1.00  0.00     0.086 H 
ENDBRANCH  20  28
ENDBRANCH   5  14
BRANCH   9  36
ATOM     36  O   UNL     1     -45.009  33.920  27.778  1.00  0.00    -0.387 OA
ATOM     37  H   UNL     1     -44.320  33.480  27.247  1.00  0.00     0.211 HD
ENDBRANCH   9  36
ENDBRANCH   1   4
BRANCH   1  38
ATOM     38  O   UNL     1     -48.488  36.442  27.955  1.00  0.00    -0.491 OA
BRANCH  38  39
ATOM     39  C   UNL     1     -47.354  37.041  28.431  1.00  0.00     0.121 A 
ATOM     40  C   UNL     1     -46.887  36.524  29.638  1.00  0.00    -0.019 A 
ATOM     41  C   UNL     1     -46.661  38.091  27.824  1.00  0.00     0.007 A 
ATOM     42  C   UNL     1     -45.740  37.048  30.229  1.00  0.00    -0.049 A 
ATOM     43  H   UNL     1     -47.417  35.706  30.121  1.00  0.00     0.066 H 
ATOM     44  C   UNL     1     -45.515  38.636  28.393  1.00  0.00     0.076 A 
ATOM     45  H   UNL     1     -46.991  38.522  26.885  1.00  0.00     0.069 H 
ATOM     46  C   UNL     1     -45.052  38.103  29.611  1.00  0.00     0.001 A 
ATOM     47  H   UNL     1     -45.387  36.631  31.169  1.00  0.00     0.063 H 
ATOM     48  N   UNL     1     -44.891  39.648  27.766  1.00  0.00    -0.231 NA
ATOM     49  C   UNL     1     -43.897  38.657  30.167  1.00  0.00    -0.049 A 
ATOM     50  C   UNL     1     -43.776  40.183  28.315  1.00  0.00     0.129 A 
ATOM     51  C   UNL     1     -43.254  39.703  29.511  1.00  0.00    -0.019 A 
ATOM     52  H   UNL     1     -43.489  38.281  31.101  1.00  0.00     0.063 H 
ATOM     53  H   UNL     1     -42.348  40.126  29.929  1.00  0.00     0.066 H 
BRANCH  50  54
ATOM     54  N   UNL     1     -43.127  41.231  27.636  1.00  0.00    -0.356 N 
ATOM     55  C   UNL     1     -43.390  41.597  26.273  1.00  0.00     0.021 C 
ATOM     56  C   UNL     1     -43.044  42.599  28.058  1.00  0.00     0.021 C 
ATOM     57  C   UNL     1     -42.721  42.937  26.598  1.00  0.00    -0.018 C 
ATOM     58  H   UNL     1     -42.872  40.969  25.546  1.00  0.00     0.049 H 
ATOM     59  H   UNL     1     -44.459  41.660  26.043  1.00  0.00     0.049 H 
ATOM     60  H   UNL     1     -43.998  42.993  28.424  1.00  0.00     0.049 H 
ATOM     61  H   UNL     1     -42.243  42.788  28.776  1.00  0.00     0.049 H 
ATOM     62  H   UNL     1     -43.213  43.825  26.195  1.00  0.00     0.030 H 
ATOM     63  H   UNL     1     -41.650  42.975  26.368  1.00  0.00     0.030 H 
ENDBRANCH  50  54
ENDBRANCH  38  39
ENDBRANCH   1  38
TORSDOF 8
ENDMDL
MODEL 3
REMARK VINA RESULT:      -9.6      2.276      3.081
REMARK SMILES Nc1ncnc2c1c(-n1cccn1)cn2[C@@H]1O[C@H](COc2ccc3ccc(N4CCC4)nc3c2)[C@@H](O)[C@@H]1F
REMARK SMILES IDX 19 1 18 4 16 5 17 6 37 7 35 9 38 10 15 14 2 15 3 16 7 17
REMARK SMILES IDX 4 18 6 19 8 20 5 21 14 23 1 25 9 28 10 29 13 30 11 31 12 33
REMARK SMILES IDX 36 36 20 38 21 39 22 40 34 41 23 42 33 44 24 46 32 48 25 49
REMARK SMILES IDX 27 50 26 51 28 54 29 55 31 56 30 57
REMARK H PARENT 19 2 19 3 16 8 37 11 18 12 35 13 4 22 14 24 1 26 1 27 10 32
REMARK H PARENT 11 34 12 35 36 37 22 43 34 45 23 47 25 52 26 53 29 58 29 59
REMARK H PARENT 31 60 31 61 30 62 30 63
REMARK Flexibility Score: inf
ROOT
ATOM      1  C   UNL     1     -46.311  35.350  26.349  1.00  0.00     0.117 C 
ATOM      2  H   UNL     1     -45.484  34.820  25.860  1.00  0.00     0.073 H 
ATOM      3  H   UNL     1     -46.576  36.216  25.732  1.00  0.00     0.073 H 
ENDROOT
BRANCH   1   4
ATOM      4  C   UNL     1     -45.842  35.806  27.736  1.00  0.00     0.123 C 
ATOM      5  C   UNL     1     -46.490  37.900  28.543  1.00  0.00     0.170 C 
ATOM      6  O   UNL     1     -45.542  37.218  27.683  1.00  0.00    -0.345 OA
ATOM      7  C   UNL     1     -47.625  36.928  28.825  1.00  0.00     0.173 C 
ATOM      8  H   UNL     1     -45.942  38.156  29.458  1.00  0.00     0.088 H 
ATOM      9  C   UNL     1     -46.898  35.604  28.830  1.00  0.00     0.119 C 
ATOM     10  F   UNL     1     -48.524  36.917  27.800  1.00  0.00    -0.239 F 
ATOM     11  H   UNL     1     -48.160  37.157  29.752  1.00  0.00     0.074 H 
ATOM     12  H   UNL     1     -44.918  35.278  27.997  1.00  0.00     0.067 H 
ATOM     13  H   UNL     1     -47.563  34.756  28.646  1.00  0.00     0.066 H 
BRANCH   5  14
ATOM     14  N   UNL     1     -46.921  39.143  27.925  1.00  0.00    -0.301 N 
ATOM     15  C   UNL     1     -46.048  42.062  26.116  1.00  0.00     0.138 A 
ATOM     16  N   UNL     1     -44.736  41.848  25.888  1.00  0.00    -0.219 NA
ATOM     17  C   UNL     1     -46.792  41.083  26.801  1.00  0.00     0.087 A 
ATOM     18  C   UNL     1     -44.173  40.726  26.368  1.00  0.00     0.120 A 
ATOM     19  C   UNL     1     -46.071  39.978  27.244  1.00  0.00     0.149 A 
ATOM     20  C   UNL     1     -48.148  40.863  27.207  1.00  0.00     0.096 A 
ATOM     21  N   UNL     1     -44.760  39.741  27.065  1.00  0.00    -0.218 NA
ATOM     22  H   UNL     1     -43.113  40.606  26.168  1.00  0.00     0.106 H 
ATOM     23  C   UNL     1     -48.187  39.673  27.918  1.00  0.00     0.035 A 
ATOM     24  H   UNL     1     -49.005  39.150  28.396  1.00  0.00     0.084 H 
BRANCH  15  25
ATOM     25  N   UNL     1     -46.567  43.259  25.660  1.00  0.00    -0.383 N 
ATOM     26  H   UNL     1     -46.620  43.966  26.378  1.00  0.00     0.158 HD
ATOM     27  H   UNL     1     -46.229  43.543  24.737  1.00  0.00     0.158 HD
ENDBRANCH  15  25
BRANCH  20  28
ATOM     28  N   UNL     1     -49.277  41.691  26.931  1.00  0.00    -0.239 N 
ATOM     29  C   UNL     1     -50.410  41.806  27.717  1.00  0.00     0.031 A 
ATOM     30  N   UNL     1     -49.396  42.457  25.810  1.00  0.00    -0.176 NA
ATOM     31  C   UNL     1     -51.261  42.685  27.094  1.00  0.00    -0.024 A 
ATOM     32  H   UNL     1     -50.503  41.264  28.645  1.00  0.00     0.084 H 
ATOM     33  C   UNL     1     -50.583  43.055  25.926  1.00  0.00     0.049 A 
ATOM     34  H   UNL     1     -52.233  43.010  27.437  1.00  0.00     0.066 H 
ATOM     35  H   UNL     1     -50.904  43.735  25.148  1.00  0.00     0.086 H 
ENDBRANCH  20  28
ENDBRANCH   5  14
BRANCH   9  36
ATOM     36  O   UNL     1     -46.277  35.414  30.106  1.00  0.00    -0.387 OA
ATOM     37  H   UNL     1     -46.536  36.165  30.672  1.00  0.00     0.211 HD
ENDBRANCH   9  36
ENDBRANCH   1   4
BRANCH   1  38
ATOM     38  O   UNL     1     -47.431  34.478  26.509  1.00  0.00    -0.491 OA
BRANCH  38  39
ATOM     39  C   UNL     1     -47.391  33.289  25.836  1.00  0.00     0.121 A 
ATOM     40  C   UNL     1     -46.459  33.238  24.800  1.00  0.00    -0.019 A 
ATOM     41  C   UNL     1     -48.183  32.168  26.096  1.00  0.00     0.007 A 
ATOM     42  C   UNL     1     -46.320  32.082  24.037  1.00  0.00    -0.049 A 
ATOM     43  H   UNL     1     -45.835  34.104  24.588  1.00  0.00     0.066 H 
ATOM     44  C   UNL     1     -48.068  31.002  25.349  1.00  0.00     0.076 A 
ATOM     45  H   UNL     1     -48.920  32.166  26.893  1.00  0.00     0.069 H 
ATOM     46  C   UNL     1     -47.121  30.963  24.307  1.00  0.00     0.001 A 
ATOM     47  H   UNL     1     -45.587  32.059  23.235  1.00  0.00     0.063 H 
ATOM     48  N   UNL     1     -48.859  29.955  25.642  1.00  0.00    -0.231 NA
ATOM     49  C   UNL     1     -47.014  29.783  23.569  1.00  0.00    -0.049 A 
ATOM     50  C   UNL     1     -48.753  28.817  24.917  1.00  0.00     0.129 A 
ATOM     51  C   UNL     1     -47.835  28.702  23.880  1.00  0.00    -0.019 A 
ATOM     52  H   UNL     1     -46.296  29.692  22.758  1.00  0.00     0.063 H 
ATOM     53  H   UNL     1     -47.745  27.777  23.320  1.00  0.00     0.066 H 
BRANCH  50  54
ATOM     54  N   UNL     1     -49.579  27.728  25.249  1.00  0.00    -0.356 N 
ATOM     55  C   UNL     1     -49.829  26.609  24.384  1.00  0.00     0.021 C 
ATOM     56  C   UNL     1     -49.465  26.892  26.409  1.00  0.00     0.021 C 
ATOM     57  C   UNL     1     -50.295  25.860  25.637  1.00  0.00    -0.018 C 
ATOM     58  H   UNL     1     -50.596  26.804  23.632  1.00  0.00     0.049 H 
ATOM     59  H   UNL     1     -48.920  26.212  23.922  1.00  0.00     0.049 H 
ATOM     60  H   UNL     1     -48.434  26.591  26.620  1.00  0.00     0.049 H 
ATOM     61  H   UNL     1     -49.939  27.311  27.299  1.00  0.00     0.049 H 
ATOM     62  H   UNL     1     -49.964  24.822  25.723  1.00  0.00     0.030 H 
ATOM     63  H   UNL     1     -51.374  25.917  25.822  1.00  0.00     0.030 H 
ENDBRANCH  50  54
ENDBRANCH  38  39
ENDBRANCH   1  38
TORSDOF 8
ENDMDL
MODEL 4
REMARK VINA RESULT:      -9.5      1.638      3.087
REMARK SMILES Nc1ncnc2c1c(-n1cccn1)cn2[C@@H]1O[C@H](COc2ccc3ccc(N4CCC4)nc3c2)[C@@H](O)[C@@H]1F
REMARK SMILES IDX 19 1 18 4 16 5 17 6 37 7 35 9 38 10 15 14 2 15 3 16 7 17
REMARK SMILES IDX 4 18 6 19 8 20 5 21 14 23 1 25 9 28 10 29 13 30 11 31 12 33
REMARK SMILES IDX 36 36 20 38 21 39 22 40 34 41 23 42 33 44 24 46 32 48 25 49
REMARK SMILES IDX 27 50 26 51 28 54 29 55 31 56 30 57
REMARK H PARENT 19 2 19 3 16 8 37 11 18 12 35 13 4 22 14 24 1 26 1 27 10 32
REMARK H PARENT 11 34 12 35 36 37 22 43 34 45 23 47 25 52 26 53 29 58 29 59
REMARK H PARENT 31 60 31 61 30 62 30 63
REMARK Flexibility Score: inf
ROOT
ATOM      1  C   UNL     1     -45.978  35.145  28.089  1.00  0.00     0.117 C 
ATOM      2  H   UNL     1     -45.017  35.369  28.571  1.00  0.00     0.073 H 
ATOM      3  H   UNL     1     -45.916  35.459  27.041  1.00  0.00     0.073 H 
ENDROOT
BRANCH   1   4
ATOM      4  C   UNL     1     -47.079  35.926  28.816  1.00  0.00     0.123 C 
ATOM      5  C   UNL     1     -47.284  38.227  28.469  1.00  0.00     0.170 C 
ATOM      6  O   UNL     1     -46.554  37.214  29.207  1.00  0.00    -0.345 OA
ATOM      7  C   UNL     1     -48.004  37.525  27.329  1.00  0.00     0.173 C 
ATOM      8  H   UNL     1     -47.992  38.671  29.180  1.00  0.00     0.088 H 
ATOM      9  C   UNL     1     -48.316  36.182  27.946  1.00  0.00     0.119 C 
ATOM     10  F   UNL     1     -47.165  37.323  26.272  1.00  0.00    -0.239 F 
ATOM     11  H   UNL     1     -48.879  38.078  26.975  1.00  0.00     0.074 H 
ATOM     12  H   UNL     1     -47.360  35.389  29.729  1.00  0.00     0.067 H 
ATOM     13  H   UNL     1     -48.494  35.404  27.199  1.00  0.00     0.066 H 
BRANCH   5  14
ATOM     14  N   UNL     1     -46.379  39.278  28.034  1.00  0.00    -0.301 N 
ATOM     15  C   UNL     1     -45.945  42.351  26.325  1.00  0.00     0.138 A 
ATOM     16  N   UNL     1     -47.218  42.655  25.999  1.00  0.00    -0.219 NA
ATOM     17  C   UNL     1     -45.688  41.182  27.065  1.00  0.00     0.087 A 
ATOM     18  C   UNL     1     -48.194  41.801  26.352  1.00  0.00     0.120 A 
ATOM     19  C   UNL     1     -46.797  40.393  27.351  1.00  0.00     0.149 A 
ATOM     20  C   UNL     1     -44.563  40.515  27.650  1.00  0.00     0.096 A 
ATOM     21  N   UNL     1     -48.076  40.642  27.019  1.00  0.00    -0.218 NA
ATOM     22  H   UNL     1     -49.200  42.083  26.056  1.00  0.00     0.106 H 
ATOM     23  C   UNL     1     -45.020  39.335  28.215  1.00  0.00     0.035 A 
ATOM     24  H   UNL     1     -44.504  38.547  28.747  1.00  0.00     0.084 H 
BRANCH  15  25
ATOM     25  N   UNL     1     -44.970  43.227  25.884  1.00  0.00    -0.383 N 
ATOM     26  H   UNL     1     -44.627  43.835  26.613  1.00  0.00     0.158 HD
ATOM     27  H   UNL     1     -44.286  42.814  25.247  1.00  0.00     0.158 HD
ENDBRANCH  15  25
BRANCH  20  28
ATOM     28  N   UNL     1     -43.209  40.967  27.676  1.00  0.00    -0.239 N 
ATOM     29  C   UNL     1     -42.408  41.064  28.801  1.00  0.00     0.031 A 
ATOM     30  N   UNL     1     -42.539  41.409  26.576  1.00  0.00    -0.176 NA
ATOM     31  C   UNL     1     -41.190  41.556  28.403  1.00  0.00    -0.024 A 
ATOM     32  H   UNL     1     -42.772  40.766  29.772  1.00  0.00     0.084 H 
ATOM     33  C   UNL     1     -41.328  41.747  27.023  1.00  0.00     0.049 A 
ATOM     34  H   UNL     1     -40.327  41.748  29.024  1.00  0.00     0.066 H 
ATOM     35  H   UNL     1     -40.597  42.123  26.319  1.00  0.00     0.086 H 
ENDBRANCH  20  28
ENDBRANCH   5  14
BRANCH   9  36
ATOM     36  O   UNL     1     -49.491  36.299  28.756  1.00  0.00    -0.387 OA
ATOM     37  H   UNL     1     -49.494  37.196  29.138  1.00  0.00     0.211 HD
ENDBRANCH   9  36
ENDBRANCH   1   4
BRANCH   1  38
ATOM     38  O   UNL     1     -46.266  33.750  28.187  1.00  0.00    -0.491 OA
BRANCH  38  39
ATOM     39  C   UNL     1     -46.632  33.111  27.034  1.00  0.00     0.121 A 
ATOM     40  C   UNL     1     -46.073  33.643  25.873  1.00  0.00    -0.019 A 
ATOM     41  C   UNL     1     -47.491  32.014  26.938  1.00  0.00     0.007 A 
ATOM     42  C   UNL     1     -46.367  33.082  24.632  1.00  0.00    -0.049 A 
ATOM     43  H   UNL     1     -45.402  34.497  25.934  1.00  0.00     0.066 H 
ATOM     44  C   UNL     1     -47.804  31.436  25.713  1.00  0.00     0.076 A 
ATOM     45  H   UNL     1     -47.946  31.570  27.817  1.00  0.00     0.069 H 
ATOM     46  C   UNL     1     -47.231  31.980  24.548  1.00  0.00     0.001 A 
ATOM     47  H   UNL     1     -45.920  33.507  23.737  1.00  0.00     0.063 H 
ATOM     48  N   UNL     1     -48.639  30.383  25.680  1.00  0.00    -0.231 NA
ATOM     49  C   UNL     1     -47.552  31.386  23.326  1.00  0.00    -0.049 A 
ATOM     50  C   UNL     1     -48.950  29.817  24.491  1.00  0.00     0.129 A 
ATOM     51  C   UNL     1     -48.415  30.294  23.300  1.00  0.00    -0.019 A 
ATOM     52  H   UNL     1     -47.133  31.758  22.395  1.00  0.00     0.063 H 
ATOM     53  H   UNL     1     -48.655  29.818  22.356  1.00  0.00     0.066 H 
BRANCH  50  54
ATOM     54  N   UNL     1     -49.813  28.706  24.479  1.00  0.00    -0.356 N 
ATOM     55  C   UNL     1     -50.997  28.610  23.672  1.00  0.00     0.021 C 
ATOM     56  C   UNL     1     -49.448  27.343  24.224  1.00  0.00     0.021 C 
ATOM     57  C   UNL     1     -50.928  27.099  23.909  1.00  0.00    -0.018 C 
ATOM     58  H   UNL     1     -51.860  29.122  24.103  1.00  0.00     0.049 H 
ATOM     59  H   UNL     1     -50.836  28.922  22.635  1.00  0.00     0.049 H 
ATOM     60  H   UNL     1     -48.770  27.234  23.371  1.00  0.00     0.049 H 
ATOM     61  H   UNL     1     -49.057  26.822  25.101  1.00  0.00     0.049 H 
ATOM     62  H   UNL     1     -51.132  26.470  23.039  1.00  0.00     0.030 H 
ATOM     63  H   UNL     1     -51.520  26.747  24.762  1.00  0.00     0.030 H 
ENDBRANCH  50  54
ENDBRANCH  38  39
ENDBRANCH   1  38
TORSDOF 8
ENDMDL
MODEL 5
REMARK VINA RESULT:      -9.4      2.376     11.210
REMARK SMILES Nc1ncnc2c1c(-n1cccn1)cn2[C@@H]1O[C@H](COc2ccc3ccc(N4CCC4)nc3c2)[C@@H](O)[C@@H]1F
REMARK SMILES IDX 19 1 18 4 16 5 17 6 37 7 35 9 38 10 15 14 2 15 3 16 7 17
REMARK SMILES IDX 4 18 6 19 8 20 5 21 14 23 1 25 9 28 10 29 13 30 11 31 12 33
REMARK SMILES IDX 36 36 20 38 21 39 22 40 34 41 23 42 33 44 24 46 32 48 25 49
REMARK SMILES IDX 27 50 26 51 28 54 29 55 31 56 30 57
REMARK H PARENT 19 2 19 3 16 8 37 11 18 12 35 13 4 22 14 24 1 26 1 27 10 32
REMARK H PARENT 11 34 12 35 36 37 22 43 34 45 23 47 25 52 26 53 29 58 29 59
REMARK H PARENT 31 60 31 61 30 62 30 63
REMARK Flexibility Score: inf
ROOT
ATOM      1  C   UNL     1     -47.558  35.429  26.227  1.00  0.00     0.117 C 
ATOM      2  H   UNL     1     -48.335  35.154  25.502  1.00  0.00     0.073 H 
ATOM      3  H   UNL     1     -46.621  35.588  25.681  1.00  0.00     0.073 H 
ENDROOT
BRANCH   1   4
ATOM      4  C   UNL     1     -47.402  34.279  27.230  1.00  0.00     0.123 C 
ATOM      5  C   UNL     1     -47.839  32.087  26.550  1.00  0.00     0.170 C 
ATOM      6  O   UNL     1     -48.457  33.319  27.003  1.00  0.00    -0.345 OA
ATOM      7  C   UNL     1     -46.416  32.423  26.132  1.00  0.00     0.173 C 
ATOM      8  H   UNL     1     -47.856  31.405  27.409  1.00  0.00     0.088 H 
ATOM      9  C   UNL     1     -46.069  33.533  27.095  1.00  0.00     0.119 C 
ATOM     10  F   UNL     1     -46.387  32.932  24.867  1.00  0.00    -0.239 F 
ATOM     11  H   UNL     1     -45.746  31.559  26.172  1.00  0.00     0.074 H 
ATOM     12  H   UNL     1     -47.519  34.669  28.247  1.00  0.00     0.067 H 
ATOM     13  H   UNL     1     -45.249  34.163  26.738  1.00  0.00     0.066 H 
BRANCH   5  14
ATOM     14  N   UNL     1     -48.635  31.486  25.494  1.00  0.00    -0.301 N 
ATOM     15  C   UNL     1     -49.883  28.535  23.980  1.00  0.00     0.138 A 
ATOM     16  N   UNL     1     -49.425  27.590  24.827  1.00  0.00    -0.219 NA
ATOM     17  C   UNL     1     -49.619  29.890  24.259  1.00  0.00     0.087 A 
ATOM     18  C   UNL     1     -48.689  27.975  25.883  1.00  0.00     0.120 A 
ATOM     19  C   UNL     1     -48.838  30.133  25.384  1.00  0.00     0.149 A 
ATOM     20  C   UNL     1     -49.929  31.173  23.703  1.00  0.00     0.096 A 
ATOM     21  N   UNL     1     -48.337  29.221  26.234  1.00  0.00    -0.218 NA
ATOM     22  H   UNL     1     -48.333  27.177  26.528  1.00  0.00     0.106 H 
ATOM     23  C   UNL     1     -49.287  32.131  24.472  1.00  0.00     0.035 A 
ATOM     24  H   UNL     1     -49.255  33.210  24.396  1.00  0.00     0.084 H 
BRANCH  15  25
ATOM     25  N   UNL     1     -50.580  28.087  22.874  1.00  0.00    -0.383 N 
ATOM     26  H   UNL     1     -51.580  28.192  22.968  1.00  0.00     0.158 HD
ATOM     27  H   UNL     1     -50.157  28.335  21.977  1.00  0.00     0.158 HD
ENDBRANCH  15  25
BRANCH  20  28
ATOM     28  N   UNL     1     -50.758  31.448  22.574  1.00  0.00    -0.239 N 
ATOM     29  C   UNL     1     -50.428  31.215  21.250  1.00  0.00     0.031 A 
ATOM     30  N   UNL     1     -51.988  32.026  22.663  1.00  0.00    -0.176 NA
ATOM     31  C   UNL     1     -51.484  31.632  20.479  1.00  0.00    -0.024 A 
ATOM     32  H   UNL     1     -49.484  30.768  20.980  1.00  0.00     0.084 H 
ATOM     33  C   UNL     1     -52.416  32.120  21.403  1.00  0.00     0.049 A 
ATOM     34  H   UNL     1     -51.565  31.589  19.402  1.00  0.00     0.066 H 
ATOM     35  H   UNL     1     -53.392  32.546  21.212  1.00  0.00     0.086 H 
ENDBRANCH  20  28
ENDBRANCH   5  14
BRANCH   9  36
ATOM     36  O   UNL     1     -45.678  32.962  28.348  1.00  0.00    -0.387 OA
ATOM     37  H   UNL     1     -45.288  32.088  28.162  1.00  0.00     0.211 HD
ENDBRANCH   9  36
ENDBRANCH   1   4
BRANCH   1  38
ATOM     38  O   UNL     1     -47.939  36.607  26.938  1.00  0.00    -0.491 OA
BRANCH  38  39
ATOM     39  C   UNL     1     -46.937  37.470  27.290  1.00  0.00     0.121 A 
ATOM     40  C   UNL     1     -46.367  37.220  28.537  1.00  0.00    -0.019 A 
ATOM     41  C   UNL     1     -46.465  38.538  26.524  1.00  0.00     0.007 A 
ATOM     42  C   UNL     1     -45.337  38.028  29.012  1.00  0.00    -0.049 A 
ATOM     43  H   UNL     1     -46.725  36.391  29.143  1.00  0.00     0.066 H 
ATOM     44  C   UNL     1     -45.440  39.363  26.974  1.00  0.00     0.076 A 
ATOM     45  H   UNL     1     -46.881  38.766  25.548  1.00  0.00     0.069 H 
ATOM     46  C   UNL     1     -44.871  39.099  28.234  1.00  0.00     0.001 A 
ATOM     47  H   UNL     1     -44.901  37.819  29.985  1.00  0.00     0.063 H 
ATOM     48  N   UNL     1     -45.028  40.379  26.196  1.00  0.00    -0.231 NA
ATOM     49  C   UNL     1     -43.839  39.933  28.670  1.00  0.00    -0.049 A 
ATOM     50  C   UNL     1     -44.032  41.186  26.628  1.00  0.00     0.129 A 
ATOM     51  C   UNL     1     -43.415  40.982  27.857  1.00  0.00    -0.019 A 
ATOM     52  H   UNL     1     -43.356  39.773  29.630  1.00  0.00     0.063 H 
ATOM     53  H   UNL     1     -42.604  41.623  28.183  1.00  0.00     0.066 H 
BRANCH  50  54
ATOM     54  N   UNL     1     -43.604  42.234  25.793  1.00  0.00    -0.356 N 
ATOM     55  C   UNL     1     -44.487  43.121  25.090  1.00  0.00     0.021 C 
ATOM     56  C   UNL     1     -42.710  43.298  26.148  1.00  0.00     0.021 C 
ATOM     57  C   UNL     1     -43.287  44.063  24.952  1.00  0.00    -0.018 C 
ATOM     58  H   UNL     1     -44.875  42.702  24.160  1.00  0.00     0.049 H 
ATOM     59  H   UNL     1     -45.301  43.502  25.717  1.00  0.00     0.049 H 
ATOM     60  H   UNL     1     -42.932  43.735  27.127  1.00  0.00     0.049 H 
ATOM     61  H   UNL     1     -41.654  43.027  26.073  1.00  0.00     0.049 H 
ATOM     62  H   UNL     1     -43.491  45.123  25.118  1.00  0.00     0.030 H 
ATOM     63  H   UNL     1     -42.722  43.940  24.021  1.00  0.00     0.030 H 
ENDBRANCH  50  54
ENDBRANCH  38  39
ENDBRANCH   1  38
TORSDOF 8
ENDMDL
MODEL 6
REMARK VINA RESULT:      -9.3      1.538      2.248
REMARK SMILES Nc1ncnc2c1c(-n1cccn1)cn2[C@@H]1O[C@H](COc2ccc3ccc(N4CCC4)nc3c2)[C@@H](O)[C@@H]1F
REMARK SMILES IDX 19 1 18 4 16 5 17 6 37 7 35 9 38 10 15 14 2 15 3 16 7 17
REMARK SMILES IDX 4 18 6 19 8 20 5 21 14 23 1 25 9 28 10 29 13 30 11 31 12 33
REMARK SMILES IDX 36 36 20 38 21 39 22 40 34 41 23 42 33 44 24 46 32 48 25 49
REMARK SMILES IDX 27 50 26 51 28 54 29 55 31 56 30 57
REMARK H PARENT 19 2 19 3 16 8 37 11 18 12 35 13 4 22 14 24 1 26 1 27 10 32
REMARK H PARENT 11 34 12 35 36 37 22 43 34 45 23 47 25 52 26 53 29 58 29 59
REMARK H PARENT 31 60 31 61 30 62 30 63
REMARK Flexibility Score: inf
ROOT
ATOM      1  C   UNL     1     -45.641  35.545  27.187  1.00  0.00     0.117 C 
ATOM      2  H   UNL     1     -45.365  34.526  27.487  1.00  0.00     0.073 H 
ATOM      3  H   UNL     1     -44.726  36.079  26.906  1.00  0.00     0.073 H 
ENDROOT
BRANCH   1   4
ATOM      4  C   UNL     1     -46.318  36.235  28.376  1.00  0.00     0.123 C 
ATOM      5  C   UNL     1     -46.175  38.555  28.600  1.00  0.00     0.170 C 
ATOM      6  O   UNL     1     -45.469  37.310  28.834  1.00  0.00    -0.345 OA
ATOM      7  C   UNL     1     -47.312  38.256  27.635  1.00  0.00     0.173 C 
ATOM      8  H   UNL     1     -46.551  38.881  29.577  1.00  0.00     0.088 H 
ATOM      9  C   UNL     1     -47.681  36.845  28.028  1.00  0.00     0.119 C 
ATOM     10  F   UNL     1     -46.867  38.236  26.346  1.00  0.00    -0.239 F 
ATOM     11  H   UNL     1     -48.132  38.978  27.708  1.00  0.00     0.074 H 
ATOM     12  H   UNL     1     -46.421  35.518  29.199  1.00  0.00     0.067 H 
ATOM     13  H   UNL     1     -48.211  36.310  27.236  1.00  0.00     0.066 H 
BRANCH   5  14
ATOM     14  N   UNL     1     -45.253  39.572  28.121  1.00  0.00    -0.301 N 
ATOM     15  C   UNL     1     -42.218  41.338  28.595  1.00  0.00     0.138 A 
ATOM     16  N   UNL     1     -41.721  40.721  29.688  1.00  0.00    -0.219 NA
ATOM     17  C   UNL     1     -43.437  40.891  28.052  1.00  0.00     0.087 A 
ATOM     18  C   UNL     1     -42.436  39.731  30.248  1.00  0.00     0.120 A 
ATOM     19  C   UNL     1     -44.066  39.862  28.746  1.00  0.00     0.149 A 
ATOM     20  C   UNL     1     -44.281  41.191  26.934  1.00  0.00     0.096 A 
ATOM     21  N   UNL     1     -43.621  39.242  29.853  1.00  0.00    -0.218 NA
ATOM     22  H   UNL     1     -42.000  39.275  31.132  1.00  0.00     0.106 H 
ATOM     23  C   UNL     1     -45.401  40.379  27.021  1.00  0.00     0.035 A 
ATOM     24  H   UNL     1     -46.274  40.290  26.388  1.00  0.00     0.084 H 
BRANCH  15  25
ATOM     25  N   UNL     1     -41.479  42.393  28.093  1.00  0.00    -0.383 N 
ATOM     26  H   UNL     1     -40.575  42.487  28.533  1.00  0.00     0.158 HD
ATOM     27  H   UNL     1     -41.528  42.498  27.077  1.00  0.00     0.158 HD
ENDBRANCH  15  25
BRANCH  20  28
ATOM     28  N   UNL     1     -44.032  42.137  25.894  1.00  0.00    -0.239 N 
ATOM     29  C   UNL     1     -44.988  42.712  25.075  1.00  0.00     0.031 A 
ATOM     30  N   UNL     1     -42.787  42.567  25.546  1.00  0.00    -0.176 NA
ATOM     31  C   UNL     1     -44.339  43.547  24.200  1.00  0.00    -0.024 A 
ATOM     32  H   UNL     1     -46.036  42.484  25.195  1.00  0.00     0.084 H 
ATOM     33  C   UNL     1     -42.987  43.419  24.539  1.00  0.00     0.049 A 
ATOM     34  H   UNL     1     -44.783  44.160  23.429  1.00  0.00     0.066 H 
ATOM     35  H   UNL     1     -42.132  43.909  24.091  1.00  0.00     0.086 H 
ENDBRANCH  20  28
ENDBRANCH   5  14
BRANCH   9  36
ATOM     36  O   UNL     1     -48.529  36.885  29.182  1.00  0.00    -0.387 OA
ATOM     37  H   UNL     1     -49.375  36.468  28.938  1.00  0.00     0.211 HD
ENDBRANCH   9  36
ENDBRANCH   1   4
BRANCH   1  38
ATOM     38  O   UNL     1     -46.563  35.505  26.096  1.00  0.00    -0.491 OA
BRANCH  38  39
ATOM     39  C   UNL     1     -47.120  34.292  25.799  1.00  0.00     0.121 A 
ATOM     40  C   UNL     1     -48.435  34.135  26.234  1.00  0.00    -0.019 A 
ATOM     41  C   UNL     1     -46.494  33.242  25.124  1.00  0.00     0.007 A 
ATOM     42  C   UNL     1     -49.116  32.944  25.995  1.00  0.00    -0.049 A 
ATOM     43  H   UNL     1     -48.934  34.946  26.761  1.00  0.00     0.066 H 
ATOM     44  C   UNL     1     -47.148  32.042  24.873  1.00  0.00     0.076 A 
ATOM     45  H   UNL     1     -45.472  33.324  24.769  1.00  0.00     0.069 H 
ATOM     46  C   UNL     1     -48.477  31.896  25.315  1.00  0.00     0.001 A 
ATOM     47  H   UNL     1     -50.142  32.839  26.338  1.00  0.00     0.063 H 
ATOM     48  N   UNL     1     -46.496  31.064  24.221  1.00  0.00    -0.231 NA
ATOM     49  C   UNL     1     -49.122  30.686  25.052  1.00  0.00    -0.049 A 
ATOM     50  C   UNL     1     -47.126  29.892  23.975  1.00  0.00     0.129 A 
ATOM     51  C   UNL     1     -48.441  29.679  24.374  1.00  0.00    -0.019 A 
ATOM     52  H   UNL     1     -50.150  30.520  25.362  1.00  0.00     0.063 H 
ATOM     53  H   UNL     1     -48.942  28.743  24.152  1.00  0.00     0.066 H 
BRANCH  50  54
ATOM     54  N   UNL     1     -46.432  28.887  23.278  1.00  0.00    -0.356 N 
ATOM     55  C   UNL     1     -45.158  29.074  22.643  1.00  0.00     0.021 C 
ATOM     56  C   UNL     1     -46.065  27.595  23.783  1.00  0.00     0.021 C 
ATOM     57  C   UNL     1     -45.027  27.548  22.656  1.00  0.00    -0.018 C 
ATOM     58  H   UNL     1     -45.227  29.539  21.658  1.00  0.00     0.049 H 
ATOM     59  H   UNL     1     -44.436  29.604  23.275  1.00  0.00     0.049 H 
ATOM     60  H   UNL     1     -45.648  27.634  24.795  1.00  0.00     0.049 H 
ATOM     61  H   UNL     1     -46.867  26.856  23.720  1.00  0.00     0.049 H 
ATOM     62  H   UNL     1     -44.045  27.156  22.930  1.00  0.00     0.030 H 
ATOM     63  H   UNL     1     -45.375  27.057  21.740  1.00  0.00     0.030 H 
ENDBRANCH  50  54
ENDBRANCH  38  39
ENDBRANCH   1  38
TORSDOF 8
ENDMDL
MODEL 7
REMARK VINA RESULT:      -9.2      3.919      8.876
REMARK SMILES Nc1ncnc2c1c(-n1cccn1)cn2[C@@H]1O[C@H](COc2ccc3ccc(N4CCC4)nc3c2)[C@@H](O)[C@@H]1F
REMARK SMILES IDX 19 1 18 4 16 5 17 6 37 7 35 9 38 10 15 14 2 15 3 16 7 17
REMARK SMILES IDX 4 18 6 19 8 20 5 21 14 23 1 25 9 28 10 29 13 30 11 31 12 33
REMARK SMILES IDX 36 36 20 38 21 39 22 40 34 41 23 42 33 44 24 46 32 48 25 49
REMARK SMILES IDX 27 50 26 51 28 54 29 55 31 56 30 57
REMARK H PARENT 19 2 19 3 16 8 37 11 18 12 35 13 4 22 14 24 1 26 1 27 10 32
REMARK H PARENT 11 34 12 35 36 37 22 43 34 45 23 47 25 52 26 53 29 58 29 59
REMARK H PARENT 31 60 31 61 30 62 30 63
REMARK Flexibility Score: inf
ROOT
ATOM      1  C   UNL     1     -45.082  36.020  28.564  1.00  0.00     0.117 C 
ATOM      2  H   UNL     1     -44.844  36.333  27.539  1.00  0.00     0.073 H 
ATOM      3  H   UNL     1     -44.228  35.454  28.955  1.00  0.00     0.073 H 
ENDROOT
BRANCH   1   4
ATOM      4  C   UNL     1     -46.335  35.138  28.524  1.00  0.00     0.123 C 
ATOM      5  C   UNL     1     -48.387  36.074  27.919  1.00  0.00     0.170 C 
ATOM      6  O   UNL     1     -47.456  35.903  29.018  1.00  0.00    -0.345 OA
ATOM      7  C   UNL     1     -47.642  35.735  26.638  1.00  0.00     0.173 C 
ATOM      8  H   UNL     1     -49.210  35.373  28.104  1.00  0.00     0.088 H 
ATOM      9  C   UNL     1     -46.694  34.659  27.112  1.00  0.00     0.119 C 
ATOM     10  F   UNL     1     -46.900  36.796  26.209  1.00  0.00    -0.239 F 
ATOM     11  H   UNL     1     -48.309  35.428  25.826  1.00  0.00     0.074 H 
ATOM     12  H   UNL     1     -46.195  34.281  29.193  1.00  0.00     0.067 H 
ATOM     13  H   UNL     1     -45.828  34.538  26.457  1.00  0.00     0.066 H 
BRANCH   5  14
ATOM     14  N   UNL     1     -48.941  37.418  27.937  1.00  0.00    -0.301 N 
ATOM     15  C   UNL     1     -51.615  39.554  28.855  1.00  0.00     0.138 A 
ATOM     16  N   UNL     1     -52.421  38.699  29.516  1.00  0.00    -0.219 NA
ATOM     17  C   UNL     1     -50.390  39.084  28.344  1.00  0.00     0.087 A 
ATOM     18  C   UNL     1     -52.048  37.412  29.620  1.00  0.00     0.120 A 
ATOM     19  C   UNL     1     -50.143  37.727  28.523  1.00  0.00     0.149 A 
ATOM     20  C   UNL     1     -49.250  39.610  27.654  1.00  0.00     0.096 A 
ATOM     21  N   UNL     1     -50.932  36.836  29.147  1.00  0.00    -0.218 NA
ATOM     22  H   UNL     1     -52.736  36.761  30.150  1.00  0.00     0.106 H 
ATOM     23  C   UNL     1     -48.390  38.553  27.396  1.00  0.00     0.035 A 
ATOM     24  H   UNL     1     -47.430  38.514  26.899  1.00  0.00     0.084 H 
BRANCH  15  25
ATOM     25  N   UNL     1     -52.072  40.852  28.717  1.00  0.00    -0.383 N 
ATOM     26  H   UNL     1     -53.075  40.928  28.797  1.00  0.00     0.158 HD
ATOM     27  H   UNL     1     -51.501  41.555  29.193  1.00  0.00     0.158 HD
ENDBRANCH  15  25
BRANCH  20  28
ATOM     28  N   UNL     1     -49.008  40.970  27.297  1.00  0.00    -0.239 N 
ATOM     29  C   UNL     1     -49.857  41.779  26.563  1.00  0.00     0.031 A 
ATOM     30  N   UNL     1     -47.864  41.640  27.609  1.00  0.00    -0.176 NA
ATOM     31  C   UNL     1     -49.250  43.003  26.424  1.00  0.00    -0.024 A 
ATOM     32  H   UNL     1     -50.813  41.417  26.217  1.00  0.00     0.084 H 
ATOM     33  C   UNL     1     -48.027  42.859  27.091  1.00  0.00     0.049 A 
ATOM     34  H   UNL     1     -49.638  43.872  25.914  1.00  0.00     0.066 H 
ATOM     35  H   UNL     1     -47.241  43.592  27.219  1.00  0.00     0.086 H 
ENDBRANCH  20  28
ENDBRANCH   5  14
BRANCH   9  36
ATOM     36  O   UNL     1     -47.391  33.409  27.163  1.00  0.00    -0.387 OA
ATOM     37  H   UNL     1     -47.864  33.372  28.015  1.00  0.00     0.211 HD
ENDBRANCH   9  36
ENDBRANCH   1   4
BRANCH   1  38
ATOM     38  O   UNL     1     -45.352  37.162  29.378  1.00  0.00    -0.491 OA
BRANCH  38  39
ATOM     39  C   UNL     1     -44.680  38.314  29.073  1.00  0.00     0.121 A 
ATOM     40  C   UNL     1     -43.797  38.750  30.059  1.00  0.00    -0.019 A 
ATOM     41  C   UNL     1     -44.811  39.055  27.896  1.00  0.00     0.007 A 
ATOM     42  C   UNL     1     -43.052  39.912  29.870  1.00  0.00    -0.049 A 
ATOM     43  H   UNL     1     -43.685  38.182  30.979  1.00  0.00     0.066 H 
ATOM     44  C   UNL     1     -44.083  40.220  27.681  1.00  0.00     0.076 A 
ATOM     45  H   UNL     1     -45.487  38.750  27.104  1.00  0.00     0.069 H 
ATOM     46  C   UNL     1     -43.192  40.649  28.684  1.00  0.00     0.001 A 
ATOM     47  H   UNL     1     -42.366  40.238  30.647  1.00  0.00     0.063 H 
ATOM     48  N   UNL     1     -44.252  40.895  26.531  1.00  0.00    -0.231 NA
ATOM     49  C   UNL     1     -42.464  41.818  28.451  1.00  0.00    -0.049 A 
ATOM     50  C   UNL     1     -43.547  42.030  26.316  1.00  0.00     0.129 A 
ATOM     51  C   UNL     1     -42.642  42.510  27.256  1.00  0.00    -0.019 A 
ATOM     52  H   UNL     1     -41.757  42.193  29.185  1.00  0.00     0.063 H 
ATOM     53  H   UNL     1     -42.068  43.409  27.063  1.00  0.00     0.066 H 
BRANCH  50  54
ATOM     54  N   UNL     1     -43.726  42.714  25.100  1.00  0.00    -0.356 N 
ATOM     55  C   UNL     1     -45.000  43.131  24.585  1.00  0.00     0.021 C 
ATOM     56  C   UNL     1     -43.091  43.938  24.708  1.00  0.00     0.021 C 
ATOM     57  C   UNL     1     -44.220  44.091  23.682  1.00  0.00    -0.018 C 
ATOM     58  H   UNL     1     -45.546  42.334  24.077  1.00  0.00     0.049 H 
ATOM     59  H   UNL     1     -45.630  43.616  25.339  1.00  0.00     0.049 H 
ATOM     60  H   UNL     1     -43.084  44.691  25.503  1.00  0.00     0.049 H 
ATOM     61  H   UNL     1     -42.090  43.800  24.293  1.00  0.00     0.049 H 
ATOM     62  H   UNL     1     -44.638  45.095  23.580  1.00  0.00     0.030 H 
ATOM     63  H   UNL     1     -43.987  43.689  22.689  1.00  0.00     0.030 H 
ENDBRANCH  50  54
ENDBRANCH  38  39
ENDBRANCH   1  38
TORSDOF 8
ENDMDL
