MODEL 1
REMARK VINA RESULT:     -10.5      0.000      0.000
REMARK SMILES Nc1ncnc2c1ccn2[C@@H]1C[C@H](CCc2ccc3cc[nH]c3c2)[C@@H](O)[C@H]1O
REMARK SMILES IDX 11 1 12 2 13 3 25 4 27 5 10 12 2 13 3 14 7 15 4 16 6 17 8 18
REMARK SMILES IDX 5 19 9 21 1 24 28 27 14 29 15 32 16 35 17 36 24 37 18 38
REMARK SMILES IDX 23 40 19 42 22 44 20 45 21 46 26 50
REMARK H PARENT 11 6 12 7 12 8 13 9 25 10 27 11 4 20 8 22 9 23 1 25 1 26 28 28
REMARK H PARENT 14 30 14 31 15 33 15 34 17 39 24 41 18 43 22 47 20 48 21 49
REMARK H PARENT 26 51
REMARK Flexibility Score: inf
ROOT
ATOM      1  C   UNL     1     -45.709  39.312  28.711  1.00  0.00     0.064 C 
ATOM      2  C   UNL     1     -45.427  37.795  28.767  1.00  0.00    -0.024 C 
ATOM      3  C   UNL     1     -46.792  37.113  28.626  1.00  0.00    -0.010 C 
ATOM      4  C   UNL     1     -47.544  38.072  27.701  1.00  0.00     0.085 C 
ATOM      5  C   UNL     1     -47.175  39.453  28.259  1.00  0.00     0.101 C 
ATOM      6  H   UNL     1     -45.607  39.733  29.718  1.00  0.00     0.056 H 
ATOM      7  H   UNL     1     -44.945  37.524  29.712  1.00  0.00     0.029 H 
ATOM      8  H   UNL     1     -44.753  37.482  27.960  1.00  0.00     0.029 H 
ATOM      9  H   UNL     1     -47.293  37.080  29.604  1.00  0.00     0.033 H 
ATOM     10  H   UNL     1     -47.210  37.971  26.662  1.00  0.00     0.063 H 
ATOM     11  H   UNL     1     -47.355  40.251  27.532  1.00  0.00     0.065 H 
ENDROOT
BRANCH   1  12
ATOM     12  N   UNL     1     -44.749  40.005  27.861  1.00  0.00    -0.327 N 
ATOM     13  C   UNL     1     -41.612  41.599  27.455  1.00  0.00     0.136 A 
ATOM     14  N   UNL     1     -41.094  41.521  28.696  1.00  0.00    -0.219 NA
ATOM     15  C   UNL     1     -42.881  41.054  27.212  1.00  0.00     0.061 A 
ATOM     16  C   UNL     1     -41.829  40.924  29.654  1.00  0.00     0.120 A 
ATOM     17  C   UNL     1     -43.526  40.468  28.293  1.00  0.00     0.145 A 
ATOM     18  C   UNL     1     -43.746  40.922  26.093  1.00  0.00    -0.031 A 
ATOM     19  N   UNL     1     -43.044  40.364  29.543  1.00  0.00    -0.218 NA
ATOM     20  H   UNL     1     -41.379  40.890  30.642  1.00  0.00     0.106 H 
ATOM     21  C   UNL     1     -44.880  40.258  26.515  1.00  0.00     0.007 A 
ATOM     22  H   UNL     1     -43.559  41.274  25.087  1.00  0.00     0.065 H 
ATOM     23  H   UNL     1     -45.759  39.962  25.960  1.00  0.00     0.082 H 
BRANCH  13  24
ATOM     24  N   UNL     1     -40.835  42.205  26.478  1.00  0.00    -0.383 N 
ATOM     25  H   UNL     1     -41.004  43.193  26.353  1.00  0.00     0.158 HD
ATOM     26  H   UNL     1     -40.819  41.638  25.638  1.00  0.00     0.158 HD
ENDBRANCH  13  24
ENDBRANCH   1  12
BRANCH   5  27
ATOM     27  O   UNL     1     -48.010  39.734  29.395  1.00  0.00    -0.388 OA
ATOM     28  H   UNL     1     -48.925  39.695  29.046  1.00  0.00     0.211 HD
ENDBRANCH   5  27
BRANCH   3  29
ATOM     29  C   UNL     1     -46.722  35.686  28.075  1.00  0.00    -0.044 C 
ATOM     30  H   UNL     1     -47.613  35.123  28.382  1.00  0.00     0.027 H 
ATOM     31  H   UNL     1     -45.863  35.170  28.523  1.00  0.00     0.027 H 
BRANCH  29  32
ATOM     32  C   UNL     1     -46.591  35.651  26.548  1.00  0.00    -0.027 C 
ATOM     33  H   UNL     1     -45.551  35.839  26.253  1.00  0.00     0.032 H 
ATOM     34  H   UNL     1     -47.186  36.451  26.089  1.00  0.00     0.032 H 
BRANCH  32  35
ATOM     35  C   UNL     1     -47.040  34.321  25.990  1.00  0.00    -0.046 A 
ATOM     36  C   UNL     1     -48.294  33.802  26.337  1.00  0.00    -0.058 A 
ATOM     37  C   UNL     1     -46.186  33.591  25.147  1.00  0.00    -0.035 A 
ATOM     38  C   UNL     1     -48.724  32.562  25.851  1.00  0.00    -0.053 A 
ATOM     39  H   UNL     1     -48.955  34.364  26.995  1.00  0.00     0.063 H 
ATOM     40  C   UNL     1     -46.635  32.353  24.670  1.00  0.00     0.046 A 
ATOM     41  H   UNL     1     -45.208  33.974  24.871  1.00  0.00     0.065 H 
ATOM     42  C   UNL     1     -47.880  31.823  25.002  1.00  0.00    -0.001 A 
ATOM     43  H   UNL     1     -49.701  32.176  26.127  1.00  0.00     0.063 H 
ATOM     44  N   UNL     1     -46.018  31.445  23.838  1.00  0.00    -0.361 N 
ATOM     45  C   UNL     1     -47.992  30.567  24.344  1.00  0.00    -0.037 A 
ATOM     46  C   UNL     1     -46.830  30.360  23.635  1.00  0.00     0.002 A 
ATOM     47  H   UNL     1     -45.099  31.569  23.435  1.00  0.00     0.166 HD
ATOM     48  H   UNL     1     -48.834  29.890  24.387  1.00  0.00     0.065 H 
ATOM     49  H   UNL     1     -46.514  29.539  23.006  1.00  0.00     0.082 H 
ENDBRANCH  32  35
ENDBRANCH  29  32
ENDBRANCH   3  29
BRANCH   4  50
ATOM     50  O   UNL     1     -48.953  37.884  27.759  1.00  0.00    -0.390 OA
ATOM     51  H   UNL     1     -49.212  37.883  28.699  1.00  0.00     0.211 HD
ENDBRANCH   4  50
TORSDOF 7
ENDMDL
MODEL 2
REMARK VINA RESULT:      -9.7      2.243      9.475
REMARK SMILES Nc1ncnc2c1ccn2[C@@H]1C[C@H](CCc2ccc3cc[nH]c3c2)[C@@H](O)[C@H]1O
REMARK SMILES IDX 11 1 12 2 13 3 25 4 27 5 10 12 2 13 3 14 7 15 4 16 6 17 8 18
REMARK SMILES IDX 5 19 9 21 1 24 28 27 14 29 15 32 16 35 17 36 24 37 18 38
REMARK SMILES IDX 23 40 19 42 22 44 20 45 21 46 26 50
REMARK H PARENT 11 6 12 7 12 8 13 9 25 10 27 11 4 20 8 22 9 23 1 25 1 26 28 28
REMARK H PARENT 14 30 14 31 15 33 15 34 17 39 24 41 18 43 22 47 20 48 21 49
REMARK H PARENT 26 51
REMARK Flexibility Score: inf
ROOT
ATOM      1  C   UNL     1     -48.237  32.311  26.025  1.00  0.00     0.064 C 
ATOM      2  C   UNL     1     -48.908  33.659  26.366  1.00  0.00    -0.024 C 
ATOM      3  C   UNL     1     -47.799  34.541  26.949  1.00  0.00    -0.010 C 
ATOM      4  C   UNL     1     -46.568  34.077  26.168  1.00  0.00     0.085 C 
ATOM      5  C   UNL     1     -46.721  32.550  26.154  1.00  0.00     0.101 C 
ATOM      6  H   UNL     1     -48.541  31.562  26.765  1.00  0.00     0.056 H 
ATOM      7  H   UNL     1     -49.722  33.517  27.087  1.00  0.00     0.029 H 
ATOM      8  H   UNL     1     -49.347  34.127  25.475  1.00  0.00     0.029 H 
ATOM      9  H   UNL     1     -47.665  34.312  28.015  1.00  0.00     0.033 H 
ATOM     10  H   UNL     1     -46.566  34.477  25.147  1.00  0.00     0.063 H 
ATOM     11  H   UNL     1     -46.115  32.084  25.370  1.00  0.00     0.065 H 
ENDROOT
BRANCH   1  12
ATOM     12  N   UNL     1     -48.658  31.818  24.720  1.00  0.00    -0.327 N 
ATOM     13  C   UNL     1     -47.863  30.322  21.609  1.00  0.00     0.136 A 
ATOM     14  N   UNL     1     -46.530  30.155  21.710  1.00  0.00    -0.219 NA
ATOM     15  C   UNL     1     -48.559  30.898  22.681  1.00  0.00     0.061 A 
ATOM     16  C   UNL     1     -45.923  30.560  22.842  1.00  0.00     0.120 A 
ATOM     17  C   UNL     1     -47.806  31.268  23.788  1.00  0.00     0.145 A 
ATOM     18  C   UNL     1     -49.910  31.227  22.972  1.00  0.00    -0.031 A 
ATOM     19  N   UNL     1     -46.479  31.116  23.931  1.00  0.00    -0.218 NA
ATOM     20  H   UNL     1     -44.848  30.416  22.880  1.00  0.00     0.106 H 
ATOM     21  C   UNL     1     -49.946  31.775  24.238  1.00  0.00     0.007 A 
ATOM     22  H   UNL     1     -50.764  31.077  22.325  1.00  0.00     0.065 H 
ATOM     23  H   UNL     1     -50.785  32.139  24.814  1.00  0.00     0.082 H 
BRANCH  13  24
ATOM     24  N   UNL     1     -48.473  29.885  20.441  1.00  0.00    -0.383 N 
ATOM     25  H   UNL     1     -47.890  29.930  19.617  1.00  0.00     0.158 HD
ATOM     26  H   UNL     1     -49.403  30.279  20.360  1.00  0.00     0.158 HD
ENDBRANCH  13  24
ENDBRANCH   1  12
BRANCH   5  27
ATOM     27  O   UNL     1     -46.250  32.025  27.406  1.00  0.00    -0.388 OA
ATOM     28  H   UNL     1     -45.274  32.020  27.322  1.00  0.00     0.211 HD
ENDBRANCH   5  27
BRANCH   3  29
ATOM     29  C   UNL     1     -48.060  36.044  26.811  1.00  0.00    -0.044 C 
ATOM     30  H   UNL     1     -49.095  36.214  26.487  1.00  0.00     0.027 H 
ATOM     31  H   UNL     1     -47.419  36.448  26.018  1.00  0.00     0.027 H 
BRANCH  29  32
ATOM     32  C   UNL     1     -47.795  36.808  28.113  1.00  0.00    -0.027 C 
ATOM     33  H   UNL     1     -47.464  36.117  28.897  1.00  0.00     0.032 H 
ATOM     34  H   UNL     1     -48.717  37.272  28.486  1.00  0.00     0.032 H 
BRANCH  32  35
ATOM     35  C   UNL     1     -46.750  37.881  27.914  1.00  0.00    -0.046 A 
ATOM     36  C   UNL     1     -46.694  38.590  26.707  1.00  0.00    -0.058 A 
ATOM     37  C   UNL     1     -45.816  38.146  28.929  1.00  0.00    -0.035 A 
ATOM     38  C   UNL     1     -45.721  39.574  26.490  1.00  0.00    -0.053 A 
ATOM     39  H   UNL     1     -47.413  38.383  25.918  1.00  0.00     0.063 H 
ATOM     40  C   UNL     1     -44.851  39.134  28.694  1.00  0.00     0.046 A 
ATOM     41  H   UNL     1     -45.840  37.603  29.869  1.00  0.00     0.065 H 
ATOM     42  C   UNL     1     -44.783  39.851  27.501  1.00  0.00    -0.001 A 
ATOM     43  H   UNL     1     -45.694  40.117  25.550  1.00  0.00     0.063 H 
ATOM     44  N   UNL     1     -43.836  39.595  29.502  1.00  0.00    -0.361 N 
ATOM     45  C   UNL     1     -43.693  40.757  27.617  1.00  0.00    -0.037 A 
ATOM     46  C   UNL     1     -43.128  40.576  28.860  1.00  0.00     0.002 A 
ATOM     47  H   UNL     1     -43.647  39.255  30.435  1.00  0.00     0.166 HD
ATOM     48  H   UNL     1     -43.360  41.465  26.870  1.00  0.00     0.065 H 
ATOM     49  H   UNL     1     -42.288  41.060  29.339  1.00  0.00     0.082 H 
ENDBRANCH  32  35
ENDBRANCH  29  32
ENDBRANCH   3  29
BRANCH   4  50
ATOM     50  O   UNL     1     -45.353  34.439  26.814  1.00  0.00    -0.390 OA
ATOM     51  H   UNL     1     -44.813  34.933  26.170  1.00  0.00     0.211 HD
ENDBRANCH   4  50
TORSDOF 7
ENDMDL
MODEL 3
REMARK VINA RESULT:      -9.5      1.794      2.149
REMARK SMILES Nc1ncnc2c1ccn2[C@@H]1C[C@H](CCc2ccc3cc[nH]c3c2)[C@@H](O)[C@H]1O
REMARK SMILES IDX 11 1 12 2 13 3 25 4 27 5 10 12 2 13 3 14 7 15 4 16 6 17 8 18
REMARK SMILES IDX 5 19 9 21 1 24 28 27 14 29 15 32 16 35 17 36 24 37 18 38
REMARK SMILES IDX 23 40 19 42 22 44 20 45 21 46 26 50
REMARK H PARENT 11 6 12 7 12 8 13 9 25 10 27 11 4 20 8 22 9 23 1 25 1 26 28 28
REMARK H PARENT 14 30 14 31 15 33 15 34 17 39 24 41 18 43 22 47 20 48 21 49
REMARK H PARENT 26 51
REMARK Flexibility Score: inf
ROOT
ATOM      1  C   UNL     1     -44.597  38.633  28.204  1.00  0.00     0.064 C 
ATOM      2  C   UNL     1     -45.324  37.383  27.664  1.00  0.00    -0.024 C 
ATOM      3  C   UNL     1     -45.821  36.625  28.900  1.00  0.00    -0.010 C 
ATOM      4  C   UNL     1     -46.134  37.761  29.876  1.00  0.00     0.085 C 
ATOM      5  C   UNL     1     -44.938  38.707  29.704  1.00  0.00     0.101 C 
ATOM      6  H   UNL     1     -43.514  38.493  28.094  1.00  0.00     0.056 H 
ATOM      7  H   UNL     1     -44.644  36.764  27.068  1.00  0.00     0.029 H 
ATOM      8  H   UNL     1     -46.164  37.656  27.014  1.00  0.00     0.029 H 
ATOM      9  H   UNL     1     -45.010  36.006  29.307  1.00  0.00     0.033 H 
ATOM     10  H   UNL     1     -47.071  38.268  29.615  1.00  0.00     0.063 H 
ATOM     11  H   UNL     1     -45.154  39.714  30.075  1.00  0.00     0.065 H 
ENDROOT
BRANCH   1  12
ATOM     12  N   UNL     1     -44.951  39.827  27.446  1.00  0.00    -0.327 N 
ATOM     13  C   UNL     1     -44.137  43.078  26.300  1.00  0.00     0.136 A 
ATOM     14  N   UNL     1     -42.926  43.277  26.855  1.00  0.00    -0.219 NA
ATOM     15  C   UNL     1     -44.798  41.863  26.529  1.00  0.00     0.061 A 
ATOM     16  C   UNL     1     -42.407  42.295  27.617  1.00  0.00     0.120 A 
ATOM     17  C   UNL     1     -44.146  40.939  27.333  1.00  0.00     0.145 A 
ATOM     18  C   UNL     1     -46.030  41.273  26.137  1.00  0.00    -0.031 A 
ATOM     19  N   UNL     1     -42.939  41.095  27.902  1.00  0.00    -0.218 NA
ATOM     20  H   UNL     1     -41.434  42.499  28.052  1.00  0.00     0.106 H 
ATOM     21  C   UNL     1     -46.091  40.015  26.701  1.00  0.00     0.007 A 
ATOM     22  H   UNL     1     -46.790  41.721  25.510  1.00  0.00     0.065 H 
ATOM     23  H   UNL     1     -46.860  39.259  26.630  1.00  0.00     0.082 H 
BRANCH  13  24
ATOM     24  N   UNL     1     -44.649  44.096  25.507  1.00  0.00    -0.383 N 
ATOM     25  H   UNL     1     -44.002  44.471  24.828  1.00  0.00     0.158 HD
ATOM     26  H   UNL     1     -45.150  44.769  26.075  1.00  0.00     0.158 HD
ENDBRANCH  13  24
ENDBRANCH   1  12
BRANCH   5  27
ATOM     27  O   UNL     1     -43.836  38.209  30.479  1.00  0.00    -0.388 OA
ATOM     28  H   UNL     1     -44.085  37.287  30.701  1.00  0.00     0.211 HD
ENDBRANCH   5  27
BRANCH   3  29
ATOM     29  C   UNL     1     -47.027  35.720  28.633  1.00  0.00    -0.044 C 
ATOM     30  H   UNL     1     -47.783  35.866  29.415  1.00  0.00     0.027 H 
ATOM     31  H   UNL     1     -46.711  34.671  28.705  1.00  0.00     0.027 H 
BRANCH  29  32
ATOM     32  C   UNL     1     -47.653  35.964  27.256  1.00  0.00    -0.027 C 
ATOM     33  H   UNL     1     -47.056  36.692  26.693  1.00  0.00     0.032 H 
ATOM     34  H   UNL     1     -48.652  36.406  27.357  1.00  0.00     0.032 H 
BRANCH  32  35
ATOM     35  C   UNL     1     -47.758  34.681  26.467  1.00  0.00    -0.046 A 
ATOM     36  C   UNL     1     -48.944  33.935  26.497  1.00  0.00    -0.058 A 
ATOM     37  C   UNL     1     -46.657  34.221  25.726  1.00  0.00    -0.035 A 
ATOM     38  C   UNL     1     -49.059  32.730  25.792  1.00  0.00    -0.053 A 
ATOM     39  H   UNL     1     -49.796  34.286  27.075  1.00  0.00     0.063 H 
ATOM     40  C   UNL     1     -46.792  33.016  25.026  1.00  0.00     0.046 A 
ATOM     41  H   UNL     1     -45.728  34.783  25.695  1.00  0.00     0.065 H 
ATOM     42  C   UNL     1     -47.964  32.262  25.043  1.00  0.00    -0.001 A 
ATOM     43  H   UNL     1     -49.986  32.166  25.823  1.00  0.00     0.063 H 
ATOM     44  N   UNL     1     -45.892  32.346  24.228  1.00  0.00    -0.361 N 
ATOM     45  C   UNL     1     -47.739  31.117  24.230  1.00  0.00    -0.037 A 
ATOM     46  C   UNL     1     -46.454  31.194  23.743  1.00  0.00     0.002 A 
ATOM     47  H   UNL     1     -44.953  32.664  24.031  1.00  0.00     0.166 HD
ATOM     48  H   UNL     1     -48.444  30.322  24.026  1.00  0.00     0.065 H 
ATOM     49  H   UNL     1     -45.895  30.533  23.095  1.00  0.00     0.082 H 
ENDBRANCH  32  35
ENDBRANCH  29  32
ENDBRANCH   3  29
BRANCH   4  50
ATOM     50  O   UNL     1     -46.208  37.309  31.223  1.00  0.00    -0.390 OA
ATOM     51  H   UNL     1     -45.587  37.846  31.748  1.00  0.00     0.211 HD
ENDBRANCH   4  50
TORSDOF 7
ENDMDL
MODEL 4
REMARK VINA RESULT:      -9.5      2.485      9.603
REMARK SMILES Nc1ncnc2c1ccn2[C@@H]1C[C@H](CCc2ccc3cc[nH]c3c2)[C@@H](O)[C@H]1O
REMARK SMILES IDX 11 1 12 2 13 3 25 4 27 5 10 12 2 13 3 14 7 15 4 16 6 17 8 18
REMARK SMILES IDX 5 19 9 21 1 24 28 27 14 29 15 32 16 35 17 36 24 37 18 38
REMARK SMILES IDX 23 40 19 42 22 44 20 45 21 46 26 50
REMARK H PARENT 11 6 12 7 12 8 13 9 25 10 27 11 4 20 8 22 9 23 1 25 1 26 28 28
REMARK H PARENT 14 30 14 31 15 33 15 34 17 39 24 41 18 43 22 47 20 48 21 49
REMARK H PARENT 26 51
REMARK Flexibility Score: inf
ROOT
ATOM      1  C   UNL     1     -47.488  32.255  26.121  1.00  0.00     0.064 C 
ATOM      2  C   UNL     1     -48.313  33.560  26.117  1.00  0.00    -0.024 C 
ATOM      3  C   UNL     1     -47.548  34.539  27.014  1.00  0.00    -0.010 C 
ATOM      4  C   UNL     1     -46.092  34.142  26.764  1.00  0.00     0.085 C 
ATOM      5  C   UNL     1     -46.142  32.608  26.781  1.00  0.00     0.101 C 
ATOM      6  H   UNL     1     -48.002  31.509  26.740  1.00  0.00     0.056 H 
ATOM      7  H   UNL     1     -49.325  33.382  26.499  1.00  0.00     0.029 H 
ATOM      8  H   UNL     1     -48.419  33.966  25.103  1.00  0.00     0.029 H 
ATOM      9  H   UNL     1     -47.802  34.354  28.067  1.00  0.00     0.033 H 
ATOM     10  H   UNL     1     -45.737  34.508  25.794  1.00  0.00     0.063 H 
ATOM     11  H   UNL     1     -45.266  32.163  26.300  1.00  0.00     0.065 H 
ENDROOT
BRANCH   1  12
ATOM     12  N   UNL     1     -47.372  31.691  24.782  1.00  0.00    -0.327 N 
ATOM     13  C   UNL     1     -48.826  29.971  22.048  1.00  0.00     0.136 A 
ATOM     14  N   UNL     1     -50.072  29.730  22.498  1.00  0.00    -0.219 NA
ATOM     15  C   UNL     1     -47.926  30.660  22.874  1.00  0.00     0.061 A 
ATOM     16  C   UNL     1     -50.395  30.158  23.733  1.00  0.00     0.120 A 
ATOM     17  C   UNL     1     -48.394  31.044  24.123  1.00  0.00     0.145 A 
ATOM     18  C   UNL     1     -46.581  31.108  22.781  1.00  0.00    -0.031 A 
ATOM     19  N   UNL     1     -49.628  30.828  24.609  1.00  0.00    -0.218 NA
ATOM     20  H   UNL     1     -51.406  29.936  24.061  1.00  0.00     0.106 H 
ATOM     21  C   UNL     1     -46.271  31.754  23.960  1.00  0.00     0.007 A 
ATOM     22  H   UNL     1     -45.912  30.973  21.941  1.00  0.00     0.065 H 
ATOM     23  H   UNL     1     -45.354  32.237  24.268  1.00  0.00     0.082 H 
BRANCH  13  24
ATOM     24  N   UNL     1     -48.515  29.535  20.767  1.00  0.00    -0.383 N 
ATOM     25  H   UNL     1     -47.905  30.149  20.247  1.00  0.00     0.158 HD
ATOM     26  H   UNL     1     -49.350  29.217  20.290  1.00  0.00     0.158 HD
ENDBRANCH  13  24
ENDBRANCH   1  12
BRANCH   5  27
ATOM     27  O   UNL     1     -46.137  32.158  28.146  1.00  0.00    -0.388 OA
ATOM     28  H   UNL     1     -46.286  31.191  28.089  1.00  0.00     0.211 HD
ENDBRANCH   5  27
BRANCH   3  29
ATOM     29  C   UNL     1     -47.824  36.013  26.707  1.00  0.00    -0.044 C 
ATOM     30  H   UNL     1     -48.805  36.116  26.224  1.00  0.00     0.027 H 
ATOM     31  H   UNL     1     -47.085  36.373  25.980  1.00  0.00     0.027 H 
BRANCH  29  32
ATOM     32  C   UNL     1     -47.770  36.896  27.959  1.00  0.00    -0.027 C 
ATOM     33  H   UNL     1     -47.633  36.275  28.853  1.00  0.00     0.032 H 
ATOM     34  H   UNL     1     -48.720  37.426  28.101  1.00  0.00     0.032 H 
BRANCH  32  35
ATOM     35  C   UNL     1     -46.650  37.905  27.869  1.00  0.00    -0.046 A 
ATOM     36  C   UNL     1     -45.708  38.001  28.902  1.00  0.00    -0.058 A 
ATOM     37  C   UNL     1     -46.571  38.767  26.763  1.00  0.00    -0.035 A 
ATOM     38  C   UNL     1     -44.673  38.943  28.852  1.00  0.00    -0.053 A 
ATOM     39  H   UNL     1     -45.771  37.337  29.762  1.00  0.00     0.063 H 
ATOM     40  C   UNL     1     -45.528  39.702  26.731  1.00  0.00     0.046 A 
ATOM     41  H   UNL     1     -47.295  38.712  25.956  1.00  0.00     0.065 H 
ATOM     42  C   UNL     1     -44.581  39.809  27.748  1.00  0.00    -0.001 A 
ATOM     43  H   UNL     1     -43.948  39.001  29.659  1.00  0.00     0.063 H 
ATOM     44  N   UNL     1     -45.213  40.649  25.783  1.00  0.00    -0.361 N 
ATOM     45  C   UNL     1     -43.686  40.852  27.381  1.00  0.00    -0.037 A 
ATOM     46  C   UNL     1     -44.101  41.352  26.167  1.00  0.00     0.002 A 
ATOM     47  H   UNL     1     -45.730  40.798  24.927  1.00  0.00     0.166 HD
ATOM     48  H   UNL     1     -42.831  41.198  27.947  1.00  0.00     0.065 H 
ATOM     49  H   UNL     1     -43.701  42.142  25.546  1.00  0.00     0.082 H 
ENDBRANCH  32  35
ENDBRANCH  29  32
ENDBRANCH   3  29
BRANCH   4  50
ATOM     50  O   UNL     1     -45.222  34.612  27.787  1.00  0.00    -0.390 OA
ATOM     51  H   UNL     1     -45.592  35.446  28.129  1.00  0.00     0.211 HD
ENDBRANCH   4  50
TORSDOF 7
ENDMDL
MODEL 5
REMARK VINA RESULT:      -9.4      2.553      3.519
REMARK SMILES Nc1ncnc2c1ccn2[C@@H]1C[C@H](CCc2ccc3cc[nH]c3c2)[C@@H](O)[C@H]1O
REMARK SMILES IDX 11 1 12 2 13 3 25 4 27 5 10 12 2 13 3 14 7 15 4 16 6 17 8 18
REMARK SMILES IDX 5 19 9 21 1 24 28 27 14 29 15 32 16 35 17 36 24 37 18 38
REMARK SMILES IDX 23 40 19 42 22 44 20 45 21 46 26 50
REMARK H PARENT 11 6 12 7 12 8 13 9 25 10 27 11 4 20 8 22 9 23 1 25 1 26 28 28
REMARK H PARENT 14 30 14 31 15 33 15 34 17 39 24 41 18 43 22 47 20 48 21 49
REMARK H PARENT 26 51
REMARK Flexibility Score: inf
ROOT
ATOM      1  C   UNL     1     -45.854  38.737  28.464  1.00  0.00     0.064 C 
ATOM      2  C   UNL     1     -45.670  37.563  27.479  1.00  0.00    -0.024 C 
ATOM      3  C   UNL     1     -45.486  36.315  28.349  1.00  0.00    -0.010 C 
ATOM      4  C   UNL     1     -46.370  36.626  29.558  1.00  0.00     0.085 C 
ATOM      5  C   UNL     1     -46.053  38.099  29.851  1.00  0.00     0.101 C 
ATOM      6  H   UNL     1     -44.936  39.338  28.479  1.00  0.00     0.056 H 
ATOM      7  H   UNL     1     -44.799  37.728  26.834  1.00  0.00     0.029 H 
ATOM      8  H   UNL     1     -46.541  37.451  26.820  1.00  0.00     0.029 H 
ATOM      9  H   UNL     1     -44.439  36.238  28.672  1.00  0.00     0.033 H 
ATOM     10  H   UNL     1     -47.433  36.498  29.322  1.00  0.00     0.063 H 
ATOM     11  H   UNL     1     -46.826  38.571  30.466  1.00  0.00     0.065 H 
ENDROOT
BRANCH   1  12
ATOM     12  N   UNL     1     -46.935  39.622  28.048  1.00  0.00    -0.327 N 
ATOM     13  C   UNL     1     -48.031  42.521  26.334  1.00  0.00     0.136 A 
ATOM     14  N   UNL     1     -46.873  43.027  25.869  1.00  0.00    -0.219 NA
ATOM     15  C   UNL     1     -48.003  41.334  27.080  1.00  0.00     0.061 A 
ATOM     16  C   UNL     1     -45.733  42.369  26.152  1.00  0.00     0.120 A 
ATOM     17  C   UNL     1     -46.757  40.761  27.295  1.00  0.00     0.145 A 
ATOM     18  C   UNL     1     -48.959  40.497  27.716  1.00  0.00    -0.031 A 
ATOM     19  N   UNL     1     -45.581  41.230  26.847  1.00  0.00    -0.218 NA
ATOM     20  H   UNL     1     -44.821  42.815  25.767  1.00  0.00     0.106 H 
ATOM     21  C   UNL     1     -48.278  39.442  28.288  1.00  0.00     0.007 A 
ATOM     22  H   UNL     1     -50.029  40.649  27.750  1.00  0.00     0.065 H 
ATOM     23  H   UNL     1     -48.650  38.596  28.849  1.00  0.00     0.082 H 
BRANCH  13  24
ATOM     24  N   UNL     1     -49.197  43.206  26.020  1.00  0.00    -0.383 N 
ATOM     25  H   UNL     1     -49.486  43.889  26.706  1.00  0.00     0.158 HD
ATOM     26  H   UNL     1     -49.909  42.561  25.695  1.00  0.00     0.158 HD
ENDBRANCH  13  24
ENDBRANCH   1  12
BRANCH   5  27
ATOM     27  O   UNL     1     -44.829  38.170  30.600  1.00  0.00    -0.388 OA
ATOM     28  H   UNL     1     -44.151  38.433  29.943  1.00  0.00     0.211 HD
ENDBRANCH   5  27
BRANCH   3  29
ATOM     29  C   UNL     1     -45.870  35.006  27.652  1.00  0.00    -0.044 C 
ATOM     30  H   UNL     1     -46.228  34.280  28.393  1.00  0.00     0.027 H 
ATOM     31  H   UNL     1     -44.973  34.565  27.199  1.00  0.00     0.027 H 
BRANCH  29  32
ATOM     32  C   UNL     1     -46.935  35.207  26.569  1.00  0.00    -0.027 C 
ATOM     33  H   UNL     1     -46.595  35.948  25.836  1.00  0.00     0.032 H 
ATOM     34  H   UNL     1     -47.858  35.611  27.003  1.00  0.00     0.032 H 
BRANCH  32  35
ATOM     35  C   UNL     1     -47.250  33.909  25.863  1.00  0.00    -0.046 A 
ATOM     36  C   UNL     1     -48.507  33.312  26.020  1.00  0.00    -0.058 A 
ATOM     37  C   UNL     1     -46.270  33.286  25.073  1.00  0.00    -0.035 A 
ATOM     38  C   UNL     1     -48.816  32.098  25.395  1.00  0.00    -0.053 A 
ATOM     39  H   UNL     1     -49.266  33.791  26.637  1.00  0.00     0.063 H 
ATOM     40  C   UNL     1     -46.598  32.073  24.454  1.00  0.00     0.046 A 
ATOM     41  H   UNL     1     -45.288  33.731  24.943  1.00  0.00     0.065 H 
ATOM     42  C   UNL     1     -47.844  31.467  24.597  1.00  0.00    -0.001 A 
ATOM     43  H   UNL     1     -49.797  31.651  25.523  1.00  0.00     0.063 H 
ATOM     44  N   UNL     1     -45.846  31.263  23.633  1.00  0.00    -0.361 N 
ATOM     45  C   UNL     1     -47.817  30.265  23.837  1.00  0.00    -0.037 A 
ATOM     46  C   UNL     1     -46.573  30.165  23.255  1.00  0.00     0.002 A 
ATOM     47  H   UNL     1     -44.894  31.457  23.352  1.00  0.00     0.166 HD
ATOM     48  H   UNL     1     -48.623  29.552  23.729  1.00  0.00     0.065 H 
ATOM     49  H   UNL     1     -46.146  29.412  22.607  1.00  0.00     0.082 H 
ENDBRANCH  32  35
ENDBRANCH  29  32
ENDBRANCH   3  29
BRANCH   4  50
ATOM     50  O   UNL     1     -46.043  35.824  30.687  1.00  0.00    -0.390 OA
ATOM     51  H   UNL     1     -45.355  35.191  30.409  1.00  0.00     0.211 HD
ENDBRANCH   4  50
TORSDOF 7
ENDMDL
MODEL 6
REMARK VINA RESULT:      -9.1      1.673      2.615
REMARK SMILES Nc1ncnc2c1ccn2[C@@H]1C[C@H](CCc2ccc3cc[nH]c3c2)[C@@H](O)[C@H]1O
REMARK SMILES IDX 11 1 12 2 13 3 25 4 27 5 10 12 2 13 3 14 7 15 4 16 6 17 8 18
REMARK SMILES IDX 5 19 9 21 1 24 28 27 14 29 15 32 16 35 17 36 24 37 18 38
REMARK SMILES IDX 23 40 19 42 22 44 20 45 21 46 26 50
REMARK H PARENT 11 6 12 7 12 8 13 9 25 10 27 11 4 20 8 22 9 23 1 25 1 26 28 28
REMARK H PARENT 14 30 14 31 15 33 15 34 17 39 24 41 18 43 22 47 20 48 21 49
REMARK H PARENT 26 51
REMARK Flexibility Score: inf
ROOT
ATOM      1  C   UNL     1     -46.684  37.124  28.467  1.00  0.00     0.064 C 
ATOM      2  C   UNL     1     -45.843  35.847  28.252  1.00  0.00    -0.024 C 
ATOM      3  C   UNL     1     -46.835  34.763  27.818  1.00  0.00    -0.010 C 
ATOM      4  C   UNL     1     -47.866  35.564  27.021  1.00  0.00     0.085 C 
ATOM      5  C   UNL     1     -48.075  36.817  27.882  1.00  0.00     0.101 C 
ATOM      6  H   UNL     1     -46.786  37.310  29.543  1.00  0.00     0.056 H 
ATOM      7  H   UNL     1     -45.325  35.563  29.176  1.00  0.00     0.029 H 
ATOM      8  H   UNL     1     -45.073  35.997  27.485  1.00  0.00     0.029 H 
ATOM      9  H   UNL     1     -47.317  34.326  28.703  1.00  0.00     0.033 H 
ATOM     10  H   UNL     1     -47.485  35.834  26.029  1.00  0.00     0.063 H 
ATOM     11  H   UNL     1     -48.524  37.637  27.312  1.00  0.00     0.065 H 
ENDROOT
BRANCH   1  12
ATOM     12  N   UNL     1     -46.035  38.296  27.891  1.00  0.00    -0.327 N 
ATOM     13  C   UNL     1     -43.524  40.789  28.045  1.00  0.00     0.136 A 
ATOM     14  N   UNL     1     -42.901  40.489  29.201  1.00  0.00    -0.219 NA
ATOM     15  C   UNL     1     -44.604  39.996  27.629  1.00  0.00     0.061 A 
ATOM     16  C   UNL     1     -43.351  39.438  29.912  1.00  0.00     0.120 A 
ATOM     17  C   UNL     1     -44.961  38.943  28.460  1.00  0.00     0.145 A 
ATOM     18  C   UNL     1     -45.489  39.966  26.519  1.00  0.00    -0.031 A 
ATOM     19  N   UNL     1     -44.364  38.607  29.616  1.00  0.00    -0.218 NA
ATOM     20  H   UNL     1     -42.827  39.235  30.840  1.00  0.00     0.106 H 
ATOM     21  C   UNL     1     -46.348  38.900  26.696  1.00  0.00     0.007 A 
ATOM     22  H   UNL     1     -45.496  40.649  25.680  1.00  0.00     0.065 H 
ATOM     23  H   UNL     1     -47.152  38.544  26.068  1.00  0.00     0.082 H 
BRANCH  13  24
ATOM     24  N   UNL     1     -43.037  41.867  27.319  1.00  0.00    -0.383 N 
ATOM     25  H   UNL     1     -43.406  41.949  26.382  1.00  0.00     0.158 HD
ATOM     26  H   UNL     1     -42.031  41.933  27.417  1.00  0.00     0.158 HD
ENDBRANCH  13  24
ENDBRANCH   1  12
BRANCH   5  27
ATOM     27  O   UNL     1     -48.992  36.503  28.944  1.00  0.00    -0.388 OA
ATOM     28  H   UNL     1     -48.721  35.612  29.250  1.00  0.00     0.211 HD
ENDBRANCH   5  27
BRANCH   3  29
ATOM     29  C   UNL     1     -46.204  33.629  27.006  1.00  0.00    -0.044 C 
ATOM     30  H   UNL     1     -46.566  32.660  27.375  1.00  0.00     0.027 H 
ATOM     31  H   UNL     1     -45.119  33.633  27.168  1.00  0.00     0.027 H 
BRANCH  29  32
ATOM     32  C   UNL     1     -46.491  33.750  25.505  1.00  0.00    -0.027 C 
ATOM     33  H   UNL     1     -45.616  34.159  24.985  1.00  0.00     0.032 H 
ATOM     34  H   UNL     1     -47.310  34.456  25.323  1.00  0.00     0.032 H 
BRANCH  32  35
ATOM     35  C   UNL     1     -46.851  32.410  24.908  1.00  0.00    -0.046 A 
ATOM     36  C   UNL     1     -46.124  31.910  23.819  1.00  0.00    -0.058 A 
ATOM     37  C   UNL     1     -47.933  31.680  25.425  1.00  0.00    -0.035 A 
ATOM     38  C   UNL     1     -46.452  30.681  23.233  1.00  0.00    -0.053 A 
ATOM     39  H   UNL     1     -45.289  32.476  23.414  1.00  0.00     0.063 H 
ATOM     40  C   UNL     1     -48.245  30.453  24.827  1.00  0.00     0.046 A 
ATOM     41  H   UNL     1     -48.512  32.054  26.265  1.00  0.00     0.065 H 
ATOM     42  C   UNL     1     -47.532  29.939  23.746  1.00  0.00    -0.001 A 
ATOM     43  H   UNL     1     -45.876  30.305  22.393  1.00  0.00     0.063 H 
ATOM     44  N   UNL     1     -49.233  29.543  25.129  1.00  0.00    -0.361 N 
ATOM     45  C   UNL     1     -48.124  28.691  23.407  1.00  0.00    -0.037 A 
ATOM     46  C   UNL     1     -49.170  28.473  24.275  1.00  0.00     0.002 A 
ATOM     47  H   UNL     1     -49.905  29.653  25.877  1.00  0.00     0.166 HD
ATOM     48  H   UNL     1     -47.814  28.025  22.613  1.00  0.00     0.065 H 
ATOM     49  H   UNL     1     -49.869  27.653  24.359  1.00  0.00     0.082 H 
ENDBRANCH  32  35
ENDBRANCH  29  32
ENDBRANCH   3  29
BRANCH   4  50
ATOM     50  O   UNL     1     -49.096  34.863  26.873  1.00  0.00    -0.390 OA
ATOM     51  H   UNL     1     -49.816  35.483  27.092  1.00  0.00     0.211 HD
ENDBRANCH   4  50
TORSDOF 7
ENDMDL
MODEL 7
REMARK VINA RESULT:      -9.1      1.910      8.945
REMARK SMILES Nc1ncnc2c1ccn2[C@@H]1C[C@H](CCc2ccc3cc[nH]c3c2)[C@@H](O)[C@H]1O
REMARK SMILES IDX 11 1 12 2 13 3 25 4 27 5 10 12 2 13 3 14 7 15 4 16 6 17 8 18
REMARK SMILES IDX 5 19 9 21 1 24 28 27 14 29 15 32 16 35 17 36 24 37 18 38
REMARK SMILES IDX 23 40 19 42 22 44 20 45 21 46 26 50
REMARK H PARENT 11 6 12 7 12 8 13 9 25 10 27 11 4 20 8 22 9 23 1 25 1 26 28 28
REMARK H PARENT 14 30 14 31 15 33 15 34 17 39 24 41 18 43 22 47 20 48 21 49
REMARK H PARENT 26 51
REMARK Flexibility Score: inf
ROOT
ATOM      1  C   UNL     1     -47.315  34.354  27.512  1.00  0.00     0.064 C 
ATOM      2  C   UNL     1     -47.969  35.733  27.275  1.00  0.00    -0.024 C 
ATOM      3  C   UNL     1     -47.282  36.693  28.252  1.00  0.00    -0.010 C 
ATOM      4  C   UNL     1     -45.860  36.132  28.317  1.00  0.00     0.085 C 
ATOM      5  C   UNL     1     -46.088  34.616  28.406  1.00  0.00     0.101 C 
ATOM      6  H   UNL     1     -48.019  33.713  28.056  1.00  0.00     0.056 H 
ATOM      7  H   UNL     1     -49.049  35.688  27.458  1.00  0.00     0.029 H 
ATOM      8  H   UNL     1     -47.832  36.070  26.240  1.00  0.00     0.029 H 
ATOM      9  H   UNL     1     -47.752  36.614  29.242  1.00  0.00     0.033 H 
ATOM     10  H   UNL     1     -45.287  36.386  27.418  1.00  0.00     0.063 H 
ATOM     11  H   UNL     1     -45.193  34.050  28.132  1.00  0.00     0.065 H 
ENDROOT
BRANCH   1  12
ATOM     12  N   UNL     1     -47.010  33.683  26.255  1.00  0.00    -0.327 N 
ATOM     13  C   UNL     1     -47.429  30.917  24.082  1.00  0.00     0.136 A 
ATOM     14  N   UNL     1     -48.259  30.127  24.790  1.00  0.00    -0.219 NA
ATOM     15  C   UNL     1     -47.027  32.144  24.629  1.00  0.00     0.061 A 
ATOM     16  C   UNL     1     -48.661  30.552  26.002  1.00  0.00     0.120 A 
ATOM     17  C   UNL     1     -47.520  32.457  25.889  1.00  0.00     0.145 A 
ATOM     18  C   UNL     1     -46.206  33.231  24.225  1.00  0.00    -0.031 A 
ATOM     19  N   UNL     1     -48.351  31.701  26.625  1.00  0.00    -0.218 NA
ATOM     20  H   UNL     1     -49.322  29.882  26.543  1.00  0.00     0.106 H 
ATOM     21  C   UNL     1     -46.227  34.171  25.235  1.00  0.00     0.007 A 
ATOM     22  H   UNL     1     -45.660  33.316  23.295  1.00  0.00     0.065 H 
ATOM     23  H   UNL     1     -45.738  35.133  25.299  1.00  0.00     0.082 H 
BRANCH  13  24
ATOM     24  N   UNL     1     -47.037  30.468  22.828  1.00  0.00    -0.383 N 
ATOM     25  H   UNL     1     -46.057  30.599  22.619  1.00  0.00     0.158 HD
ATOM     26  H   UNL     1     -47.695  30.773  22.122  1.00  0.00     0.158 HD
ENDBRANCH  13  24
ENDBRANCH   1  12
BRANCH   5  27
ATOM     27  O   UNL     1     -46.395  34.271  29.767  1.00  0.00    -0.388 OA
ATOM     28  H   UNL     1     -45.856  34.887  30.307  1.00  0.00     0.211 HD
ENDBRANCH   5  27
BRANCH   3  29
ATOM     29  C   UNL     1     -47.324  38.160  27.818  1.00  0.00    -0.044 C 
ATOM     30  H   UNL     1     -47.026  38.805  28.655  1.00  0.00     0.027 H 
ATOM     31  H   UNL     1     -48.358  38.433  27.573  1.00  0.00     0.027 H 
BRANCH  29  32
ATOM     32  C   UNL     1     -46.428  38.441  26.606  1.00  0.00    -0.027 C 
ATOM     33  H   UNL     1     -47.040  38.734  25.744  1.00  0.00     0.032 H 
ATOM     34  H   UNL     1     -45.891  37.534  26.302  1.00  0.00     0.032 H 
BRANCH  32  35
ATOM     35  C   UNL     1     -45.426  39.530  26.906  1.00  0.00    -0.046 A 
ATOM     36  C   UNL     1     -45.286  40.615  26.032  1.00  0.00    -0.058 A 
ATOM     37  C   UNL     1     -44.613  39.439  28.049  1.00  0.00    -0.035 A 
ATOM     38  C   UNL     1     -44.349  41.626  26.276  1.00  0.00    -0.053 A 
ATOM     39  H   UNL     1     -45.911  40.685  25.143  1.00  0.00     0.063 H 
ATOM     40  C   UNL     1     -43.683  40.461  28.277  1.00  0.00     0.046 A 
ATOM     41  H   UNL     1     -44.703  38.602  28.736  1.00  0.00     0.065 H 
ATOM     42  C   UNL     1     -43.533  41.548  27.419  1.00  0.00    -0.001 A 
ATOM     43  H   UNL     1     -44.256  42.463  25.590  1.00  0.00     0.063 H 
ATOM     44  N   UNL     1     -42.779  40.626  29.303  1.00  0.00    -0.361 N 
ATOM     45  C   UNL     1     -42.508  42.372  27.962  1.00  0.00    -0.037 A 
ATOM     46  C   UNL     1     -42.062  41.779  29.121  1.00  0.00     0.002 A 
ATOM     47  H   UNL     1     -42.668  39.986  30.077  1.00  0.00     0.166 HD
ATOM     48  H   UNL     1     -42.139  43.301  27.546  1.00  0.00     0.065 H 
ATOM     49  H   UNL     1     -41.301  42.078  29.829  1.00  0.00     0.082 H 
ENDBRANCH  32  35
ENDBRANCH  29  32
ENDBRANCH   3  29
BRANCH   4  50
ATOM     50  O   UNL     1     -45.153  36.586  29.466  1.00  0.00    -0.390 OA
ATOM     51  H   UNL     1     -44.958  37.531  29.337  1.00  0.00     0.211 HD
ENDBRANCH   4  50
TORSDOF 7
ENDMDL
