MODEL 1
REMARK VINA RESULT:     -10.1      0.000      0.000
REMARK SMILES Cn1ccc(-c2cn([C@@H]3O[C@H](COc4ccc5cnc(C(=O)N6CCC6)nc5c4)[C@@H](O)[C@@H]3F)c3ncnc(N)c23)n1
REMARK SMILES IDX 9 1 10 2 11 3 30 4 32 5 33 6 8 11 6 12 7 13 40 14 34 16
REMARK SMILES IDX 38 17 35 18 37 19 36 20 5 22 2 23 3 24 41 25 4 26 1 29 39 33
REMARK SMILES IDX 12 36 13 39 14 40 15 41 29 42 16 43 28 45 17 47 27 49 18 50
REMARK SMILES IDX 20 51 19 52 21 54 22 55 23 56 24 57 26 58 25 59 31 66
REMARK H PARENT 9 7 11 8 30 9 32 10 7 15 36 21 3 27 4 28 1 30 1 31 1 32 39 34
REMARK H PARENT 39 35 12 37 12 38 15 44 29 46 16 48 18 53 24 60 24 61 26 62
REMARK H PARENT 26 63 25 64 25 65 31 67
REMARK Flexibility Score: inf
ROOT
ATOM      1  C   UNL     1     -47.496  38.016  28.397  1.00  0.00     0.169 C 
ATOM      2  O   UNL     1     -47.054  36.928  29.251  1.00  0.00    -0.345 OA
ATOM      3  C   UNL     1     -47.408  35.681  28.612  1.00  0.00     0.123 C 
ATOM      4  C   UNL     1     -48.505  36.029  27.608  1.00  0.00     0.119 C 
ATOM      5  C   UNL     1     -48.076  37.397  27.126  1.00  0.00     0.173 C 
ATOM      6  F   UNL     1     -47.118  37.219  26.172  1.00  0.00    -0.239 F 
ATOM      7  H   UNL     1     -48.267  38.553  28.963  1.00  0.00     0.088 H 
ATOM      8  H   UNL     1     -47.767  35.010  29.400  1.00  0.00     0.067 H 
ATOM      9  H   UNL     1     -48.588  35.298  26.799  1.00  0.00     0.066 H 
ATOM     10  H   UNL     1     -48.884  37.996  26.696  1.00  0.00     0.074 H 
ENDROOT
BRANCH   1  11
ATOM     11  N   UNL     1     -46.400  38.946  28.175  1.00  0.00    -0.302 N 
ATOM     12  C   UNL     1     -45.097  40.550  27.329  1.00  0.00     0.033 A 
ATOM     13  C   UNL     1     -46.300  39.885  27.179  1.00  0.00     0.019 A 
ATOM     14  C   UNL     1     -44.420  39.966  28.446  1.00  0.00     0.071 A 
ATOM     15  H   UNL     1     -47.091  40.011  26.452  1.00  0.00     0.083 H 
ATOM     16  C   UNL     1     -45.263  38.977  28.944  1.00  0.00     0.148 A 
ATOM     17  C   UNL     1     -43.194  40.123  29.115  1.00  0.00     0.137 A 
ATOM     18  N   UNL     1     -45.030  38.174  29.997  1.00  0.00    -0.218 NA
ATOM     19  N   UNL     1     -42.933  39.359  30.196  1.00  0.00    -0.219 NA
ATOM     20  C   UNL     1     -43.843  38.440  30.564  1.00  0.00     0.120 A 
ATOM     21  H   UNL     1     -43.582  37.838  31.429  1.00  0.00     0.106 H 
BRANCH  12  22
ATOM     22  C   UNL     1     -44.604  41.643  26.486  1.00  0.00     0.095 A 
ATOM     23  N   UNL     1     -43.906  43.534  25.845  1.00  0.00    -0.275 N 
ATOM     24  C   UNL     1     -43.886  42.767  24.720  1.00  0.00     0.025 A 
ATOM     25  N   UNL     1     -44.352  42.881  26.936  1.00  0.00    -0.173 NA
ATOM     26  C   UNL     1     -44.348  41.530  25.101  1.00  0.00    -0.016 A 
ATOM     27  H   UNL     1     -43.543  43.144  23.767  1.00  0.00     0.084 H 
ATOM     28  H   UNL     1     -44.460  40.662  24.465  1.00  0.00     0.066 H 
BRANCH  23  29
ATOM     29  C   UNL     1     -43.501  44.913  25.961  1.00  0.00     0.030 C 
ATOM     30  H   UNL     1     -44.295  45.542  25.551  1.00  0.00     0.048 H 
ATOM     31  H   UNL     1     -43.336  45.157  27.014  1.00  0.00     0.048 H 
ATOM     32  H   UNL     1     -42.573  45.049  25.399  1.00  0.00     0.048 H 
ENDBRANCH  23  29
ENDBRANCH  12  22
BRANCH  17  33
ATOM     33  N   UNL     1     -42.214  41.030  28.739  1.00  0.00    -0.383 N 
ATOM     34  H   UNL     1     -41.959  41.667  29.499  1.00  0.00     0.158 HD
ATOM     35  H   UNL     1     -41.458  40.580  28.242  1.00  0.00     0.158 HD
ENDBRANCH  17  33
ENDBRANCH   1  11
BRANCH   3  36
ATOM     36  C   UNL     1     -46.155  35.089  27.943  1.00  0.00     0.117 C 
ATOM     37  H   UNL     1     -46.114  35.385  26.889  1.00  0.00     0.073 H 
ATOM     38  H   UNL     1     -45.252  35.439  28.457  1.00  0.00     0.073 H 
BRANCH  36  39
ATOM     39  O   UNL     1     -46.243  33.654  27.996  1.00  0.00    -0.491 OA
BRANCH  39  40
ATOM     40  C   UNL     1     -46.562  33.093  26.791  1.00  0.00     0.121 A 
ATOM     41  C   UNL     1     -46.085  33.582  25.577  1.00  0.00    -0.019 A 
ATOM     42  C   UNL     1     -47.430  32.000  26.818  1.00  0.00     0.007 A 
ATOM     43  C   UNL     1     -46.439  32.935  24.396  1.00  0.00    -0.048 A 
ATOM     44  H   UNL     1     -45.442  34.456  25.540  1.00  0.00     0.066 H 
ATOM     45  C   UNL     1     -47.788  31.331  25.656  1.00  0.00     0.078 A 
ATOM     46  H   UNL     1     -47.812  31.644  27.772  1.00  0.00     0.069 H 
ATOM     47  C   UNL     1     -47.279  31.807  24.442  1.00  0.00     0.019 A 
ATOM     48  H   UNL     1     -46.057  33.307  23.448  1.00  0.00     0.063 H 
ATOM     49  N   UNL     1     -48.585  30.260  25.725  1.00  0.00    -0.224 NA
ATOM     50  C   UNL     1     -47.658  31.091  23.316  1.00  0.00     0.039 A 
ATOM     51  C   UNL     1     -48.880  29.629  24.568  1.00  0.00     0.219 A 
ATOM     52  N   UNL     1     -48.449  30.003  23.347  1.00  0.00    -0.232 NA
ATOM     53  H   UNL     1     -47.320  31.379  22.324  1.00  0.00     0.085 H 
BRANCH  51  54
ATOM     54  C   UNL     1     -49.753  28.398  24.680  1.00  0.00     0.291 C 
ATOM     55  O   UNL     1     -50.957  28.453  24.421  1.00  0.00    -0.265 OA
ATOM     56  N   UNL     1     -49.174  27.206  25.087  1.00  0.00    -0.336 N 
ATOM     57  C   UNL     1     -48.006  26.952  25.915  1.00  0.00     0.023 C 
ATOM     58  C   UNL     1     -49.902  26.043  25.577  1.00  0.00     0.023 C 
ATOM     59  C   UNL     1     -48.557  25.535  26.101  1.00  0.00    -0.018 C 
ATOM     60  H   UNL     1     -47.052  26.995  25.386  1.00  0.00     0.049 H 
ATOM     61  H   UNL     1     -47.979  27.561  26.824  1.00  0.00     0.049 H 
ATOM     62  H   UNL     1     -50.355  25.440  24.787  1.00  0.00     0.049 H 
ATOM     63  H   UNL     1     -50.640  26.291  26.346  1.00  0.00     0.049 H 
ATOM     64  H   UNL     1     -48.084  24.786  25.457  1.00  0.00     0.030 H 
ATOM     65  H   UNL     1     -48.565  25.166  27.131  1.00  0.00     0.030 H 
ENDBRANCH  51  54
ENDBRANCH  39  40
ENDBRANCH  36  39
ENDBRANCH   3  36
BRANCH   4  66
ATOM     66  O   UNL     1     -49.782  36.133  28.246  1.00  0.00    -0.387 OA
ATOM     67  H   UNL     1     -50.373  36.642  27.662  1.00  0.00     0.211 HD
ENDBRANCH   4  66
TORSDOF 9
ENDMDL
MODEL 2
REMARK VINA RESULT:      -9.8      5.469      8.788
REMARK SMILES Cn1ccc(-c2cn([C@@H]3O[C@H](COc4ccc5cnc(C(=O)N6CCC6)nc5c4)[C@@H](O)[C@@H]3F)c3ncnc(N)c23)n1
REMARK SMILES IDX 9 1 10 2 11 3 30 4 32 5 33 6 8 11 6 12 7 13 40 14 34 16
REMARK SMILES IDX 38 17 35 18 37 19 36 20 5 22 2 23 3 24 41 25 4 26 1 29 39 33
REMARK SMILES IDX 12 36 13 39 14 40 15 41 29 42 16 43 28 45 17 47 27 49 18 50
REMARK SMILES IDX 20 51 19 52 21 54 22 55 23 56 24 57 26 58 25 59 31 66
REMARK H PARENT 9 7 11 8 30 9 32 10 7 15 36 21 3 27 4 28 1 30 1 31 1 32 39 34
REMARK H PARENT 39 35 12 37 12 38 15 44 29 46 16 48 18 53 24 60 24 61 26 62
REMARK H PARENT 26 63 25 64 25 65 31 67
REMARK Flexibility Score: inf
ROOT
ATOM      1  C   UNL     1     -45.005  37.823  28.866  1.00  0.00     0.169 C 
ATOM      2  O   UNL     1     -45.363  36.943  27.767  1.00  0.00    -0.345 OA
ATOM      3  C   UNL     1     -46.645  36.347  28.068  1.00  0.00     0.123 C 
ATOM      4  C   UNL     1     -46.822  36.491  29.578  1.00  0.00     0.119 C 
ATOM      5  C   UNL     1     -46.172  37.829  29.850  1.00  0.00     0.173 C 
ATOM      6  F   UNL     1     -47.079  38.801  29.549  1.00  0.00    -0.239 F 
ATOM      7  H   UNL     1     -44.105  37.391  29.320  1.00  0.00     0.088 H 
ATOM      8  H   UNL     1     -46.588  35.298  27.757  1.00  0.00     0.067 H 
ATOM      9  H   UNL     1     -47.871  36.455  29.887  1.00  0.00     0.066 H 
ATOM     10  H   UNL     1     -45.848  37.969  30.886  1.00  0.00     0.074 H 
ENDROOT
BRANCH   1  11
ATOM     11  N   UNL     1     -44.637  39.133  28.349  1.00  0.00    -0.302 N 
ATOM     12  C   UNL     1     -44.548  40.997  27.124  1.00  0.00     0.033 A 
ATOM     13  C   UNL     1     -45.196  39.786  27.279  1.00  0.00     0.019 A 
ATOM     14  C   UNL     1     -43.527  41.069  28.124  1.00  0.00     0.071 A 
ATOM     15  H   UNL     1     -46.011  39.344  26.721  1.00  0.00     0.083 H 
ATOM     16  C   UNL     1     -43.618  39.894  28.864  1.00  0.00     0.148 A 
ATOM     17  C   UNL     1     -42.515  41.965  28.514  1.00  0.00     0.137 A 
ATOM     18  N   UNL     1     -42.851  39.539  29.910  1.00  0.00    -0.218 NA
ATOM     19  N   UNL     1     -41.744  41.661  29.578  1.00  0.00    -0.219 NA
ATOM     20  C   UNL     1     -41.945  40.486  30.199  1.00  0.00     0.120 A 
ATOM     21  H   UNL     1     -41.290  40.278  31.040  1.00  0.00     0.106 H 
BRANCH  12  22
ATOM     22  C   UNL     1     -44.847  42.013  26.110  1.00  0.00     0.095 A 
ATOM     23  N   UNL     1     -45.730  43.645  25.095  1.00  0.00    -0.275 N 
ATOM     24  C   UNL     1     -44.732  43.231  24.266  1.00  0.00     0.025 A 
ATOM     25  N   UNL     1     -45.836  42.914  26.221  1.00  0.00    -0.173 NA
ATOM     26  C   UNL     1     -44.143  42.159  24.894  1.00  0.00    -0.016 A 
ATOM     27  H   UNL     1     -44.514  43.723  23.329  1.00  0.00     0.084 H 
ATOM     28  H   UNL     1     -43.306  41.581  24.529  1.00  0.00     0.066 H 
BRANCH  23  29
ATOM     29  C   UNL     1     -46.632  44.750  24.880  1.00  0.00     0.030 C 
ATOM     30  H   UNL     1     -47.654  44.366  24.873  1.00  0.00     0.048 H 
ATOM     31  H   UNL     1     -46.511  45.480  25.685  1.00  0.00     0.048 H 
ATOM     32  H   UNL     1     -46.387  45.212  23.920  1.00  0.00     0.048 H 
ENDBRANCH  23  29
ENDBRANCH  12  22
BRANCH  17  33
ATOM     33  N   UNL     1     -42.251  43.165  27.871  1.00  0.00    -0.383 N 
ATOM     34  H   UNL     1     -41.338  43.166  27.407  1.00  0.00     0.158 HD
ATOM     35  H   UNL     1     -43.042  43.483  27.330  1.00  0.00     0.158 HD
ENDBRANCH  17  33
ENDBRANCH   1  11
BRANCH   3  36
ATOM     36  C   UNL     1     -47.736  37.078  27.268  1.00  0.00     0.117 C 
ATOM     37  H   UNL     1     -47.663  38.159  27.430  1.00  0.00     0.073 H 
ATOM     38  H   UNL     1     -47.630  36.860  26.199  1.00  0.00     0.073 H 
BRANCH  36  39
ATOM     39  O   UNL     1     -49.021  36.645  27.746  1.00  0.00    -0.491 OA
BRANCH  39  40
ATOM     40  C   UNL     1     -49.837  37.683  28.103  1.00  0.00     0.121 A 
ATOM     41  C   UNL     1     -51.148  37.502  28.537  1.00  0.00    -0.019 A 
ATOM     42  C   UNL     1     -49.304  38.968  27.987  1.00  0.00     0.007 A 
ATOM     43  C   UNL     1     -51.902  38.612  28.905  1.00  0.00    -0.048 A 
ATOM     44  H   UNL     1     -51.587  36.510  28.593  1.00  0.00     0.066 H 
ATOM     45  C   UNL     1     -50.032  40.089  28.360  1.00  0.00     0.078 A 
ATOM     46  H   UNL     1     -48.286  39.094  27.626  1.00  0.00     0.069 H 
ATOM     47  C   UNL     1     -51.338  39.899  28.826  1.00  0.00     0.019 A 
ATOM     48  H   UNL     1     -52.922  38.473  29.257  1.00  0.00     0.063 H 
ATOM     49  N   UNL     1     -49.472  41.301  28.277  1.00  0.00    -0.224 NA
ATOM     50  C   UNL     1     -52.011  41.053  29.198  1.00  0.00     0.039 A 
ATOM     51  C   UNL     1     -50.213  42.356  28.678  1.00  0.00     0.219 A 
ATOM     52  N   UNL     1     -51.479  42.288  29.139  1.00  0.00    -0.232 NA
ATOM     53  H   UNL     1     -53.032  41.015  29.571  1.00  0.00     0.085 H 
BRANCH  51  54
ATOM     54  C   UNL     1     -49.543  43.710  28.610  1.00  0.00     0.291 C 
ATOM     55  O   UNL     1     -48.927  44.159  29.580  1.00  0.00    -0.265 OA
ATOM     56  N   UNL     1     -49.638  44.443  27.437  1.00  0.00    -0.336 N 
ATOM     57  C   UNL     1     -50.654  44.441  26.396  1.00  0.00     0.023 C 
ATOM     58  C   UNL     1     -49.367  45.869  27.313  1.00  0.00     0.023 C 
ATOM     59  C   UNL     1     -50.087  45.796  25.964  1.00  0.00    -0.018 C 
ATOM     60  H   UNL     1     -50.543  43.651  25.651  1.00  0.00     0.049 H 
ATOM     61  H   UNL     1     -51.675  44.470  26.789  1.00  0.00     0.049 H 
ATOM     62  H   UNL     1     -48.304  46.115  27.264  1.00  0.00     0.049 H 
ATOM     63  H   UNL     1     -49.869  46.469  28.078  1.00  0.00     0.049 H 
ATOM     64  H   UNL     1     -49.411  45.741  25.103  1.00  0.00     0.030 H 
ATOM     65  H   UNL     1     -50.829  46.580  25.785  1.00  0.00     0.030 H 
ENDBRANCH  51  54
ENDBRANCH  39  40
ENDBRANCH  36  39
ENDBRANCH   3  36
BRANCH   4  66
ATOM     66  O   UNL     1     -46.113  35.470  30.286  1.00  0.00    -0.387 OA
ATOM     67  H   UNL     1     -46.301  34.615  29.856  1.00  0.00     0.211 HD
ENDBRANCH   4  66
TORSDOF 9
ENDMDL
MODEL 3
REMARK VINA RESULT:      -9.5      2.476      3.464
REMARK SMILES Cn1ccc(-c2cn([C@@H]3O[C@H](COc4ccc5cnc(C(=O)N6CCC6)nc5c4)[C@@H](O)[C@@H]3F)c3ncnc(N)c23)n1
REMARK SMILES IDX 9 1 10 2 11 3 30 4 32 5 33 6 8 11 6 12 7 13 40 14 34 16
REMARK SMILES IDX 38 17 35 18 37 19 36 20 5 22 2 23 3 24 41 25 4 26 1 29 39 33
REMARK SMILES IDX 12 36 13 39 14 40 15 41 29 42 16 43 28 45 17 47 27 49 18 50
REMARK SMILES IDX 20 51 19 52 21 54 22 55 23 56 24 57 26 58 25 59 31 66
REMARK H PARENT 9 7 11 8 30 9 32 10 7 15 36 21 3 27 4 28 1 30 1 31 1 32 39 34
REMARK H PARENT 39 35 12 37 12 38 15 44 29 46 16 48 18 53 24 60 24 61 26 62
REMARK H PARENT 26 63 25 64 25 65 31 67
REMARK Flexibility Score: inf
ROOT
ATOM      1  C   UNL     1     -46.061  38.483  28.390  1.00  0.00     0.169 C 
ATOM      2  O   UNL     1     -45.575  37.550  27.388  1.00  0.00    -0.345 OA
ATOM      3  C   UNL     1     -46.219  36.276  27.609  1.00  0.00     0.123 C 
ATOM      4  C   UNL     1     -46.721  36.312  29.051  1.00  0.00     0.119 C 
ATOM      5  C   UNL     1     -47.125  37.760  29.213  1.00  0.00     0.173 C 
ATOM      6  F   UNL     1     -48.367  37.908  28.671  1.00  0.00    -0.239 F 
ATOM      7  H   UNL     1     -45.194  38.747  29.007  1.00  0.00     0.088 H 
ATOM      8  H   UNL     1     -45.458  35.503  27.456  1.00  0.00     0.067 H 
ATOM      9  H   UNL     1     -47.545  35.615  29.231  1.00  0.00     0.066 H 
ATOM     10  H   UNL     1     -47.160  38.103  30.252  1.00  0.00     0.074 H 
ENDROOT
BRANCH   1  11
ATOM     11  N   UNL     1     -46.516  39.705  27.746  1.00  0.00    -0.302 N 
ATOM     12  C   UNL     1     -47.788  41.388  27.015  1.00  0.00     0.033 A 
ATOM     13  C   UNL     1     -47.789  40.220  27.753  1.00  0.00     0.019 A 
ATOM     14  C   UNL     1     -46.463  41.576  26.508  1.00  0.00     0.071 A 
ATOM     15  H   UNL     1     -48.588  39.721  28.286  1.00  0.00     0.083 H 
ATOM     16  C   UNL     1     -45.705  40.511  26.986  1.00  0.00     0.148 A 
ATOM     17  C   UNL     1     -45.784  42.497  25.692  1.00  0.00     0.137 A 
ATOM     18  N   UNL     1     -44.399  40.285  26.759  1.00  0.00    -0.218 NA
ATOM     19  N   UNL     1     -44.465  42.325  25.465  1.00  0.00    -0.219 NA
ATOM     20  C   UNL     1     -43.860  41.247  25.993  1.00  0.00     0.120 A 
ATOM     21  H   UNL     1     -42.803  41.142  25.770  1.00  0.00     0.106 H 
BRANCH  12  22
ATOM     22  C   UNL     1     -48.941  42.265  26.785  1.00  0.00     0.095 A 
ATOM     23  N   UNL     1     -50.745  43.059  26.019  1.00  0.00    -0.275 N 
ATOM     24  C   UNL     1     -50.366  43.947  26.979  1.00  0.00     0.025 A 
ATOM     25  N   UNL     1     -49.890  42.029  25.867  1.00  0.00    -0.173 NA
ATOM     26  C   UNL     1     -49.184  43.465  27.490  1.00  0.00    -0.016 A 
ATOM     27  H   UNL     1     -50.952  44.820  27.227  1.00  0.00     0.084 H 
ATOM     28  H   UNL     1     -48.596  43.911  28.280  1.00  0.00     0.066 H 
BRANCH  23  29
ATOM     29  C   UNL     1     -51.931  43.123  25.201  1.00  0.00     0.030 C 
ATOM     30  H   UNL     1     -52.572  42.275  25.454  1.00  0.00     0.048 H 
ATOM     31  H   UNL     1     -52.458  44.061  25.396  1.00  0.00     0.048 H 
ATOM     32  H   UNL     1     -51.629  43.078  24.152  1.00  0.00     0.048 H 
ENDBRANCH  23  29
ENDBRANCH  12  22
BRANCH  17  33
ATOM     33  N   UNL     1     -46.383  43.597  25.096  1.00  0.00    -0.383 N 
ATOM     34  H   UNL     1     -47.392  43.470  24.969  1.00  0.00     0.158 HD
ATOM     35  H   UNL     1     -46.077  44.463  25.514  1.00  0.00     0.158 HD
ENDBRANCH  17  33
ENDBRANCH   1  11
BRANCH   3  36
ATOM     36  C   UNL     1     -47.357  36.108  26.587  1.00  0.00     0.117 C 
ATOM     37  H   UNL     1     -48.067  36.937  26.672  1.00  0.00     0.073 H 
ATOM     38  H   UNL     1     -46.949  36.078  25.570  1.00  0.00     0.073 H 
BRANCH  36  39
ATOM     39  O   UNL     1     -48.061  34.890  26.884  1.00  0.00    -0.491 OA
BRANCH  39  40
ATOM     40  C   UNL     1     -47.704  33.852  26.067  1.00  0.00     0.121 A 
ATOM     41  C   UNL     1     -46.565  33.877  25.266  1.00  0.00    -0.019 A 
ATOM     42  C   UNL     1     -48.560  32.750  26.041  1.00  0.00     0.007 A 
ATOM     43  C   UNL     1     -46.261  32.768  24.481  1.00  0.00    -0.048 A 
ATOM     44  H   UNL     1     -45.913  34.745  25.245  1.00  0.00     0.066 H 
ATOM     45  C   UNL     1     -48.272  31.628  25.277  1.00  0.00     0.078 A 
ATOM     46  H   UNL     1     -49.457  32.756  26.656  1.00  0.00     0.069 H 
ATOM     47  C   UNL     1     -47.109  31.645  24.499  1.00  0.00     0.019 A 
ATOM     48  H   UNL     1     -45.365  32.779  23.864  1.00  0.00     0.063 H 
ATOM     49  N   UNL     1     -49.092  30.573  25.313  1.00  0.00    -0.224 NA
ATOM     50  C   UNL     1     -46.865  30.491  23.768  1.00  0.00     0.039 A 
ATOM     51  C   UNL     1     -48.752  29.496  24.573  1.00  0.00     0.219 A 
ATOM     52  N   UNL     1     -47.660  29.406  23.787  1.00  0.00    -0.232 NA
ATOM     53  H   UNL     1     -45.989  30.403  23.129  1.00  0.00     0.085 H 
BRANCH  51  54
ATOM     54  C   UNL     1     -49.677  28.302  24.662  1.00  0.00     0.291 C 
ATOM     55  O   UNL     1     -50.832  28.365  24.235  1.00  0.00    -0.265 OA
ATOM     56  N   UNL     1     -49.203  27.134  25.239  1.00  0.00    -0.336 N 
ATOM     57  C   UNL     1     -48.168  26.920  26.238  1.00  0.00     0.023 C 
ATOM     58  C   UNL     1     -50.033  26.035  25.716  1.00  0.00     0.023 C 
ATOM     59  C   UNL     1     -48.792  25.539  26.460  1.00  0.00    -0.018 C 
ATOM     60  H   UNL     1     -47.150  26.894  25.843  1.00  0.00     0.049 H 
ATOM     61  H   UNL     1     -48.241  27.604  27.090  1.00  0.00     0.049 H 
ATOM     62  H   UNL     1     -50.397  25.380  24.922  1.00  0.00     0.049 H 
ATOM     63  H   UNL     1     -50.859  26.367  26.353  1.00  0.00     0.049 H 
ATOM     64  H   UNL     1     -48.264  24.726  25.949  1.00  0.00     0.030 H 
ATOM     65  H   UNL     1     -48.952  25.259  27.505  1.00  0.00     0.030 H 
ENDBRANCH  51  54
ENDBRANCH  39  40
ENDBRANCH  36  39
ENDBRANCH   3  36
BRANCH   4  66
ATOM     66  O   UNL     1     -45.671  36.009  29.976  1.00  0.00    -0.387 OA
ATOM     67  H   UNL     1     -45.674  35.047  30.133  1.00  0.00     0.211 HD
ENDBRANCH   4  66
TORSDOF 9
ENDMDL
MODEL 4
REMARK VINA RESULT:      -9.2      5.133      9.844
REMARK SMILES Cn1ccc(-c2cn([C@@H]3O[C@H](COc4ccc5cnc(C(=O)N6CCC6)nc5c4)[C@@H](O)[C@@H]3F)c3ncnc(N)c23)n1
REMARK SMILES IDX 9 1 10 2 11 3 30 4 32 5 33 6 8 11 6 12 7 13 40 14 34 16
REMARK SMILES IDX 38 17 35 18 37 19 36 20 5 22 2 23 3 24 41 25 4 26 1 29 39 33
REMARK SMILES IDX 12 36 13 39 14 40 15 41 29 42 16 43 28 45 17 47 27 49 18 50
REMARK SMILES IDX 20 51 19 52 21 54 22 55 23 56 24 57 26 58 25 59 31 66
REMARK H PARENT 9 7 11 8 30 9 32 10 7 15 36 21 3 27 4 28 1 30 1 31 1 32 39 34
REMARK H PARENT 39 35 12 37 12 38 15 44 29 46 16 48 18 53 24 60 24 61 26 62
REMARK H PARENT 26 63 25 64 25 65 31 67
REMARK Flexibility Score: inf
ROOT
ATOM      1  C   UNL     1     -43.289  42.672  25.922  1.00  0.00     0.169 C 
ATOM      2  O   UNL     1     -43.474  43.922  26.640  1.00  0.00    -0.345 OA
ATOM      3  C   UNL     1     -44.175  44.840  25.770  1.00  0.00     0.123 C 
ATOM      4  C   UNL     1     -43.970  44.305  24.355  1.00  0.00     0.119 C 
ATOM      5  C   UNL     1     -43.990  42.808  24.572  1.00  0.00     0.173 C 
ATOM      6  F   UNL     1     -45.294  42.416  24.641  1.00  0.00    -0.239 F 
ATOM      7  H   UNL     1     -42.206  42.552  25.796  1.00  0.00     0.088 H 
ATOM      8  H   UNL     1     -43.714  45.824  25.910  1.00  0.00     0.067 H 
ATOM      9  H   UNL     1     -44.740  44.645  23.657  1.00  0.00     0.066 H 
ATOM     10  H   UNL     1     -43.498  42.232  23.782  1.00  0.00     0.074 H 
ENDROOT
BRANCH   1  11
ATOM     11  N   UNL     1     -43.751  41.561  26.739  1.00  0.00    -0.302 N 
ATOM     12  C   UNL     1     -44.920  39.828  27.524  1.00  0.00     0.033 A 
ATOM     13  C   UNL     1     -44.831  40.749  26.496  1.00  0.00     0.019 A 
ATOM     14  C   UNL     1     -43.867  40.114  28.450  1.00  0.00     0.071 A 
ATOM     15  H   UNL     1     -45.441  40.884  25.614  1.00  0.00     0.083 H 
ATOM     16  C   UNL     1     -43.164  41.195  27.925  1.00  0.00     0.148 A 
ATOM     17  C   UNL     1     -43.403  39.618  29.681  1.00  0.00     0.137 A 
ATOM     18  N   UNL     1     -42.090  41.797  28.465  1.00  0.00    -0.218 NA
ATOM     19  N   UNL     1     -42.309  40.174  30.242  1.00  0.00    -0.219 NA
ATOM     20  C   UNL     1     -41.730  41.215  29.621  1.00  0.00     0.120 A 
ATOM     21  H   UNL     1     -40.863  41.639  30.118  1.00  0.00     0.106 H 
BRANCH  12  22
ATOM     22  C   UNL     1     -45.920  38.763  27.644  1.00  0.00     0.095 A 
ATOM     23  N   UNL     1     -46.823  36.872  27.927  1.00  0.00    -0.275 N 
ATOM     24  C   UNL     1     -47.870  37.719  27.727  1.00  0.00     0.025 A 
ATOM     25  N   UNL     1     -45.620  37.475  27.869  1.00  0.00    -0.173 NA
ATOM     26  C   UNL     1     -47.314  38.961  27.527  1.00  0.00    -0.016 A 
ATOM     27  H   UNL     1     -48.898  37.388  27.754  1.00  0.00     0.084 H 
ATOM     28  H   UNL     1     -47.850  39.882  27.344  1.00  0.00     0.066 H 
BRANCH  23  29
ATOM     29  C   UNL     1     -46.894  35.455  28.191  1.00  0.00     0.030 C 
ATOM     30  H   UNL     1     -46.515  35.273  29.199  1.00  0.00     0.048 H 
ATOM     31  H   UNL     1     -47.933  35.123  28.116  1.00  0.00     0.048 H 
ATOM     32  H   UNL     1     -46.283  34.935  27.449  1.00  0.00     0.048 H 
ENDBRANCH  23  29
ENDBRANCH  12  22
BRANCH  17  33
ATOM     33  N   UNL     1     -43.999  38.574  30.372  1.00  0.00    -0.383 N 
ATOM     34  H   UNL     1     -44.989  38.462  30.132  1.00  0.00     0.158 HD
ATOM     35  H   UNL     1     -43.426  37.742  30.362  1.00  0.00     0.158 HD
ENDBRANCH  17  33
ENDBRANCH   1  11
BRANCH   3  36
ATOM     36  C   UNL     1     -45.656  44.885  26.181  1.00  0.00     0.117 C 
ATOM     37  H   UNL     1     -46.004  43.883  26.455  1.00  0.00     0.073 H 
ATOM     38  H   UNL     1     -45.792  45.565  27.030  1.00  0.00     0.073 H 
BRANCH  36  39
ATOM     39  O   UNL     1     -46.430  45.328  25.052  1.00  0.00    -0.491 OA
BRANCH  39  40
ATOM     40  C   UNL     1     -47.687  44.789  25.021  1.00  0.00     0.121 A 
ATOM     41  C   UNL     1     -48.621  45.102  24.037  1.00  0.00    -0.019 A 
ATOM     42  C   UNL     1     -48.019  43.911  26.054  1.00  0.00     0.007 A 
ATOM     43  C   UNL     1     -49.871  44.490  24.065  1.00  0.00    -0.048 A 
ATOM     44  H   UNL     1     -48.389  45.815  23.251  1.00  0.00     0.066 H 
ATOM     45  C   UNL     1     -49.253  43.278  26.096  1.00  0.00     0.078 A 
ATOM     46  H   UNL     1     -47.285  43.693  26.827  1.00  0.00     0.069 H 
ATOM     47  C   UNL     1     -50.177  43.571  25.087  1.00  0.00     0.019 A 
ATOM     48  H   UNL     1     -50.598  44.722  23.291  1.00  0.00     0.063 H 
ATOM     49  N   UNL     1     -49.518  42.408  27.077  1.00  0.00    -0.224 NA
ATOM     50  C   UNL     1     -51.387  42.899  25.173  1.00  0.00     0.039 A 
ATOM     51  C   UNL     1     -50.723  41.798  27.057  1.00  0.00     0.219 A 
ATOM     52  N   UNL     1     -51.687  42.009  26.137  1.00  0.00    -0.232 NA
ATOM     53  H   UNL     1     -52.174  43.058  24.440  1.00  0.00     0.085 H 
BRANCH  51  54
ATOM     54  C   UNL     1     -50.983  40.791  28.155  1.00  0.00     0.291 C 
ATOM     55  O   UNL     1     -50.885  39.582  27.938  1.00  0.00    -0.265 OA
ATOM     56  N   UNL     1     -51.340  41.254  29.413  1.00  0.00    -0.336 N 
ATOM     57  C   UNL     1     -52.011  42.479  29.818  1.00  0.00     0.023 C 
ATOM     58  C   UNL     1     -51.953  40.449  30.461  1.00  0.00     0.023 C 
ATOM     59  C   UNL     1     -52.306  41.772  31.145  1.00  0.00    -0.018 C 
ATOM     60  H   UNL     1     -51.358  43.349  29.911  1.00  0.00     0.049 H 
ATOM     61  H   UNL     1     -52.892  42.711  29.211  1.00  0.00     0.049 H 
ATOM     62  H   UNL     1     -51.247  39.816  31.002  1.00  0.00     0.049 H 
ATOM     63  H   UNL     1     -52.807  39.863  30.108  1.00  0.00     0.049 H 
ATOM     64  H   UNL     1     -51.625  42.048  31.957  1.00  0.00     0.030 H 
ATOM     65  H   UNL     1     -53.338  41.855  31.501  1.00  0.00     0.030 H 
ENDBRANCH  51  54
ENDBRANCH  39  40
ENDBRANCH  36  39
ENDBRANCH   3  36
BRANCH   4  66
ATOM     66  O   UNL     1     -42.694  44.688  23.831  1.00  0.00    -0.387 OA
ATOM     67  H   UNL     1     -42.039  44.619  24.549  1.00  0.00     0.211 HD
ENDBRANCH   4  66
TORSDOF 9
ENDMDL
MODEL 5
REMARK VINA RESULT:      -9.2      4.366      9.644
REMARK SMILES Cn1ccc(-c2cn([C@@H]3O[C@H](COc4ccc5cnc(C(=O)N6CCC6)nc5c4)[C@@H](O)[C@@H]3F)c3ncnc(N)c23)n1
REMARK SMILES IDX 9 1 10 2 11 3 30 4 32 5 33 6 8 11 6 12 7 13 40 14 34 16
REMARK SMILES IDX 38 17 35 18 37 19 36 20 5 22 2 23 3 24 41 25 4 26 1 29 39 33
REMARK SMILES IDX 12 36 13 39 14 40 15 41 29 42 16 43 28 45 17 47 27 49 18 50
REMARK SMILES IDX 20 51 19 52 21 54 22 55 23 56 24 57 26 58 25 59 31 66
REMARK H PARENT 9 7 11 8 30 9 32 10 7 15 36 21 3 27 4 28 1 30 1 31 1 32 39 34
REMARK H PARENT 39 35 12 37 12 38 15 44 29 46 16 48 18 53 24 60 24 61 26 62
REMARK H PARENT 26 63 25 64 25 65 31 67
REMARK Flexibility Score: inf
ROOT
ATOM      1  C   UNL     1     -48.155  35.948  27.903  1.00  0.00     0.169 C 
ATOM      2  O   UNL     1     -47.231  35.800  29.014  1.00  0.00    -0.345 OA
ATOM      3  C   UNL     1     -45.987  35.275  28.499  1.00  0.00     0.123 C 
ATOM      4  C   UNL     1     -46.333  34.642  27.152  1.00  0.00     0.119 C 
ATOM      5  C   UNL     1     -47.403  35.573  26.627  1.00  0.00     0.173 C 
ATOM      6  F   UNL     1     -46.781  36.652  26.074  1.00  0.00    -0.239 F 
ATOM      7  H   UNL     1     -48.979  35.251  28.097  1.00  0.00     0.088 H 
ATOM      8  H   UNL     1     -45.630  34.534  29.222  1.00  0.00     0.067 H 
ATOM      9  H   UNL     1     -45.470  34.565  26.485  1.00  0.00     0.066 H 
ATOM     10  H   UNL     1     -48.056  35.126  25.870  1.00  0.00     0.074 H 
ENDROOT
BRANCH   1  11
ATOM     11  N   UNL     1     -48.718  37.289  27.905  1.00  0.00    -0.302 N 
ATOM     12  C   UNL     1     -48.971  39.500  27.726  1.00  0.00     0.033 A 
ATOM     13  C   UNL     1     -48.074  38.458  27.584  1.00  0.00     0.019 A 
ATOM     14  C   UNL     1     -50.207  38.944  28.186  1.00  0.00     0.071 A 
ATOM     15  H   UNL     1     -47.037  38.455  27.276  1.00  0.00     0.083 H 
ATOM     16  C   UNL     1     -50.008  37.570  28.282  1.00  0.00     0.148 A 
ATOM     17  C   UNL     1     -51.482  39.408  28.551  1.00  0.00     0.137 A 
ATOM     18  N   UNL     1     -50.908  36.651  28.672  1.00  0.00    -0.218 NA
ATOM     19  N   UNL     1     -52.424  38.516  28.920  1.00  0.00    -0.219 NA
ATOM     20  C   UNL     1     -52.090  37.215  28.967  1.00  0.00     0.120 A 
ATOM     21  H   UNL     1     -52.877  36.537  29.284  1.00  0.00     0.106 H 
BRANCH  12  22
ATOM     22  C   UNL     1     -48.696  40.916  27.465  1.00  0.00     0.095 A 
ATOM     23  N   UNL     1     -48.743  43.028  27.568  1.00  0.00    -0.275 N 
ATOM     24  C   UNL     1     -47.812  42.757  26.612  1.00  0.00     0.025 A 
ATOM     25  N   UNL     1     -49.311  41.928  28.098  1.00  0.00    -0.173 NA
ATOM     26  C   UNL     1     -47.766  41.387  26.512  1.00  0.00    -0.016 A 
ATOM     27  H   UNL     1     -47.260  43.534  26.102  1.00  0.00     0.084 H 
ATOM     28  H   UNL     1     -47.129  40.812  25.854  1.00  0.00     0.066 H 
BRANCH  23  29
ATOM     29  C   UNL     1     -49.143  44.331  28.042  1.00  0.00     0.030 C 
ATOM     30  H   UNL     1     -49.052  45.041  27.217  1.00  0.00     0.048 H 
ATOM     31  H   UNL     1     -50.180  44.289  28.387  1.00  0.00     0.048 H 
ATOM     32  H   UNL     1     -48.488  44.614  28.869  1.00  0.00     0.048 H 
ENDBRANCH  23  29
ENDBRANCH  12  22
BRANCH  17  33
ATOM     33  N   UNL     1     -51.851  40.746  28.556  1.00  0.00    -0.383 N 
ATOM     34  H   UNL     1     -52.647  40.933  27.940  1.00  0.00     0.158 HD
ATOM     35  H   UNL     1     -51.896  41.118  29.494  1.00  0.00     0.158 HD
ENDBRANCH  17  33
ENDBRANCH   1  11
BRANCH   3  36
ATOM     36  C   UNL     1     -44.973  36.425  28.373  1.00  0.00     0.117 C 
ATOM     37  H   UNL     1     -44.014  36.134  28.814  1.00  0.00     0.073 H 
ATOM     38  H   UNL     1     -44.827  36.685  27.318  1.00  0.00     0.073 H 
BRANCH  36  39
ATOM     39  O   UNL     1     -45.473  37.556  29.107  1.00  0.00    -0.491 OA
BRANCH  39  40
ATOM     40  C   UNL     1     -44.589  38.600  29.147  1.00  0.00     0.121 A 
ATOM     41  C   UNL     1     -43.459  38.605  29.961  1.00  0.00    -0.019 A 
ATOM     42  C   UNL     1     -44.884  39.703  28.343  1.00  0.00     0.007 A 
ATOM     43  C   UNL     1     -42.598  39.698  29.923  1.00  0.00    -0.048 A 
ATOM     44  H   UNL     1     -43.241  37.771  30.622  1.00  0.00     0.066 H 
ATOM     45  C   UNL     1     -44.034  40.798  28.279  1.00  0.00     0.078 A 
ATOM     46  H   UNL     1     -45.781  39.692  27.730  1.00  0.00     0.069 H 
ATOM     47  C   UNL     1     -42.883  40.784  29.074  1.00  0.00     0.019 A 
ATOM     48  H   UNL     1     -41.708  39.699  30.548  1.00  0.00     0.063 H 
ATOM     49  N   UNL     1     -44.326  41.816  27.462  1.00  0.00    -0.224 NA
ATOM     50  C   UNL     1     -42.064  41.897  28.957  1.00  0.00     0.039 A 
ATOM     51  C   UNL     1     -43.452  42.845  27.416  1.00  0.00     0.219 A 
ATOM     52  N   UNL     1     -42.318  42.936  28.140  1.00  0.00    -0.232 NA
ATOM     53  H   UNL     1     -41.147  41.986  29.534  1.00  0.00     0.085 H 
BRANCH  51  54
ATOM     54  C   UNL     1     -43.787  43.966  26.456  1.00  0.00     0.291 C 
ATOM     55  O   UNL     1     -44.190  45.054  26.872  1.00  0.00    -0.265 OA
ATOM     56  N   UNL     1     -43.638  43.744  25.096  1.00  0.00    -0.336 N 
ATOM     57  C   UNL     1     -43.700  42.515  24.321  1.00  0.00     0.023 C 
ATOM     58  C   UNL     1     -44.229  44.558  24.042  1.00  0.00     0.023 C 
ATOM     59  C   UNL     1     -43.902  43.404  23.091  1.00  0.00    -0.018 C 
ATOM     60  H   UNL     1     -42.774  41.936  24.307  1.00  0.00     0.049 H 
ATOM     61  H   UNL     1     -44.554  41.882  24.581  1.00  0.00     0.049 H 
ATOM     62  H   UNL     1     -43.693  45.490  23.850  1.00  0.00     0.049 H 
ATOM     63  H   UNL     1     -45.296  44.750  24.195  1.00  0.00     0.049 H 
ATOM     64  H   UNL     1     -42.993  43.560  22.500  1.00  0.00     0.030 H 
ATOM     65  H   UNL     1     -44.715  43.104  22.423  1.00  0.00     0.030 H 
ENDBRANCH  51  54
ENDBRANCH  39  40
ENDBRANCH  36  39
ENDBRANCH   3  36
BRANCH   4  66
ATOM     66  O   UNL     1     -46.887  33.333  27.318  1.00  0.00    -0.387 OA
ATOM     67  H   UNL     1     -47.826  33.429  27.560  1.00  0.00     0.211 HD
ENDBRANCH   4  66
TORSDOF 9
ENDMDL
MODEL 6
REMARK VINA RESULT:      -8.9      3.257     11.307
REMARK SMILES Cn1ccc(-c2cn([C@@H]3O[C@H](COc4ccc5cnc(C(=O)N6CCC6)nc5c4)[C@@H](O)[C@@H]3F)c3ncnc(N)c23)n1
REMARK SMILES IDX 9 1 10 2 11 3 30 4 32 5 33 6 8 11 6 12 7 13 40 14 34 16
REMARK SMILES IDX 38 17 35 18 37 19 36 20 5 22 2 23 3 24 41 25 4 26 1 29 39 33
REMARK SMILES IDX 12 36 13 39 14 40 15 41 29 42 16 43 28 45 17 47 27 49 18 50
REMARK SMILES IDX 20 51 19 52 21 54 22 55 23 56 24 57 26 58 25 59 31 66
REMARK H PARENT 9 7 11 8 30 9 32 10 7 15 36 21 3 27 4 28 1 30 1 31 1 32 39 34
REMARK H PARENT 39 35 12 37 12 38 15 44 29 46 16 48 18 53 24 60 24 61 26 62
REMARK H PARENT 26 63 25 64 25 65 31 67
REMARK Flexibility Score: inf
ROOT
ATOM      1  C   UNL     1     -46.859  36.939  29.081  1.00  0.00     0.169 C 
ATOM      2  O   UNL     1     -47.223  38.292  28.697  1.00  0.00    -0.345 OA
ATOM      3  C   UNL     1     -46.010  39.066  28.571  1.00  0.00     0.123 C 
ATOM      4  C   UNL     1     -44.950  38.304  29.363  1.00  0.00     0.119 C 
ATOM      5  C   UNL     1     -45.333  36.863  29.108  1.00  0.00     0.173 C 
ATOM      6  F   UNL     1     -44.827  36.508  27.893  1.00  0.00    -0.239 F 
ATOM      7  H   UNL     1     -47.281  36.783  30.081  1.00  0.00     0.088 H 
ATOM      8  H   UNL     1     -46.215  40.053  29.000  1.00  0.00     0.067 H 
ATOM      9  H   UNL     1     -43.930  38.537  29.043  1.00  0.00     0.066 H 
ATOM     10  H   UNL     1     -44.960  36.159  29.857  1.00  0.00     0.074 H 
ENDROOT
BRANCH   1  11
ATOM     11  N   UNL     1     -47.500  35.984  28.191  1.00  0.00    -0.302 N 
ATOM     12  C   UNL     1     -47.863  34.319  26.749  1.00  0.00     0.033 A 
ATOM     13  C   UNL     1     -46.891  34.990  27.467  1.00  0.00     0.019 A 
ATOM     14  C   UNL     1     -49.116  34.954  27.023  1.00  0.00     0.071 A 
ATOM     15  H   UNL     1     -45.822  34.834  27.525  1.00  0.00     0.083 H 
ATOM     16  C   UNL     1     -48.847  35.981  27.924  1.00  0.00     0.148 A 
ATOM     17  C   UNL     1     -50.458  34.819  26.627  1.00  0.00     0.137 A 
ATOM     18  N   UNL     1     -49.735  36.838  28.458  1.00  0.00    -0.218 NA
ATOM     19  N   UNL     1     -51.386  35.639  27.163  1.00  0.00    -0.219 NA
ATOM     20  C   UNL     1     -50.980  36.588  28.024  1.00  0.00     0.120 A 
ATOM     21  H   UNL     1     -51.760  37.233  28.416  1.00  0.00     0.106 H 
BRANCH  12  22
ATOM     22  C   UNL     1     -47.644  33.174  25.859  1.00  0.00     0.095 A 
ATOM     23  N   UNL     1     -47.887  31.327  24.857  1.00  0.00    -0.275 N 
ATOM     24  C   UNL     1     -46.754  31.857  24.319  1.00  0.00     0.025 A 
ATOM     25  N   UNL     1     -48.445  32.099  25.809  1.00  0.00    -0.173 NA
ATOM     26  C   UNL     1     -46.560  33.058  24.960  1.00  0.00    -0.016 A 
ATOM     27  H   UNL     1     -46.197  31.363  23.536  1.00  0.00     0.084 H 
ATOM     28  H   UNL     1     -45.757  33.759  24.781  1.00  0.00     0.066 H 
BRANCH  23  29
ATOM     29  C   UNL     1     -48.510  30.075  24.504  1.00  0.00     0.030 C 
ATOM     30  H   UNL     1     -47.833  29.263  24.778  1.00  0.00     0.048 H 
ATOM     31  H   UNL     1     -49.455  29.974  25.044  1.00  0.00     0.048 H 
ATOM     32  H   UNL     1     -48.696  30.075  23.427  1.00  0.00     0.048 H 
ENDBRANCH  23  29
ENDBRANCH  12  22
BRANCH  17  33
ATOM     33  N   UNL     1     -50.907  33.880  25.710  1.00  0.00    -0.383 N 
ATOM     34  H   UNL     1     -51.251  34.312  24.847  1.00  0.00     0.158 HD
ATOM     35  H   UNL     1     -50.259  33.111  25.614  1.00  0.00     0.158 HD
ENDBRANCH  17  33
ENDBRANCH   1  11
BRANCH   3  36
ATOM     36  C   UNL     1     -45.655  39.201  27.080  1.00  0.00     0.117 C 
ATOM     37  H   UNL     1     -45.896  38.273  26.549  1.00  0.00     0.073 H 
ATOM     38  H   UNL     1     -46.212  40.033  26.634  1.00  0.00     0.073 H 
BRANCH  36  39
ATOM     39  O   UNL     1     -44.239  39.422  26.965  1.00  0.00    -0.491 OA
BRANCH  39  40
ATOM     40  C   UNL     1     -43.920  40.726  26.703  1.00  0.00     0.121 A 
ATOM     41  C   UNL     1     -43.200  41.523  27.588  1.00  0.00    -0.019 A 
ATOM     42  C   UNL     1     -44.381  41.253  25.495  1.00  0.00     0.007 A 
ATOM     43  C   UNL     1     -42.897  42.834  27.232  1.00  0.00    -0.048 A 
ATOM     44  H   UNL     1     -42.872  41.137  28.549  1.00  0.00     0.066 H 
ATOM     45  C   UNL     1     -44.081  42.553  25.112  1.00  0.00     0.078 A 
ATOM     46  H   UNL     1     -44.961  40.624  24.824  1.00  0.00     0.069 H 
ATOM     47  C   UNL     1     -43.329  43.340  25.991  1.00  0.00     0.019 A 
ATOM     48  H   UNL     1     -42.323  43.456  27.916  1.00  0.00     0.063 H 
ATOM     49  N   UNL     1     -44.501  43.008  23.927  1.00  0.00    -0.224 NA
ATOM     50  C   UNL     1     -43.048  44.624  25.550  1.00  0.00     0.039 A 
ATOM     51  C   UNL     1     -44.160  44.271  23.590  1.00  0.00     0.219 A 
ATOM     52  N   UNL     1     -43.443  45.114  24.360  1.00  0.00    -0.232 NA
ATOM     53  H   UNL     1     -42.472  45.317  26.159  1.00  0.00     0.085 H 
BRANCH  51  54
ATOM     54  C   UNL     1     -44.615  44.747  22.228  1.00  0.00     0.291 C 
ATOM     55  O   UNL     1     -43.803  44.920  21.317  1.00  0.00    -0.265 OA
ATOM     56  N   UNL     1     -45.964  44.993  22.026  1.00  0.00    -0.336 N 
ATOM     57  C   UNL     1     -47.010  45.377  22.960  1.00  0.00     0.023 C 
ATOM     58  C   UNL     1     -46.521  45.770  20.925  1.00  0.00     0.023 C 
ATOM     59  C   UNL     1     -47.817  45.822  21.736  1.00  0.00    -0.018 C 
ATOM     60  H   UNL     1     -47.456  44.547  23.512  1.00  0.00     0.049 H 
ATOM     61  H   UNL     1     -46.712  46.184  23.637  1.00  0.00     0.049 H 
ATOM     62  H   UNL     1     -46.579  45.221  19.983  1.00  0.00     0.049 H 
ATOM     63  H   UNL     1     -46.019  46.732  20.783  1.00  0.00     0.049 H 
ATOM     64  H   UNL     1     -48.572  45.096  21.414  1.00  0.00     0.030 H 
ATOM     65  H   UNL     1     -48.282  46.809  21.814  1.00  0.00     0.030 H 
ENDBRANCH  51  54
ENDBRANCH  39  40
ENDBRANCH  36  39
ENDBRANCH   3  36
BRANCH   4  66
ATOM     66  O   UNL     1     -45.050  38.577  30.765  1.00  0.00    -0.387 OA
ATOM     67  H   UNL     1     -45.382  37.774  31.207  1.00  0.00     0.211 HD
ENDBRANCH   4  66
TORSDOF 9
ENDMDL
MODEL 7
REMARK VINA RESULT:      -8.9      4.155      7.618
REMARK SMILES Cn1ccc(-c2cn([C@@H]3O[C@H](COc4ccc5cnc(C(=O)N6CCC6)nc5c4)[C@@H](O)[C@@H]3F)c3ncnc(N)c23)n1
REMARK SMILES IDX 9 1 10 2 11 3 30 4 32 5 33 6 8 11 6 12 7 13 40 14 34 16
REMARK SMILES IDX 38 17 35 18 37 19 36 20 5 22 2 23 3 24 41 25 4 26 1 29 39 33
REMARK SMILES IDX 12 36 13 39 14 40 15 41 29 42 16 43 28 45 17 47 27 49 18 50
REMARK SMILES IDX 20 51 19 52 21 54 22 55 23 56 24 57 26 58 25 59 31 66
REMARK H PARENT 9 7 11 8 30 9 32 10 7 15 36 21 3 27 4 28 1 30 1 31 1 32 39 34
REMARK H PARENT 39 35 12 37 12 38 15 44 29 46 16 48 18 53 24 60 24 61 26 62
REMARK H PARENT 26 63 25 64 25 65 31 67
REMARK Flexibility Score: inf
ROOT
ATOM      1  C   UNL     1     -45.693  44.353  25.577  1.00  0.00     0.169 C 
ATOM      2  O   UNL     1     -45.239  43.169  24.870  1.00  0.00    -0.345 OA
ATOM      3  C   UNL     1     -43.885  42.885  25.288  1.00  0.00     0.123 C 
ATOM      4  C   UNL     1     -43.355  44.191  25.878  1.00  0.00     0.119 C 
ATOM      5  C   UNL     1     -44.585  44.765  26.544  1.00  0.00     0.173 C 
ATOM      6  F   UNL     1     -44.724  44.156  27.756  1.00  0.00    -0.239 F 
ATOM      7  H   UNL     1     -45.856  45.121  24.811  1.00  0.00     0.088 H 
ATOM      8  H   UNL     1     -43.332  42.582  24.393  1.00  0.00     0.067 H 
ATOM      9  H   UNL     1     -42.525  44.036  26.574  1.00  0.00     0.066 H 
ATOM     10  H   UNL     1     -44.547  45.846  26.705  1.00  0.00     0.074 H 
ENDROOT
BRANCH   1  11
ATOM     11  N   UNL     1     -46.980  44.091  26.202  1.00  0.00    -0.302 N 
ATOM     12  C   UNL     1     -48.866  43.104  26.875  1.00  0.00     0.033 A 
ATOM     13  C   UNL     1     -47.699  42.922  26.158  1.00  0.00     0.019 A 
ATOM     14  C   UNL     1     -48.874  44.454  27.349  1.00  0.00     0.071 A 
ATOM     15  H   UNL     1     -47.321  42.057  25.630  1.00  0.00     0.083 H 
ATOM     16  C   UNL     1     -47.686  45.031  26.911  1.00  0.00     0.148 A 
ATOM     17  C   UNL     1     -49.730  45.292  28.086  1.00  0.00     0.137 A 
ATOM     18  N   UNL     1     -47.273  46.292  27.131  1.00  0.00    -0.218 NA
ATOM     19  N   UNL     1     -49.340  46.554  28.355  1.00  0.00    -0.219 NA
ATOM     20  C   UNL     1     -48.162  46.978  27.867  1.00  0.00     0.120 A 
ATOM     21  H   UNL     1     -47.898  48.006  28.097  1.00  0.00     0.106 H 
BRANCH  12  22
ATOM     22  C   UNL     1     -49.909  42.097  27.096  1.00  0.00     0.095 A 
ATOM     23  N   UNL     1     -50.975  40.436  27.856  1.00  0.00    -0.275 N 
ATOM     24  C   UNL     1     -51.818  40.988  26.939  1.00  0.00     0.025 A 
ATOM     25  N   UNL     1     -49.798  41.081  27.965  1.00  0.00    -0.173 NA
ATOM     26  C   UNL     1     -51.147  42.068  26.415  1.00  0.00    -0.016 A 
ATOM     27  H   UNL     1     -52.804  40.591  26.744  1.00  0.00     0.084 H 
ATOM     28  H   UNL     1     -51.517  42.749  25.662  1.00  0.00     0.066 H 
BRANCH  23  29
ATOM     29  C   UNL     1     -51.231  39.282  28.683  1.00  0.00     0.030 C 
ATOM     30  H   UNL     1     -51.530  39.629  29.675  1.00  0.00     0.048 H 
ATOM     31  H   UNL     1     -52.033  38.686  28.238  1.00  0.00     0.048 H 
ATOM     32  H   UNL     1     -50.315  38.690  28.741  1.00  0.00     0.048 H 
ENDBRANCH  23  29
ENDBRANCH  12  22
BRANCH  17  33
ATOM     33  N   UNL     1     -50.971  44.903  28.569  1.00  0.00    -0.383 N 
ATOM     34  H   UNL     1     -51.616  44.638  27.819  1.00  0.00     0.158 HD
ATOM     35  H   UNL     1     -50.886  44.267  29.350  1.00  0.00     0.158 HD
ENDBRANCH  17  33
ENDBRANCH   1  11
BRANCH   3  36
ATOM     36  C   UNL     1     -43.909  41.737  26.311  1.00  0.00     0.117 C 
ATOM     37  H   UNL     1     -43.208  40.949  26.013  1.00  0.00     0.073 H 
ATOM     38  H   UNL     1     -43.637  42.111  27.305  1.00  0.00     0.073 H 
BRANCH  36  39
ATOM     39  O   UNL     1     -45.230  41.169  26.330  1.00  0.00    -0.491 OA
BRANCH  39  40
ATOM     40  C   UNL     1     -45.299  39.998  27.034  1.00  0.00     0.121 A 
ATOM     41  C   UNL     1     -44.620  39.792  28.232  1.00  0.00    -0.019 A 
ATOM     42  C   UNL     1     -46.072  38.977  26.478  1.00  0.00     0.007 A 
ATOM     43  C   UNL     1     -44.764  38.578  28.896  1.00  0.00    -0.048 A 
ATOM     44  H   UNL     1     -43.982  40.564  28.653  1.00  0.00     0.066 H 
ATOM     45  C   UNL     1     -46.242  37.763  27.128  1.00  0.00     0.078 A 
ATOM     46  H   UNL     1     -46.579  39.145  25.530  1.00  0.00     0.069 H 
ATOM     47  C   UNL     1     -45.583  37.573  28.348  1.00  0.00     0.019 A 
ATOM     48  H   UNL     1     -44.245  38.419  29.839  1.00  0.00     0.063 H 
ATOM     49  N   UNL     1     -47.027  36.825  26.587  1.00  0.00    -0.224 NA
ATOM     50  C   UNL     1     -45.801  36.347  28.958  1.00  0.00     0.039 A 
ATOM     51  C   UNL     1     -47.181  35.672  27.273  1.00  0.00     0.219 A 
ATOM     52  N   UNL     1     -46.592  35.383  28.451  1.00  0.00    -0.232 NA
ATOM     53  H   UNL     1     -45.333  36.099  29.908  1.00  0.00     0.085 H 
BRANCH  51  54
ATOM     54  C   UNL     1     -48.104  34.644  26.657  1.00  0.00     0.291 C 
ATOM     55  O   UNL     1     -49.295  34.596  26.973  1.00  0.00    -0.265 OA
ATOM     56  N   UNL     1     -47.585  33.750  25.733  1.00  0.00    -0.336 N 
ATOM     57  C   UNL     1     -46.235  33.235  25.566  1.00  0.00     0.023 C 
ATOM     58  C   UNL     1     -48.221  32.507  25.317  1.00  0.00     0.023 C 
ATOM     59  C   UNL     1     -46.862  32.113  24.733  1.00  0.00    -0.018 C 
ATOM     60  H   UNL     1     -45.563  33.887  25.003  1.00  0.00     0.049 H 
ATOM     61  H   UNL     1     -45.775  32.913  26.505  1.00  0.00     0.049 H 
ATOM     62  H   UNL     1     -49.023  32.644  24.588  1.00  0.00     0.049 H 
ATOM     63  H   UNL     1     -48.563  31.897  26.159  1.00  0.00     0.049 H 
ATOM     64  H   UNL     1     -46.783  32.264  23.651  1.00  0.00     0.030 H 
ATOM     65  H   UNL     1     -46.523  31.101  24.977  1.00  0.00     0.030 H 
ENDBRANCH  51  54
ENDBRANCH  39  40
ENDBRANCH  36  39
ENDBRANCH   3  36
BRANCH   4  66
ATOM     66  O   UNL     1     -42.914  45.085  24.852  1.00  0.00    -0.387 OA
ATOM     67  H   UNL     1     -42.197  44.649  24.356  1.00  0.00     0.211 HD
ENDBRANCH   4  66
TORSDOF 9
ENDMDL
