MODEL 1
REMARK VINA RESULT:      -9.6      0.000      0.000
REMARK SMILES CCNc1ccc2ccc(OC[C@H]3O[C@@H](n4cc(-c5cn(C)cn5)c5c(N)ncnc54)[C@@H](F)[C@@H]3O)cc2n1
REMARK SMILES IDX 12 1 11 4 10 5 4 6 5 7 38 8 6 9 37 11 7 12 36 14 8 15 9 17
REMARK SMILES IDX 3 20 2 22 1 25 13 29 14 30 34 31 15 33 32 34 33 37 35 39
REMARK SMILES IDX 16 41 17 42 31 43 18 44 25 46 30 47 26 48 29 49 28 50 19 52
REMARK SMILES IDX 20 53 24 54 21 55 23 57 22 59 27 63
REMARK H PARENT 12 2 12 3 5 10 6 13 36 16 8 18 9 19 3 21 2 23 2 24 1 26 1 27
REMARK H PARENT 1 28 13 32 34 35 15 36 32 38 35 40 17 45 29 51 20 56 23 58
REMARK H PARENT 22 60 22 61 22 62 27 64 27 65
REMARK Flexibility Score: inf
ROOT
ATOM      1  C   UNL     1     -45.640  35.607  27.168  1.00  0.00     0.117 C 
ATOM      2  H   UNL     1     -45.367  34.586  27.465  1.00  0.00     0.073 H 
ATOM      3  H   UNL     1     -44.764  36.071  26.695  1.00  0.00     0.073 H 
ENDROOT
BRANCH   1   4
ATOM      4  O   UNL     1     -46.742  35.582  26.269  1.00  0.00    -0.491 OA
BRANCH   4   5
ATOM      5  C   UNL     1     -47.251  34.358  25.933  1.00  0.00     0.121 A 
ATOM      6  C   UNL     1     -47.115  30.052  23.926  1.00  0.00     0.126 A 
ATOM      7  C   UNL     1     -48.399  29.749  24.353  1.00  0.00    -0.019 A 
ATOM      8  N   UNL     1     -46.520  31.228  24.205  1.00  0.00    -0.231 NA
ATOM      9  C   UNL     1     -49.108  30.698  25.082  1.00  0.00    -0.049 A 
ATOM     10  H   UNL     1     -48.840  28.780  24.147  1.00  0.00     0.066 H 
ATOM     11  C   UNL     1     -47.199  32.148  24.914  1.00  0.00     0.076 A 
ATOM     12  C   UNL     1     -48.512  31.927  25.375  1.00  0.00     0.001 A 
ATOM     13  H   UNL     1     -50.114  30.468  25.424  1.00  0.00     0.063 H 
ATOM     14  C   UNL     1     -46.591  33.364  25.205  1.00  0.00     0.007 A 
ATOM     15  C   UNL     1     -49.182  32.918  26.108  1.00  0.00    -0.049 A 
ATOM     16  H   UNL     1     -45.577  33.503  24.846  1.00  0.00     0.069 H 
ATOM     17  C   UNL     1     -48.548  34.128  26.383  1.00  0.00    -0.019 A 
ATOM     18  H   UNL     1     -50.195  32.755  26.470  1.00  0.00     0.063 H 
ATOM     19  H   UNL     1     -49.068  34.895  26.952  1.00  0.00     0.066 H 
BRANCH   6  20
ATOM     20  N   UNL     1     -46.338  29.144  23.205  1.00  0.00    -0.370 N 
ATOM     21  H   UNL     1     -46.588  29.335  22.234  1.00  0.00     0.162 HD
BRANCH  20  22
ATOM     22  C   UNL     1     -46.567  27.747  23.554  1.00  0.00     0.013 C 
ATOM     23  H   UNL     1     -47.184  27.255  22.794  1.00  0.00     0.049 H 
ATOM     24  H   UNL     1     -47.079  27.664  24.521  1.00  0.00     0.049 H 
BRANCH  22  25
ATOM     25  C   UNL     1     -45.230  27.029  23.654  1.00  0.00    -0.048 C 
ATOM     26  H   UNL     1     -44.423  27.732  23.889  1.00  0.00     0.025 H 
ATOM     27  H   UNL     1     -44.990  26.537  22.706  1.00  0.00     0.025 H 
ATOM     28  H   UNL     1     -45.250  26.267  24.440  1.00  0.00     0.025 H 
ENDBRANCH  22  25
ENDBRANCH  20  22
ENDBRANCH   6  20
ENDBRANCH   4   5
ENDBRANCH   1   4
BRANCH   1  29
ATOM     29  C   UNL     1     -46.009  36.398  28.426  1.00  0.00     0.123 C 
ATOM     30  O   UNL     1     -44.880  37.194  28.842  1.00  0.00    -0.345 OA
ATOM     31  C   UNL     1     -47.167  37.369  28.224  1.00  0.00     0.119 C 
ATOM     32  H   UNL     1     -46.249  35.693  29.233  1.00  0.00     0.067 H 
ATOM     33  C   UNL     1     -45.383  38.450  29.363  1.00  0.00     0.169 C 
ATOM     34  C   UNL     1     -46.904  38.382  29.317  1.00  0.00     0.173 C 
ATOM     35  H   UNL     1     -47.132  37.846  27.238  1.00  0.00     0.066 H 
ATOM     36  H   UNL     1     -45.017  38.546  30.391  1.00  0.00     0.088 H 
ATOM     37  F   UNL     1     -47.502  39.554  29.001  1.00  0.00    -0.239 F 
ATOM     38  H   UNL     1     -47.314  38.040  30.274  1.00  0.00     0.074 H 
BRANCH  31  39
ATOM     39  O   UNL     1     -48.439  36.754  28.384  1.00  0.00    -0.387 OA
ATOM     40  H   UNL     1     -48.495  36.449  29.309  1.00  0.00     0.211 HD
ENDBRANCH  31  39
BRANCH  33  41
ATOM     41  N   UNL     1     -44.814  39.547  28.592  1.00  0.00    -0.302 N 
ATOM     42  C   UNL     1     -45.343  40.138  27.473  1.00  0.00     0.019 A 
ATOM     43  C   UNL     1     -43.623  40.153  28.909  1.00  0.00     0.148 A 
ATOM     44  C   UNL     1     -44.478  41.139  27.068  1.00  0.00     0.033 A 
ATOM     45  H   UNL     1     -46.269  39.791  27.037  1.00  0.00     0.083 H 
ATOM     46  C   UNL     1     -43.390  41.175  27.994  1.00  0.00     0.071 A 
ATOM     47  N   UNL     1     -42.838  39.801  29.943  1.00  0.00    -0.218 NA
ATOM     48  C   UNL     1     -42.221  41.928  28.199  1.00  0.00     0.137 A 
ATOM     49  C   UNL     1     -41.744  40.576  30.015  1.00  0.00     0.120 A 
ATOM     50  N   UNL     1     -41.394  41.595  29.213  1.00  0.00    -0.219 NA
ATOM     51  H   UNL     1     -41.055  40.353  30.823  1.00  0.00     0.106 H 
BRANCH  44  52
ATOM     52  C   UNL     1     -44.653  41.985  25.890  1.00  0.00     0.091 A 
ATOM     53  C   UNL     1     -45.639  42.921  25.658  1.00  0.00     0.031 A 
ATOM     54  N   UNL     1     -43.811  41.895  24.804  1.00  0.00    -0.237 NA
ATOM     55  N   UNL     1     -45.371  43.414  24.414  1.00  0.00    -0.340 N 
ATOM     56  H   UNL     1     -46.471  43.260  26.258  1.00  0.00     0.084 H 
ATOM     57  C   UNL     1     -44.268  42.771  23.936  1.00  0.00     0.095 A 
ATOM     58  H   UNL     1     -43.842  42.975  22.962  1.00  0.00     0.104 H 
BRANCH  55  59
ATOM     59  C   UNL     1     -46.115  44.430  23.715  1.00  0.00     0.012 C 
ATOM     60  H   UNL     1     -45.880  45.401  24.158  1.00  0.00     0.046 H 
ATOM     61  H   UNL     1     -45.835  44.427  22.658  1.00  0.00     0.046 H 
ATOM     62  H   UNL     1     -47.181  44.210  23.819  1.00  0.00     0.046 H 
ENDBRANCH  55  59
ENDBRANCH  44  52
BRANCH  48  63
ATOM     63  N   UNL     1     -41.846  43.014  27.420  1.00  0.00    -0.383 N 
ATOM     64  H   UNL     1     -40.921  42.895  27.032  1.00  0.00     0.158 HD
ATOM     65  H   UNL     1     -42.584  43.310  26.776  1.00  0.00     0.158 HD
ENDBRANCH  48  63
ENDBRANCH  33  41
ENDBRANCH   1  29
TORSDOF 11
ENDMDL
MODEL 2
REMARK VINA RESULT:      -9.4      1.308      1.992
REMARK SMILES CCNc1ccc2ccc(OC[C@H]3O[C@@H](n4cc(-c5cn(C)cn5)c5c(N)ncnc54)[C@@H](F)[C@@H]3O)cc2n1
REMARK SMILES IDX 12 1 11 4 10 5 4 6 5 7 38 8 6 9 37 11 7 12 36 14 8 15 9 17
REMARK SMILES IDX 3 20 2 22 1 25 13 29 14 30 34 31 15 33 32 34 33 37 35 39
REMARK SMILES IDX 16 41 17 42 31 43 18 44 25 46 30 47 26 48 29 49 28 50 19 52
REMARK SMILES IDX 20 53 24 54 21 55 23 57 22 59 27 63
REMARK H PARENT 12 2 12 3 5 10 6 13 36 16 8 18 9 19 3 21 2 23 2 24 1 26 1 27
REMARK H PARENT 1 28 13 32 34 35 15 36 32 38 35 40 17 45 29 51 20 56 23 58
REMARK H PARENT 22 60 22 61 22 62 27 64 27 65
REMARK Flexibility Score: inf
ROOT
ATOM      1  C   UNL     1     -46.595  35.914  26.440  1.00  0.00     0.117 C 
ATOM      2  H   UNL     1     -45.732  35.371  26.032  1.00  0.00     0.073 H 
ATOM      3  H   UNL     1     -46.717  36.842  25.866  1.00  0.00     0.073 H 
ENDROOT
BRANCH   1   4
ATOM      4  O   UNL     1     -47.768  35.112  26.353  1.00  0.00    -0.491 OA
BRANCH   4   5
ATOM      5  C   UNL     1     -47.654  33.897  25.736  1.00  0.00     0.121 A 
ATOM      6  C   UNL     1     -49.242  29.682  24.220  1.00  0.00     0.126 A 
ATOM      7  C   UNL     1     -48.015  29.355  23.662  1.00  0.00    -0.019 A 
ATOM      8  N   UNL     1     -49.461  30.854  24.847  1.00  0.00    -0.231 NA
ATOM      9  C   UNL     1     -46.964  30.260  23.769  1.00  0.00    -0.049 A 
ATOM     10  H   UNL     1     -47.877  28.421  23.129  1.00  0.00     0.066 H 
ATOM     11  C   UNL     1     -48.450  31.736  24.949  1.00  0.00     0.076 A 
ATOM     12  C   UNL     1     -47.168  31.478  24.423  1.00  0.00     0.001 A 
ATOM     13  H   UNL     1     -46.000  30.014  23.332  1.00  0.00     0.063 H 
ATOM     14  C   UNL     1     -48.669  32.947  25.596  1.00  0.00     0.007 A 
ATOM     15  C   UNL     1     -46.144  32.426  24.557  1.00  0.00    -0.049 A 
ATOM     16  H   UNL     1     -49.667  33.122  25.983  1.00  0.00     0.069 H 
ATOM     17  C   UNL     1     -46.391  33.630  25.212  1.00  0.00    -0.019 A 
ATOM     18  H   UNL     1     -45.152  32.236  24.152  1.00  0.00     0.063 H 
ATOM     19  H   UNL     1     -45.597  34.365  25.314  1.00  0.00     0.066 H 
BRANCH   6  20
ATOM     20  N   UNL     1     -50.346  28.832  24.138  1.00  0.00    -0.370 N 
ATOM     21  H   UNL     1     -50.019  28.073  23.539  1.00  0.00     0.162 HD
BRANCH  20  22
ATOM     22  C   UNL     1     -51.549  29.458  23.603  1.00  0.00     0.013 C 
ATOM     23  H   UNL     1     -51.620  30.502  23.931  1.00  0.00     0.049 H 
ATOM     24  H   UNL     1     -52.449  28.929  23.940  1.00  0.00     0.049 H 
BRANCH  22  25
ATOM     25  C   UNL     1     -51.504  29.415  22.083  1.00  0.00    -0.048 C 
ATOM     26  H   UNL     1     -52.330  29.989  21.649  1.00  0.00     0.025 H 
ATOM     27  H   UNL     1     -51.581  28.383  21.729  1.00  0.00     0.025 H 
ATOM     28  H   UNL     1     -50.567  29.838  21.706  1.00  0.00     0.025 H 
ENDBRANCH  22  25
ENDBRANCH  20  22
ENDBRANCH   6  20
ENDBRANCH   4   5
ENDBRANCH   1   4
BRANCH   1  29
ATOM     29  C   UNL     1     -46.306  36.261  27.902  1.00  0.00     0.123 C 
ATOM     30  O   UNL     1     -44.987  36.836  28.007  1.00  0.00    -0.345 OA
ATOM     31  C   UNL     1     -47.268  37.285  28.493  1.00  0.00     0.119 C 
ATOM     32  H   UNL     1     -46.328  35.340  28.499  1.00  0.00     0.067 H 
ATOM     33  C   UNL     1     -45.027  37.870  29.023  1.00  0.00     0.169 C 
ATOM     34  C   UNL     1     -46.433  37.874  29.609  1.00  0.00     0.173 C 
ATOM     35  H   UNL     1     -47.541  38.058  27.764  1.00  0.00     0.066 H 
ATOM     36  H   UNL     1     -44.279  37.610  29.781  1.00  0.00     0.088 H 
ATOM     37  F   UNL     1     -46.900  39.106  29.921  1.00  0.00    -0.239 F 
ATOM     38  H   UNL     1     -46.490  37.252  30.509  1.00  0.00     0.074 H 
BRANCH  31  39
ATOM     39  O   UNL     1     -48.462  36.697  28.995  1.00  0.00    -0.387 OA
ATOM     40  H   UNL     1     -48.500  36.897  29.950  1.00  0.00     0.211 HD
ENDBRANCH  31  39
BRANCH  33  41
ATOM     41  N   UNL     1     -44.626  39.138  28.430  1.00  0.00    -0.302 N 
ATOM     42  C   UNL     1     -45.187  39.760  27.343  1.00  0.00     0.019 A 
ATOM     43  C   UNL     1     -43.590  39.901  28.909  1.00  0.00     0.148 A 
ATOM     44  C   UNL     1     -44.500  40.941  27.125  1.00  0.00     0.033 A 
ATOM     45  H   UNL     1     -46.004  39.311  26.796  1.00  0.00     0.083 H 
ATOM     46  C   UNL     1     -43.496  41.054  28.136  1.00  0.00     0.071 A 
ATOM     47  N   UNL     1     -42.818  39.568  29.958  1.00  0.00    -0.218 NA
ATOM     48  C   UNL     1     -42.502  41.972  28.519  1.00  0.00     0.137 A 
ATOM     49  C   UNL     1     -41.894  40.509  30.206  1.00  0.00     0.120 A 
ATOM     50  N   UNL     1     -41.691  41.666  29.555  1.00  0.00    -0.219 NA
ATOM     51  H   UNL     1     -41.225  40.314  31.039  1.00  0.00     0.106 H 
BRANCH  44  52
ATOM     52  C   UNL     1     -44.758  41.883  26.039  1.00  0.00     0.091 A 
ATOM     53  C   UNL     1     -45.750  42.837  25.962  1.00  0.00     0.031 A 
ATOM     54  N   UNL     1     -44.003  41.882  24.887  1.00  0.00    -0.237 NA
ATOM     55  N   UNL     1     -45.575  43.432  24.746  1.00  0.00    -0.340 N 
ATOM     56  H   UNL     1     -46.531  43.127  26.650  1.00  0.00     0.084 H 
ATOM     57  C   UNL     1     -44.517  42.828  24.133  1.00  0.00     0.095 A 
ATOM     58  H   UNL     1     -44.166  43.111  23.149  1.00  0.00     0.104 H 
BRANCH  55  59
ATOM     59  C   UNL     1     -46.361  44.504  24.193  1.00  0.00     0.012 C 
ATOM     60  H   UNL     1     -45.843  44.897  23.315  1.00  0.00     0.046 H 
ATOM     61  H   UNL     1     -47.345  44.126  23.904  1.00  0.00     0.046 H 
ATOM     62  H   UNL     1     -46.469  45.282  24.954  1.00  0.00     0.046 H 
ENDBRANCH  55  59
ENDBRANCH  44  52
BRANCH  48  63
ATOM     63  N   UNL     1     -42.289  43.195  27.900  1.00  0.00    -0.383 N 
ATOM     64  H   UNL     1     -41.597  43.746  28.387  1.00  0.00     0.158 HD
ATOM     65  H   UNL     1     -42.184  43.110  26.886  1.00  0.00     0.158 HD
ENDBRANCH  48  63
ENDBRANCH  33  41
ENDBRANCH   1  29
TORSDOF 11
ENDMDL
MODEL 3
REMARK VINA RESULT:      -9.2      1.882      2.583
REMARK SMILES CCNc1ccc2ccc(OC[C@H]3O[C@@H](n4cc(-c5cn(C)cn5)c5c(N)ncnc54)[C@@H](F)[C@@H]3O)cc2n1
REMARK SMILES IDX 12 1 11 4 10 5 4 6 5 7 38 8 6 9 37 11 7 12 36 14 8 15 9 17
REMARK SMILES IDX 3 20 2 22 1 25 13 29 14 30 34 31 15 33 32 34 33 37 35 39
REMARK SMILES IDX 16 41 17 42 31 43 18 44 25 46 30 47 26 48 29 49 28 50 19 52
REMARK SMILES IDX 20 53 24 54 21 55 23 57 22 59 27 63
REMARK H PARENT 12 2 12 3 5 10 6 13 36 16 8 18 9 19 3 21 2 23 2 24 1 26 1 27
REMARK H PARENT 1 28 13 32 34 35 15 36 32 38 35 40 17 45 29 51 20 56 23 58
REMARK H PARENT 22 60 22 61 22 62 27 64 27 65
REMARK Flexibility Score: inf
ROOT
ATOM      1  C   UNL     1     -46.026  34.235  26.594  1.00  0.00     0.117 C 
ATOM      2  H   UNL     1     -45.675  33.252  26.934  1.00  0.00     0.073 H 
ATOM      3  H   UNL     1     -45.147  34.864  26.402  1.00  0.00     0.073 H 
ENDROOT
BRANCH   1   4
ATOM      4  O   UNL     1     -46.812  34.097  25.415  1.00  0.00    -0.491 OA
BRANCH   4   5
ATOM      5  C   UNL     1     -46.982  32.834  24.918  1.00  0.00     0.121 A 
ATOM      6  C   UNL     1     -48.960  28.517  24.740  1.00  0.00     0.126 A 
ATOM      7  C   UNL     1     -48.175  28.138  23.661  1.00  0.00    -0.019 A 
ATOM      8  N   UNL     1     -48.874  29.737  25.302  1.00  0.00    -0.231 NA
ATOM      9  C   UNL     1     -47.251  29.043  23.150  1.00  0.00    -0.049 A 
ATOM     10  H   UNL     1     -48.292  27.162  23.203  1.00  0.00     0.066 H 
ATOM     11  C   UNL     1     -47.985  30.620  24.809  1.00  0.00     0.076 A 
ATOM     12  C   UNL     1     -47.140  30.312  23.725  1.00  0.00     0.001 A 
ATOM     13  H   UNL     1     -46.634  28.757  22.303  1.00  0.00     0.063 H 
ATOM     14  C   UNL     1     -47.890  31.881  25.386  1.00  0.00     0.007 A 
ATOM     15  C   UNL     1     -46.227  31.263  23.246  1.00  0.00    -0.049 A 
ATOM     16  H   UNL     1     -48.559  32.093  26.213  1.00  0.00     0.069 H 
ATOM     17  C   UNL     1     -46.152  32.518  23.845  1.00  0.00    -0.019 A 
ATOM     18  H   UNL     1     -45.572  31.034  22.408  1.00  0.00     0.063 H 
ATOM     19  H   UNL     1     -45.444  33.255  23.473  1.00  0.00     0.066 H 
BRANCH   6  20
ATOM     20  N   UNL     1     -49.919  27.668  25.296  1.00  0.00    -0.370 N 
ATOM     21  H   UNL     1     -50.683  28.299  25.540  1.00  0.00     0.162 HD
BRANCH  20  22
ATOM     22  C   UNL     1     -49.454  26.913  26.454  1.00  0.00     0.013 C 
ATOM     23  H   UNL     1     -50.193  26.952  27.262  1.00  0.00     0.049 H 
ATOM     24  H   UNL     1     -48.508  27.318  26.831  1.00  0.00     0.049 H 
BRANCH  22  25
ATOM     25  C   UNL     1     -49.233  25.463  26.051  1.00  0.00    -0.048 C 
ATOM     26  H   UNL     1     -50.168  24.894  26.098  1.00  0.00     0.025 H 
ATOM     27  H   UNL     1     -48.509  24.987  26.720  1.00  0.00     0.025 H 
ATOM     28  H   UNL     1     -48.849  25.394  25.027  1.00  0.00     0.025 H 
ENDBRANCH  22  25
ENDBRANCH  20  22
ENDBRANCH   6  20
ENDBRANCH   4   5
ENDBRANCH   1   4
BRANCH   1  29
ATOM     29  C   UNL     1     -46.863  34.867  27.708  1.00  0.00     0.123 C 
ATOM     30  O   UNL     1     -46.007  35.653  28.564  1.00  0.00    -0.345 OA
ATOM     31  C   UNL     1     -47.948  35.812  27.203  1.00  0.00     0.119 C 
ATOM     32  H   UNL     1     -47.314  34.069  28.313  1.00  0.00     0.067 H 
ATOM     33  C   UNL     1     -46.749  36.824  28.988  1.00  0.00     0.169 C 
ATOM     34  C   UNL     1     -48.152  36.706  28.407  1.00  0.00     0.173 C 
ATOM     35  H   UNL     1     -47.611  36.396  26.339  1.00  0.00     0.066 H 
ATOM     36  H   UNL     1     -46.768  36.819  30.083  1.00  0.00     0.088 H 
ATOM     37  F   UNL     1     -48.688  37.884  28.009  1.00  0.00    -0.239 F 
ATOM     38  H   UNL     1     -48.841  36.246  29.124  1.00  0.00     0.074 H 
BRANCH  31  39
ATOM     39  O   UNL     1     -49.149  35.136  26.851  1.00  0.00    -0.387 OA
ATOM     40  H   UNL     1     -48.976  34.662  26.015  1.00  0.00     0.211 HD
ENDBRANCH  31  39
BRANCH  33  41
ATOM     41  N   UNL     1     -46.031  38.020  28.569  1.00  0.00    -0.302 N 
ATOM     42  C   UNL     1     -46.342  38.852  27.523  1.00  0.00     0.019 A 
ATOM     43  C   UNL     1     -44.903  38.484  29.201  1.00  0.00     0.148 A 
ATOM     44  C   UNL     1     -45.399  39.864  27.486  1.00  0.00     0.033 A 
ATOM     45  H   UNL     1     -47.182  38.651  26.874  1.00  0.00     0.083 H 
ATOM     46  C   UNL     1     -44.492  39.653  28.570  1.00  0.00     0.071 A 
ATOM     47  N   UNL     1     -44.321  37.889  30.257  1.00  0.00    -0.218 NA
ATOM     48  C   UNL     1     -43.363  40.284  29.121  1.00  0.00     0.137 A 
ATOM     49  C   UNL     1     -43.243  38.571  30.672  1.00  0.00     0.120 A 
ATOM     50  N   UNL     1     -42.736  39.709  30.170  1.00  0.00    -0.219 NA
ATOM     51  H   UNL     1     -42.712  38.153  31.522  1.00  0.00     0.106 H 
BRANCH  44  52
ATOM     52  C   UNL     1     -45.346  40.937  26.496  1.00  0.00     0.091 A 
ATOM     53  C   UNL     1     -44.383  41.154  25.533  1.00  0.00     0.031 A 
ATOM     54  N   UNL     1     -46.301  41.927  26.452  1.00  0.00    -0.237 NA
ATOM     55  N   UNL     1     -44.779  42.289  24.888  1.00  0.00    -0.340 N 
ATOM     56  H   UNL     1     -43.488  40.610  25.268  1.00  0.00     0.084 H 
ATOM     57  C   UNL     1     -45.933  42.722  25.471  1.00  0.00     0.095 A 
ATOM     58  H   UNL     1     -46.460  43.611  25.148  1.00  0.00     0.104 H 
BRANCH  55  59
ATOM     59  C   UNL     1     -44.106  42.931  23.788  1.00  0.00     0.012 C 
ATOM     60  H   UNL     1     -43.358  43.618  24.191  1.00  0.00     0.046 H 
ATOM     61  H   UNL     1     -43.620  42.176  23.164  1.00  0.00     0.046 H 
ATOM     62  H   UNL     1     -44.850  43.477  23.200  1.00  0.00     0.046 H 
ENDBRANCH  55  59
ENDBRANCH  44  52
BRANCH  48  63
ATOM     63  N   UNL     1     -42.835  41.481  28.659  1.00  0.00    -0.383 N 
ATOM     64  H   UNL     1     -42.260  41.931  29.357  1.00  0.00     0.158 HD
ATOM     65  H   UNL     1     -42.442  41.400  27.717  1.00  0.00     0.158 HD
ENDBRANCH  48  63
ENDBRANCH  33  41
ENDBRANCH   1  29
TORSDOF 11
ENDMDL
MODEL 4
REMARK VINA RESULT:      -9.0      1.306      1.597
REMARK SMILES CCNc1ccc2ccc(OC[C@H]3O[C@@H](n4cc(-c5cn(C)cn5)c5c(N)ncnc54)[C@@H](F)[C@@H]3O)cc2n1
REMARK SMILES IDX 12 1 11 4 10 5 4 6 5 7 38 8 6 9 37 11 7 12 36 14 8 15 9 17
REMARK SMILES IDX 3 20 2 22 1 25 13 29 14 30 34 31 15 33 32 34 33 37 35 39
REMARK SMILES IDX 16 41 17 42 31 43 18 44 25 46 30 47 26 48 29 49 28 50 19 52
REMARK SMILES IDX 20 53 24 54 21 55 23 57 22 59 27 63
REMARK H PARENT 12 2 12 3 5 10 6 13 36 16 8 18 9 19 3 21 2 23 2 24 1 26 1 27
REMARK H PARENT 1 28 13 32 34 35 15 36 32 38 35 40 17 45 29 51 20 56 23 58
REMARK H PARENT 22 60 22 61 22 62 27 64 27 65
REMARK Flexibility Score: inf
ROOT
ATOM      1  C   UNL     1     -46.024  35.527  27.206  1.00  0.00     0.117 C 
ATOM      2  H   UNL     1     -45.000  35.775  26.899  1.00  0.00     0.073 H 
ATOM      3  H   UNL     1     -46.704  35.814  26.393  1.00  0.00     0.073 H 
ENDROOT
BRANCH   1   4
ATOM      4  O   UNL     1     -46.134  34.136  27.484  1.00  0.00    -0.491 OA
BRANCH   4   5
ATOM      5  C   UNL     1     -46.736  33.352  26.539  1.00  0.00     0.121 A 
ATOM      6  C   UNL     1     -46.941  30.958  22.439  1.00  0.00     0.126 A 
ATOM      7  C   UNL     1     -48.241  30.538  22.682  1.00  0.00    -0.019 A 
ATOM      8  N   UNL     1     -46.258  31.729  23.306  1.00  0.00    -0.231 NA
ATOM      9  C   UNL     1     -48.870  30.941  23.855  1.00  0.00    -0.049 A 
ATOM     10  H   UNL     1     -48.755  29.886  21.985  1.00  0.00     0.066 H 
ATOM     11  C   UNL     1     -46.859  32.118  24.445  1.00  0.00     0.076 A 
ATOM     12  C   UNL     1     -48.181  31.748  24.764  1.00  0.00     0.001 A 
ATOM     13  H   UNL     1     -49.887  30.614  24.056  1.00  0.00     0.063 H 
ATOM     14  C   UNL     1     -46.159  32.915  25.343  1.00  0.00     0.007 A 
ATOM     15  C   UNL     1     -48.768  32.180  25.962  1.00  0.00    -0.049 A 
ATOM     16  H   UNL     1     -45.141  33.176  25.076  1.00  0.00     0.069 H 
ATOM     17  C   UNL     1     -48.043  32.980  26.843  1.00  0.00    -0.019 A 
ATOM     18  H   UNL     1     -49.787  31.898  26.217  1.00  0.00     0.063 H 
ATOM     19  H   UNL     1     -48.499  33.314  27.772  1.00  0.00     0.066 H 
BRANCH   6  20
ATOM     20  N   UNL     1     -46.241  30.581  21.292  1.00  0.00    -0.370 N 
ATOM     21  H   UNL     1     -45.337  30.274  21.653  1.00  0.00     0.162 HD
BRANCH  20  22
ATOM     22  C   UNL     1     -46.092  31.642  20.302  1.00  0.00     0.013 C 
ATOM     23  H   UNL     1     -45.300  31.394  19.586  1.00  0.00     0.049 H 
ATOM     24  H   UNL     1     -45.837  32.593  20.784  1.00  0.00     0.049 H 
BRANCH  22  25
ATOM     25  C   UNL     1     -47.405  31.817  19.553  1.00  0.00    -0.048 C 
ATOM     26  H   UNL     1     -47.493  32.831  19.148  1.00  0.00     0.025 H 
ATOM     27  H   UNL     1     -48.252  31.640  20.222  1.00  0.00     0.025 H 
ATOM     28  H   UNL     1     -47.476  31.114  18.717  1.00  0.00     0.025 H 
ENDBRANCH  22  25
ENDBRANCH  20  22
ENDBRANCH   6  20
ENDBRANCH   4   5
ENDBRANCH   1   4
BRANCH   1  29
ATOM     29  C   UNL     1     -46.367  36.339  28.458  1.00  0.00     0.123 C 
ATOM     30  O   UNL     1     -45.196  37.057  28.900  1.00  0.00    -0.345 OA
ATOM     31  C   UNL     1     -47.453  37.385  28.235  1.00  0.00     0.119 C 
ATOM     32  H   UNL     1     -46.670  35.650  29.258  1.00  0.00     0.067 H 
ATOM     33  C   UNL     1     -45.626  38.343  29.414  1.00  0.00     0.169 C 
ATOM     34  C   UNL     1     -47.146  38.376  29.336  1.00  0.00     0.173 C 
ATOM     35  H   UNL     1     -47.366  37.861  27.251  1.00  0.00     0.066 H 
ATOM     36  H   UNL     1     -45.276  38.413  30.450  1.00  0.00     0.088 H 
ATOM     37  F   UNL     1     -47.659  39.586  29.011  1.00  0.00    -0.239 F 
ATOM     38  H   UNL     1     -47.599  38.061  30.283  1.00  0.00     0.074 H 
BRANCH  31  39
ATOM     39  O   UNL     1     -48.766  36.855  28.366  1.00  0.00    -0.387 OA
ATOM     40  H   UNL     1     -48.718  36.127  29.015  1.00  0.00     0.211 HD
ENDBRANCH  31  39
BRANCH  33  41
ATOM     41  N   UNL     1     -44.969  39.401  28.659  1.00  0.00    -0.302 N 
ATOM     42  C   UNL     1     -45.429  40.020  27.524  1.00  0.00     0.019 A 
ATOM     43  C   UNL     1     -43.752  39.934  29.008  1.00  0.00     0.148 A 
ATOM     44  C   UNL     1     -44.493  40.965  27.143  1.00  0.00     0.033 A 
ATOM     45  H   UNL     1     -46.361  39.729  27.062  1.00  0.00     0.083 H 
ATOM     46  C   UNL     1     -43.431  40.937  28.100  1.00  0.00     0.071 A 
ATOM     47  N   UNL     1     -43.020  39.538  30.065  1.00  0.00    -0.218 NA
ATOM     48  C   UNL     1     -42.224  41.618  28.336  1.00  0.00     0.137 A 
ATOM     49  C   UNL     1     -41.884  40.245  30.167  1.00  0.00     0.120 A 
ATOM     50  N   UNL     1     -41.449  41.237  29.374  1.00  0.00    -0.219 NA
ATOM     51  H   UNL     1     -41.232  39.982  30.995  1.00  0.00     0.106 H 
BRANCH  44  52
ATOM     52  C   UNL     1     -44.582  41.817  25.959  1.00  0.00     0.091 A 
ATOM     53  C   UNL     1     -45.471  42.844  25.719  1.00  0.00     0.031 A 
ATOM     54  N   UNL     1     -43.752  41.637  24.876  1.00  0.00    -0.237 NA
ATOM     55  N   UNL     1     -45.154  43.301  24.473  1.00  0.00    -0.340 N 
ATOM     56  H   UNL     1     -46.266  43.267  26.316  1.00  0.00     0.084 H 
ATOM     57  C   UNL     1     -44.119  42.549  24.001  1.00  0.00     0.095 A 
ATOM     58  H   UNL     1     -43.674  42.703  23.026  1.00  0.00     0.104 H 
BRANCH  55  59
ATOM     59  C   UNL     1     -45.794  44.380  23.766  1.00  0.00     0.012 C 
ATOM     60  H   UNL     1     -45.207  44.605  22.872  1.00  0.00     0.046 H 
ATOM     61  H   UNL     1     -46.806  44.082  23.480  1.00  0.00     0.046 H 
ATOM     62  H   UNL     1     -45.833  45.250  24.427  1.00  0.00     0.046 H 
ENDBRANCH  55  59
ENDBRANCH  44  52
BRANCH  48  63
ATOM     63  N   UNL     1     -41.762  42.676  27.568  1.00  0.00    -0.383 N 
ATOM     64  H   UNL     1     -40.813  42.527  27.256  1.00  0.00     0.158 HD
ATOM     65  H   UNL     1     -42.440  42.976  26.862  1.00  0.00     0.158 HD
ENDBRANCH  48  63
ENDBRANCH  33  41
ENDBRANCH   1  29
TORSDOF 11
ENDMDL
MODEL 5
REMARK VINA RESULT:      -9.0      2.472      4.225
REMARK SMILES CCNc1ccc2ccc(OC[C@H]3O[C@@H](n4cc(-c5cn(C)cn5)c5c(N)ncnc54)[C@@H](F)[C@@H]3O)cc2n1
REMARK SMILES IDX 12 1 11 4 10 5 4 6 5 7 38 8 6 9 37 11 7 12 36 14 8 15 9 17
REMARK SMILES IDX 3 20 2 22 1 25 13 29 14 30 34 31 15 33 32 34 33 37 35 39
REMARK SMILES IDX 16 41 17 42 31 43 18 44 25 46 30 47 26 48 29 49 28 50 19 52
REMARK SMILES IDX 20 53 24 54 21 55 23 57 22 59 27 63
REMARK H PARENT 12 2 12 3 5 10 6 13 36 16 8 18 9 19 3 21 2 23 2 24 1 26 1 27
REMARK H PARENT 1 28 13 32 34 35 15 36 32 38 35 40 17 45 29 51 20 56 23 58
REMARK H PARENT 22 60 22 61 22 62 27 64 27 65
REMARK Flexibility Score: inf
ROOT
ATOM      1  C   UNL     1     -45.919  38.039  28.455  1.00  0.00     0.117 C 
ATOM      2  H   UNL     1     -46.338  38.620  29.288  1.00  0.00     0.073 H 
ATOM      3  H   UNL     1     -45.656  37.042  28.832  1.00  0.00     0.073 H 
ENDROOT
BRANCH   1   4
ATOM      4  O   UNL     1     -46.866  37.941  27.397  1.00  0.00    -0.491 OA
BRANCH   4   5
ATOM      5  C   UNL     1     -47.266  36.687  27.026  1.00  0.00     0.121 A 
ATOM      6  C   UNL     1     -46.712  32.424  25.000  1.00  0.00     0.126 A 
ATOM      7  C   UNL     1     -47.991  32.023  25.357  1.00  0.00    -0.019 A 
ATOM      8  N   UNL     1     -46.220  33.636  25.319  1.00  0.00    -0.231 NA
ATOM      9  C   UNL     1     -48.805  32.911  26.053  1.00  0.00    -0.049 A 
ATOM     10  H   UNL     1     -48.349  31.028  25.121  1.00  0.00     0.066 H 
ATOM     11  C   UNL     1     -47.000  34.497  25.997  1.00  0.00     0.076 A 
ATOM     12  C   UNL     1     -48.316  34.177  26.386  1.00  0.00     0.001 A 
ATOM     13  H   UNL     1     -49.807  32.606  26.340  1.00  0.00     0.063 H 
ATOM     14  C   UNL     1     -46.498  35.751  26.328  1.00  0.00     0.007 A 
ATOM     15  C   UNL     1     -49.093  35.109  27.089  1.00  0.00    -0.049 A 
ATOM     16  H   UNL     1     -45.480  35.967  26.024  1.00  0.00     0.069 H 
ATOM     17  C   UNL     1     -48.565  36.358  27.405  1.00  0.00    -0.019 A 
ATOM     18  H   UNL     1     -50.109  34.869  27.395  1.00  0.00     0.063 H 
ATOM     19  H   UNL     1     -49.168  37.080  27.950  1.00  0.00     0.066 H 
BRANCH   6  20
ATOM     20  N   UNL     1     -45.834  31.582  24.316  1.00  0.00    -0.370 N 
ATOM     21  H   UNL     1     -44.945  32.082  24.353  1.00  0.00     0.162 HD
BRANCH  20  22
ATOM     22  C   UNL     1     -46.229  31.291  22.942  1.00  0.00     0.013 C 
ATOM     23  H   UNL     1     -45.708  31.953  22.242  1.00  0.00     0.049 H 
ATOM     24  H   UNL     1     -47.309  31.427  22.808  1.00  0.00     0.049 H 
BRANCH  22  25
ATOM     25  C   UNL     1     -45.881  29.846  22.615  1.00  0.00    -0.048 C 
ATOM     26  H   UNL     1     -45.087  29.794  21.862  1.00  0.00     0.025 H 
ATOM     27  H   UNL     1     -46.758  29.322  22.226  1.00  0.00     0.025 H 
ATOM     28  H   UNL     1     -45.532  29.315  23.507  1.00  0.00     0.025 H 
ENDBRANCH  22  25
ENDBRANCH  20  22
ENDBRANCH   6  20
ENDBRANCH   4   5
ENDBRANCH   1   4
BRANCH   1  29
ATOM     29  C   UNL     1     -44.652  38.741  27.960  1.00  0.00     0.123 C 
ATOM     30  O   UNL     1     -44.885  39.277  26.640  1.00  0.00    -0.345 OA
ATOM     31  C   UNL     1     -44.220  39.915  28.829  1.00  0.00     0.119 C 
ATOM     32  H   UNL     1     -43.839  38.005  27.894  1.00  0.00     0.067 H 
ATOM     33  C   UNL     1     -44.176  40.537  26.536  1.00  0.00     0.169 C 
ATOM     34  C   UNL     1     -43.422  40.742  27.844  1.00  0.00     0.173 C 
ATOM     35  H   UNL     1     -45.079  40.484  29.205  1.00  0.00     0.066 H 
ATOM     36  H   UNL     1     -43.490  40.456  25.687  1.00  0.00     0.088 H 
ATOM     37  F   UNL     1     -43.379  42.028  28.263  1.00  0.00    -0.239 F 
ATOM     38  H   UNL     1     -42.393  40.375  27.769  1.00  0.00     0.074 H 
BRANCH  31  39
ATOM     39  O   UNL     1     -43.421  39.519  29.937  1.00  0.00    -0.387 OA
ATOM     40  H   UNL     1     -42.494  39.504  29.631  1.00  0.00     0.211 HD
ENDBRANCH  31  39
BRANCH  33  41
ATOM     41  N   UNL     1     -45.129  41.595  26.228  1.00  0.00    -0.302 N 
ATOM     42  C   UNL     1     -46.451  41.654  26.589  1.00  0.00     0.019 A 
ATOM     43  C   UNL     1     -44.803  42.716  25.504  1.00  0.00     0.148 A 
ATOM     44  C   UNL     1     -46.979  42.831  26.091  1.00  0.00     0.033 A 
ATOM     45  H   UNL     1     -46.920  40.853  27.143  1.00  0.00     0.083 H 
ATOM     46  C   UNL     1     -45.928  43.530  25.420  1.00  0.00     0.071 A 
ATOM     47  N   UNL     1     -43.588  42.963  24.984  1.00  0.00    -0.218 NA
ATOM     48  C   UNL     1     -45.756  44.748  24.739  1.00  0.00     0.137 A 
ATOM     49  C   UNL     1     -43.559  44.139  24.339  1.00  0.00     0.120 A 
ATOM     50  N   UNL     1     -44.557  45.025  24.183  1.00  0.00    -0.219 NA
ATOM     51  H   UNL     1     -42.612  44.412  23.885  1.00  0.00     0.106 H 
BRANCH  44  52
ATOM     52  C   UNL     1     -48.370  43.259  26.221  1.00  0.00     0.091 A 
ATOM     53  C   UNL     1     -49.121  43.358  27.373  1.00  0.00     0.031 A 
ATOM     54  N   UNL     1     -49.130  43.590  25.122  1.00  0.00    -0.237 NA
ATOM     55  N   UNL     1     -50.352  43.775  26.957  1.00  0.00    -0.340 N 
ATOM     56  H   UNL     1     -48.884  43.175  28.411  1.00  0.00     0.084 H 
ATOM     57  C   UNL     1     -50.315  43.901  25.599  1.00  0.00     0.095 A 
ATOM     58  H   UNL     1     -51.168  44.217  25.013  1.00  0.00     0.104 H 
BRANCH  55  59
ATOM     59  C   UNL     1     -51.498  44.035  27.789  1.00  0.00     0.012 C 
ATOM     60  H   UNL     1     -52.333  43.428  27.431  1.00  0.00     0.046 H 
ATOM     61  H   UNL     1     -51.266  43.773  28.825  1.00  0.00     0.046 H 
ATOM     62  H   UNL     1     -51.741  45.099  27.719  1.00  0.00     0.046 H 
ENDBRANCH  55  59
ENDBRANCH  44  52
BRANCH  48  63
ATOM     63  N   UNL     1     -46.747  45.708  24.594  1.00  0.00    -0.383 N 
ATOM     64  H   UNL     1     -47.430  45.656  25.335  1.00  0.00     0.158 HD
ATOM     65  H   UNL     1     -46.369  46.634  24.376  1.00  0.00     0.158 HD
ENDBRANCH  48  63
ENDBRANCH  33  41
ENDBRANCH   1  29
TORSDOF 11
ENDMDL
MODEL 6
REMARK VINA RESULT:      -8.9      2.705      3.782
REMARK SMILES CCNc1ccc2ccc(OC[C@H]3O[C@@H](n4cc(-c5cn(C)cn5)c5c(N)ncnc54)[C@@H](F)[C@@H]3O)cc2n1
REMARK SMILES IDX 12 1 11 4 10 5 4 6 5 7 38 8 6 9 37 11 7 12 36 14 8 15 9 17
REMARK SMILES IDX 3 20 2 22 1 25 13 29 14 30 34 31 15 33 32 34 33 37 35 39
REMARK SMILES IDX 16 41 17 42 31 43 18 44 25 46 30 47 26 48 29 49 28 50 19 52
REMARK SMILES IDX 20 53 24 54 21 55 23 57 22 59 27 63
REMARK H PARENT 12 2 12 3 5 10 6 13 36 16 8 18 9 19 3 21 2 23 2 24 1 26 1 27
REMARK H PARENT 1 28 13 32 34 35 15 36 32 38 35 40 17 45 29 51 20 56 23 58
REMARK H PARENT 22 60 22 61 22 62 27 64 27 65
REMARK Flexibility Score: inf
ROOT
ATOM      1  C   UNL     1     -47.569  34.956  27.913  1.00  0.00     0.117 C 
ATOM      2  H   UNL     1     -48.389  35.489  28.412  1.00  0.00     0.073 H 
ATOM      3  H   UNL     1     -47.543  33.929  28.299  1.00  0.00     0.073 H 
ENDROOT
BRANCH   1   4
ATOM      4  O   UNL     1     -47.765  34.958  26.503  1.00  0.00    -0.491 OA
BRANCH   4   5
ATOM      5  C   UNL     1     -47.620  33.766  25.848  1.00  0.00     0.121 A 
ATOM      6  C   UNL     1     -48.931  29.383  24.561  1.00  0.00     0.126 A 
ATOM      7  C   UNL     1     -47.800  29.212  23.777  1.00  0.00    -0.019 A 
ATOM      8  N   UNL     1     -49.171  30.518  25.244  1.00  0.00    -0.231 NA
ATOM      9  C   UNL     1     -46.868  30.242  23.706  1.00  0.00    -0.049 A 
ATOM     10  H   UNL     1     -47.651  28.302  23.207  1.00  0.00     0.066 H 
ATOM     11  C   UNL     1     -48.276  31.521  25.175  1.00  0.00     0.076 A 
ATOM     12  C   UNL     1     -47.094  31.425  24.414  1.00  0.00     0.001 A 
ATOM     13  H   UNL     1     -45.981  30.119  23.091  1.00  0.00     0.063 H 
ATOM     14  C   UNL     1     -48.517  32.695  25.879  1.00  0.00     0.007 A 
ATOM     15  C   UNL     1     -46.189  32.495  24.374  1.00  0.00    -0.049 A 
ATOM     16  H   UNL     1     -49.438  32.744  26.449  1.00  0.00     0.069 H 
ATOM     17  C   UNL     1     -46.455  33.659  25.092  1.00  0.00    -0.019 A 
ATOM     18  H   UNL     1     -45.275  32.430  23.787  1.00  0.00     0.063 H 
ATOM     19  H   UNL     1     -45.753  34.488  25.060  1.00  0.00     0.066 H 
BRANCH   6  20
ATOM     20  N   UNL     1     -49.917  28.400  24.668  1.00  0.00    -0.370 N 
ATOM     21  H   UNL     1     -49.907  28.158  25.660  1.00  0.00     0.162 HD
BRANCH  20  22
ATOM     22  C   UNL     1     -49.692  27.230  23.828  1.00  0.00     0.013 C 
ATOM     23  H   UNL     1     -49.771  26.309  24.417  1.00  0.00     0.049 H 
ATOM     24  H   UNL     1     -48.696  27.262  23.371  1.00  0.00     0.049 H 
BRANCH  22  25
ATOM     25  C   UNL     1     -50.732  27.202  22.717  1.00  0.00    -0.048 C 
ATOM     26  H   UNL     1     -50.809  26.202  22.276  1.00  0.00     0.025 H 
ATOM     27  H   UNL     1     -50.462  27.906  21.925  1.00  0.00     0.025 H 
ATOM     28  H   UNL     1     -51.721  27.478  23.099  1.00  0.00     0.025 H 
ENDBRANCH  22  25
ENDBRANCH  20  22
ENDBRANCH   6  20
ENDBRANCH   4   5
ENDBRANCH   1   4
BRANCH   1  29
ATOM     29  C   UNL     1     -46.252  35.656  28.258  1.00  0.00     0.123 C 
ATOM     30  O   UNL     1     -45.910  36.582  27.205  1.00  0.00    -0.345 OA
ATOM     31  C   UNL     1     -46.307  36.471  29.544  1.00  0.00     0.119 C 
ATOM     32  H   UNL     1     -45.455  34.904  28.325  1.00  0.00     0.067 H 
ATOM     33  C   UNL     1     -45.295  37.746  27.813  1.00  0.00     0.169 C 
ATOM     34  C   UNL     1     -45.203  37.479  29.310  1.00  0.00     0.173 C 
ATOM     35  H   UNL     1     -47.272  36.976  29.668  1.00  0.00     0.066 H 
ATOM     36  H   UNL     1     -44.302  37.861  27.365  1.00  0.00     0.088 H 
ATOM     37  F   UNL     1     -45.416  38.571  30.082  1.00  0.00    -0.239 F 
ATOM     38  H   UNL     1     -44.227  37.060  29.578  1.00  0.00     0.074 H 
BRANCH  31  39
ATOM     39  O   UNL     1     -46.055  35.689  30.705  1.00  0.00    -0.387 OA
ATOM     40  H   UNL     1     -45.808  36.308  31.419  1.00  0.00     0.211 HD
ENDBRANCH  31  39
BRANCH  33  41
ATOM     41  N   UNL     1     -46.071  38.930  27.467  1.00  0.00    -0.302 N 
ATOM     42  C   UNL     1     -47.411  39.134  27.675  1.00  0.00     0.019 A 
ATOM     43  C   UNL     1     -45.527  40.038  26.864  1.00  0.00     0.148 A 
ATOM     44  C   UNL     1     -47.730  40.394  27.199  1.00  0.00     0.033 A 
ATOM     45  H   UNL     1     -48.036  38.370  28.114  1.00  0.00     0.083 H 
ATOM     46  C   UNL     1     -46.529  40.990  26.704  1.00  0.00     0.071 A 
ATOM     47  N   UNL     1     -44.236  40.158  26.508  1.00  0.00    -0.218 NA
ATOM     48  C   UNL     1     -46.131  42.211  26.132  1.00  0.00     0.137 A 
ATOM     49  C   UNL     1     -43.989  41.354  25.952  1.00  0.00     0.120 A 
ATOM     50  N   UNL     1     -44.848  42.365  25.740  1.00  0.00    -0.219 NA
ATOM     51  H   UNL     1     -42.967  41.529  25.631  1.00  0.00     0.106 H 
BRANCH  44  52
ATOM     52  C   UNL     1     -49.067  40.984  27.193  1.00  0.00     0.091 A 
ATOM     53  C   UNL     1     -50.085  40.784  28.101  1.00  0.00     0.031 A 
ATOM     54  N   UNL     1     -49.479  41.829  26.188  1.00  0.00    -0.237 NA
ATOM     55  N   UNL     1     -51.124  41.538  27.639  1.00  0.00    -0.340 N 
ATOM     56  H   UNL     1     -50.146  40.191  29.002  1.00  0.00     0.084 H 
ATOM     57  C   UNL     1     -50.719  42.148  26.488  1.00  0.00     0.095 A 
ATOM     58  H   UNL     1     -51.358  42.806  25.913  1.00  0.00     0.104 H 
BRANCH  55  59
ATOM     59  C   UNL     1     -52.424  41.673  28.244  1.00  0.00     0.012 C 
ATOM     60  H   UNL     1     -52.309  41.621  29.329  1.00  0.00     0.046 H 
ATOM     61  H   UNL     1     -52.861  42.635  27.963  1.00  0.00     0.046 H 
ATOM     62  H   UNL     1     -53.057  40.857  27.886  1.00  0.00     0.046 H 
ENDBRANCH  55  59
ENDBRANCH  44  52
BRANCH  48  63
ATOM     63  N   UNL     1     -46.976  43.294  25.937  1.00  0.00    -0.383 N 
ATOM     64  H   UNL     1     -47.182  43.437  24.959  1.00  0.00     0.158 HD
ATOM     65  H   UNL     1     -47.770  43.294  26.583  1.00  0.00     0.158 HD
ENDBRANCH  48  63
ENDBRANCH  33  41
ENDBRANCH   1  29
TORSDOF 11
ENDMDL
MODEL 7
REMARK VINA RESULT:      -8.6      2.653      3.732
REMARK SMILES CCNc1ccc2ccc(OC[C@H]3O[C@@H](n4cc(-c5cn(C)cn5)c5c(N)ncnc54)[C@@H](F)[C@@H]3O)cc2n1
REMARK SMILES IDX 12 1 11 4 10 5 4 6 5 7 38 8 6 9 37 11 7 12 36 14 8 15 9 17
REMARK SMILES IDX 3 20 2 22 1 25 13 29 14 30 34 31 15 33 32 34 33 37 35 39
REMARK SMILES IDX 16 41 17 42 31 43 18 44 25 46 30 47 26 48 29 49 28 50 19 52
REMARK SMILES IDX 20 53 24 54 21 55 23 57 22 59 27 63
REMARK H PARENT 12 2 12 3 5 10 6 13 36 16 8 18 9 19 3 21 2 23 2 24 1 26 1 27
REMARK H PARENT 1 28 13 32 34 35 15 36 32 38 35 40 17 45 29 51 20 56 23 58
REMARK H PARENT 22 60 22 61 22 62 27 64 27 65
REMARK Flexibility Score: inf
ROOT
ATOM      1  C   UNL     1     -47.432  35.992  28.573  1.00  0.00     0.117 C 
ATOM      2  H   UNL     1     -47.980  36.564  29.333  1.00  0.00     0.073 H 
ATOM      3  H   UNL     1     -47.304  34.966  28.943  1.00  0.00     0.073 H 
ENDROOT
BRANCH   1   4
ATOM      4  O   UNL     1     -48.148  35.995  27.343  1.00  0.00    -0.491 OA
BRANCH   4   5
ATOM      5  C   UNL     1     -48.215  34.817  26.652  1.00  0.00     0.121 A 
ATOM      6  C   UNL     1     -46.488  31.334  23.918  1.00  0.00     0.126 A 
ATOM      7  C   UNL     1     -47.689  30.639  23.943  1.00  0.00    -0.019 A 
ATOM      8  N   UNL     1     -46.316  32.502  24.566  1.00  0.00    -0.231 NA
ATOM      9  C   UNL     1     -48.761  31.175  24.649  1.00  0.00    -0.049 A 
ATOM     10  H   UNL     1     -47.789  29.683  23.444  1.00  0.00     0.066 H 
ATOM     11  C   UNL     1     -47.348  33.022  25.255  1.00  0.00     0.076 A 
ATOM     12  C   UNL     1     -48.605  32.390  25.322  1.00  0.00     0.001 A 
ATOM     13  H   UNL     1     -49.704  30.637  24.678  1.00  0.00     0.063 H 
ATOM     14  C   UNL     1     -47.176  34.228  25.926  1.00  0.00     0.007 A 
ATOM     15  C   UNL     1     -49.653  32.972  26.050  1.00  0.00    -0.049 A 
ATOM     16  H   UNL     1     -46.196  34.687  25.865  1.00  0.00     0.069 H 
ATOM     17  C   UNL     1     -49.453  34.182  26.710  1.00  0.00    -0.019 A 
ATOM     18  H   UNL     1     -50.626  32.489  26.109  1.00  0.00     0.063 H 
ATOM     19  H   UNL     1     -50.266  34.632  27.275  1.00  0.00     0.066 H 
BRANCH   6  20
ATOM     20  N   UNL     1     -45.365  30.851  23.244  1.00  0.00    -0.370 N 
ATOM     21  H   UNL     1     -44.751  31.665  23.190  1.00  0.00     0.162 HD
BRANCH  20  22
ATOM     22  C   UNL     1     -45.647  30.302  21.923  1.00  0.00     0.013 C 
ATOM     23  H   UNL     1     -46.549  29.680  21.948  1.00  0.00     0.049 H 
ATOM     24  H   UNL     1     -44.812  29.686  21.569  1.00  0.00     0.049 H 
BRANCH  22  25
ATOM     25  C   UNL     1     -45.855  31.443  20.939  1.00  0.00    -0.048 C 
ATOM     26  H   UNL     1     -46.861  31.411  20.507  1.00  0.00     0.025 H 
ATOM     27  H   UNL     1     -45.129  31.380  20.123  1.00  0.00     0.025 H 
ATOM     28  H   UNL     1     -45.733  32.414  21.432  1.00  0.00     0.025 H 
ENDBRANCH  22  25
ENDBRANCH  20  22
ENDBRANCH   6  20
ENDBRANCH   4   5
ENDBRANCH   1   4
BRANCH   1  29
ATOM     29  C   UNL     1     -46.056  36.632  28.379  1.00  0.00     0.123 C 
ATOM     30  O   UNL     1     -46.050  37.398  27.156  1.00  0.00    -0.345 OA
ATOM     31  C   UNL     1     -45.664  37.598  29.491  1.00  0.00     0.119 C 
ATOM     32  H   UNL     1     -45.302  35.838  28.290  1.00  0.00     0.067 H 
ATOM     33  C   UNL     1     -45.238  38.579  27.369  1.00  0.00     0.169 C 
ATOM     34  C   UNL     1     -44.669  38.489  28.779  1.00  0.00     0.173 C 
ATOM     35  H   UNL     1     -46.521  38.182  29.846  1.00  0.00     0.066 H 
ATOM     36  H   UNL     1     -44.443  38.568  26.615  1.00  0.00     0.088 H 
ATOM     37  F   UNL     1     -44.586  39.677  29.422  1.00  0.00    -0.239 F 
ATOM     38  H   UNL     1     -43.671  38.036  28.776  1.00  0.00     0.074 H 
BRANCH  31  39
ATOM     39  O   UNL     1     -45.069  36.945  30.606  1.00  0.00    -0.387 OA
ATOM     40  H   UNL     1     -45.780  36.783  31.255  1.00  0.00     0.211 HD
ENDBRANCH  31  39
BRANCH  33  41
ATOM     41  N   UNL     1     -46.049  39.765  27.131  1.00  0.00    -0.302 N 
ATOM     42  C   UNL     1     -47.316  40.012  27.595  1.00  0.00     0.019 A 
ATOM     43  C   UNL     1     -45.623  40.832  26.378  1.00  0.00     0.148 A 
ATOM     44  C   UNL     1     -47.707  41.256  27.134  1.00  0.00     0.033 A 
ATOM     45  H   UNL     1     -47.850  39.283  28.189  1.00  0.00     0.083 H 
ATOM     46  C   UNL     1     -46.622  41.800  26.378  1.00  0.00     0.071 A 
ATOM     47  N   UNL     1     -44.430  40.904  25.762  1.00  0.00    -0.218 NA
ATOM     48  C   UNL     1     -46.330  42.984  25.679  1.00  0.00     0.137 A 
ATOM     49  C   UNL     1     -44.283  42.068  25.110  1.00  0.00     0.120 A 
ATOM     50  N   UNL     1     -45.151  43.089  25.029  1.00  0.00    -0.219 NA
ATOM     51  H   UNL     1     -43.345  42.203  24.581  1.00  0.00     0.106 H 
BRANCH  44  52
ATOM     52  C   UNL     1     -49.007  41.878  27.371  1.00  0.00     0.091 A 
ATOM     53  C   UNL     1     -50.136  41.808  26.582  1.00  0.00     0.031 A 
ATOM     54  N   UNL     1     -49.233  42.685  28.463  1.00  0.00    -0.237 NA
ATOM     55  N   UNL     1     -51.064  42.574  27.226  1.00  0.00    -0.340 N 
ATOM     56  H   UNL     1     -50.342  41.291  25.656  1.00  0.00     0.084 H 
ATOM     57  C   UNL     1     -50.481  43.083  28.349  1.00  0.00     0.095 A 
ATOM     58  H   UNL     1     -51.003  43.732  29.041  1.00  0.00     0.104 H 
BRANCH  55  59
ATOM     59  C   UNL     1     -52.420  42.816  26.805  1.00  0.00     0.012 C 
ATOM     60  H   UNL     1     -52.771  41.944  26.247  1.00  0.00     0.046 H 
ATOM     61  H   UNL     1     -53.053  42.976  27.681  1.00  0.00     0.046 H 
ATOM     62  H   UNL     1     -52.430  43.706  26.169  1.00  0.00     0.046 H 
ENDBRANCH  55  59
ENDBRANCH  44  52
BRANCH  48  63
ATOM     63  N   UNL     1     -47.181  44.078  25.607  1.00  0.00    -0.383 N 
ATOM     64  H   UNL     1     -47.948  43.915  24.972  1.00  0.00     0.158 HD
ATOM     65  H   UNL     1     -47.416  44.455  26.529  1.00  0.00     0.158 HD
ENDBRANCH  48  63
ENDBRANCH  33  41
ENDBRANCH   1  29
TORSDOF 11
ENDMDL
