MODEL 1
REMARK VINA RESULT:     -10.1      0.000      0.000
REMARK SMILES Nc1ncnc2c1c(-n1ccc(C(F)(F)F)n1)cn2[C@H]1C[C@H](O)[C@@H](COc2ccc3ccc(N4CCC4)nc3c2)O1
REMARK SMILES IDX 20 1 21 2 22 3 24 4 41 5 19 11 2 12 3 13 7 14 4 15 6 16 8 17
REMARK SMILES IDX 5 18 18 20 1 22 9 25 10 26 17 27 11 28 12 30 13 32 14 33
REMARK SMILES IDX 15 34 16 35 23 36 25 38 26 41 27 42 28 43 40 44 29 45 39 47
REMARK SMILES IDX 30 49 38 51 31 52 33 53 32 54 34 57 35 58 37 59 36 60
REMARK H PARENT 20 6 21 7 21 8 22 9 24 10 4 19 18 21 1 23 1 24 10 29 11 31
REMARK H PARENT 23 37 25 39 25 40 28 46 40 48 29 50 31 55 32 56 35 61 35 62
REMARK H PARENT 37 63 37 64 36 65 36 66
REMARK Flexibility Score: inf
ROOT
ATOM      1  C   UNL     1     -47.926  36.678  28.778  1.00  0.00     0.138 C 
ATOM      2  C   UNL     1     -49.193  36.207  28.085  1.00  0.00     0.022 C 
ATOM      3  C   UNL     1     -48.655  35.291  27.011  1.00  0.00     0.088 C 
ATOM      4  C   UNL     1     -47.463  34.642  27.707  1.00  0.00     0.120 C 
ATOM      5  O   UNL     1     -46.946  35.634  28.616  1.00  0.00    -0.348 OA
ATOM      6  H   UNL     1     -48.082  36.832  29.852  1.00  0.00     0.085 H 
ATOM      7  H   UNL     1     -49.816  35.636  28.786  1.00  0.00     0.034 H 
ATOM      8  H   UNL     1     -49.820  37.010  27.683  1.00  0.00     0.034 H 
ATOM      9  H   UNL     1     -48.333  35.885  26.148  1.00  0.00     0.063 H 
ATOM     10  H   UNL     1     -47.773  33.782  28.315  1.00  0.00     0.067 H 
ENDROOT
BRANCH   1  11
ATOM     11  N   UNL     1     -47.392  37.928  28.245  1.00  0.00    -0.303 N 
ATOM     12  C   UNL     1     -47.992  41.225  27.094  1.00  0.00     0.138 A 
ATOM     13  N   UNL     1     -49.330  41.312  27.226  1.00  0.00    -0.219 NA
ATOM     14  C   UNL     1     -47.331  40.060  27.520  1.00  0.00     0.087 A 
ATOM     15  C   UNL     1     -49.999  40.257  27.719  1.00  0.00     0.120 A 
ATOM     16  C   UNL     1     -48.162  39.029  27.963  1.00  0.00     0.149 A 
ATOM     17  C   UNL     1     -45.999  39.554  27.617  1.00  0.00     0.096 A 
ATOM     18  N   UNL     1     -49.500  39.071  28.088  1.00  0.00    -0.218 NA
ATOM     19  H   UNL     1     -51.073  40.378  27.818  1.00  0.00     0.106 H 
ATOM     20  C   UNL     1     -46.083  38.221  27.978  1.00  0.00     0.035 A 
ATOM     21  H   UNL     1     -45.293  37.501  28.149  1.00  0.00     0.084 H 
BRANCH  12  22
ATOM     22  N   UNL     1     -47.387  42.302  26.455  1.00  0.00    -0.383 N 
ATOM     23  H   UNL     1     -46.949  41.965  25.602  1.00  0.00     0.158 HD
ATOM     24  H   UNL     1     -46.759  42.818  27.060  1.00  0.00     0.158 HD
ENDBRANCH  12  22
BRANCH  17  25
ATOM     25  N   UNL     1     -44.750  40.216  27.429  1.00  0.00    -0.238 N 
ATOM     26  C   UNL     1     -44.262  40.793  26.279  1.00  0.00     0.031 A 
ATOM     27  N   UNL     1     -43.885  40.403  28.463  1.00  0.00    -0.163 NA
ATOM     28  C   UNL     1     -43.045  41.351  26.578  1.00  0.00    -0.011 A 
ATOM     29  H   UNL     1     -44.839  40.817  25.368  1.00  0.00     0.084 H 
ATOM     30  C   UNL     1     -42.853  41.101  27.958  1.00  0.00     0.166 A 
ATOM     31  H   UNL     1     -42.397  41.900  25.909  1.00  0.00     0.066 H 
BRANCH  30  32
ATOM     32  C   UNL     1     -41.674  41.542  28.782  1.00  0.00     0.435 C 
ATOM     33  F   UNL     1     -41.837  42.745  29.392  1.00  0.00    -0.164 F 
ATOM     34  F   UNL     1     -40.542  41.635  28.029  1.00  0.00    -0.164 F 
ATOM     35  F   UNL     1     -41.396  40.642  29.767  1.00  0.00    -0.164 F 
ENDBRANCH  30  32
ENDBRANCH  17  25
ENDBRANCH   1  11
BRANCH   3  36
ATOM     36  O   UNL     1     -49.621  34.355  26.565  1.00  0.00    -0.390 OA
ATOM     37  H   UNL     1     -50.398  34.835  26.230  1.00  0.00     0.211 HD
ENDBRANCH   3  36
BRANCH   4  38
ATOM     38  C   UNL     1     -46.392  34.190  26.708  1.00  0.00     0.117 C 
ATOM     39  H   UNL     1     -45.544  34.884  26.734  1.00  0.00     0.073 H 
ATOM     40  H   UNL     1     -46.014  33.196  26.980  1.00  0.00     0.073 H 
BRANCH  38  41
ATOM     41  O   UNL     1     -46.925  34.223  25.371  1.00  0.00    -0.491 OA
BRANCH  41  42
ATOM     42  C   UNL     1     -46.948  32.962  24.838  1.00  0.00     0.121 A 
ATOM     43  C   UNL     1     -46.063  32.637  23.820  1.00  0.00    -0.019 A 
ATOM     44  C   UNL     1     -47.869  32.026  25.312  1.00  0.00     0.007 A 
ATOM     45  C   UNL     1     -46.071  31.343  23.304  1.00  0.00    -0.049 A 
ATOM     46  H   UNL     1     -45.367  33.377  23.438  1.00  0.00     0.066 H 
ATOM     47  C   UNL     1     -47.883  30.727  24.828  1.00  0.00     0.076 A 
ATOM     48  H   UNL     1     -48.573  32.305  26.090  1.00  0.00     0.069 H 
ATOM     49  C   UNL     1     -46.969  30.385  23.811  1.00  0.00     0.001 A 
ATOM     50  H   UNL     1     -45.370  31.080  22.516  1.00  0.00     0.063 H 
ATOM     51  N   UNL     1     -48.753  29.841  25.344  1.00  0.00    -0.231 NA
ATOM     52  C   UNL     1     -46.991  29.073  23.335  1.00  0.00    -0.049 A 
ATOM     53  C   UNL     1     -48.749  28.567  24.893  1.00  0.00     0.129 A 
ATOM     54  C   UNL     1     -47.888  28.159  23.881  1.00  0.00    -0.019 A 
ATOM     55  H   UNL     1     -46.311  28.751  22.550  1.00  0.00     0.063 H 
ATOM     56  H   UNL     1     -47.908  27.140  23.514  1.00  0.00     0.066 H 
BRANCH  53  57
ATOM     57  N   UNL     1     -49.652  27.649  25.462  1.00  0.00    -0.356 N 
ATOM     58  C   UNL     1     -50.443  26.683  24.758  1.00  0.00     0.021 C 
ATOM     59  C   UNL     1     -49.300  26.714  26.494  1.00  0.00     0.021 C 
ATOM     60  C   UNL     1     -50.554  25.931  26.088  1.00  0.00    -0.018 C 
ATOM     61  H   UNL     1     -51.377  27.086  24.362  1.00  0.00     0.049 H 
ATOM     62  H   UNL     1     -49.884  26.159  23.976  1.00  0.00     0.049 H 
ATOM     63  H   UNL     1     -49.312  27.148  27.496  1.00  0.00     0.049 H 
ATOM     64  H   UNL     1     -48.353  26.199  26.303  1.00  0.00     0.049 H 
ATOM     65  H   UNL     1     -51.448  26.175  26.672  1.00  0.00     0.030 H 
ATOM     66  H   UNL     1     -50.438  24.845  26.032  1.00  0.00     0.030 H 
ENDBRANCH  53  57
ENDBRANCH  41  42
ENDBRANCH  38  41
ENDBRANCH   4  38
TORSDOF 9
ENDMDL
MODEL 2
REMARK VINA RESULT:      -9.6      2.805      4.142
REMARK SMILES Nc1ncnc2c1c(-n1ccc(C(F)(F)F)n1)cn2[C@H]1C[C@H](O)[C@@H](COc2ccc3ccc(N4CCC4)nc3c2)O1
REMARK SMILES IDX 20 1 21 2 22 3 24 4 41 5 19 11 2 12 3 13 7 14 4 15 6 16 8 17
REMARK SMILES IDX 5 18 18 20 1 22 9 25 10 26 17 27 11 28 12 30 13 32 14 33
REMARK SMILES IDX 15 34 16 35 23 36 25 38 26 41 27 42 28 43 40 44 29 45 39 47
REMARK SMILES IDX 30 49 38 51 31 52 33 53 32 54 34 57 35 58 37 59 36 60
REMARK H PARENT 20 6 21 7 21 8 22 9 24 10 4 19 18 21 1 23 1 24 10 29 11 31
REMARK H PARENT 23 37 25 39 25 40 28 46 40 48 29 50 31 55 32 56 35 61 35 62
REMARK H PARENT 37 63 37 64 36 65 36 66
REMARK Flexibility Score: inf
ROOT
ATOM      1  C   UNL     1     -44.989  37.510  29.518  1.00  0.00     0.138 C 
ATOM      2  C   UNL     1     -46.397  37.445  30.088  1.00  0.00     0.022 C 
ATOM      3  C   UNL     1     -47.205  36.970  28.904  1.00  0.00     0.088 C 
ATOM      4  C   UNL     1     -46.239  36.008  28.218  1.00  0.00     0.120 C 
ATOM      5  O   UNL     1     -44.918  36.531  28.463  1.00  0.00    -0.348 OA
ATOM      6  H   UNL     1     -44.234  37.253  30.269  1.00  0.00     0.085 H 
ATOM      7  H   UNL     1     -46.443  36.702  30.895  1.00  0.00     0.034 H 
ATOM      8  H   UNL     1     -46.766  38.389  30.502  1.00  0.00     0.034 H 
ATOM      9  H   UNL     1     -47.443  37.820  28.255  1.00  0.00     0.063 H 
ATOM     10  H   UNL     1     -46.277  35.010  28.672  1.00  0.00     0.067 H 
ENDROOT
BRANCH   1  11
ATOM     11  N   UNL     1     -44.628  38.821  28.986  1.00  0.00    -0.303 N 
ATOM     12  C   UNL     1     -42.398  41.574  28.984  1.00  0.00     0.138 A 
ATOM     13  N   UNL     1     -41.500  41.187  29.912  1.00  0.00    -0.219 NA
ATOM     14  C   UNL     1     -43.442  40.702  28.630  1.00  0.00     0.087 A 
ATOM     15  C   UNL     1     -41.659  39.993  30.506  1.00  0.00     0.120 A 
ATOM     16  C   UNL     1     -43.508  39.519  29.367  1.00  0.00     0.149 A 
ATOM     17  C   UNL     1     -44.542  40.656  27.720  1.00  0.00     0.096 A 
ATOM     18  N   UNL     1     -42.646  39.109  30.314  1.00  0.00    -0.218 NA
ATOM     19  H   UNL     1     -40.905  39.720  31.237  1.00  0.00     0.106 H 
ATOM     20  C   UNL     1     -45.294  39.536  28.029  1.00  0.00     0.035 A 
ATOM     21  H   UNL     1     -46.198  39.163  27.567  1.00  0.00     0.084 H 
BRANCH  12  22
ATOM     22  N   UNL     1     -42.243  42.873  28.512  1.00  0.00    -0.383 N 
ATOM     23  H   UNL     1     -42.340  43.513  29.295  1.00  0.00     0.158 HD
ATOM     24  H   UNL     1     -42.853  43.085  27.733  1.00  0.00     0.158 HD
ENDBRANCH  12  22
BRANCH  17  25
ATOM     25  N   UNL     1     -44.880  41.529  26.644  1.00  0.00    -0.238 N 
ATOM     26  C   UNL     1     -44.308  41.594  25.395  1.00  0.00     0.031 A 
ATOM     27  N   UNL     1     -45.916  42.407  26.743  1.00  0.00    -0.163 NA
ATOM     28  C   UNL     1     -44.985  42.548  24.677  1.00  0.00    -0.011 A 
ATOM     29  H   UNL     1     -43.519  40.921  25.097  1.00  0.00     0.084 H 
ATOM     30  C   UNL     1     -45.994  43.020  25.550  1.00  0.00     0.166 A 
ATOM     31  H   UNL     1     -44.807  42.840  23.652  1.00  0.00     0.066 H 
BRANCH  30  32
ATOM     32  C   UNL     1     -47.031  44.060  25.223  1.00  0.00     0.435 C 
ATOM     33  F   UNL     1     -46.902  44.608  23.988  1.00  0.00    -0.164 F 
ATOM     34  F   UNL     1     -47.005  45.091  26.114  1.00  0.00    -0.164 F 
ATOM     35  F   UNL     1     -48.288  43.540  25.288  1.00  0.00    -0.164 F 
ENDBRANCH  30  32
ENDBRANCH  17  25
ENDBRANCH   1  11
BRANCH   3  36
ATOM     36  O   UNL     1     -48.423  36.358  29.292  1.00  0.00    -0.390 OA
ATOM     37  H   UNL     1     -48.783  35.859  28.538  1.00  0.00     0.211 HD
ENDBRANCH   3  36
BRANCH   4  38
ATOM     38  C   UNL     1     -46.520  35.888  26.717  1.00  0.00     0.117 C 
ATOM     39  H   UNL     1     -46.639  36.887  26.280  1.00  0.00     0.073 H 
ATOM     40  H   UNL     1     -45.675  35.405  26.209  1.00  0.00     0.073 H 
BRANCH  38  41
ATOM     41  O   UNL     1     -47.757  35.183  26.504  1.00  0.00    -0.491 OA
BRANCH  41  42
ATOM     42  C   UNL     1     -47.532  34.030  25.801  1.00  0.00     0.121 A 
ATOM     43  C   UNL     1     -46.327  33.865  25.132  1.00  0.00    -0.019 A 
ATOM     44  C   UNL     1     -48.518  33.044  25.751  1.00  0.00     0.007 A 
ATOM     45  C   UNL     1     -46.092  32.677  24.444  1.00  0.00    -0.049 A 
ATOM     46  H   UNL     1     -45.574  34.647  25.153  1.00  0.00     0.066 H 
ATOM     47  C   UNL     1     -48.301  31.846  25.089  1.00  0.00     0.076 A 
ATOM     48  H   UNL     1     -49.466  33.200  26.258  1.00  0.00     0.069 H 
ATOM     49  C   UNL     1     -47.069  31.663  24.430  1.00  0.00     0.001 A 
ATOM     50  H   UNL     1     -45.144  32.539  23.930  1.00  0.00     0.063 H 
ATOM     51  N   UNL     1     -49.257  30.901  25.105  1.00  0.00    -0.231 NA
ATOM     52  C   UNL     1     -46.860  30.451  23.770  1.00  0.00    -0.049 A 
ATOM     53  C   UNL     1     -49.035  29.721  24.485  1.00  0.00     0.129 A 
ATOM     54  C   UNL     1     -47.851  29.474  23.799  1.00  0.00    -0.019 A 
ATOM     55  H   UNL     1     -45.931  30.254  23.242  1.00  0.00     0.063 H 
ATOM     56  H   UNL     1     -47.694  28.531  23.288  1.00  0.00     0.066 H 
BRANCH  53  57
ATOM     57  N   UNL     1     -50.041  28.736  24.532  1.00  0.00    -0.356 N 
ATOM     58  C   UNL     1     -51.363  28.841  23.989  1.00  0.00     0.021 C 
ATOM     59  C   UNL     1     -49.872  27.395  24.046  1.00  0.00     0.021 C 
ATOM     60  C   UNL     1     -51.401  27.310  24.010  1.00  0.00    -0.018 C 
ATOM     61  H   UNL     1     -52.070  29.343  24.652  1.00  0.00     0.049 H 
ATOM     62  H   UNL     1     -51.382  29.290  22.990  1.00  0.00     0.049 H 
ATOM     63  H   UNL     1     -49.373  26.735  24.759  1.00  0.00     0.049 H 
ATOM     64  H   UNL     1     -49.385  27.351  23.066  1.00  0.00     0.049 H 
ATOM     65  H   UNL     1     -51.851  26.882  24.913  1.00  0.00     0.030 H 
ATOM     66  H   UNL     1     -51.830  26.833  23.126  1.00  0.00     0.030 H 
ENDBRANCH  53  57
ENDBRANCH  41  42
ENDBRANCH  38  41
ENDBRANCH   4  38
TORSDOF 9
ENDMDL
MODEL 3
REMARK VINA RESULT:      -9.4      3.223      4.716
REMARK SMILES Nc1ncnc2c1c(-n1ccc(C(F)(F)F)n1)cn2[C@H]1C[C@H](O)[C@@H](COc2ccc3ccc(N4CCC4)nc3c2)O1
REMARK SMILES IDX 20 1 21 2 22 3 24 4 41 5 19 11 2 12 3 13 7 14 4 15 6 16 8 17
REMARK SMILES IDX 5 18 18 20 1 22 9 25 10 26 17 27 11 28 12 30 13 32 14 33
REMARK SMILES IDX 15 34 16 35 23 36 25 38 26 41 27 42 28 43 40 44 29 45 39 47
REMARK SMILES IDX 30 49 38 51 31 52 33 53 32 54 34 57 35 58 37 59 36 60
REMARK H PARENT 20 6 21 7 21 8 22 9 24 10 4 19 18 21 1 23 1 24 10 29 11 31
REMARK H PARENT 23 37 25 39 25 40 28 46 40 48 29 50 31 55 32 56 35 61 35 62
REMARK H PARENT 37 63 37 64 36 65 36 66
REMARK Flexibility Score: inf
ROOT
ATOM      1  C   UNL     1     -45.423  38.101  28.718  1.00  0.00     0.138 C 
ATOM      2  C   UNL     1     -46.285  37.327  29.702  1.00  0.00     0.022 C 
ATOM      3  C   UNL     1     -46.916  36.273  28.823  1.00  0.00     0.088 C 
ATOM      4  C   UNL     1     -45.792  35.955  27.842  1.00  0.00     0.120 C 
ATOM      5  O   UNL     1     -45.056  37.182  27.670  1.00  0.00    -0.348 OA
ATOM      6  H   UNL     1     -44.502  38.467  29.185  1.00  0.00     0.085 H 
ATOM      7  H   UNL     1     -45.653  36.850  30.463  1.00  0.00     0.034 H 
ATOM      8  H   UNL     1     -47.025  37.932  30.237  1.00  0.00     0.034 H 
ATOM      9  H   UNL     1     -47.784  36.697  28.305  1.00  0.00     0.063 H 
ATOM     10  H   UNL     1     -45.093  35.218  28.258  1.00  0.00     0.067 H 
ENDROOT
BRANCH   1  11
ATOM     11  N   UNL     1     -46.091  39.259  28.133  1.00  0.00    -0.303 N 
ATOM     12  C   UNL     1     -45.864  42.237  26.227  1.00  0.00     0.138 A 
ATOM     13  N   UNL     1     -44.547  42.270  25.943  1.00  0.00    -0.219 NA
ATOM     14  C   UNL     1     -46.390  41.143  26.934  1.00  0.00     0.087 A 
ATOM     15  C   UNL     1     -43.766  41.272  26.389  1.00  0.00     0.120 A 
ATOM     16  C   UNL     1     -45.451  40.209  27.375  1.00  0.00     0.149 A 
ATOM     17  C   UNL     1     -47.656  40.672  27.401  1.00  0.00     0.096 A 
ATOM     18  N   UNL     1     -44.129  40.218  27.131  1.00  0.00    -0.218 NA
ATOM     19  H   UNL     1     -42.715  41.335  26.125  1.00  0.00     0.106 H 
ATOM     20  C   UNL     1     -47.421  39.570  28.204  1.00  0.00     0.035 A 
ATOM     21  H   UNL     1     -48.124  38.941  28.736  1.00  0.00     0.084 H 
BRANCH  12  22
ATOM     22  N   UNL     1     -46.581  43.367  25.849  1.00  0.00    -0.383 N 
ATOM     23  H   UNL     1     -47.364  43.073  25.272  1.00  0.00     0.158 HD
ATOM     24  H   UNL     1     -46.001  44.077  25.419  1.00  0.00     0.158 HD
ENDBRANCH  12  22
BRANCH  17  25
ATOM     25  N   UNL     1     -48.970  41.153  27.130  1.00  0.00    -0.238 N 
ATOM     26  C   UNL     1     -50.124  40.910  27.837  1.00  0.00     0.031 A 
ATOM     27  N   UNL     1     -49.212  42.008  26.098  1.00  0.00    -0.163 NA
ATOM     28  C   UNL     1     -51.137  41.615  27.237  1.00  0.00    -0.011 A 
ATOM     29  H   UNL     1     -50.122  40.315  28.737  1.00  0.00     0.084 H 
ATOM     30  C   UNL     1     -50.521  42.304  26.164  1.00  0.00     0.166 A 
ATOM     31  H   UNL     1     -52.171  41.664  27.548  1.00  0.00     0.066 H 
BRANCH  30  32
ATOM     32  C   UNL     1     -51.204  43.245  25.210  1.00  0.00     0.435 C 
ATOM     33  F   UNL     1     -50.459  44.327  24.864  1.00  0.00    -0.164 F 
ATOM     34  F   UNL     1     -52.372  43.722  25.724  1.00  0.00    -0.164 F 
ATOM     35  F   UNL     1     -51.535  42.615  24.048  1.00  0.00    -0.164 F 
ENDBRANCH  30  32
ENDBRANCH  17  25
ENDBRANCH   1  11
BRANCH   3  36
ATOM     36  O   UNL     1     -47.352  35.144  29.561  1.00  0.00    -0.390 OA
ATOM     37  H   UNL     1     -48.032  35.424  30.198  1.00  0.00     0.211 HD
ENDBRANCH   3  36
BRANCH   4  38
ATOM     38  C   UNL     1     -46.329  35.436  26.504  1.00  0.00     0.117 C 
ATOM     39  H   UNL     1     -46.704  36.273  25.904  1.00  0.00     0.073 H 
ATOM     40  H   UNL     1     -45.525  34.955  25.932  1.00  0.00     0.073 H 
BRANCH  38  41
ATOM     41  O   UNL     1     -47.440  34.548  26.733  1.00  0.00    -0.491 OA
BRANCH  41  42
ATOM     42  C   UNL     1     -47.327  33.434  25.945  1.00  0.00     0.121 A 
ATOM     43  C   UNL     1     -46.395  33.419  24.916  1.00  0.00    -0.019 A 
ATOM     44  C   UNL     1     -48.159  32.337  26.172  1.00  0.00     0.007 A 
ATOM     45  C   UNL     1     -46.266  32.272  24.139  1.00  0.00    -0.049 A 
ATOM     46  H   UNL     1     -45.770  34.286  24.728  1.00  0.00     0.066 H 
ATOM     47  C   UNL     1     -48.036  31.177  25.424  1.00  0.00     0.076 A 
ATOM     48  H   UNL     1     -48.902  32.376  26.964  1.00  0.00     0.069 H 
ATOM     49  C   UNL     1     -47.073  31.148  24.395  1.00  0.00     0.001 A 
ATOM     50  H   UNL     1     -45.527  32.250  23.340  1.00  0.00     0.063 H 
ATOM     51  N   UNL     1     -48.823  30.124  25.706  1.00  0.00    -0.231 NA
ATOM     52  C   UNL     1     -46.956  29.972  23.651  1.00  0.00    -0.049 A 
ATOM     53  C   UNL     1     -48.684  28.982  24.996  1.00  0.00     0.129 A 
ATOM     54  C   UNL     1     -47.768  28.883  23.955  1.00  0.00    -0.019 A 
ATOM     55  H   UNL     1     -46.233  29.891  22.844  1.00  0.00     0.063 H 
ATOM     56  H   UNL     1     -47.680  27.969  23.380  1.00  0.00     0.066 H 
BRANCH  53  57
ATOM     57  N   UNL     1     -49.502  27.884  25.321  1.00  0.00    -0.356 N 
ATOM     58  C   UNL     1     -49.987  26.884  24.416  1.00  0.00     0.021 C 
ATOM     59  C   UNL     1     -49.178  26.914  26.330  1.00  0.00     0.021 C 
ATOM     60  C   UNL     1     -50.194  25.993  25.645  1.00  0.00    -0.018 C 
ATOM     61  H   UNL     1     -50.895  27.178  23.886  1.00  0.00     0.049 H 
ATOM     62  H   UNL     1     -49.224  26.534  23.715  1.00  0.00     0.049 H 
ATOM     63  H   UNL     1     -49.433  27.237  27.342  1.00  0.00     0.049 H 
ATOM     64  H   UNL     1     -48.139  26.572  26.279  1.00  0.00     0.049 H 
ATOM     65  H   UNL     1     -51.202  26.037  26.071  1.00  0.00     0.030 H 
ATOM     66  H   UNL     1     -49.889  24.950  25.533  1.00  0.00     0.030 H 
ENDBRANCH  53  57
ENDBRANCH  41  42
ENDBRANCH  38  41
ENDBRANCH   4  38
TORSDOF 9
ENDMDL
MODEL 4
REMARK VINA RESULT:      -9.1      6.061     10.656
REMARK SMILES Nc1ncnc2c1c(-n1ccc(C(F)(F)F)n1)cn2[C@H]1C[C@H](O)[C@@H](COc2ccc3ccc(N4CCC4)nc3c2)O1
REMARK SMILES IDX 20 1 21 2 22 3 24 4 41 5 19 11 2 12 3 13 7 14 4 15 6 16 8 17
REMARK SMILES IDX 5 18 18 20 1 22 9 25 10 26 17 27 11 28 12 30 13 32 14 33
REMARK SMILES IDX 15 34 16 35 23 36 25 38 26 41 27 42 28 43 40 44 29 45 39 47
REMARK SMILES IDX 30 49 38 51 31 52 33 53 32 54 34 57 35 58 37 59 36 60
REMARK H PARENT 20 6 21 7 21 8 22 9 24 10 4 19 18 21 1 23 1 24 10 29 11 31
REMARK H PARENT 23 37 25 39 25 40 28 46 40 48 29 50 31 55 32 56 35 61 35 62
REMARK H PARENT 37 63 37 64 36 65 36 66
REMARK Flexibility Score: inf
ROOT
ATOM      1  C   UNL     1     -43.228  43.051  25.761  1.00  0.00     0.138 C 
ATOM      2  C   UNL     1     -43.729  42.998  24.327  1.00  0.00     0.022 C 
ATOM      3  C   UNL     1     -45.067  43.693  24.424  1.00  0.00     0.088 C 
ATOM      4  C   UNL     1     -44.795  44.774  25.466  1.00  0.00     0.120 C 
ATOM      5  O   UNL     1     -43.817  44.219  26.368  1.00  0.00    -0.348 OA
ATOM      6  H   UNL     1     -42.139  43.159  25.808  1.00  0.00     0.085 H 
ATOM      7  H   UNL     1     -43.058  43.568  23.672  1.00  0.00     0.034 H 
ATOM      8  H   UNL     1     -43.805  41.990  23.907  1.00  0.00     0.034 H 
ATOM      9  H   UNL     1     -45.825  42.986  24.778  1.00  0.00     0.063 H 
ATOM     10  H   UNL     1     -44.341  45.664  25.011  1.00  0.00     0.067 H 
ENDROOT
BRANCH   1  11
ATOM     11  N   UNL     1     -43.572  41.872  26.550  1.00  0.00    -0.303 N 
ATOM     12  C   UNL     1     -43.148  39.999  29.528  1.00  0.00     0.138 A 
ATOM     13  N   UNL     1     -42.256  40.759  30.194  1.00  0.00    -0.219 NA
ATOM     14  C   UNL     1     -43.642  40.442  28.289  1.00  0.00     0.087 A 
ATOM     15  C   UNL     1     -41.831  41.900  29.627  1.00  0.00     0.120 A 
ATOM     16  C   UNL     1     -43.071  41.620  27.804  1.00  0.00     0.149 A 
ATOM     17  C   UNL     1     -44.579  40.025  27.294  1.00  0.00     0.096 A 
ATOM     18  N   UNL     1     -42.165  42.393  28.429  1.00  0.00    -0.218 NA
ATOM     19  H   UNL     1     -41.123  42.484  30.206  1.00  0.00     0.106 H 
ATOM     20  C   UNL     1     -44.442  40.874  26.209  1.00  0.00     0.035 A 
ATOM     21  H   UNL     1     -44.974  40.881  25.267  1.00  0.00     0.084 H 
BRANCH  12  22
ATOM     22  N   UNL     1     -43.438  38.772  30.114  1.00  0.00    -0.383 N 
ATOM     23  H   UNL     1     -42.656  38.144  29.952  1.00  0.00     0.158 HD
ATOM     24  H   UNL     1     -44.331  38.395  29.819  1.00  0.00     0.158 HD
ENDBRANCH  12  22
BRANCH  17  25
ATOM     25  N   UNL     1     -45.538  38.970  27.321  1.00  0.00    -0.238 N 
ATOM     26  C   UNL     1     -46.797  38.956  26.769  1.00  0.00     0.031 A 
ATOM     27  N   UNL     1     -45.251  37.768  27.890  1.00  0.00    -0.163 NA
ATOM     28  C   UNL     1     -47.340  37.717  27.002  1.00  0.00    -0.011 A 
ATOM     29  H   UNL     1     -47.179  39.793  26.205  1.00  0.00     0.084 H 
ATOM     30  C   UNL     1     -46.334  36.998  27.690  1.00  0.00     0.166 A 
ATOM     31  H   UNL     1     -48.311  37.360  26.688  1.00  0.00     0.066 H 
BRANCH  30  32
ATOM     32  C   UNL     1     -46.425  35.567  28.149  1.00  0.00     0.435 C 
ATOM     33  F   UNL     1     -46.632  35.421  29.483  1.00  0.00    -0.164 F 
ATOM     34  F   UNL     1     -45.294  34.871  27.848  1.00  0.00    -0.164 F 
ATOM     35  F   UNL     1     -47.444  34.914  27.523  1.00  0.00    -0.164 F 
ENDBRANCH  30  32
ENDBRANCH  17  25
ENDBRANCH   1  11
BRANCH   3  36
ATOM     36  O   UNL     1     -45.497  44.212  23.178  1.00  0.00    -0.390 OA
ATOM     37  H   UNL     1     -45.780  43.477  22.607  1.00  0.00     0.211 HD
ENDBRANCH   3  36
BRANCH   4  38
ATOM     38  C   UNL     1     -46.069  45.185  26.211  1.00  0.00     0.117 C 
ATOM     39  H   UNL     1     -45.843  45.992  26.917  1.00  0.00     0.073 H 
ATOM     40  H   UNL     1     -46.817  45.567  25.503  1.00  0.00     0.073 H 
BRANCH  38  41
ATOM     41  O   UNL     1     -46.567  44.075  26.981  1.00  0.00    -0.491 OA
BRANCH  41  42
ATOM     42  C   UNL     1     -47.906  43.902  26.754  1.00  0.00     0.121 A 
ATOM     43  C   UNL     1     -48.765  43.752  27.833  1.00  0.00    -0.019 A 
ATOM     44  C   UNL     1     -48.388  43.862  25.445  1.00  0.00     0.007 A 
ATOM     45  C   UNL     1     -50.130  43.608  27.596  1.00  0.00    -0.049 A 
ATOM     46  H   UNL     1     -48.381  43.758  28.848  1.00  0.00     0.066 H 
ATOM     47  C   UNL     1     -49.743  43.738  25.184  1.00  0.00     0.076 A 
ATOM     48  H   UNL     1     -47.698  43.954  24.611  1.00  0.00     0.069 H 
ATOM     49  C   UNL     1     -50.623  43.612  26.277  1.00  0.00     0.001 A 
ATOM     50  H   UNL     1     -50.809  43.504  28.439  1.00  0.00     0.063 H 
ATOM     51  N   UNL     1     -50.174  43.753  23.909  1.00  0.00    -0.231 NA
ATOM     52  C   UNL     1     -51.987  43.492  26.001  1.00  0.00    -0.049 A 
ATOM     53  C   UNL     1     -51.497  43.662  23.655  1.00  0.00     0.129 A 
ATOM     54  C   UNL     1     -52.425  43.517  24.681  1.00  0.00    -0.019 A 
ATOM     55  H   UNL     1     -52.712  43.389  26.804  1.00  0.00     0.063 H 
ATOM     56  H   UNL     1     -53.482  43.424  24.462  1.00  0.00     0.066 H 
BRANCH  53  57
ATOM     57  N   UNL     1     -51.929  43.701  22.315  1.00  0.00    -0.356 N 
ATOM     58  C   UNL     1     -51.387  44.515  21.268  1.00  0.00     0.021 C 
ATOM     59  C   UNL     1     -52.016  42.545  21.468  1.00  0.00     0.021 C 
ATOM     60  C   UNL     1     -52.014  43.521  20.286  1.00  0.00    -0.018 C 
ATOM     61  H   UNL     1     -51.796  45.527  21.244  1.00  0.00     0.049 H 
ATOM     62  H   UNL     1     -50.293  44.539  21.266  1.00  0.00     0.049 H 
ATOM     63  H   UNL     1     -52.933  41.969  21.610  1.00  0.00     0.049 H 
ATOM     64  H   UNL     1     -51.135  41.897  21.532  1.00  0.00     0.049 H 
ATOM     65  H   UNL     1     -53.012  43.803  19.933  1.00  0.00     0.030 H 
ATOM     66  H   UNL     1     -51.391  43.235  19.435  1.00  0.00     0.030 H 
ENDBRANCH  53  57
ENDBRANCH  41  42
ENDBRANCH  38  41
ENDBRANCH   4  38
TORSDOF 9
ENDMDL
MODEL 5
REMARK VINA RESULT:      -9.1      2.330      2.894
REMARK SMILES Nc1ncnc2c1c(-n1ccc(C(F)(F)F)n1)cn2[C@H]1C[C@H](O)[C@@H](COc2ccc3ccc(N4CCC4)nc3c2)O1
REMARK SMILES IDX 20 1 21 2 22 3 24 4 41 5 19 11 2 12 3 13 7 14 4 15 6 16 8 17
REMARK SMILES IDX 5 18 18 20 1 22 9 25 10 26 17 27 11 28 12 30 13 32 14 33
REMARK SMILES IDX 15 34 16 35 23 36 25 38 26 41 27 42 28 43 40 44 29 45 39 47
REMARK SMILES IDX 30 49 38 51 31 52 33 53 32 54 34 57 35 58 37 59 36 60
REMARK H PARENT 20 6 21 7 21 8 22 9 24 10 4 19 18 21 1 23 1 24 10 29 11 31
REMARK H PARENT 23 37 25 39 25 40 28 46 40 48 29 50 31 55 32 56 35 61 35 62
REMARK H PARENT 37 63 37 64 36 65 36 66
REMARK Flexibility Score: inf
ROOT
ATOM      1  C   UNL     1     -45.361  38.028  28.663  1.00  0.00     0.138 C 
ATOM      2  C   UNL     1     -46.619  37.751  29.468  1.00  0.00     0.022 C 
ATOM      3  C   UNL     1     -47.424  36.885  28.528  1.00  0.00     0.088 C 
ATOM      4  C   UNL     1     -46.339  36.058  27.843  1.00  0.00     0.120 C 
ATOM      5  O   UNL     1     -45.177  36.907  27.775  1.00  0.00    -0.348 OA
ATOM      6  H   UNL     1     -44.475  38.100  29.304  1.00  0.00     0.085 H 
ATOM      7  H   UNL     1     -46.370  37.187  30.376  1.00  0.00     0.034 H 
ATOM      8  H   UNL     1     -47.163  38.647  29.789  1.00  0.00     0.034 H 
ATOM      9  H   UNL     1     -47.953  37.517  27.806  1.00  0.00     0.063 H 
ATOM     10  H   UNL     1     -46.062  35.184  28.445  1.00  0.00     0.067 H 
ENDROOT
BRANCH   1  11
ATOM     11  N   UNL     1     -45.419  39.259  27.881  1.00  0.00    -0.303 N 
ATOM     12  C   UNL     1     -47.318  42.017  26.723  1.00  0.00     0.138 A 
ATOM     13  N   UNL     1     -48.518  41.766  27.282  1.00  0.00    -0.219 NA
ATOM     14  C   UNL     1     -46.236  41.165  27.002  1.00  0.00     0.087 A 
ATOM     15  C   UNL     1     -48.654  40.676  28.055  1.00  0.00     0.120 A 
ATOM     16  C   UNL     1     -46.540  40.047  27.779  1.00  0.00     0.149 A 
ATOM     17  C   UNL     1     -44.844  41.059  26.694  1.00  0.00     0.096 A 
ATOM     18  N   UNL     1     -47.728  39.751  28.335  1.00  0.00    -0.218 NA
ATOM     19  H   UNL     1     -49.635  40.521  28.493  1.00  0.00     0.106 H 
ATOM     20  C   UNL     1     -44.403  39.838  27.172  1.00  0.00     0.035 A 
ATOM     21  H   UNL     1     -43.415  39.397  27.133  1.00  0.00     0.084 H 
BRANCH  12  22
ATOM     22  N   UNL     1     -47.290  43.085  25.832  1.00  0.00    -0.383 N 
ATOM     23  H   UNL     1     -47.853  43.839  26.216  1.00  0.00     0.158 HD
ATOM     24  H   UNL     1     -47.550  42.820  24.890  1.00  0.00     0.158 HD
ENDBRANCH  12  22
BRANCH  17  25
ATOM     25  N   UNL     1     -43.974  41.986  26.049  1.00  0.00    -0.238 N 
ATOM     26  C   UNL     1     -42.782  42.493  26.513  1.00  0.00     0.031 A 
ATOM     27  N   UNL     1     -44.235  42.447  24.795  1.00  0.00    -0.163 NA
ATOM     28  C   UNL     1     -42.271  43.311  25.538  1.00  0.00    -0.011 A 
ATOM     29  H   UNL     1     -42.365  42.185  27.459  1.00  0.00     0.084 H 
ATOM     30  C   UNL     1     -43.200  43.241  24.472  1.00  0.00     0.166 A 
ATOM     31  H   UNL     1     -41.337  43.855  25.566  1.00  0.00     0.066 H 
BRANCH  30  32
ATOM     32  C   UNL     1     -43.080  43.942  23.146  1.00  0.00     0.435 C 
ATOM     33  F   UNL     1     -44.170  43.812  22.346  1.00  0.00    -0.164 F 
ATOM     34  F   UNL     1     -42.013  43.487  22.433  1.00  0.00    -0.164 F 
ATOM     35  F   UNL     1     -42.877  45.279  23.312  1.00  0.00    -0.164 F 
ENDBRANCH  30  32
ENDBRANCH  17  25
ENDBRANCH   1  11
BRANCH   3  36
ATOM     36  O   UNL     1     -48.384  36.096  29.209  1.00  0.00    -0.390 OA
ATOM     37  H   UNL     1     -49.131  35.917  28.612  1.00  0.00     0.211 HD
ENDBRANCH   3  36
BRANCH   4  38
ATOM     38  C   UNL     1     -46.770  35.591  26.449  1.00  0.00     0.117 C 
ATOM     39  H   UNL     1     -47.114  36.449  25.859  1.00  0.00     0.073 H 
ATOM     40  H   UNL     1     -45.919  35.145  25.917  1.00  0.00     0.073 H 
BRANCH  38  41
ATOM     41  O   UNL     1     -47.880  34.681  26.558  1.00  0.00    -0.491 OA
BRANCH  41  42
ATOM     42  C   UNL     1     -47.636  33.544  25.834  1.00  0.00     0.121 A 
ATOM     43  C   UNL     1     -46.578  33.525  24.936  1.00  0.00    -0.019 A 
ATOM     44  C   UNL     1     -48.459  32.429  25.995  1.00  0.00     0.007 A 
ATOM     45  C   UNL     1     -46.316  32.356  24.226  1.00  0.00    -0.049 A 
ATOM     46  H   UNL     1     -45.957  34.404  24.796  1.00  0.00     0.066 H 
ATOM     47  C   UNL     1     -48.207  31.249  25.314  1.00  0.00     0.076 A 
ATOM     48  H   UNL     1     -49.299  32.471  26.682  1.00  0.00     0.069 H 
ATOM     49  C   UNL     1     -47.119  31.215  24.419  1.00  0.00     0.001 A 
ATOM     50  H   UNL     1     -45.480  32.331  23.531  1.00  0.00     0.063 H 
ATOM     51  N   UNL     1     -48.995  30.180  25.532  1.00  0.00    -0.231 NA
ATOM     52  C   UNL     1     -46.873  30.019  23.742  1.00  0.00    -0.049 A 
ATOM     53  C   UNL     1     -48.733  29.021  24.890  1.00  0.00     0.129 A 
ATOM     54  C   UNL     1     -47.687  28.916  23.980  1.00  0.00    -0.019 A 
ATOM     55  H   UNL     1     -46.050  29.935  23.038  1.00  0.00     0.063 H 
ATOM     56  H   UNL     1     -47.499  27.986  23.457  1.00  0.00     0.066 H 
BRANCH  53  57
ATOM     57  N   UNL     1     -49.555  27.908  25.149  1.00  0.00    -0.356 N 
ATOM     58  C   UNL     1     -49.874  26.852  24.234  1.00  0.00     0.021 C 
ATOM     59  C   UNL     1     -49.350  26.996  26.240  1.00  0.00     0.021 C 
ATOM     60  C   UNL     1     -50.228  26.009  25.463  1.00  0.00    -0.018 C 
ATOM     61  H   UNL     1     -50.704  27.087  23.566  1.00  0.00     0.049 H 
ATOM     62  H   UNL     1     -49.007  26.499  23.667  1.00  0.00     0.049 H 
ATOM     63  H   UNL     1     -49.758  27.354  27.188  1.00  0.00     0.049 H 
ATOM     64  H   UNL     1     -48.305  26.692  26.355  1.00  0.00     0.049 H 
ATOM     65  H   UNL     1     -51.288  26.034  25.739  1.00  0.00     0.030 H 
ATOM     66  H   UNL     1     -49.878  24.973  25.447  1.00  0.00     0.030 H 
ENDBRANCH  53  57
ENDBRANCH  41  42
ENDBRANCH  38  41
ENDBRANCH   4  38
TORSDOF 9
ENDMDL
MODEL 6
REMARK VINA RESULT:      -8.9      3.716      5.707
REMARK SMILES Nc1ncnc2c1c(-n1ccc(C(F)(F)F)n1)cn2[C@H]1C[C@H](O)[C@@H](COc2ccc3ccc(N4CCC4)nc3c2)O1
REMARK SMILES IDX 20 1 21 2 22 3 24 4 41 5 19 11 2 12 3 13 7 14 4 15 6 16 8 17
REMARK SMILES IDX 5 18 18 20 1 22 9 25 10 26 17 27 11 28 12 30 13 32 14 33
REMARK SMILES IDX 15 34 16 35 23 36 25 38 26 41 27 42 28 43 40 44 29 45 39 47
REMARK SMILES IDX 30 49 38 51 31 52 33 53 32 54 34 57 35 58 37 59 36 60
REMARK H PARENT 20 6 21 7 21 8 22 9 24 10 4 19 18 21 1 23 1 24 10 29 11 31
REMARK H PARENT 23 37 25 39 25 40 28 46 40 48 29 50 31 55 32 56 35 61 35 62
REMARK H PARENT 37 63 37 64 36 65 36 66
REMARK Flexibility Score: inf
ROOT
ATOM      1  C   UNL     1     -44.580  38.967  27.917  1.00  0.00     0.138 C 
ATOM      2  C   UNL     1     -44.420  38.957  29.429  1.00  0.00     0.022 C 
ATOM      3  C   UNL     1     -45.501  37.995  29.863  1.00  0.00     0.088 C 
ATOM      4  C   UNL     1     -45.488  36.965  28.738  1.00  0.00     0.120 C 
ATOM      5  O   UNL     1     -45.123  37.685  27.544  1.00  0.00    -0.348 OA
ATOM      6  H   UNL     1     -43.618  39.088  27.407  1.00  0.00     0.085 H 
ATOM      7  H   UNL     1     -43.434  38.560  29.701  1.00  0.00     0.034 H 
ATOM      8  H   UNL     1     -44.510  39.940  29.905  1.00  0.00     0.034 H 
ATOM      9  H   UNL     1     -46.463  38.518  29.909  1.00  0.00     0.063 H 
ATOM     10  H   UNL     1     -44.715  36.203  28.901  1.00  0.00     0.067 H 
ENDROOT
BRANCH   1  11
ATOM     11  N   UNL     1     -45.457  40.025  27.424  1.00  0.00    -0.303 N 
ATOM     12  C   UNL     1     -45.834  43.019  25.567  1.00  0.00     0.138 A 
ATOM     13  N   UNL     1     -44.569  43.237  25.157  1.00  0.00    -0.219 NA
ATOM     14  C   UNL     1     -46.131  41.856  26.299  1.00  0.00     0.087 A 
ATOM     15  C   UNL     1     -43.618  42.355  25.504  1.00  0.00     0.120 A 
ATOM     16  C   UNL     1     -45.032  41.060  26.627  1.00  0.00     0.149 A 
ATOM     17  C   UNL     1     -47.267  41.210  26.876  1.00  0.00     0.096 A 
ATOM     18  N   UNL     1     -43.755  41.256  26.256  1.00  0.00    -0.218 NA
ATOM     19  H   UNL     1     -42.617  42.566  25.141  1.00  0.00     0.106 H 
ATOM     20  C   UNL     1     -46.803  40.146  27.630  1.00  0.00     0.035 A 
ATOM     21  H   UNL     1     -47.356  39.422  28.214  1.00  0.00     0.084 H 
BRANCH  12  22
ATOM     22  N   UNL     1     -46.735  44.040  25.284  1.00  0.00    -0.383 N 
ATOM     23  H   UNL     1     -47.594  43.863  25.798  1.00  0.00     0.158 HD
ATOM     24  H   UNL     1     -46.875  44.178  24.290  1.00  0.00     0.158 HD
ENDBRANCH  12  22
BRANCH  17  25
ATOM     25  N   UNL     1     -48.655  41.504  26.744  1.00  0.00    -0.238 N 
ATOM     26  C   UNL     1     -49.707  40.960  27.444  1.00  0.00     0.031 A 
ATOM     27  N   UNL     1     -49.097  42.465  25.887  1.00  0.00    -0.163 NA
ATOM     28  C   UNL     1     -50.856  41.577  27.015  1.00  0.00    -0.011 A 
ATOM     29  H   UNL     1     -49.552  40.234  28.226  1.00  0.00     0.084 H 
ATOM     30  C   UNL     1     -50.429  42.524  26.054  1.00  0.00     0.166 A 
ATOM     31  H   UNL     1     -51.861  41.401  27.370  1.00  0.00     0.066 H 
BRANCH  30  32
ATOM     32  C   UNL     1     -51.313  43.484  25.305  1.00  0.00     0.435 C 
ATOM     33  F   UNL     1     -52.420  42.915  24.762  1.00  0.00    -0.164 F 
ATOM     34  F   UNL     1     -50.643  44.090  24.284  1.00  0.00    -0.164 F 
ATOM     35  F   UNL     1     -51.749  44.488  26.115  1.00  0.00    -0.164 F 
ENDBRANCH  30  32
ENDBRANCH  17  25
ENDBRANCH   1  11
BRANCH   3  36
ATOM     36  O   UNL     1     -45.243  37.435  31.139  1.00  0.00    -0.390 OA
ATOM     37  H   UNL     1     -45.495  38.076  31.826  1.00  0.00     0.211 HD
ENDBRANCH   3  36
BRANCH   4  38
ATOM     38  C   UNL     1     -46.846  36.275  28.579  1.00  0.00     0.117 C 
ATOM     39  H   UNL     1     -46.736  35.196  28.739  1.00  0.00     0.073 H 
ATOM     40  H   UNL     1     -47.554  36.649  29.330  1.00  0.00     0.073 H 
BRANCH  38  41
ATOM     41  O   UNL     1     -47.333  36.455  27.236  1.00  0.00    -0.491 OA
BRANCH  41  42
ATOM     42  C   UNL     1     -47.852  35.282  26.757  1.00  0.00     0.121 A 
ATOM     43  C   UNL     1     -49.194  34.996  26.966  1.00  0.00    -0.019 A 
ATOM     44  C   UNL     1     -47.026  34.383  26.082  1.00  0.00     0.007 A 
ATOM     45  C   UNL     1     -49.722  33.815  26.449  1.00  0.00    -0.049 A 
ATOM     46  H   UNL     1     -49.826  35.687  27.514  1.00  0.00     0.066 H 
ATOM     47  C   UNL     1     -47.531  33.211  25.543  1.00  0.00     0.076 A 
ATOM     48  H   UNL     1     -45.972  34.610  25.951  1.00  0.00     0.069 H 
ATOM     49  C   UNL     1     -48.899  32.928  25.729  1.00  0.00     0.001 A 
ATOM     50  H   UNL     1     -50.776  33.593  26.598  1.00  0.00     0.063 H 
ATOM     51  N   UNL     1     -46.713  32.393  24.856  1.00  0.00    -0.231 NA
ATOM     52  C   UNL     1     -49.398  31.746  25.178  1.00  0.00    -0.049 A 
ATOM     53  C   UNL     1     -47.211  31.264  24.306  1.00  0.00     0.129 A 
ATOM     54  C   UNL     1     -48.546  30.910  24.462  1.00  0.00    -0.019 A 
ATOM     55  H   UNL     1     -50.444  31.474  25.292  1.00  0.00     0.063 H 
ATOM     56  H   UNL     1     -48.929  29.992  24.032  1.00  0.00     0.066 H 
BRANCH  53  57
ATOM     57  N   UNL     1     -46.343  30.433  23.573  1.00  0.00    -0.356 N 
ATOM     58  C   UNL     1     -46.714  29.293  22.788  1.00  0.00     0.021 C 
ATOM     59  C   UNL     1     -45.429  30.912  22.574  1.00  0.00     0.021 C 
ATOM     60  C   UNL     1     -45.381  29.471  22.055  1.00  0.00    -0.018 C 
ATOM     61  H   UNL     1     -46.815  28.375  23.370  1.00  0.00     0.049 H 
ATOM     62  H   UNL     1     -47.604  29.466  22.175  1.00  0.00     0.049 H 
ATOM     63  H   UNL     1     -44.496  31.301  22.989  1.00  0.00     0.049 H 
ATOM     64  H   UNL     1     -45.881  31.635  21.888  1.00  0.00     0.049 H 
ATOM     65  H   UNL     1     -44.558  28.872  22.460  1.00  0.00     0.030 H 
ATOM     66  H   UNL     1     -45.416  29.357  20.968  1.00  0.00     0.030 H 
ENDBRANCH  53  57
ENDBRANCH  41  42
ENDBRANCH  38  41
ENDBRANCH   4  38
TORSDOF 9
ENDMDL
MODEL 7
REMARK VINA RESULT:      -8.9      3.213      4.833
REMARK SMILES Nc1ncnc2c1c(-n1ccc(C(F)(F)F)n1)cn2[C@H]1C[C@H](O)[C@@H](COc2ccc3ccc(N4CCC4)nc3c2)O1
REMARK SMILES IDX 20 1 21 2 22 3 24 4 41 5 19 11 2 12 3 13 7 14 4 15 6 16 8 17
REMARK SMILES IDX 5 18 18 20 1 22 9 25 10 26 17 27 11 28 12 30 13 32 14 33
REMARK SMILES IDX 15 34 16 35 23 36 25 38 26 41 27 42 28 43 40 44 29 45 39 47
REMARK SMILES IDX 30 49 38 51 31 52 33 53 32 54 34 57 35 58 37 59 36 60
REMARK H PARENT 20 6 21 7 21 8 22 9 24 10 4 19 18 21 1 23 1 24 10 29 11 31
REMARK H PARENT 23 37 25 39 25 40 28 46 40 48 29 50 31 55 32 56 35 61 35 62
REMARK H PARENT 37 63 37 64 36 65 36 66
REMARK Flexibility Score: inf
ROOT
ATOM      1  C   UNL     1     -44.724  37.830  29.479  1.00  0.00     0.138 C 
ATOM      2  C   UNL     1     -46.104  37.720  30.106  1.00  0.00     0.022 C 
ATOM      3  C   UNL     1     -46.942  37.203  28.961  1.00  0.00     0.088 C 
ATOM      4  C   UNL     1     -45.970  36.270  28.244  1.00  0.00     0.120 C 
ATOM      5  O   UNL     1     -44.661  36.843  28.430  1.00  0.00    -0.348 OA
ATOM      6  H   UNL     1     -43.930  37.608  30.200  1.00  0.00     0.085 H 
ATOM      7  H   UNL     1     -46.090  36.984  30.921  1.00  0.00     0.034 H 
ATOM      8  H   UNL     1     -46.491  38.654  30.527  1.00  0.00     0.034 H 
ATOM      9  H   UNL     1     -47.238  38.037  28.315  1.00  0.00     0.063 H 
ATOM     10  H   UNL     1     -45.953  35.276  28.708  1.00  0.00     0.067 H 
ENDROOT
BRANCH   1  11
ATOM     11  N   UNL     1     -44.434  39.147  28.920  1.00  0.00    -0.303 N 
ATOM     12  C   UNL     1     -42.344  42.007  28.851  1.00  0.00     0.138 A 
ATOM     13  N   UNL     1     -41.420  41.683  29.777  1.00  0.00    -0.219 NA
ATOM     14  C   UNL     1     -43.346  41.078  28.521  1.00  0.00     0.087 A 
ATOM     15  C   UNL     1     -41.516  40.493  30.393  1.00  0.00     0.120 A 
ATOM     16  C   UNL     1     -43.347  39.906  29.280  1.00  0.00     0.149 A 
ATOM     17  C   UNL     1     -44.450  40.961  27.622  1.00  0.00     0.096 A 
ATOM     18  N   UNL     1     -42.458  39.558  30.225  1.00  0.00    -0.218 NA
ATOM     19  H   UNL     1     -40.743  40.271  31.122  1.00  0.00     0.106 H 
ATOM     20  C   UNL     1     -45.142  39.811  27.957  1.00  0.00     0.035 A 
ATOM     21  H   UNL     1     -46.030  39.385  27.509  1.00  0.00     0.084 H 
BRANCH  12  22
ATOM     22  N   UNL     1     -42.258  43.303  28.354  1.00  0.00    -0.383 N 
ATOM     23  H   UNL     1     -43.200  43.667  28.238  1.00  0.00     0.158 HD
ATOM     24  H   UNL     1     -41.690  43.369  27.518  1.00  0.00     0.158 HD
ENDBRANCH  12  22
BRANCH  17  25
ATOM     25  N   UNL     1     -44.839  41.796  26.534  1.00  0.00    -0.238 N 
ATOM     26  C   UNL     1     -44.312  41.834  25.264  1.00  0.00     0.031 A 
ATOM     27  N   UNL     1     -45.886  42.660  26.643  1.00  0.00    -0.163 NA
ATOM     28  C   UNL     1     -45.029  42.756  24.543  1.00  0.00    -0.011 A 
ATOM     29  H   UNL     1     -43.522  41.166  24.958  1.00  0.00     0.084 H 
ATOM     30  C   UNL     1     -46.016  43.236  25.436  1.00  0.00     0.166 A 
ATOM     31  H   UNL     1     -44.891  43.021  23.504  1.00  0.00     0.066 H 
BRANCH  30  32
ATOM     32  C   UNL     1     -47.081  44.250  25.116  1.00  0.00     0.435 C 
ATOM     33  F   UNL     1     -47.039  44.720  23.843  1.00  0.00    -0.164 F 
ATOM     34  F   UNL     1     -47.005  45.334  25.938  1.00  0.00    -0.164 F 
ATOM     35  F   UNL     1     -48.327  43.729  25.297  1.00  0.00    -0.164 F 
ENDBRANCH  30  32
ENDBRANCH  17  25
ENDBRANCH   1  11
BRANCH   3  36
ATOM     36  O   UNL     1     -48.120  36.551  29.404  1.00  0.00    -0.390 OA
ATOM     37  H   UNL     1     -48.492  36.032  28.671  1.00  0.00     0.211 HD
ENDBRANCH   3  36
BRANCH   4  38
ATOM     38  C   UNL     1     -46.308  36.124  26.757  1.00  0.00     0.117 C 
ATOM     39  H   UNL     1     -45.988  37.021  26.214  1.00  0.00     0.073 H 
ATOM     40  H   UNL     1     -45.770  35.269  26.327  1.00  0.00     0.073 H 
BRANCH  38  41
ATOM     41  O   UNL     1     -47.733  36.012  26.587  1.00  0.00    -0.491 OA
BRANCH  41  42
ATOM     42  C   UNL     1     -48.069  34.734  26.227  1.00  0.00     0.121 A 
ATOM     43  C   UNL     1     -49.341  34.259  26.511  1.00  0.00    -0.019 A 
ATOM     44  C   UNL     1     -47.126  33.921  25.595  1.00  0.00     0.007 A 
ATOM     45  C   UNL     1     -49.685  32.969  26.114  1.00  0.00    -0.049 A 
ATOM     46  H   UNL     1     -50.062  34.886  27.026  1.00  0.00     0.066 H 
ATOM     47  C   UNL     1     -47.451  32.642  25.174  1.00  0.00     0.076 A 
ATOM     48  H   UNL     1     -46.126  34.300  25.405  1.00  0.00     0.069 H 
ATOM     49  C   UNL     1     -48.750  32.163  25.438  1.00  0.00     0.001 A 
ATOM     50  H   UNL     1     -50.686  32.597  26.323  1.00  0.00     0.063 H 
ATOM     51  N   UNL     1     -46.529  31.907  24.525  1.00  0.00    -0.231 NA
ATOM     52  C   UNL     1     -49.066  30.874  25.005  1.00  0.00    -0.049 A 
ATOM     53  C   UNL     1     -46.854  30.670  24.089  1.00  0.00     0.129 A 
ATOM     54  C   UNL     1     -48.110  30.124  24.326  1.00  0.00    -0.019 A 
ATOM     55  H   UNL     1     -50.051  30.451  25.182  1.00  0.00     0.063 H 
ATOM     56  H   UNL     1     -48.351  29.123  23.989  1.00  0.00     0.066 H 
BRANCH  53  57
ATOM     57  N   UNL     1     -45.882  29.926  23.393  1.00  0.00    -0.356 N 
ATOM     58  C   UNL     1     -45.893  28.511  23.165  1.00  0.00     0.021 C 
ATOM     59  C   UNL     1     -45.468  30.210  22.048  1.00  0.00     0.021 C 
ATOM     60  C   UNL     1     -44.929  28.776  22.005  1.00  0.00    -0.018 C 
ATOM     61  H   UNL     1     -45.487  27.931  23.996  1.00  0.00     0.049 H 
ATOM     62  H   UNL     1     -46.877  28.131  22.871  1.00  0.00     0.049 H 
ATOM     63  H   UNL     1     -44.719  31.004  21.982  1.00  0.00     0.049 H 
ATOM     64  H   UNL     1     -46.306  30.408  21.372  1.00  0.00     0.049 H 
ATOM     65  H   UNL     1     -43.869  28.684  22.268  1.00  0.00     0.030 H 
ATOM     66  H   UNL     1     -45.128  28.221  21.085  1.00  0.00     0.030 H 
ENDBRANCH  53  57
ENDBRANCH  41  42
ENDBRANCH  38  41
ENDBRANCH   4  38
TORSDOF 9
ENDMDL
