MODEL 1
REMARK VINA RESULT:     -10.4      0.000      0.000
REMARK SMILES CCc1ccc2ccc(OCc3cncc(-n4cc(-c5ccn(C)n5)c5c(N)ncnc54)c3)cc2n1
REMARK SMILES IDX 11 1 10 4 9 5 3 6 4 7 36 8 5 9 35 11 6 12 34 14 7 15 8 17
REMARK SMILES IDX 2 20 1 23 12 27 13 28 33 29 14 30 16 32 15 34 17 36 18 37
REMARK SMILES IDX 32 38 19 39 26 41 31 42 27 43 30 44 29 45 20 47 21 48 25 49
REMARK SMILES IDX 22 50 23 52 24 54 28 58
REMARK H PARENT 11 2 11 3 4 10 5 13 34 16 7 18 8 19 2 21 2 22 1 24 1 25 1 26
REMARK H PARENT 13 31 33 33 15 35 18 40 30 46 21 51 22 53 24 55 24 56 24 57
REMARK H PARENT 28 59 28 60
REMARK Flexibility Score: inf
ROOT
ATOM      1  C   UNL     1     -48.878  35.594  27.347  1.00  0.00     0.115 C 
ATOM      2  H   UNL     1     -48.801  35.262  28.388  1.00  0.00     0.076 H 
ATOM      3  H   UNL     1     -49.950  35.629  27.114  1.00  0.00     0.076 H 
ENDROOT
BRANCH   1   4
ATOM      4  O   UNL     1     -48.307  36.905  27.302  1.00  0.00    -0.489 OA
BRANCH   4   5
ATOM      5  C   UNL     1     -47.248  37.193  28.118  1.00  0.00     0.122 A 
ATOM      6  C   UNL     1     -43.585  40.191  28.675  1.00  0.00     0.041 A 
ATOM      7  C   UNL     1     -43.190  39.581  29.858  1.00  0.00    -0.040 A 
ATOM      8  N   UNL     1     -44.662  39.774  27.964  1.00  0.00    -0.253 NA
ATOM      9  C   UNL     1     -43.924  38.495  30.325  1.00  0.00    -0.051 A 
ATOM     10  H   UNL     1     -42.330  39.941  30.413  1.00  0.00     0.064 H 
ATOM     11  C   UNL     1     -45.370  38.723  28.416  1.00  0.00     0.074 A 
ATOM     12  C   UNL     1     -45.034  38.045  29.604  1.00  0.00     0.000 A 
ATOM     13  H   UNL     1     -43.626  38.008  31.250  1.00  0.00     0.063 H 
ATOM     14  C   UNL     1     -46.472  38.280  27.699  1.00  0.00     0.006 A 
ATOM     15  C   UNL     1     -45.807  36.955  30.036  1.00  0.00    -0.049 A 
ATOM     16  H   UNL     1     -46.737  38.802  26.782  1.00  0.00     0.069 H 
ATOM     17  C   UNL     1     -46.912  36.531  29.295  1.00  0.00    -0.019 A 
ATOM     18  H   UNL     1     -45.556  36.433  30.957  1.00  0.00     0.063 H 
ATOM     19  H   UNL     1     -47.489  35.696  29.677  1.00  0.00     0.066 H 
BRANCH   6  20
ATOM     20  C   UNL     1     -42.837  41.382  28.140  1.00  0.00    -0.013 C 
ATOM     21  H   UNL     1     -42.322  41.115  27.210  1.00  0.00     0.033 H 
ATOM     22  H   UNL     1     -43.555  42.171  27.883  1.00  0.00     0.033 H 
BRANCH  20  23
ATOM     23  C   UNL     1     -41.840  41.918  29.156  1.00  0.00    -0.060 C 
ATOM     24  H   UNL     1     -41.285  42.773  28.753  1.00  0.00     0.023 H 
ATOM     25  H   UNL     1     -41.119  41.140  29.425  1.00  0.00     0.023 H 
ATOM     26  H   UNL     1     -42.343  42.246  30.072  1.00  0.00     0.023 H 
ENDBRANCH  20  23
ENDBRANCH   6  20
ENDBRANCH   4   5
ENDBRANCH   1   4
BRANCH   1  27
ATOM     27  C   UNL     1     -48.145  34.588  26.496  1.00  0.00     0.010 A 
ATOM     28  C   UNL     1     -46.886  34.892  25.996  1.00  0.00     0.034 A 
ATOM     29  C   UNL     1     -48.704  33.355  26.129  1.00  0.00    -0.028 A 
ATOM     30  N   UNL     1     -46.169  34.063  25.212  1.00  0.00    -0.262 NA
ATOM     31  H   UNL     1     -46.399  35.839  26.218  1.00  0.00     0.084 H 
ATOM     32  C   UNL     1     -47.991  32.460  25.318  1.00  0.00     0.066 A 
ATOM     33  H   UNL     1     -49.706  33.132  26.483  1.00  0.00     0.065 H 
ATOM     34  C   UNL     1     -46.733  32.870  24.890  1.00  0.00     0.051 A 
ATOM     35  H   UNL     1     -46.082  32.257  24.277  1.00  0.00     0.086 H 
BRANCH  32  36
ATOM     36  N   UNL     1     -48.538  31.186  24.964  1.00  0.00    -0.299 N 
ATOM     37  C   UNL     1     -48.391  30.027  25.708  1.00  0.00     0.021 A 
ATOM     38  C   UNL     1     -49.295  30.857  23.838  1.00  0.00     0.150 A 
ATOM     39  C   UNL     1     -49.028  28.982  25.073  1.00  0.00     0.033 A 
ATOM     40  H   UNL     1     -47.805  30.011  26.616  1.00  0.00     0.083 H 
ATOM     41  C   UNL     1     -49.630  29.503  23.895  1.00  0.00     0.071 A 
ATOM     42  N   UNL     1     -49.672  31.706  22.860  1.00  0.00    -0.218 NA
ATOM     43  C   UNL     1     -50.431  29.010  22.848  1.00  0.00     0.137 A 
ATOM     44  C   UNL     1     -50.406  31.116  21.910  1.00  0.00     0.120 A 
ATOM     45  N   UNL     1     -50.792  29.836  21.847  1.00  0.00    -0.219 NA
ATOM     46  H   UNL     1     -50.731  31.752  21.093  1.00  0.00     0.106 H 
BRANCH  39  47
ATOM     47  C   UNL     1     -49.051  27.588  25.530  1.00  0.00     0.095 A 
ATOM     48  C   UNL     1     -50.228  26.851  25.794  1.00  0.00    -0.016 A 
ATOM     49  N   UNL     1     -47.950  26.865  25.779  1.00  0.00    -0.173 NA
ATOM     50  C   UNL     1     -49.791  25.615  26.211  1.00  0.00     0.025 A 
ATOM     51  H   UNL     1     -51.256  27.169  25.690  1.00  0.00     0.066 H 
ATOM     52  N   UNL     1     -48.431  25.672  26.183  1.00  0.00    -0.275 N 
ATOM     53  H   UNL     1     -50.325  24.727  26.516  1.00  0.00     0.084 H 
BRANCH  52  54
ATOM     54  C   UNL     1     -47.510  24.618  26.531  1.00  0.00     0.030 C 
ATOM     55  H   UNL     1     -48.065  23.689  26.692  1.00  0.00     0.048 H 
ATOM     56  H   UNL     1     -46.990  24.904  27.449  1.00  0.00     0.048 H 
ATOM     57  H   UNL     1     -46.802  24.493  25.708  1.00  0.00     0.048 H 
ENDBRANCH  52  54
ENDBRANCH  39  47
BRANCH  43  58
ATOM     58  N   UNL     1     -50.890  27.703  22.766  1.00  0.00    -0.383 N 
ATOM     59  H   UNL     1     -51.344  27.414  23.619  1.00  0.00     0.158 HD
ATOM     60  H   UNL     1     -51.388  27.516  21.890  1.00  0.00     0.158 HD
ENDBRANCH  43  58
ENDBRANCH  32  36
ENDBRANCH   1  27
TORSDOF 9
ENDMDL
MODEL 2
REMARK VINA RESULT:     -10.4      2.535     12.247
REMARK SMILES CCc1ccc2ccc(OCc3cncc(-n4cc(-c5ccn(C)n5)c5c(N)ncnc54)c3)cc2n1
REMARK SMILES IDX 11 1 10 4 9 5 3 6 4 7 36 8 5 9 35 11 6 12 34 14 7 15 8 17
REMARK SMILES IDX 2 20 1 23 12 27 13 28 33 29 14 30 16 32 15 34 17 36 18 37
REMARK SMILES IDX 32 38 19 39 26 41 31 42 27 43 30 44 29 45 20 47 21 48 25 49
REMARK SMILES IDX 22 50 23 52 24 54 28 58
REMARK H PARENT 11 2 11 3 4 10 5 13 34 16 7 18 8 19 2 21 2 22 1 24 1 25 1 26
REMARK H PARENT 13 31 33 33 15 35 18 40 30 46 21 51 22 53 24 55 24 56 24 57
REMARK H PARENT 28 59 28 60
REMARK Flexibility Score: inf
ROOT
ATOM      1  C   UNL     1     -48.358  35.864  27.096  1.00  0.00     0.115 C 
ATOM      2  H   UNL     1     -48.097  36.029  26.044  1.00  0.00     0.076 H 
ATOM      3  H   UNL     1     -49.343  36.323  27.244  1.00  0.00     0.076 H 
ENDROOT
BRANCH   1   4
ATOM      4  O   UNL     1     -48.429  34.446  27.272  1.00  0.00    -0.489 OA
BRANCH   4   5
ATOM      5  C   UNL     1     -47.912  33.632  26.302  1.00  0.00     0.122 A 
ATOM      6  C   UNL     1     -48.936  29.885  23.542  1.00  0.00     0.041 A 
ATOM      7  C   UNL     1     -47.698  29.935  22.914  1.00  0.00    -0.040 A 
ATOM      8  N   UNL     1     -49.299  30.763  24.509  1.00  0.00    -0.253 NA
ATOM      9  C   UNL     1     -46.795  30.921  23.299  1.00  0.00    -0.051 A 
ATOM     10  H   UNL     1     -47.437  29.225  22.136  1.00  0.00     0.064 H 
ATOM     11  C   UNL     1     -48.424  31.715  24.881  1.00  0.00     0.074 A 
ATOM     12  C   UNL     1     -47.148  31.833  24.299  1.00  0.00     0.000 A 
ATOM     13  H   UNL     1     -45.824  30.972  22.816  1.00  0.00     0.063 H 
ATOM     14  C   UNL     1     -48.777  32.620  25.872  1.00  0.00     0.006 A 
ATOM     15  C   UNL     1     -46.271  32.846  24.720  1.00  0.00    -0.049 A 
ATOM     16  H   UNL     1     -49.763  32.535  26.324  1.00  0.00     0.069 H 
ATOM     17  C   UNL     1     -46.654  33.745  25.718  1.00  0.00    -0.019 A 
ATOM     18  H   UNL     1     -45.287  32.947  24.267  1.00  0.00     0.063 H 
ATOM     19  H   UNL     1     -45.950  34.521  25.998  1.00  0.00     0.066 H 
BRANCH   6  20
ATOM     20  C   UNL     1     -49.955  28.851  23.145  1.00  0.00    -0.013 C 
ATOM     21  H   UNL     1     -50.534  28.539  24.022  1.00  0.00     0.033 H 
ATOM     22  H   UNL     1     -50.669  29.301  22.445  1.00  0.00     0.033 H 
BRANCH  20  23
ATOM     23  C   UNL     1     -49.301  27.643  22.493  1.00  0.00    -0.060 C 
ATOM     24  H   UNL     1     -50.006  26.809  22.407  1.00  0.00     0.023 H 
ATOM     25  H   UNL     1     -48.447  27.307  23.089  1.00  0.00     0.023 H 
ATOM     26  H   UNL     1     -48.939  27.881  21.487  1.00  0.00     0.023 H 
ENDBRANCH  20  23
ENDBRANCH   6  20
ENDBRANCH   4   5
ENDBRANCH   1   4
BRANCH   1  27
ATOM     27  C   UNL     1     -47.292  36.523  27.935  1.00  0.00     0.010 A 
ATOM     28  C   UNL     1     -46.961  35.991  29.173  1.00  0.00     0.034 A 
ATOM     29  C   UNL     1     -46.641  37.701  27.544  1.00  0.00    -0.028 A 
ATOM     30  N   UNL     1     -46.038  36.525  29.997  1.00  0.00    -0.262 NA
ATOM     31  H   UNL     1     -47.441  35.093  29.554  1.00  0.00     0.084 H 
ATOM     32  C   UNL     1     -45.670  38.289  28.368  1.00  0.00     0.066 A 
ATOM     33  H   UNL     1     -46.927  38.144  26.594  1.00  0.00     0.065 H 
ATOM     34  C   UNL     1     -45.414  37.657  29.580  1.00  0.00     0.051 A 
ATOM     35  H   UNL     1     -44.672  38.006  30.290  1.00  0.00     0.086 H 
BRANCH  32  36
ATOM     36  N   UNL     1     -44.976  39.475  27.965  1.00  0.00    -0.299 N 
ATOM     37  C   UNL     1     -45.305  40.246  26.862  1.00  0.00     0.021 A 
ATOM     38  C   UNL     1     -43.868  40.070  28.568  1.00  0.00     0.150 A 
ATOM     39  C   UNL     1     -44.425  41.303  26.755  1.00  0.00     0.033 A 
ATOM     40  H   UNL     1     -46.112  39.968  26.201  1.00  0.00     0.083 H 
ATOM     41  C   UNL     1     -43.522  41.217  27.851  1.00  0.00     0.071 A 
ATOM     42  N   UNL     1     -43.240  39.635  29.679  1.00  0.00    -0.218 NA
ATOM     43  C   UNL     1     -42.439  41.966  28.349  1.00  0.00     0.137 A 
ATOM     44  C   UNL     1     -42.213  40.414  30.039  1.00  0.00     0.120 A 
ATOM     45  N   UNL     1     -41.781  41.531  29.440  1.00  0.00    -0.219 NA
ATOM     46  H   UNL     1     -41.666  40.106  30.924  1.00  0.00     0.106 H 
BRANCH  39  47
ATOM     47  C   UNL     1     -44.420  42.309  25.687  1.00  0.00     0.095 A 
ATOM     48  C   UNL     1     -45.560  43.026  25.258  1.00  0.00    -0.016 A 
ATOM     49  N   UNL     1     -43.333  42.638  24.976  1.00  0.00    -0.173 NA
ATOM     50  C   UNL     1     -45.111  43.835  24.240  1.00  0.00     0.025 A 
ATOM     51  H   UNL     1     -46.570  42.969  25.638  1.00  0.00     0.066 H 
ATOM     52  N   UNL     1     -43.781  43.570  24.112  1.00  0.00    -0.275 N 
ATOM     53  H   UNL     1     -45.618  44.557  23.617  1.00  0.00     0.084 H 
BRANCH  52  54
ATOM     54  C   UNL     1     -42.862  44.172  23.178  1.00  0.00     0.030 C 
ATOM     55  H   UNL     1     -42.541  43.422  22.450  1.00  0.00     0.048 H 
ATOM     56  H   UNL     1     -41.999  44.544  23.735  1.00  0.00     0.048 H 
ATOM     57  H   UNL     1     -43.376  44.992  22.669  1.00  0.00     0.048 H 
ENDBRANCH  52  54
ENDBRANCH  39  47
BRANCH  43  58
ATOM     58  N   UNL     1     -41.986  43.151  27.787  1.00  0.00    -0.383 N 
ATOM     59  H   UNL     1     -42.577  43.931  28.034  1.00  0.00     0.158 HD
ATOM     60  H   UNL     1     -40.976  43.280  27.903  1.00  0.00     0.158 HD
ENDBRANCH  43  58
ENDBRANCH  32  36
ENDBRANCH   1  27
TORSDOF 9
ENDMDL
MODEL 3
REMARK VINA RESULT:     -10.3      2.675     11.995
REMARK SMILES CCc1ccc2ccc(OCc3cncc(-n4cc(-c5ccn(C)n5)c5c(N)ncnc54)c3)cc2n1
REMARK SMILES IDX 11 1 10 4 9 5 3 6 4 7 36 8 5 9 35 11 6 12 34 14 7 15 8 17
REMARK SMILES IDX 2 20 1 23 12 27 13 28 33 29 14 30 16 32 15 34 17 36 18 37
REMARK SMILES IDX 32 38 19 39 26 41 31 42 27 43 30 44 29 45 20 47 21 48 25 49
REMARK SMILES IDX 22 50 23 52 24 54 28 58
REMARK H PARENT 11 2 11 3 4 10 5 13 34 16 7 18 8 19 2 21 2 22 1 24 1 25 1 26
REMARK H PARENT 13 31 33 33 15 35 18 40 30 46 21 51 22 53 24 55 24 56 24 57
REMARK H PARENT 28 59 28 60
REMARK Flexibility Score: inf
ROOT
ATOM      1  C   UNL     1     -47.112  33.972  25.768  1.00  0.00     0.115 C 
ATOM      2  H   UNL     1     -46.022  33.922  25.656  1.00  0.00     0.076 H 
ATOM      3  H   UNL     1     -47.524  34.000  24.752  1.00  0.00     0.076 H 
ENDROOT
BRANCH   1   4
ATOM      4  O   UNL     1     -47.501  32.769  26.438  1.00  0.00    -0.489 OA
BRANCH   4   5
ATOM      5  C   UNL     1     -47.965  31.719  25.695  1.00  0.00     0.122 A 
ATOM      6  C   UNL     1     -48.791  30.306  21.219  1.00  0.00     0.041 A 
ATOM      7  C   UNL     1     -49.230  29.055  21.633  1.00  0.00    -0.040 A 
ATOM      8  N   UNL     1     -48.372  31.256  22.090  1.00  0.00    -0.253 NA
ATOM      9  C   UNL     1     -49.248  28.772  22.995  1.00  0.00    -0.051 A 
ATOM     10  H   UNL     1     -49.551  28.309  20.914  1.00  0.00     0.064 H 
ATOM     11  C   UNL     1     -48.391  30.982  23.407  1.00  0.00     0.074 A 
ATOM     12  C   UNL     1     -48.826  29.741  23.911  1.00  0.00     0.000 A 
ATOM     13  H   UNL     1     -49.589  27.798  23.333  1.00  0.00     0.063 H 
ATOM     14  C   UNL     1     -47.969  31.944  24.313  1.00  0.00     0.006 A 
ATOM     15  C   UNL     1     -48.823  29.502  25.295  1.00  0.00    -0.049 A 
ATOM     16  H   UNL     1     -47.630  32.904  23.929  1.00  0.00     0.069 H 
ATOM     17  C   UNL     1     -48.392  30.488  26.184  1.00  0.00    -0.019 A 
ATOM     18  H   UNL     1     -49.151  28.542  25.688  1.00  0.00     0.063 H 
ATOM     19  H   UNL     1     -48.392  30.252  27.243  1.00  0.00     0.066 H 
BRANCH   6  20
ATOM     20  C   UNL     1     -48.733  30.651  19.755  1.00  0.00    -0.013 C 
ATOM     21  H   UNL     1     -48.518  29.752  19.166  1.00  0.00     0.033 H 
ATOM     22  H   UNL     1     -49.718  31.008  19.431  1.00  0.00     0.033 H 
BRANCH  20  23
ATOM     23  C   UNL     1     -47.690  31.722  19.475  1.00  0.00    -0.060 C 
ATOM     24  H   UNL     1     -47.519  32.349  20.357  1.00  0.00     0.023 H 
ATOM     25  H   UNL     1     -48.022  32.368  18.656  1.00  0.00     0.023 H 
ATOM     26  H   UNL     1     -46.731  31.278  19.189  1.00  0.00     0.023 H 
ENDBRANCH  20  23
ENDBRANCH   6  20
ENDBRANCH   4   5
ENDBRANCH   1   4
BRANCH   1  27
ATOM     27  C   UNL     1     -47.429  35.224  26.545  1.00  0.00     0.010 A 
ATOM     28  C   UNL     1     -48.653  35.347  27.189  1.00  0.00     0.034 A 
ATOM     29  C   UNL     1     -46.555  36.318  26.610  1.00  0.00    -0.028 A 
ATOM     30  N   UNL     1     -49.029  36.437  27.886  1.00  0.00    -0.262 NA
ATOM     31  H   UNL     1     -49.392  34.550  27.163  1.00  0.00     0.084 H 
ATOM     32  C   UNL     1     -46.903  37.471  27.329  1.00  0.00     0.066 A 
ATOM     33  H   UNL     1     -45.614  36.243  26.072  1.00  0.00     0.065 H 
ATOM     34  C   UNL     1     -48.151  37.471  27.942  1.00  0.00     0.051 A 
ATOM     35  H   UNL     1     -48.522  38.296  28.541  1.00  0.00     0.086 H 
BRANCH  32  36
ATOM     36  N   UNL     1     -46.005  38.582  27.427  1.00  0.00    -0.299 N 
ATOM     37  C   UNL     1     -45.957  39.641  26.535  1.00  0.00     0.021 A 
ATOM     38  C   UNL     1     -45.028  38.815  28.395  1.00  0.00     0.150 A 
ATOM     39  C   UNL     1     -44.969  40.524  26.915  1.00  0.00     0.033 A 
ATOM     40  H   UNL     1     -46.596  39.674  25.665  1.00  0.00     0.083 H 
ATOM     41  C   UNL     1     -44.388  40.023  28.113  1.00  0.00     0.071 A 
ATOM     42  N   UNL     1     -44.753  38.023  29.452  1.00  0.00    -0.218 NA
ATOM     43  C   UNL     1     -43.391  40.432  29.019  1.00  0.00     0.137 A 
ATOM     44  C   UNL     1     -43.772  38.504  30.224  1.00  0.00     0.120 A 
ATOM     45  N   UNL     1     -43.083  39.640  30.064  1.00  0.00    -0.219 NA
ATOM     46  H   UNL     1     -43.503  37.902  31.086  1.00  0.00     0.106 H 
BRANCH  39  47
ATOM     47  C   UNL     1     -44.583  41.741  26.193  1.00  0.00     0.095 A 
ATOM     48  C   UNL     1     -44.223  41.781  24.826  1.00  0.00    -0.016 A 
ATOM     49  N   UNL     1     -44.500  42.953  26.760  1.00  0.00    -0.173 NA
ATOM     50  C   UNL     1     -43.922  43.099  24.573  1.00  0.00     0.025 A 
ATOM     51  H   UNL     1     -44.190  40.966  24.117  1.00  0.00     0.066 H 
ATOM     52  N   UNL     1     -44.105  43.755  25.753  1.00  0.00    -0.275 N 
ATOM     53  H   UNL     1     -43.603  43.606  23.674  1.00  0.00     0.084 H 
BRANCH  52  54
ATOM     54  C   UNL     1     -43.919  45.164  26.000  1.00  0.00     0.030 C 
ATOM     55  H   UNL     1     -44.712  45.526  26.660  1.00  0.00     0.048 H 
ATOM     56  H   UNL     1     -43.962  45.690  25.043  1.00  0.00     0.048 H 
ATOM     57  H   UNL     1     -42.944  45.306  26.474  1.00  0.00     0.048 H 
ENDBRANCH  52  54
ENDBRANCH  39  47
BRANCH  43  58
ATOM     58  N   UNL     1     -42.684  41.621  28.916  1.00  0.00    -0.383 N 
ATOM     59  H   UNL     1     -42.302  41.749  27.990  1.00  0.00     0.158 HD
ATOM     60  H   UNL     1     -43.189  42.415  29.322  1.00  0.00     0.158 HD
ENDBRANCH  43  58
ENDBRANCH  32  36
ENDBRANCH   1  27
TORSDOF 9
ENDMDL
MODEL 4
REMARK VINA RESULT:     -10.1      3.026     12.071
REMARK SMILES CCc1ccc2ccc(OCc3cncc(-n4cc(-c5ccn(C)n5)c5c(N)ncnc54)c3)cc2n1
REMARK SMILES IDX 11 1 10 4 9 5 3 6 4 7 36 8 5 9 35 11 6 12 34 14 7 15 8 17
REMARK SMILES IDX 2 20 1 23 12 27 13 28 33 29 14 30 16 32 15 34 17 36 18 37
REMARK SMILES IDX 32 38 19 39 26 41 31 42 27 43 30 44 29 45 20 47 21 48 25 49
REMARK SMILES IDX 22 50 23 52 24 54 28 58
REMARK H PARENT 11 2 11 3 4 10 5 13 34 16 7 18 8 19 2 21 2 22 1 24 1 25 1 26
REMARK H PARENT 13 31 33 33 15 35 18 40 30 46 21 51 22 53 24 55 24 56 24 57
REMARK H PARENT 28 59 28 60
REMARK Flexibility Score: inf
ROOT
ATOM      1  C   UNL     1     -48.115  35.071  26.635  1.00  0.00     0.115 C 
ATOM      2  H   UNL     1     -48.029  35.111  25.543  1.00  0.00     0.076 H 
ATOM      3  H   UNL     1     -49.149  35.348  26.873  1.00  0.00     0.076 H 
ENDROOT
BRANCH   1   4
ATOM      4  O   UNL     1     -47.856  33.714  27.008  1.00  0.00    -0.489 OA
BRANCH   4   5
ATOM      5  C   UNL     1     -47.559  32.806  26.029  1.00  0.00     0.122 A 
ATOM      6  C   UNL     1     -48.779  28.528  24.320  1.00  0.00     0.041 A 
ATOM      7  C   UNL     1     -47.851  28.609  23.290  1.00  0.00    -0.040 A 
ATOM      8  N   UNL     1     -48.945  29.517  25.232  1.00  0.00    -0.253 NA
ATOM      9  C   UNL     1     -47.057  29.748  23.198  1.00  0.00    -0.051 A 
ATOM     10  H   UNL     1     -47.745  27.807  22.568  1.00  0.00     0.064 H 
ATOM     11  C   UNL     1     -48.175  30.617  25.143  1.00  0.00     0.074 A 
ATOM     12  C   UNL     1     -47.208  30.778  24.132  1.00  0.00     0.000 A 
ATOM     13  H   UNL     1     -46.327  29.825  22.397  1.00  0.00     0.063 H 
ATOM     14  C   UNL     1     -48.329  31.638  26.070  1.00  0.00     0.006 A 
ATOM     15  C   UNL     1     -46.431  31.946  24.079  1.00  0.00    -0.049 A 
ATOM     16  H   UNL     1     -49.077  31.520  26.851  1.00  0.00     0.069 H 
ATOM     17  C   UNL     1     -46.608  32.959  25.025  1.00  0.00    -0.019 A 
ATOM     18  H   UNL     1     -45.688  32.079  23.296  1.00  0.00     0.063 H 
ATOM     19  H   UNL     1     -45.997  33.850  24.934  1.00  0.00     0.066 H 
BRANCH   6  20
ATOM     20  C   UNL     1     -49.677  27.326  24.449  1.00  0.00    -0.013 C 
ATOM     21  H   UNL     1     -50.628  27.513  23.938  1.00  0.00     0.033 H 
ATOM     22  H   UNL     1     -49.212  26.474  23.939  1.00  0.00     0.033 H 
BRANCH  20  23
ATOM     23  C   UNL     1     -49.925  26.968  25.906  1.00  0.00    -0.060 C 
ATOM     24  H   UNL     1     -49.028  27.130  26.512  1.00  0.00     0.023 H 
ATOM     25  H   UNL     1     -50.210  25.915  25.993  1.00  0.00     0.023 H 
ATOM     26  H   UNL     1     -50.732  27.574  26.332  1.00  0.00     0.023 H 
ENDBRANCH  20  23
ENDBRANCH   6  20
ENDBRANCH   4   5
ENDBRANCH   1   4
BRANCH   1  27
ATOM     27  C   UNL     1     -47.119  36.052  27.203  1.00  0.00     0.010 A 
ATOM     28  C   UNL     1     -46.309  35.678  28.266  1.00  0.00     0.034 A 
ATOM     29  C   UNL     1     -47.004  37.369  26.737  1.00  0.00    -0.028 A 
ATOM     30  N   UNL     1     -45.409  36.494  28.848  1.00  0.00    -0.262 NA
ATOM     31  H   UNL     1     -46.359  34.680  28.696  1.00  0.00     0.084 H 
ATOM     32  C   UNL     1     -46.076  38.252  27.310  1.00  0.00     0.066 A 
ATOM     33  H   UNL     1     -47.665  37.679  25.933  1.00  0.00     0.065 H 
ATOM     34  C   UNL     1     -45.311  37.758  28.361  1.00  0.00     0.051 A 
ATOM     35  H   UNL     1     -44.549  38.339  28.869  1.00  0.00     0.086 H 
BRANCH  32  36
ATOM     36  N   UNL     1     -45.928  39.590  26.822  1.00  0.00    -0.299 N 
ATOM     37  C   UNL     1     -44.765  40.107  26.276  1.00  0.00     0.021 A 
ATOM     38  C   UNL     1     -46.881  40.609  26.802  1.00  0.00     0.150 A 
ATOM     39  C   UNL     1     -44.963  41.426  25.925  1.00  0.00     0.033 A 
ATOM     40  H   UNL     1     -43.861  39.520  26.216  1.00  0.00     0.083 H 
ATOM     41  C   UNL     1     -46.314  41.749  26.230  1.00  0.00     0.071 A 
ATOM     42  N   UNL     1     -48.153  40.513  27.237  1.00  0.00    -0.218 NA
ATOM     43  C   UNL     1     -47.156  42.869  26.097  1.00  0.00     0.137 A 
ATOM     44  C   UNL     1     -48.845  41.648  27.081  1.00  0.00     0.120 A 
ATOM     45  N   UNL     1     -48.422  42.802  26.553  1.00  0.00    -0.219 NA
ATOM     46  H   UNL     1     -49.876  41.631  27.423  1.00  0.00     0.106 H 
BRANCH  39  47
ATOM     47  C   UNL     1     -43.949  42.325  25.362  1.00  0.00     0.095 A 
ATOM     48  C   UNL     1     -42.820  42.799  26.068  1.00  0.00    -0.016 A 
ATOM     49  N   UNL     1     -43.999  42.822  24.119  1.00  0.00    -0.173 NA
ATOM     50  C   UNL     1     -42.159  43.615  25.180  1.00  0.00     0.025 A 
ATOM     51  H   UNL     1     -42.520  42.575  27.082  1.00  0.00     0.066 H 
ATOM     52  N   UNL     1     -42.898  43.595  24.035  1.00  0.00    -0.275 N 
ATOM     53  H   UNL     1     -41.249  44.191  25.269  1.00  0.00     0.084 H 
BRANCH  52  54
ATOM     54  C   UNL     1     -42.614  44.295  22.806  1.00  0.00     0.030 C 
ATOM     55  H   UNL     1     -41.677  44.848  22.911  1.00  0.00     0.048 H 
ATOM     56  H   UNL     1     -43.435  44.987  22.607  1.00  0.00     0.048 H 
ATOM     57  H   UNL     1     -42.525  43.559  22.003  1.00  0.00     0.048 H 
ENDBRANCH  52  54
ENDBRANCH  39  47
BRANCH  43  58
ATOM     58  N   UNL     1     -46.773  44.069  25.516  1.00  0.00    -0.383 N 
ATOM     59  H   UNL     1     -46.624  44.788  26.208  1.00  0.00     0.158 HD
ATOM     60  H   UNL     1     -46.039  43.947  24.810  1.00  0.00     0.158 HD
ENDBRANCH  43  58
ENDBRANCH  32  36
ENDBRANCH   1  27
TORSDOF 9
ENDMDL
MODEL 5
REMARK VINA RESULT:     -10.1      1.811      2.728
REMARK SMILES CCc1ccc2ccc(OCc3cncc(-n4cc(-c5ccn(C)n5)c5c(N)ncnc54)c3)cc2n1
REMARK SMILES IDX 11 1 10 4 9 5 3 6 4 7 36 8 5 9 35 11 6 12 34 14 7 15 8 17
REMARK SMILES IDX 2 20 1 23 12 27 13 28 33 29 14 30 16 32 15 34 17 36 18 37
REMARK SMILES IDX 32 38 19 39 26 41 31 42 27 43 30 44 29 45 20 47 21 48 25 49
REMARK SMILES IDX 22 50 23 52 24 54 28 58
REMARK H PARENT 11 2 11 3 4 10 5 13 34 16 7 18 8 19 2 21 2 22 1 24 1 25 1 26
REMARK H PARENT 13 31 33 33 15 35 18 40 30 46 21 51 22 53 24 55 24 56 24 57
REMARK H PARENT 28 59 28 60
REMARK Flexibility Score: inf
ROOT
ATOM      1  C   UNL     1     -48.135  36.625  27.328  1.00  0.00     0.115 C 
ATOM      2  H   UNL     1     -49.171  36.510  27.669  1.00  0.00     0.076 H 
ATOM      3  H   UNL     1     -48.189  37.037  26.313  1.00  0.00     0.076 H 
ENDROOT
BRANCH   1   4
ATOM      4  O   UNL     1     -47.522  37.560  28.221  1.00  0.00    -0.489 OA
BRANCH   4   5
ATOM      5  C   UNL     1     -46.846  38.628  27.698  1.00  0.00     0.122 A 
ATOM      6  C   UNL     1     -42.902  41.253  28.218  1.00  0.00     0.041 A 
ATOM      7  C   UNL     1     -43.216  42.047  27.123  1.00  0.00    -0.040 A 
ATOM      8  N   UNL     1     -43.692  40.229  28.626  1.00  0.00    -0.253 NA
ATOM      9  C   UNL     1     -44.391  41.786  26.425  1.00  0.00    -0.051 A 
ATOM     10  H   UNL     1     -42.561  42.854  26.811  1.00  0.00     0.064 H 
ATOM     11  C   UNL     1     -44.829  39.979  27.952  1.00  0.00     0.074 A 
ATOM     12  C   UNL     1     -45.224  40.739  26.834  1.00  0.00     0.000 A 
ATOM     13  H   UNL     1     -44.649  42.399  25.567  1.00  0.00     0.063 H 
ATOM     14  C   UNL     1     -45.651  38.938  28.358  1.00  0.00     0.006 A 
ATOM     15  C   UNL     1     -46.418  40.435  26.161  1.00  0.00    -0.049 A 
ATOM     16  H   UNL     1     -45.350  38.346  29.220  1.00  0.00     0.069 H 
ATOM     17  C   UNL     1     -47.226  39.381  26.592  1.00  0.00    -0.019 A 
ATOM     18  H   UNL     1     -46.724  41.015  25.293  1.00  0.00     0.063 H 
ATOM     19  H   UNL     1     -48.131  39.173  26.030  1.00  0.00     0.066 H 
BRANCH   6  20
ATOM     20  C   UNL     1     -41.631  41.481  28.991  1.00  0.00    -0.013 C 
ATOM     21  H   UNL     1     -40.763  41.325  28.340  1.00  0.00     0.033 H 
ATOM     22  H   UNL     1     -41.592  42.528  29.316  1.00  0.00     0.033 H 
BRANCH  20  23
ATOM     23  C   UNL     1     -41.545  40.572  30.206  1.00  0.00    -0.060 C 
ATOM     24  H   UNL     1     -41.106  41.095  31.063  1.00  0.00     0.023 H 
ATOM     25  H   UNL     1     -40.921  39.701  29.984  1.00  0.00     0.023 H 
ATOM     26  H   UNL     1     -42.535  40.212  30.505  1.00  0.00     0.023 H 
ENDBRANCH  20  23
ENDBRANCH   6  20
ENDBRANCH   4   5
ENDBRANCH   1   4
BRANCH   1  27
ATOM     27  C   UNL     1     -47.497  35.259  27.354  1.00  0.00     0.010 A 
ATOM     28  C   UNL     1     -46.487  34.986  28.266  1.00  0.00     0.034 A 
ATOM     29  C   UNL     1     -47.841  34.245  26.450  1.00  0.00    -0.028 A 
ATOM     30  N   UNL     1     -45.847  33.802  28.346  1.00  0.00    -0.262 NA
ATOM     31  H   UNL     1     -46.149  35.731  28.983  1.00  0.00     0.084 H 
ATOM     32  C   UNL     1     -47.204  32.996  26.500  1.00  0.00     0.066 A 
ATOM     33  H   UNL     1     -48.601  34.469  25.707  1.00  0.00     0.065 H 
ATOM     34  C   UNL     1     -46.217  32.836  27.466  1.00  0.00     0.051 A 
ATOM     35  H   UNL     1     -45.670  31.911  27.614  1.00  0.00     0.086 H 
BRANCH  32  36
ATOM     36  N   UNL     1     -47.569  31.942  25.602  1.00  0.00    -0.299 N 
ATOM     37  C   UNL     1     -48.468  30.929  25.895  1.00  0.00     0.021 A 
ATOM     38  C   UNL     1     -47.110  31.721  24.303  1.00  0.00     0.150 A 
ATOM     39  C   UNL     1     -48.574  30.076  24.817  1.00  0.00     0.033 A 
ATOM     40  H   UNL     1     -48.936  30.855  26.865  1.00  0.00     0.083 H 
ATOM     41  C   UNL     1     -47.736  30.585  23.787  1.00  0.00     0.071 A 
ATOM     42  N   UNL     1     -46.226  32.488  23.633  1.00  0.00    -0.218 NA
ATOM     43  C   UNL     1     -47.412  30.238  22.461  1.00  0.00     0.137 A 
ATOM     44  C   UNL     1     -45.981  32.043  22.395  1.00  0.00     0.120 A 
ATOM     45  N   UNL     1     -46.510  30.975  21.787  1.00  0.00    -0.219 NA
ATOM     46  H   UNL     1     -45.270  32.619  21.812  1.00  0.00     0.106 H 
BRANCH  39  47
ATOM     47  C   UNL     1     -49.391  28.858  24.766  1.00  0.00     0.095 A 
ATOM     48  C   UNL     1     -50.599  28.734  24.042  1.00  0.00    -0.016 A 
ATOM     49  N   UNL     1     -49.094  27.732  25.428  1.00  0.00    -0.173 NA
ATOM     50  C   UNL     1     -51.032  27.451  24.285  1.00  0.00     0.025 A 
ATOM     51  H   UNL     1     -51.089  29.472  23.423  1.00  0.00     0.066 H 
ATOM     52  N   UNL     1     -50.103  26.896  25.112  1.00  0.00    -0.275 N 
ATOM     53  H   UNL     1     -51.901  26.907  23.945  1.00  0.00     0.084 H 
BRANCH  52  54
ATOM     54  C   UNL     1     -50.108  25.557  25.649  1.00  0.00     0.030 C 
ATOM     55  H   UNL     1     -50.282  24.841  24.840  1.00  0.00     0.048 H 
ATOM     56  H   UNL     1     -50.910  25.486  26.388  1.00  0.00     0.048 H 
ATOM     57  H   UNL     1     -49.137  25.367  26.114  1.00  0.00     0.048 H 
ENDBRANCH  52  54
ENDBRANCH  39  47
BRANCH  43  58
ATOM     58  N   UNL     1     -47.969  29.166  21.778  1.00  0.00    -0.383 N 
ATOM     59  H   UNL     1     -48.700  29.464  21.150  1.00  0.00     0.158 HD
ATOM     60  H   UNL     1     -47.259  28.532  21.396  1.00  0.00     0.158 HD
ENDBRANCH  43  58
ENDBRANCH  32  36
ENDBRANCH   1  27
TORSDOF 9
ENDMDL
MODEL 6
REMARK VINA RESULT:     -10.0      2.360     12.044
REMARK SMILES CCc1ccc2ccc(OCc3cncc(-n4cc(-c5ccn(C)n5)c5c(N)ncnc54)c3)cc2n1
REMARK SMILES IDX 11 1 10 4 9 5 3 6 4 7 36 8 5 9 35 11 6 12 34 14 7 15 8 17
REMARK SMILES IDX 2 20 1 23 12 27 13 28 33 29 14 30 16 32 15 34 17 36 18 37
REMARK SMILES IDX 32 38 19 39 26 41 31 42 27 43 30 44 29 45 20 47 21 48 25 49
REMARK SMILES IDX 22 50 23 52 24 54 28 58
REMARK H PARENT 11 2 11 3 4 10 5 13 34 16 7 18 8 19 2 21 2 22 1 24 1 25 1 26
REMARK H PARENT 13 31 33 33 15 35 18 40 30 46 21 51 22 53 24 55 24 56 24 57
REMARK H PARENT 28 59 28 60
REMARK Flexibility Score: inf
ROOT
ATOM      1  C   UNL     1     -47.288  33.776  26.642  1.00  0.00     0.115 C 
ATOM      2  H   UNL     1     -48.189  33.168  26.778  1.00  0.00     0.076 H 
ATOM      3  H   UNL     1     -46.522  33.339  27.295  1.00  0.00     0.076 H 
ENDROOT
BRANCH   1   4
ATOM      4  O   UNL     1     -46.917  33.642  25.267  1.00  0.00    -0.489 OA
BRANCH   4   5
ATOM      5  C   UNL     1     -46.957  32.403  24.690  1.00  0.00     0.122 A 
ATOM      6  C   UNL     1     -48.964  28.098  25.071  1.00  0.00     0.041 A 
ATOM      7  C   UNL     1     -48.311  27.628  23.939  1.00  0.00    -0.040 A 
ATOM      8  N   UNL     1     -48.807  29.363  25.531  1.00  0.00    -0.253 NA
ATOM      9  C   UNL     1     -47.456  28.489  23.258  1.00  0.00    -0.051 A 
ATOM     10  H   UNL     1     -48.462  26.613  23.587  1.00  0.00     0.064 H 
ATOM     11  C   UNL     1     -47.979  30.194  24.873  1.00  0.00     0.074 A 
ATOM     12  C   UNL     1     -47.275  29.797  23.720  1.00  0.00     0.000 A 
ATOM     13  H   UNL     1     -46.939  28.135  22.371  1.00  0.00     0.063 H 
ATOM     14  C   UNL     1     -47.803  31.492  25.332  1.00  0.00     0.006 A 
ATOM     15  C   UNL     1     -46.425  30.703  23.066  1.00  0.00    -0.049 A 
ATOM     16  H   UNL     1     -48.347  31.805  26.221  1.00  0.00     0.069 H 
ATOM     17  C   UNL     1     -46.267  32.003  23.549  1.00  0.00    -0.019 A 
ATOM     18  H   UNL     1     -45.885  30.403  22.170  1.00  0.00     0.063 H 
ATOM     19  H   UNL     1     -45.614  32.673  23.001  1.00  0.00     0.066 H 
BRANCH   6  20
ATOM     20  C   UNL     1     -49.916  27.212  25.829  1.00  0.00    -0.013 C 
ATOM     21  H   UNL     1     -49.422  26.268  26.090  1.00  0.00     0.033 H 
ATOM     22  H   UNL     1     -50.182  27.697  26.776  1.00  0.00     0.033 H 
BRANCH  20  23
ATOM     23  C   UNL     1     -51.180  26.937  25.030  1.00  0.00    -0.060 C 
ATOM     24  H   UNL     1     -51.170  27.474  24.075  1.00  0.00     0.023 H 
ATOM     25  H   UNL     1     -52.062  27.260  25.593  1.00  0.00     0.023 H 
ATOM     26  H   UNL     1     -51.289  25.869  24.813  1.00  0.00     0.023 H 
ENDBRANCH  20  23
ENDBRANCH   6  20
ENDBRANCH   4   5
ENDBRANCH   1   4
BRANCH   1  27
ATOM     27  C   UNL     1     -47.633  35.189  27.039  1.00  0.00     0.010 A 
ATOM     28  C   UNL     1     -48.946  35.522  27.338  1.00  0.00     0.034 A 
ATOM     29  C   UNL     1     -46.683  36.221  27.069  1.00  0.00    -0.028 A 
ATOM     30  N   UNL     1     -49.348  36.762  27.680  1.00  0.00    -0.262 NA
ATOM     31  H   UNL     1     -49.742  34.781  27.312  1.00  0.00     0.084 H 
ATOM     32  C   UNL     1     -47.056  37.526  27.425  1.00  0.00     0.066 A 
ATOM     33  H   UNL     1     -45.662  35.974  26.794  1.00  0.00     0.065 H 
ATOM     34  C   UNL     1     -48.399  37.734  27.717  1.00  0.00     0.051 A 
ATOM     35  H   UNL     1     -48.802  38.693  28.023  1.00  0.00     0.086 H 
BRANCH  32  36
ATOM     36  N   UNL     1     -46.090  38.580  27.490  1.00  0.00    -0.299 N 
ATOM     37  C   UNL     1     -45.966  39.598  26.558  1.00  0.00     0.021 A 
ATOM     38  C   UNL     1     -45.108  38.788  28.459  1.00  0.00     0.150 A 
ATOM     39  C   UNL     1     -44.926  40.430  26.915  1.00  0.00     0.033 A 
ATOM     40  H   UNL     1     -46.594  39.637  25.680  1.00  0.00     0.083 H 
ATOM     41  C   UNL     1     -44.389  39.941  28.137  1.00  0.00     0.071 A 
ATOM     42  N   UNL     1     -44.894  38.023  29.548  1.00  0.00    -0.218 NA
ATOM     43  C   UNL     1     -43.376  40.321  29.038  1.00  0.00     0.137 A 
ATOM     44  C   UNL     1     -43.890  38.470  30.312  1.00  0.00     0.120 A 
ATOM     45  N   UNL     1     -43.128  39.553  30.116  1.00  0.00    -0.219 NA
ATOM     46  H   UNL     1     -43.668  37.887  31.200  1.00  0.00     0.106 H 
BRANCH  39  47
ATOM     47  C   UNL     1     -44.457  41.591  26.150  1.00  0.00     0.095 A 
ATOM     48  C   UNL     1     -45.304  42.496  25.468  1.00  0.00    -0.016 A 
ATOM     49  N   UNL     1     -43.165  41.906  25.986  1.00  0.00    -0.173 NA
ATOM     50  C   UNL     1     -44.456  43.404  24.879  1.00  0.00     0.025 A 
ATOM     51  H   UNL     1     -46.383  42.494  25.415  1.00  0.00     0.066 H 
ATOM     52  N   UNL     1     -43.196  43.013  25.218  1.00  0.00    -0.275 N 
ATOM     53  H   UNL     1     -44.644  44.273  24.264  1.00  0.00     0.084 H 
BRANCH  52  54
ATOM     54  C   UNL     1     -41.958  43.651  24.843  1.00  0.00     0.030 C 
ATOM     55  H   UNL     1     -41.949  43.819  23.763  1.00  0.00     0.048 H 
ATOM     56  H   UNL     1     -41.132  42.993  25.125  1.00  0.00     0.048 H 
ATOM     57  H   UNL     1     -41.889  44.606  25.371  1.00  0.00     0.048 H 
ENDBRANCH  52  54
ENDBRANCH  39  47
BRANCH  43  58
ATOM     58  N   UNL     1     -42.593  41.458  28.897  1.00  0.00    -0.383 N 
ATOM     59  H   UNL     1     -41.897  41.524  29.625  1.00  0.00     0.158 HD
ATOM     60  H   UNL     1     -42.270  41.596  27.934  1.00  0.00     0.158 HD
ENDBRANCH  43  58
ENDBRANCH  32  36
ENDBRANCH   1  27
TORSDOF 9
ENDMDL
MODEL 7
REMARK VINA RESULT:      -9.9      2.218     11.804
REMARK SMILES CCc1ccc2ccc(OCc3cncc(-n4cc(-c5ccn(C)n5)c5c(N)ncnc54)c3)cc2n1
REMARK SMILES IDX 11 1 10 4 9 5 3 6 4 7 36 8 5 9 35 11 6 12 34 14 7 15 8 17
REMARK SMILES IDX 2 20 1 23 12 27 13 28 33 29 14 30 16 32 15 34 17 36 18 37
REMARK SMILES IDX 32 38 19 39 26 41 31 42 27 43 30 44 29 45 20 47 21 48 25 49
REMARK SMILES IDX 22 50 23 52 24 54 28 58
REMARK H PARENT 11 2 11 3 4 10 5 13 34 16 7 18 8 19 2 21 2 22 1 24 1 25 1 26
REMARK H PARENT 13 31 33 33 15 35 18 40 30 46 21 51 22 53 24 55 24 56 24 57
REMARK H PARENT 28 59 28 60
REMARK Flexibility Score: inf
ROOT
ATOM      1  C   UNL     1     -47.636  32.745  25.757  1.00  0.00     0.115 C 
ATOM      2  H   UNL     1     -48.001  31.940  26.406  1.00  0.00     0.076 H 
ATOM      3  H   UNL     1     -46.544  32.645  25.729  1.00  0.00     0.076 H 
ENDROOT
BRANCH   1   4
ATOM      4  O   UNL     1     -48.200  32.503  24.464  1.00  0.00    -0.489 OA
BRANCH   4   5
ATOM      5  C   UNL     1     -48.817  31.306  24.226  1.00  0.00     0.122 A 
ATOM      6  C   UNL     1     -49.067  26.794  25.741  1.00  0.00     0.041 A 
ATOM      7  C   UNL     1     -50.036  26.471  24.799  1.00  0.00    -0.040 A 
ATOM      8  N   UNL     1     -48.536  28.038  25.842  1.00  0.00    -0.253 NA
ATOM      9  C   UNL     1     -50.470  27.460  23.923  1.00  0.00    -0.051 A 
ATOM     10  H   UNL     1     -50.451  25.470  24.747  1.00  0.00     0.064 H 
ATOM     11  C   UNL     1     -48.956  28.993  24.993  1.00  0.00     0.074 A 
ATOM     12  C   UNL     1     -49.931  28.748  24.007  1.00  0.00     0.000 A 
ATOM     13  H   UNL     1     -51.228  27.221  23.182  1.00  0.00     0.063 H 
ATOM     14  C   UNL     1     -48.421  30.270  25.080  1.00  0.00     0.006 A 
ATOM     15  C   UNL     1     -50.338  29.780  23.146  1.00  0.00    -0.049 A 
ATOM     16  H   UNL     1     -47.668  30.466  25.842  1.00  0.00     0.069 H 
ATOM     17  C   UNL     1     -49.783  31.056  23.257  1.00  0.00    -0.019 A 
ATOM     18  H   UNL     1     -51.096  29.597  22.388  1.00  0.00     0.063 H 
ATOM     19  H   UNL     1     -50.142  31.826  22.582  1.00  0.00     0.066 H 
BRANCH   6  20
ATOM     20  C   UNL     1     -48.581  25.765  26.725  1.00  0.00    -0.013 C 
ATOM     21  H   UNL     1     -48.433  26.227  27.708  1.00  0.00     0.033 H 
ATOM     22  H   UNL     1     -49.355  24.999  26.855  1.00  0.00     0.033 H 
BRANCH  20  23
ATOM     23  C   UNL     1     -47.293  25.107  26.256  1.00  0.00    -0.060 C 
ATOM     24  H   UNL     1     -46.828  24.528  27.061  1.00  0.00     0.023 H 
ATOM     25  H   UNL     1     -46.578  25.867  25.926  1.00  0.00     0.023 H 
ATOM     26  H   UNL     1     -47.476  24.427  25.416  1.00  0.00     0.023 H 
ENDBRANCH  20  23
ENDBRANCH   6  20
ENDBRANCH   4   5
ENDBRANCH   1   4
BRANCH   1  27
ATOM     27  C   UNL     1     -48.071  34.052  26.370  1.00  0.00     0.010 A 
ATOM     28  C   UNL     1     -49.407  34.258  26.682  1.00  0.00     0.034 A 
ATOM     29  C   UNL     1     -47.185  35.115  26.596  1.00  0.00    -0.028 A 
ATOM     30  N   UNL     1     -49.888  35.401  27.211  1.00  0.00    -0.262 NA
ATOM     31  H   UNL     1     -50.157  33.489  26.512  1.00  0.00     0.084 H 
ATOM     32  C   UNL     1     -47.641  36.321  27.150  1.00  0.00     0.066 A 
ATOM     33  H   UNL     1     -46.146  34.973  26.314  1.00  0.00     0.065 H 
ATOM     34  C   UNL     1     -48.999  36.404  27.433  1.00  0.00     0.051 A 
ATOM     35  H   UNL     1     -49.463  37.276  27.881  1.00  0.00     0.086 H 
BRANCH  32  36
ATOM     36  N   UNL     1     -46.739  37.401  27.414  1.00  0.00    -0.299 N 
ATOM     37  C   UNL     1     -46.553  38.496  26.586  1.00  0.00     0.021 A 
ATOM     38  C   UNL     1     -45.890  37.564  28.509  1.00  0.00     0.150 A 
ATOM     39  C   UNL     1     -45.603  39.335  27.131  1.00  0.00     0.033 A 
ATOM     40  H   UNL     1     -47.073  38.585  25.644  1.00  0.00     0.083 H 
ATOM     41  C   UNL     1     -45.193  38.766  28.369  1.00  0.00     0.071 A 
ATOM     42  N   UNL     1     -45.771  36.720  29.554  1.00  0.00    -0.218 NA
ATOM     43  C   UNL     1     -44.313  39.107  29.413  1.00  0.00     0.137 A 
ATOM     44  C   UNL     1     -44.888  37.140  30.467  1.00  0.00     0.120 A 
ATOM     45  N   UNL     1     -44.159  38.263  30.450  1.00  0.00    -0.219 NA
ATOM     46  H   UNL     1     -44.746  36.494  31.328  1.00  0.00     0.106 H 
BRANCH  39  47
ATOM     47  C   UNL     1     -45.102  40.571  26.522  1.00  0.00     0.095 A 
ATOM     48  C   UNL     1     -45.905  41.504  25.826  1.00  0.00    -0.016 A 
ATOM     49  N   UNL     1     -43.813  40.940  26.530  1.00  0.00    -0.173 NA
ATOM     50  C   UNL     1     -45.036  42.487  25.413  1.00  0.00     0.025 A 
ATOM     51  H   UNL     1     -46.971  41.473  25.653  1.00  0.00     0.066 H 
ATOM     52  N   UNL     1     -43.806  42.107  25.857  1.00  0.00    -0.275 N 
ATOM     53  H   UNL     1     -45.192  43.399  24.855  1.00  0.00     0.084 H 
BRANCH  52  54
ATOM     54  C   UNL     1     -42.561  42.814  25.677  1.00  0.00     0.030 C 
ATOM     55  H   UNL     1     -41.728  42.113  25.774  1.00  0.00     0.048 H 
ATOM     56  H   UNL     1     -42.490  43.587  26.446  1.00  0.00     0.048 H 
ATOM     57  H   UNL     1     -42.560  43.261  24.679  1.00  0.00     0.048 H 
ENDBRANCH  52  54
ENDBRANCH  39  47
BRANCH  43  58
ATOM     58  N   UNL     1     -43.573  40.280  29.457  1.00  0.00    -0.383 N 
ATOM     59  H   UNL     1     -44.167  41.096  29.437  1.00  0.00     0.158 HD
ATOM     60  H   UNL     1     -42.842  40.257  30.175  1.00  0.00     0.158 HD
ENDBRANCH  43  58
ENDBRANCH  32  36
ENDBRANCH   1  27
TORSDOF 9
ENDMDL
