MODEL 1
REMARK VINA RESULT:     -10.9      0.000      0.000
REMARK SMILES Cn1ccc(-c2cn(-c3cncc(COc4ccc5cnc(N6CCC6)nc5c4)c3)c3ncnc(N)c23)n1
REMARK SMILES IDX 9 1 10 2 11 3 12 4 13 5 30 6 8 10 6 11 7 12 37 13 31 15
REMARK SMILES IDX 35 16 32 17 34 18 33 19 5 21 2 22 3 23 38 24 4 25 1 28 36 32
REMARK SMILES IDX 14 35 15 38 16 39 17 40 29 41 18 42 28 44 19 46 27 48 20 49
REMARK SMILES IDX 22 50 21 51 23 53 24 54 26 55 25 56
REMARK H PARENT 10 7 12 8 30 9 7 14 33 20 3 26 4 27 1 29 1 30 1 31 36 33 36 34
REMARK H PARENT 14 36 14 37 17 43 29 45 18 47 20 52 24 57 24 58 26 59 26 60
REMARK H PARENT 25 61 25 62
REMARK Flexibility Score: inf
ROOT
ATOM      1  C   UNL     1     -45.784  38.372  28.114  1.00  0.00     0.066 A 
ATOM      2  C   UNL     1     -45.359  37.718  29.265  1.00  0.00     0.051 A 
ATOM      3  N   UNL     1     -45.891  36.554  29.720  1.00  0.00    -0.262 NA
ATOM      4  C   UNL     1     -46.892  36.010  29.001  1.00  0.00     0.034 A 
ATOM      5  C   UNL     1     -47.389  36.561  27.828  1.00  0.00     0.010 A 
ATOM      6  C   UNL     1     -46.830  37.773  27.398  1.00  0.00    -0.028 A 
ATOM      7  H   UNL     1     -44.545  38.071  29.888  1.00  0.00     0.086 H 
ATOM      8  H   UNL     1     -47.290  35.086  29.409  1.00  0.00     0.084 H 
ATOM      9  H   UNL     1     -47.245  38.232  26.505  1.00  0.00     0.065 H 
ENDROOT
BRANCH   1  10
ATOM     10  N   UNL     1     -45.180  39.589  27.664  1.00  0.00    -0.299 N 
ATOM     11  C   UNL     1     -44.807  41.443  26.424  1.00  0.00     0.033 A 
ATOM     12  C   UNL     1     -45.623  40.342  26.589  1.00  0.00     0.021 A 
ATOM     13  C   UNL     1     -43.800  41.380  27.427  1.00  0.00     0.071 A 
ATOM     14  H   UNL     1     -46.481  40.044  26.005  1.00  0.00     0.083 H 
ATOM     15  C   UNL     1     -44.062  40.240  28.189  1.00  0.00     0.150 A 
ATOM     16  C   UNL     1     -42.678  42.143  27.804  1.00  0.00     0.137 A 
ATOM     17  N   UNL     1     -43.354  39.854  29.269  1.00  0.00    -0.218 NA
ATOM     18  N   UNL     1     -41.967  41.780  28.886  1.00  0.00    -0.219 NA
ATOM     19  C   UNL     1     -42.335  40.675  29.547  1.00  0.00     0.120 A 
ATOM     20  H   UNL     1     -41.732  40.415  30.412  1.00  0.00     0.106 H 
BRANCH  11  21
ATOM     21  C   UNL     1     -44.970  42.485  25.406  1.00  0.00     0.095 A 
ATOM     22  N   UNL     1     -44.632  43.734  23.732  1.00  0.00    -0.275 N 
ATOM     23  C   UNL     1     -45.787  44.206  24.279  1.00  0.00     0.025 A 
ATOM     24  N   UNL     1     -44.106  42.690  24.402  1.00  0.00    -0.173 NA
ATOM     25  C   UNL     1     -46.034  43.415  25.376  1.00  0.00    -0.016 A 
ATOM     26  H   UNL     1     -46.326  45.042  23.855  1.00  0.00     0.084 H 
ATOM     27  H   UNL     1     -46.874  43.497  26.051  1.00  0.00     0.066 H 
BRANCH  22  28
ATOM     28  C   UNL     1     -43.961  44.233  22.556  1.00  0.00     0.030 C 
ATOM     29  H   UNL     1     -42.986  44.625  22.856  1.00  0.00     0.048 H 
ATOM     30  H   UNL     1     -43.832  43.421  21.837  1.00  0.00     0.048 H 
ATOM     31  H   UNL     1     -44.576  45.025  22.119  1.00  0.00     0.048 H 
ENDBRANCH  22  28
ENDBRANCH  11  21
BRANCH  16  32
ATOM     32  N   UNL     1     -42.244  43.275  27.130  1.00  0.00    -0.383 N 
ATOM     33  H   UNL     1     -42.949  43.641  26.481  1.00  0.00     0.158 HD
ATOM     34  H   UNL     1     -41.814  43.940  27.758  1.00  0.00     0.158 HD
ENDBRANCH  16  32
ENDBRANCH   1  10
BRANCH   5  35
ATOM     35  C   UNL     1     -48.525  35.886  27.103  1.00  0.00     0.115 C 
ATOM     36  H   UNL     1     -49.497  36.329  27.352  1.00  0.00     0.076 H 
ATOM     37  H   UNL     1     -48.376  36.055  26.030  1.00  0.00     0.076 H 
BRANCH  35  38
ATOM     38  O   UNL     1     -48.557  34.467  27.285  1.00  0.00    -0.489 OA
BRANCH  38  39
ATOM     39  C   UNL     1     -47.950  33.665  26.357  1.00  0.00     0.122 A 
ATOM     40  C   UNL     1     -46.779  33.949  25.661  1.00  0.00    -0.019 A 
ATOM     41  C   UNL     1     -48.624  32.464  26.103  1.00  0.00     0.007 A 
ATOM     42  C   UNL     1     -46.295  33.035  24.725  1.00  0.00    -0.048 A 
ATOM     43  H   UNL     1     -46.225  34.871  25.807  1.00  0.00     0.066 H 
ATOM     44  C   UNL     1     -48.165  31.537  25.176  1.00  0.00     0.079 A 
ATOM     45  H   UNL     1     -49.542  32.244  26.645  1.00  0.00     0.069 H 
ATOM     46  C   UNL     1     -46.990  31.835  24.488  1.00  0.00     0.019 A 
ATOM     47  H   UNL     1     -45.381  33.263  24.179  1.00  0.00     0.063 H 
ATOM     48  N   UNL     1     -48.848  30.404  24.966  1.00  0.00    -0.213 NA
ATOM     49  C   UNL     1     -46.586  30.875  23.578  1.00  0.00     0.040 A 
ATOM     50  C   UNL     1     -48.378  29.528  24.060  1.00  0.00     0.225 A 
ATOM     51  N   UNL     1     -47.254  29.729  23.351  1.00  0.00    -0.221 NA
ATOM     52  H   UNL     1     -45.687  31.000  22.982  1.00  0.00     0.085 H 
BRANCH  50  53
ATOM     53  N   UNL     1     -49.102  28.353  23.835  1.00  0.00    -0.341 N 
ATOM     54  C   UNL     1     -49.350  27.778  22.548  1.00  0.00     0.022 C 
ATOM     55  C   UNL     1     -50.440  28.118  24.284  1.00  0.00     0.022 C 
ATOM     56  C   UNL     1     -50.510  27.024  23.211  1.00  0.00    -0.018 C 
ATOM     57  H   UNL     1     -48.528  27.160  22.181  1.00  0.00     0.049 H 
ATOM     58  H   UNL     1     -49.649  28.517  21.796  1.00  0.00     0.049 H 
ATOM     59  H   UNL     1     -50.500  27.774  25.319  1.00  0.00     0.049 H 
ATOM     60  H   UNL     1     -51.107  28.971  24.117  1.00  0.00     0.049 H 
ATOM     61  H   UNL     1     -50.252  26.022  23.570  1.00  0.00     0.030 H 
ATOM     62  H   UNL     1     -51.438  26.979  22.636  1.00  0.00     0.030 H 
ENDBRANCH  50  53
ENDBRANCH  38  39
ENDBRANCH  35  38
ENDBRANCH   5  35
TORSDOF 8
ENDMDL
MODEL 2
REMARK VINA RESULT:     -10.8      1.873     12.355
REMARK SMILES Cn1ccc(-c2cn(-c3cncc(COc4ccc5cnc(N6CCC6)nc5c4)c3)c3ncnc(N)c23)n1
REMARK SMILES IDX 9 1 10 2 11 3 12 4 13 5 30 6 8 10 6 11 7 12 37 13 31 15
REMARK SMILES IDX 35 16 32 17 34 18 33 19 5 21 2 22 3 23 38 24 4 25 1 28 36 32
REMARK SMILES IDX 14 35 15 38 16 39 17 40 29 41 18 42 28 44 19 46 27 48 20 49
REMARK SMILES IDX 22 50 21 51 23 53 24 54 26 55 25 56
REMARK H PARENT 10 7 12 8 30 9 7 14 33 20 3 26 4 27 1 29 1 30 1 31 36 33 36 34
REMARK H PARENT 14 36 14 37 17 43 29 45 18 47 20 52 24 57 24 58 26 59 26 60
REMARK H PARENT 25 61 25 62
REMARK Flexibility Score: inf
ROOT
ATOM      1  C   UNL     1     -47.687  32.148  25.184  1.00  0.00     0.066 A 
ATOM      2  C   UNL     1     -46.355  32.503  25.000  1.00  0.00     0.051 A 
ATOM      3  N   UNL     1     -45.814  33.676  25.421  1.00  0.00    -0.262 NA
ATOM      4  C   UNL     1     -46.631  34.538  26.057  1.00  0.00     0.034 A 
ATOM      5  C   UNL     1     -47.972  34.288  26.313  1.00  0.00     0.010 A 
ATOM      6  C   UNL     1     -48.501  33.076  25.848  1.00  0.00    -0.028 A 
ATOM      7  H   UNL     1     -45.625  31.860  24.521  1.00  0.00     0.086 H 
ATOM      8  H   UNL     1     -46.155  35.465  26.367  1.00  0.00     0.084 H 
ATOM      9  H   UNL     1     -49.560  32.893  26.006  1.00  0.00     0.065 H 
ENDROOT
BRANCH   1  10
ATOM     10  N   UNL     1     -48.207  30.891  24.737  1.00  0.00    -0.299 N 
ATOM     11  C   UNL     1     -49.093  28.813  24.812  1.00  0.00     0.033 A 
ATOM     12  C   UNL     1     -48.679  29.890  25.568  1.00  0.00     0.021 A 
ATOM     13  C   UNL     1     -48.864  29.139  23.446  1.00  0.00     0.071 A 
ATOM     14  H   UNL     1     -48.682  30.002  26.643  1.00  0.00     0.083 H 
ATOM     15  C   UNL     1     -48.335  30.431  23.425  1.00  0.00     0.150 A 
ATOM     16  C   UNL     1     -49.031  28.508  22.199  1.00  0.00     0.137 A 
ATOM     17  N   UNL     1     -48.023  31.119  22.309  1.00  0.00    -0.218 NA
ATOM     18  N   UNL     1     -48.737  29.184  21.073  1.00  0.00    -0.219 NA
ATOM     19  C   UNL     1     -48.257  30.429  21.186  1.00  0.00     0.120 A 
ATOM     20  H   UNL     1     -48.028  30.938  20.255  1.00  0.00     0.106 H 
BRANCH  11  21
ATOM     21  C   UNL     1     -49.675  27.571  25.333  1.00  0.00     0.095 A 
ATOM     22  N   UNL     1     -51.039  26.175  26.147  1.00  0.00    -0.275 N 
ATOM     23  C   UNL     1     -49.876  25.477  26.020  1.00  0.00     0.025 A 
ATOM     24  N   UNL     1     -50.945  27.456  25.744  1.00  0.00    -0.173 NA
ATOM     25  C   UNL     1     -48.962  26.361  25.495  1.00  0.00    -0.016 A 
ATOM     26  H   UNL     1     -49.793  24.437  26.303  1.00  0.00     0.084 H 
ATOM     27  H   UNL     1     -47.930  26.152  25.255  1.00  0.00     0.066 H 
BRANCH  22  28
ATOM     28  C   UNL     1     -52.297  25.679  26.650  1.00  0.00     0.030 C 
ATOM     29  H   UNL     1     -52.941  25.443  25.799  1.00  0.00     0.048 H 
ATOM     30  H   UNL     1     -52.123  24.782  27.248  1.00  0.00     0.048 H 
ATOM     31  H   UNL     1     -52.750  26.458  27.270  1.00  0.00     0.048 H 
ENDBRANCH  22  28
ENDBRANCH  11  21
BRANCH  16  32
ATOM     32  N   UNL     1     -49.496  27.212  22.037  1.00  0.00    -0.383 N 
ATOM     33  H   UNL     1     -50.505  27.174  21.864  1.00  0.00     0.158 HD
ATOM     34  H   UNL     1     -48.907  26.681  21.411  1.00  0.00     0.158 HD
ENDBRANCH  16  32
ENDBRANCH   1  10
BRANCH   5  35
ATOM     35  C   UNL     1     -48.808  35.325  27.017  1.00  0.00     0.115 C 
ATOM     36  H   UNL     1     -48.964  36.219  26.401  1.00  0.00     0.076 H 
ATOM     37  H   UNL     1     -49.801  34.889  27.183  1.00  0.00     0.076 H 
BRANCH  35  38
ATOM     38  O   UNL     1     -48.308  35.684  28.309  1.00  0.00    -0.489 OA
BRANCH  38  39
ATOM     39  C   UNL     1     -47.279  36.582  28.395  1.00  0.00     0.122 A 
ATOM     40  C   UNL     1     -46.153  36.471  29.206  1.00  0.00    -0.019 A 
ATOM     41  C   UNL     1     -47.433  37.716  27.586  1.00  0.00     0.007 A 
ATOM     42  C   UNL     1     -45.197  37.486  29.198  1.00  0.00    -0.048 A 
ATOM     43  H   UNL     1     -45.991  35.623  29.863  1.00  0.00     0.066 H 
ATOM     44  C   UNL     1     -46.496  38.741  27.561  1.00  0.00     0.079 A 
ATOM     45  H   UNL     1     -48.315  37.803  26.956  1.00  0.00     0.069 H 
ATOM     46  C   UNL     1     -45.374  38.615  28.377  1.00  0.00     0.019 A 
ATOM     47  H   UNL     1     -44.320  37.399  29.837  1.00  0.00     0.063 H 
ATOM     48  N   UNL     1     -46.691  39.807  26.772  1.00  0.00    -0.213 NA
ATOM     49  C   UNL     1     -44.480  39.668  28.309  1.00  0.00     0.040 A 
ATOM     50  C   UNL     1     -45.766  40.784  26.773  1.00  0.00     0.225 A 
ATOM     51  N   UNL     1     -44.653  40.748  27.524  1.00  0.00    -0.221 NA
ATOM     52  H   UNL     1     -43.571  39.681  28.902  1.00  0.00     0.085 H 
BRANCH  50  53
ATOM     53  N   UNL     1     -45.981  41.900  25.958  1.00  0.00    -0.341 N 
ATOM     54  C   UNL     1     -45.003  42.906  25.675  1.00  0.00     0.022 C 
ATOM     55  C   UNL     1     -47.028  42.858  26.142  1.00  0.00     0.022 C 
ATOM     56  C   UNL     1     -46.181  43.810  25.288  1.00  0.00    -0.018 C 
ATOM     57  H   UNL     1     -44.322  42.637  24.865  1.00  0.00     0.049 H 
ATOM     58  H   UNL     1     -44.447  43.229  26.562  1.00  0.00     0.049 H 
ATOM     59  H   UNL     1     -47.983  42.551  25.708  1.00  0.00     0.049 H 
ATOM     60  H   UNL     1     -47.154  43.165  27.186  1.00  0.00     0.049 H 
ATOM     61  H   UNL     1     -46.427  43.799  24.220  1.00  0.00     0.030 H 
ATOM     62  H   UNL     1     -46.124  44.842  25.639  1.00  0.00     0.030 H 
ENDBRANCH  50  53
ENDBRANCH  38  39
ENDBRANCH  35  38
ENDBRANCH   5  35
TORSDOF 8
ENDMDL
MODEL 3
REMARK VINA RESULT:     -10.5      1.772      3.106
REMARK SMILES Cn1ccc(-c2cn(-c3cncc(COc4ccc5cnc(N6CCC6)nc5c4)c3)c3ncnc(N)c23)n1
REMARK SMILES IDX 9 1 10 2 11 3 12 4 13 5 30 6 8 10 6 11 7 12 37 13 31 15
REMARK SMILES IDX 35 16 32 17 34 18 33 19 5 21 2 22 3 23 38 24 4 25 1 28 36 32
REMARK SMILES IDX 14 35 15 38 16 39 17 40 29 41 18 42 28 44 19 46 27 48 20 49
REMARK SMILES IDX 22 50 21 51 23 53 24 54 26 55 25 56
REMARK H PARENT 10 7 12 8 30 9 7 14 33 20 3 26 4 27 1 29 1 30 1 31 36 33 36 34
REMARK H PARENT 14 36 14 37 17 43 29 45 18 47 20 52 24 57 24 58 26 59 26 60
REMARK H PARENT 25 61 25 62
REMARK Flexibility Score: inf
ROOT
ATOM      1  C   UNL     1     -46.997  36.366  26.975  1.00  0.00     0.066 A 
ATOM      2  C   UNL     1     -48.352  36.250  27.264  1.00  0.00     0.051 A 
ATOM      3  N   UNL     1     -49.079  35.119  27.070  1.00  0.00    -0.262 NA
ATOM      4  C   UNL     1     -48.433  34.050  26.566  1.00  0.00     0.034 A 
ATOM      5  C   UNL     1     -47.080  34.040  26.254  1.00  0.00     0.010 A 
ATOM      6  C   UNL     1     -46.365  35.230  26.449  1.00  0.00    -0.028 A 
ATOM      7  H   UNL     1     -48.943  37.052  27.694  1.00  0.00     0.086 H 
ATOM      8  H   UNL     1     -49.058  33.173  26.420  1.00  0.00     0.084 H 
ATOM      9  H   UNL     1     -45.317  35.241  26.166  1.00  0.00     0.065 H 
ENDROOT
BRANCH   1  10
ATOM     10  N   UNL     1     -46.269  37.575  27.213  1.00  0.00    -0.299 N 
ATOM     11  C   UNL     1     -45.435  39.651  26.886  1.00  0.00     0.033 A 
ATOM     12  C   UNL     1     -46.242  38.664  26.358  1.00  0.00     0.021 A 
ATOM     13  C   UNL     1     -44.921  39.165  28.121  1.00  0.00     0.071 A 
ATOM     14  H   UNL     1     -46.788  38.664  25.426  1.00  0.00     0.083 H 
ATOM     15  C   UNL     1     -45.464  37.893  28.308  1.00  0.00     0.150 A 
ATOM     16  C   UNL     1     -44.053  39.632  29.126  1.00  0.00     0.137 A 
ATOM     17  N   UNL     1     -45.252  37.115  29.390  1.00  0.00    -0.218 NA
ATOM     18  N   UNL     1     -43.839  38.876  30.217  1.00  0.00    -0.219 NA
ATOM     19  C   UNL     1     -44.438  37.680  30.289  1.00  0.00     0.120 A 
ATOM     20  H   UNL     1     -44.236  37.099  31.183  1.00  0.00     0.106 H 
BRANCH  11  21
ATOM     21  C   UNL     1     -45.177  40.962  26.282  1.00  0.00     0.095 A 
ATOM     22  N   UNL     1     -44.185  42.625  25.430  1.00  0.00    -0.275 N 
ATOM     23  C   UNL     1     -45.493  43.003  25.486  1.00  0.00     0.025 A 
ATOM     24  N   UNL     1     -43.960  41.388  25.916  1.00  0.00    -0.173 NA
ATOM     25  C   UNL     1     -46.168  41.940  26.040  1.00  0.00    -0.016 A 
ATOM     26  H   UNL     1     -45.829  43.968  25.135  1.00  0.00     0.084 H 
ATOM     27  H   UNL     1     -47.229  41.883  26.232  1.00  0.00     0.066 H 
BRANCH  22  28
ATOM     28  C   UNL     1     -43.079  43.399  24.921  1.00  0.00     0.030 C 
ATOM     29  H   UNL     1     -43.481  44.251  24.367  1.00  0.00     0.048 H 
ATOM     30  H   UNL     1     -42.465  43.750  25.754  1.00  0.00     0.048 H 
ATOM     31  H   UNL     1     -42.485  42.758  24.263  1.00  0.00     0.048 H 
ENDBRANCH  22  28
ENDBRANCH  11  21
BRANCH  16  32
ATOM     32  N   UNL     1     -43.389  40.849  29.078  1.00  0.00    -0.383 N 
ATOM     33  H   UNL     1     -42.843  41.032  29.925  1.00  0.00     0.158 HD
ATOM     34  H   UNL     1     -42.916  40.980  28.194  1.00  0.00     0.158 HD
ENDBRANCH  16  32
ENDBRANCH   1  10
BRANCH   5  35
ATOM     35  C   UNL     1     -46.452  32.797  25.677  1.00  0.00     0.115 C 
ATOM     36  H   UNL     1     -45.392  32.708  25.943  1.00  0.00     0.076 H 
ATOM     37  H   UNL     1     -46.956  31.934  26.130  1.00  0.00     0.076 H 
BRANCH  35  38
ATOM     38  O   UNL     1     -46.630  32.668  24.263  1.00  0.00    -0.489 OA
BRANCH  38  39
ATOM     39  C   UNL     1     -47.095  31.485  23.758  1.00  0.00     0.122 A 
ATOM     40  C   UNL     1     -46.833  30.967  22.493  1.00  0.00    -0.019 A 
ATOM     41  C   UNL     1     -47.930  30.773  24.631  1.00  0.00     0.007 A 
ATOM     42  C   UNL     1     -47.402  29.751  22.116  1.00  0.00    -0.048 A 
ATOM     43  H   UNL     1     -46.207  31.484  21.773  1.00  0.00     0.066 H 
ATOM     44  C   UNL     1     -48.509  29.561  24.279  1.00  0.00     0.079 A 
ATOM     45  H   UNL     1     -48.137  31.180  25.619  1.00  0.00     0.069 H 
ATOM     46  C   UNL     1     -48.236  29.055  23.010  1.00  0.00     0.019 A 
ATOM     47  H   UNL     1     -47.199  29.352  21.123  1.00  0.00     0.063 H 
ATOM     48  N   UNL     1     -49.303  28.921  25.149  1.00  0.00    -0.213 NA
ATOM     49  C   UNL     1     -48.843  27.847  22.719  1.00  0.00     0.040 A 
ATOM     50  C   UNL     1     -49.851  27.749  24.776  1.00  0.00     0.225 A 
ATOM     51  N   UNL     1     -49.643  27.185  23.575  1.00  0.00    -0.221 NA
ATOM     52  H   UNL     1     -48.706  27.359  21.759  1.00  0.00     0.085 H 
BRANCH  50  53
ATOM     53  N   UNL     1     -50.689  27.092  25.682  1.00  0.00    -0.341 N 
ATOM     54  C   UNL     1     -50.405  25.829  26.291  1.00  0.00     0.022 C 
ATOM     55  C   UNL     1     -52.057  26.753  25.433  1.00  0.00     0.022 C 
ATOM     56  C   UNL     1     -51.911  25.726  26.563  1.00  0.00    -0.018 C 
ATOM     57  H   UNL     1     -49.765  25.904  27.173  1.00  0.00     0.049 H 
ATOM     58  H   UNL     1     -50.012  25.089  25.586  1.00  0.00     0.049 H 
ATOM     59  H   UNL     1     -52.752  27.574  25.623  1.00  0.00     0.049 H 
ATOM     60  H   UNL     1     -52.221  26.324  24.439  1.00  0.00     0.049 H 
ATOM     61  H   UNL     1     -52.219  26.092  27.549  1.00  0.00     0.030 H 
ATOM     62  H   UNL     1     -52.362  24.748  26.380  1.00  0.00     0.030 H 
ENDBRANCH  50  53
ENDBRANCH  38  39
ENDBRANCH  35  38
ENDBRANCH   5  35
TORSDOF 8
ENDMDL
MODEL 4
REMARK VINA RESULT:     -10.5      2.080      2.767
REMARK SMILES Cn1ccc(-c2cn(-c3cncc(COc4ccc5cnc(N6CCC6)nc5c4)c3)c3ncnc(N)c23)n1
REMARK SMILES IDX 9 1 10 2 11 3 12 4 13 5 30 6 8 10 6 11 7 12 37 13 31 15
REMARK SMILES IDX 35 16 32 17 34 18 33 19 5 21 2 22 3 23 38 24 4 25 1 28 36 32
REMARK SMILES IDX 14 35 15 38 16 39 17 40 29 41 18 42 28 44 19 46 27 48 20 49
REMARK SMILES IDX 22 50 21 51 23 53 24 54 26 55 25 56
REMARK H PARENT 10 7 12 8 30 9 7 14 33 20 3 26 4 27 1 29 1 30 1 31 36 33 36 34
REMARK H PARENT 14 36 14 37 17 43 29 45 18 47 20 52 24 57 24 58 26 59 26 60
REMARK H PARENT 25 61 25 62
REMARK Flexibility Score: inf
ROOT
ATOM      1  C   UNL     1     -47.244  37.783  27.422  1.00  0.00     0.066 A 
ATOM      2  C   UNL     1     -48.504  37.958  27.983  1.00  0.00     0.051 A 
ATOM      3  N   UNL     1     -49.484  37.017  27.965  1.00  0.00    -0.262 NA
ATOM      4  C   UNL     1     -49.201  35.845  27.365  1.00  0.00     0.034 A 
ATOM      5  C   UNL     1     -47.975  35.547  26.785  1.00  0.00     0.010 A 
ATOM      6  C   UNL     1     -46.994  36.549  26.805  1.00  0.00    -0.028 A 
ATOM      7  H   UNL     1     -48.806  38.858  28.505  1.00  0.00     0.086 H 
ATOM      8  H   UNL     1     -50.018  35.128  27.368  1.00  0.00     0.084 H 
ATOM      9  H   UNL     1     -46.048  36.338  26.315  1.00  0.00     0.065 H 
ENDROOT
BRANCH   1  10
ATOM     10  N   UNL     1     -46.237  38.799  27.481  1.00  0.00    -0.299 N 
ATOM     11  C   UNL     1     -45.027  40.624  26.919  1.00  0.00     0.033 A 
ATOM     12  C   UNL     1     -46.106  39.836  26.573  1.00  0.00     0.021 A 
ATOM     13  C   UNL     1     -44.444  40.057  28.086  1.00  0.00     0.071 A 
ATOM     14  H   UNL     1     -46.780  39.943  25.736  1.00  0.00     0.083 H 
ATOM     15  C   UNL     1     -45.218  38.946  28.423  1.00  0.00     0.150 A 
ATOM     16  C   UNL     1     -43.344  40.335  28.921  1.00  0.00     0.137 A 
ATOM     17  N   UNL     1     -45.014  38.162  29.501  1.00  0.00    -0.218 NA
ATOM     18  N   UNL     1     -43.133  39.571  30.008  1.00  0.00    -0.219 NA
ATOM     19  C   UNL     1     -43.962  38.544  30.235  1.00  0.00     0.120 A 
ATOM     20  H   UNL     1     -43.754  37.950  31.119  1.00  0.00     0.106 H 
BRANCH  11  21
ATOM     21  C   UNL     1     -44.584  41.829  26.210  1.00  0.00     0.095 A 
ATOM     22  N   UNL     1     -44.078  43.837  25.777  1.00  0.00    -0.275 N 
ATOM     23  C   UNL     1     -43.889  43.178  24.599  1.00  0.00     0.025 A 
ATOM     24  N   UNL     1     -44.510  43.042  26.775  1.00  0.00    -0.173 NA
ATOM     25  C   UNL     1     -44.214  41.864  24.847  1.00  0.00    -0.016 A 
ATOM     26  H   UNL     1     -43.545  43.681  23.706  1.00  0.00     0.084 H 
ATOM     27  H   UNL     1     -44.177  41.049  24.139  1.00  0.00     0.066 H 
BRANCH  22  28
ATOM     28  C   UNL     1     -43.866  45.242  26.029  1.00  0.00     0.030 C 
ATOM     29  H   UNL     1     -44.816  45.764  25.889  1.00  0.00     0.048 H 
ATOM     30  H   UNL     1     -43.511  45.378  27.053  1.00  0.00     0.048 H 
ATOM     31  H   UNL     1     -43.117  45.609  25.322  1.00  0.00     0.048 H 
ENDBRANCH  22  28
ENDBRANCH  11  21
BRANCH  16  32
ATOM     32  N   UNL     1     -42.444  41.367  28.706  1.00  0.00    -0.383 N 
ATOM     33  H   UNL     1     -41.609  41.289  29.296  1.00  0.00     0.158 HD
ATOM     34  H   UNL     1     -42.291  41.529  27.721  1.00  0.00     0.158 HD
ENDBRANCH  16  32
ENDBRANCH   1  10
BRANCH   5  35
ATOM     35  C   UNL     1     -47.762  34.211  26.121  1.00  0.00     0.115 C 
ATOM     36  H   UNL     1     -47.429  34.314  25.081  1.00  0.00     0.076 H 
ATOM     37  H   UNL     1     -46.949  33.705  26.655  1.00  0.00     0.076 H 
BRANCH  35  38
ATOM     38  O   UNL     1     -48.897  33.343  26.204  1.00  0.00    -0.489 OA
BRANCH  38  39
ATOM     39  C   UNL     1     -48.920  32.207  25.442  1.00  0.00     0.122 A 
ATOM     40  C   UNL     1     -49.236  32.126  24.090  1.00  0.00    -0.019 A 
ATOM     41  C   UNL     1     -48.608  31.035  26.145  1.00  0.00     0.007 A 
ATOM     42  C   UNL     1     -49.236  30.883  23.456  1.00  0.00    -0.048 A 
ATOM     43  H   UNL     1     -49.500  32.999  23.501  1.00  0.00     0.066 H 
ATOM     44  C   UNL     1     -48.602  29.786  25.538  1.00  0.00     0.079 A 
ATOM     45  H   UNL     1     -48.364  31.099  27.204  1.00  0.00     0.069 H 
ATOM     46  C   UNL     1     -48.919  29.721  24.184  1.00  0.00     0.019 A 
ATOM     47  H   UNL     1     -49.489  30.823  22.399  1.00  0.00     0.063 H 
ATOM     48  N   UNL     1     -48.300  28.695  26.255  1.00  0.00    -0.213 NA
ATOM     49  C   UNL     1     -48.898  28.450  23.638  1.00  0.00     0.040 A 
ATOM     50  C   UNL     1     -48.306  27.499  25.638  1.00  0.00     0.225 A 
ATOM     51  N   UNL     1     -48.597  27.340  24.336  1.00  0.00    -0.221 NA
ATOM     52  H   UNL     1     -49.131  28.277  22.592  1.00  0.00     0.085 H 
BRANCH  50  53
ATOM     53  N   UNL     1     -48.004  26.361  26.394  1.00  0.00    -0.341 N 
ATOM     54  C   UNL     1     -46.700  26.022  26.876  1.00  0.00     0.022 C 
ATOM     55  C   UNL     1     -48.293  25.017  26.000  1.00  0.00     0.022 C 
ATOM     56  C   UNL     1     -47.226  24.588  27.014  1.00  0.00    -0.018 C 
ATOM     57  H   UNL     1     -46.435  26.525  27.808  1.00  0.00     0.049 H 
ATOM     58  H   UNL     1     -45.914  26.155  26.124  1.00  0.00     0.049 H 
ATOM     59  H   UNL     1     -49.317  24.706  26.226  1.00  0.00     0.049 H 
ATOM     60  H   UNL     1     -48.045  24.810  24.953  1.00  0.00     0.049 H 
ATOM     61  H   UNL     1     -47.618  24.343  28.008  1.00  0.00     0.030 H 
ATOM     62  H   UNL     1     -46.546  23.799  26.685  1.00  0.00     0.030 H 
ENDBRANCH  50  53
ENDBRANCH  38  39
ENDBRANCH  35  38
ENDBRANCH   5  35
TORSDOF 8
ENDMDL
MODEL 5
REMARK VINA RESULT:     -10.4      1.927     11.927
REMARK SMILES Cn1ccc(-c2cn(-c3cncc(COc4ccc5cnc(N6CCC6)nc5c4)c3)c3ncnc(N)c23)n1
REMARK SMILES IDX 9 1 10 2 11 3 12 4 13 5 30 6 8 10 6 11 7 12 37 13 31 15
REMARK SMILES IDX 35 16 32 17 34 18 33 19 5 21 2 22 3 23 38 24 4 25 1 28 36 32
REMARK SMILES IDX 14 35 15 38 16 39 17 40 29 41 18 42 28 44 19 46 27 48 20 49
REMARK SMILES IDX 22 50 21 51 23 53 24 54 26 55 25 56
REMARK H PARENT 10 7 12 8 30 9 7 14 33 20 3 26 4 27 1 29 1 30 1 31 36 33 36 34
REMARK H PARENT 14 36 14 37 17 43 29 45 18 47 20 52 24 57 24 58 26 59 26 60
REMARK H PARENT 25 61 25 62
REMARK Flexibility Score: inf
ROOT
ATOM      1  C   UNL     1     -47.144  33.010  25.950  1.00  0.00     0.066 A 
ATOM      2  C   UNL     1     -46.484  32.506  27.065  1.00  0.00     0.051 A 
ATOM      3  N   UNL     1     -45.942  33.277  28.043  1.00  0.00    -0.262 NA
ATOM      4  C   UNL     1     -46.059  34.612  27.911  1.00  0.00     0.034 A 
ATOM      5  C   UNL     1     -46.709  35.231  26.852  1.00  0.00     0.010 A 
ATOM      6  C   UNL     1     -47.241  34.405  25.852  1.00  0.00    -0.028 A 
ATOM      7  H   UNL     1     -46.366  31.446  27.262  1.00  0.00     0.086 H 
ATOM      8  H   UNL     1     -45.602  35.187  28.712  1.00  0.00     0.084 H 
ATOM      9  H   UNL     1     -47.711  34.885  24.999  1.00  0.00     0.065 H 
ENDROOT
BRANCH   1  10
ATOM     10  N   UNL     1     -47.716  32.156  24.953  1.00  0.00    -0.299 N 
ATOM     11  C   UNL     1     -49.195  30.795  23.918  1.00  0.00     0.033 A 
ATOM     12  C   UNL     1     -48.963  31.561  25.042  1.00  0.00     0.021 A 
ATOM     13  C   UNL     1     -48.044  30.898  23.089  1.00  0.00     0.071 A 
ATOM     14  H   UNL     1     -49.601  31.712  25.901  1.00  0.00     0.083 H 
ATOM     15  C   UNL     1     -47.156  31.756  23.739  1.00  0.00     0.150 A 
ATOM     16  C   UNL     1     -47.620  30.373  21.853  1.00  0.00     0.137 A 
ATOM     17  N   UNL     1     -45.960  32.145  23.250  1.00  0.00    -0.218 NA
ATOM     18  N   UNL     1     -46.436  30.759  21.344  1.00  0.00    -0.219 NA
ATOM     19  C   UNL     1     -45.684  31.607  22.057  1.00  0.00     0.120 A 
ATOM     20  H   UNL     1     -44.734  31.890  21.613  1.00  0.00     0.106 H 
BRANCH  11  21
ATOM     21  C   UNL     1     -50.415  30.031  23.638  1.00  0.00     0.095 A 
ATOM     22  N   UNL     1     -51.847  28.475  23.584  1.00  0.00    -0.275 N 
ATOM     23  C   UNL     1     -52.401  29.471  22.837  1.00  0.00     0.025 A 
ATOM     24  N   UNL     1     -50.633  28.784  24.079  1.00  0.00    -0.173 NA
ATOM     25  C   UNL     1     -51.489  30.501  22.850  1.00  0.00    -0.016 A 
ATOM     26  H   UNL     1     -53.372  29.371  22.372  1.00  0.00     0.084 H 
ATOM     27  H   UNL     1     -51.596  31.459  22.362  1.00  0.00     0.066 H 
BRANCH  22  28
ATOM     28  C   UNL     1     -52.424  27.184  23.874  1.00  0.00     0.030 C 
ATOM     29  H   UNL     1     -53.265  27.022  23.194  1.00  0.00     0.048 H 
ATOM     30  H   UNL     1     -51.670  26.407  23.728  1.00  0.00     0.048 H 
ATOM     31  H   UNL     1     -52.764  27.185  24.913  1.00  0.00     0.048 H 
ENDBRANCH  22  28
ENDBRANCH  11  21
BRANCH  16  32
ATOM     32  N   UNL     1     -48.352  29.470  21.097  1.00  0.00    -0.383 N 
ATOM     33  H   UNL     1     -48.683  29.873  20.215  1.00  0.00     0.158 HD
ATOM     34  H   UNL     1     -47.894  28.571  21.044  1.00  0.00     0.158 HD
ENDBRANCH  16  32
ENDBRANCH   1  10
BRANCH   5  35
ATOM     35  C   UNL     1     -46.772  36.735  26.785  1.00  0.00     0.115 C 
ATOM     36  H   UNL     1     -45.965  37.157  26.174  1.00  0.00     0.076 H 
ATOM     37  H   UNL     1     -47.709  37.003  26.282  1.00  0.00     0.076 H 
BRANCH  35  38
ATOM     38  O   UNL     1     -46.814  37.365  28.070  1.00  0.00    -0.489 OA
BRANCH  38  39
ATOM     39  C   UNL     1     -45.748  38.123  28.472  1.00  0.00     0.122 A 
ATOM     40  C   UNL     1     -44.917  37.868  29.558  1.00  0.00    -0.019 A 
ATOM     41  C   UNL     1     -45.529  39.268  27.694  1.00  0.00     0.007 A 
ATOM     42  C   UNL     1     -43.880  38.753  29.854  1.00  0.00    -0.048 A 
ATOM     43  H   UNL     1     -45.051  37.005  30.203  1.00  0.00     0.066 H 
ATOM     44  C   UNL     1     -44.505  40.165  27.967  1.00  0.00     0.079 A 
ATOM     45  H   UNL     1     -46.182  39.468  26.847  1.00  0.00     0.069 H 
ATOM     46  C   UNL     1     -43.680  39.896  29.057  1.00  0.00     0.019 A 
ATOM     47  H   UNL     1     -43.234  38.553  30.708  1.00  0.00     0.063 H 
ATOM     48  N   UNL     1     -44.339  41.248  27.196  1.00  0.00    -0.213 NA
ATOM     49  C   UNL     1     -42.681  40.826  29.279  1.00  0.00     0.040 A 
ATOM     50  C   UNL     1     -43.338  42.099  27.489  1.00  0.00     0.225 A 
ATOM     51  N   UNL     1     -42.493  41.920  28.518  1.00  0.00    -0.221 NA
ATOM     52  H   UNL     1     -41.980  40.722  30.101  1.00  0.00     0.085 H 
BRANCH  50  53
ATOM     53  N   UNL     1     -43.178  43.235  26.688  1.00  0.00    -0.341 N 
ATOM     54  C   UNL     1     -44.221  43.855  25.930  1.00  0.00     0.022 C 
ATOM     55  C   UNL     1     -42.226  43.360  25.628  1.00  0.00     0.022 C 
ATOM     56  C   UNL     1     -43.106  44.498  25.096  1.00  0.00    -0.018 C 
ATOM     57  H   UNL     1     -44.836  44.542  26.515  1.00  0.00     0.049 H 
ATOM     58  H   UNL     1     -44.846  43.137  25.389  1.00  0.00     0.049 H 
ATOM     59  H   UNL     1     -41.228  43.648  25.968  1.00  0.00     0.049 H 
ATOM     60  H   UNL     1     -42.178  42.475  24.984  1.00  0.00     0.049 H 
ATOM     61  H   UNL     1     -42.806  45.497  25.435  1.00  0.00     0.030 H 
ATOM     62  H   UNL     1     -43.267  44.512  24.016  1.00  0.00     0.030 H 
ENDBRANCH  50  53
ENDBRANCH  38  39
ENDBRANCH  35  38
ENDBRANCH   5  35
TORSDOF 8
ENDMDL
MODEL 6
REMARK VINA RESULT:     -10.2      1.750      2.782
REMARK SMILES Cn1ccc(-c2cn(-c3cncc(COc4ccc5cnc(N6CCC6)nc5c4)c3)c3ncnc(N)c23)n1
REMARK SMILES IDX 9 1 10 2 11 3 12 4 13 5 30 6 8 10 6 11 7 12 37 13 31 15
REMARK SMILES IDX 35 16 32 17 34 18 33 19 5 21 2 22 3 23 38 24 4 25 1 28 36 32
REMARK SMILES IDX 14 35 15 38 16 39 17 40 29 41 18 42 28 44 19 46 27 48 20 49
REMARK SMILES IDX 22 50 21 51 23 53 24 54 26 55 25 56
REMARK H PARENT 10 7 12 8 30 9 7 14 33 20 3 26 4 27 1 29 1 30 1 31 36 33 36 34
REMARK H PARENT 14 36 14 37 17 43 29 45 18 47 20 52 24 57 24 58 26 59 26 60
REMARK H PARENT 25 61 25 62
REMARK Flexibility Score: inf
ROOT
ATOM      1  C   UNL     1     -46.518  38.411  27.670  1.00  0.00     0.066 A 
ATOM      2  C   UNL     1     -46.219  38.127  28.998  1.00  0.00     0.051 A 
ATOM      3  N   UNL     1     -46.433  36.921  29.586  1.00  0.00    -0.262 NA
ATOM      4  C   UNL     1     -46.967  35.949  28.822  1.00  0.00     0.034 A 
ATOM      5  C   UNL     1     -47.291  36.108  27.482  1.00  0.00     0.010 A 
ATOM      6  C   UNL     1     -47.075  37.371  26.912  1.00  0.00    -0.028 A 
ATOM      7  H   UNL     1     -45.766  38.842  29.675  1.00  0.00     0.086 H 
ATOM      8  H   UNL     1     -47.128  35.006  29.339  1.00  0.00     0.084 H 
ATOM      9  H   UNL     1     -47.368  37.514  25.877  1.00  0.00     0.065 H 
ENDROOT
BRANCH   1  10
ATOM     10  N   UNL     1     -46.258  39.694  27.089  1.00  0.00    -0.299 N 
ATOM     11  C   UNL     1     -45.119  41.416  26.169  1.00  0.00     0.033 A 
ATOM     12  C   UNL     1     -45.015  40.132  26.665  1.00  0.00     0.021 A 
ATOM     13  C   UNL     1     -46.479  41.811  26.294  1.00  0.00     0.071 A 
ATOM     14  H   UNL     1     -44.136  39.510  26.750  1.00  0.00     0.083 H 
ATOM     15  C   UNL     1     -47.164  40.727  26.846  1.00  0.00     0.150 A 
ATOM     16  C   UNL     1     -47.244  42.960  26.014  1.00  0.00     0.137 A 
ATOM     17  N   UNL     1     -48.491  40.691  27.082  1.00  0.00    -0.218 NA
ATOM     18  N   UNL     1     -48.571  42.938  26.231  1.00  0.00    -0.219 NA
ATOM     19  C   UNL     1     -49.113  41.826  26.744  1.00  0.00     0.120 A 
ATOM     20  H   UNL     1     -50.186  41.852  26.908  1.00  0.00     0.106 H 
BRANCH  11  21
ATOM     21  C   UNL     1     -44.021  42.209  25.606  1.00  0.00     0.095 A 
ATOM     22  N   UNL     1     -42.829  43.329  24.264  1.00  0.00    -0.275 N 
ATOM     23  C   UNL     1     -42.086  43.264  25.404  1.00  0.00     0.025 A 
ATOM     24  N   UNL     1     -44.010  42.687  24.354  1.00  0.00    -0.173 NA
ATOM     25  C   UNL     1     -42.834  42.537  26.300  1.00  0.00    -0.016 A 
ATOM     26  H   UNL     1     -41.114  43.730  25.485  1.00  0.00     0.084 H 
ATOM     27  H   UNL     1     -42.559  42.289  27.315  1.00  0.00     0.066 H 
BRANCH  22  28
ATOM     28  C   UNL     1     -42.475  43.992  23.033  1.00  0.00     0.030 C 
ATOM     29  H   UNL     1     -43.182  43.684  22.259  1.00  0.00     0.048 H 
ATOM     30  H   UNL     1     -42.523  45.074  23.175  1.00  0.00     0.048 H 
ATOM     31  H   UNL     1     -41.457  43.696  22.763  1.00  0.00     0.048 H 
ENDBRANCH  22  28
ENDBRANCH  11  21
BRANCH  16  32
ATOM     32  N   UNL     1     -46.719  44.141  25.511  1.00  0.00    -0.383 N 
ATOM     33  H   UNL     1     -47.171  44.432  24.638  1.00  0.00     0.158 HD
ATOM     34  H   UNL     1     -46.627  44.844  26.232  1.00  0.00     0.158 HD
ENDBRANCH  16  32
ENDBRANCH   1  10
BRANCH   5  35
ATOM     35  C   UNL     1     -47.902  34.963  26.716  1.00  0.00     0.115 C 
ATOM     36  H   UNL     1     -48.992  34.921  26.834  1.00  0.00     0.076 H 
ATOM     37  H   UNL     1     -47.716  35.144  25.650  1.00  0.00     0.076 H 
BRANCH  35  38
ATOM     38  O   UNL     1     -47.313  33.694  27.016  1.00  0.00    -0.489 OA
BRANCH  38  39
ATOM     39  C   UNL     1     -47.228  32.752  26.028  1.00  0.00     0.122 A 
ATOM     40  C   UNL     1     -46.493  32.854  24.851  1.00  0.00    -0.019 A 
ATOM     41  C   UNL     1     -47.991  31.600  26.262  1.00  0.00     0.007 A 
ATOM     42  C   UNL     1     -46.526  31.811  23.926  1.00  0.00    -0.048 A 
ATOM     43  H   UNL     1     -45.898  33.730  24.612  1.00  0.00     0.066 H 
ATOM     44  C   UNL     1     -48.042  30.547  25.357  1.00  0.00     0.079 A 
ATOM     45  H   UNL     1     -48.569  31.522  27.181  1.00  0.00     0.069 H 
ATOM     46  C   UNL     1     -47.300  30.664  24.184  1.00  0.00     0.019 A 
ATOM     47  H   UNL     1     -45.954  31.896  23.003  1.00  0.00     0.063 H 
ATOM     48  N   UNL     1     -48.790  29.468  25.625  1.00  0.00    -0.213 NA
ATOM     49  C   UNL     1     -47.393  29.585  23.323  1.00  0.00     0.040 A 
ATOM     50  C   UNL     1     -48.819  28.467  24.727  1.00  0.00     0.225 A 
ATOM     51  N   UNL     1     -48.136  28.491  23.571  1.00  0.00    -0.221 NA
ATOM     52  H   UNL     1     -46.860  29.566  22.377  1.00  0.00     0.085 H 
BRANCH  50  53
ATOM     53  N   UNL     1     -49.612  27.349  25.006  1.00  0.00    -0.341 N 
ATOM     54  C   UNL     1     -51.038  27.309  24.890  1.00  0.00     0.022 C 
ATOM     55  C   UNL     1     -49.614  26.636  26.246  1.00  0.00     0.022 C 
ATOM     56  C   UNL     1     -50.986  26.094  25.827  1.00  0.00    -0.018 C 
ATOM     57  H   UNL     1     -51.388  27.113  23.875  1.00  0.00     0.049 H 
ATOM     58  H   UNL     1     -51.530  28.193  25.309  1.00  0.00     0.049 H 
ATOM     59  H   UNL     1     -48.814  25.896  26.326  1.00  0.00     0.049 H 
ATOM     60  H   UNL     1     -49.626  27.294  27.122  1.00  0.00     0.049 H 
ATOM     61  H   UNL     1     -50.952  25.127  25.312  1.00  0.00     0.030 H 
ATOM     62  H   UNL     1     -51.747  26.065  26.610  1.00  0.00     0.030 H 
ENDBRANCH  50  53
ENDBRANCH  38  39
ENDBRANCH  35  38
ENDBRANCH   5  35
TORSDOF 8
ENDMDL
