MODEL 1
REMARK VINA RESULT:     -10.1      0.000      0.000
REMARK SMILES CNc1ccc2ccc(OCc3cncc(-n4ccc5c(N)ncnc54)c3)cc2n1
REMARK SMILES IDX 11 1 10 4 9 5 3 6 4 7 30 8 5 9 29 11 6 12 28 14 7 15 8 17
REMARK SMILES IDX 2 20 1 22 12 26 13 27 27 28 14 29 16 31 15 33 17 35 18 36
REMARK SMILES IDX 26 37 19 38 20 40 25 41 21 43 24 44 23 45 22 47
REMARK H PARENT 11 2 11 3 4 10 5 13 28 16 7 18 8 19 2 21 1 23 1 24 1 25 13 30
REMARK H PARENT 27 32 15 34 18 39 19 42 24 46 22 48 22 49
REMARK Flexibility Score: inf
ROOT
ATOM      1  C   UNL     1     -46.503  36.829  26.776  1.00  0.00     0.115 C 
ATOM      2  H   UNL     1     -47.344  37.132  26.141  1.00  0.00     0.076 H 
ATOM      3  H   UNL     1     -45.596  37.178  26.266  1.00  0.00     0.076 H 
ENDROOT
BRANCH   1   4
ATOM      4  O   UNL     1     -46.678  37.498  28.027  1.00  0.00    -0.489 OA
BRANCH   4   5
ATOM      5  C   UNL     1     -45.598  38.132  28.580  1.00  0.00     0.122 A 
ATOM      6  C   UNL     1     -42.605  41.779  27.960  1.00  0.00     0.126 A 
ATOM      7  C   UNL     1     -41.924  41.492  29.133  1.00  0.00    -0.019 A 
ATOM      8  N   UNL     1     -43.647  41.042  27.532  1.00  0.00    -0.231 NA
ATOM      9  C   UNL     1     -42.340  40.414  29.907  1.00  0.00    -0.049 A 
ATOM     10  H   UNL     1     -41.067  42.082  29.437  1.00  0.00     0.066 H 
ATOM     11  C   UNL     1     -44.055  39.999  28.277  1.00  0.00     0.076 A 
ATOM     12  C   UNL     1     -43.427  39.644  29.485  1.00  0.00     0.001 A 
ATOM     13  H   UNL     1     -41.812  40.181  30.827  1.00  0.00     0.063 H 
ATOM     14  C   UNL     1     -45.134  39.234  27.853  1.00  0.00     0.007 A 
ATOM     15  C   UNL     1     -43.892  38.546  30.229  1.00  0.00    -0.049 A 
ATOM     16  H   UNL     1     -45.627  39.505  26.922  1.00  0.00     0.069 H 
ATOM     17  C   UNL     1     -44.977  37.795  29.778  1.00  0.00    -0.019 A 
ATOM     18  H   UNL     1     -43.415  38.277  31.170  1.00  0.00     0.063 H 
ATOM     19  H   UNL     1     -45.319  36.970  30.394  1.00  0.00     0.066 H 
BRANCH   6  20
ATOM     20  N   UNL     1     -42.235  42.837  27.125  1.00  0.00    -0.373 N 
ATOM     21  H   UNL     1     -41.745  42.375  26.358  1.00  0.00     0.161 HD
BRANCH  20  22
ATOM     22  C   UNL     1     -43.356  43.621  26.635  1.00  0.00     0.005 C 
ATOM     23  H   UNL     1     -43.373  43.572  25.542  1.00  0.00     0.045 H 
ATOM     24  H   UNL     1     -44.312  43.232  27.002  1.00  0.00     0.045 H 
ATOM     25  H   UNL     1     -43.264  44.676  26.911  1.00  0.00     0.045 H 
ENDBRANCH  20  22
ENDBRANCH   6  20
ENDBRANCH   4   5
ENDBRANCH   1   4
BRANCH   1  26
ATOM     26  C   UNL     1     -46.544  35.327  26.891  1.00  0.00     0.010 A 
ATOM     27  C   UNL     1     -45.981  34.661  27.969  1.00  0.00     0.034 A 
ATOM     28  C   UNL     1     -47.210  34.551  25.927  1.00  0.00    -0.028 A 
ATOM     29  N   UNL     1     -46.019  33.322  28.126  1.00  0.00    -0.262 NA
ATOM     30  H   UNL     1     -45.465  35.197  28.763  1.00  0.00     0.084 H 
ATOM     31  C   UNL     1     -47.269  33.154  26.050  1.00  0.00     0.066 A 
ATOM     32  H   UNL     1     -47.660  35.072  25.088  1.00  0.00     0.065 H 
ATOM     33  C   UNL     1     -46.655  32.600  27.167  1.00  0.00     0.051 A 
ATOM     34  H   UNL     1     -46.642  31.538  27.380  1.00  0.00     0.086 H 
BRANCH  31  35
ATOM     35  N   UNL     1     -47.939  32.349  25.072  1.00  0.00    -0.300 N 
ATOM     36  C   UNL     1     -49.315  32.182  24.982  1.00  0.00     0.012 A 
ATOM     37  C   UNL     1     -47.369  31.593  24.041  1.00  0.00     0.150 A 
ATOM     38  C   UNL     1     -49.613  31.344  23.933  1.00  0.00    -0.031 A 
ATOM     39  H   UNL     1     -49.995  32.658  25.673  1.00  0.00     0.082 H 
ATOM     40  C   UNL     1     -48.391  30.965  23.333  1.00  0.00     0.061 A 
ATOM     41  N   UNL     1     -46.059  31.482  23.749  1.00  0.00    -0.218 NA
ATOM     42  H   UNL     1     -50.606  31.042  23.629  1.00  0.00     0.065 H 
ATOM     43  C   UNL     1     -48.020  30.155  22.250  1.00  0.00     0.136 A 
ATOM     44  C   UNL     1     -45.825  30.689  22.694  1.00  0.00     0.120 A 
ATOM     45  N   UNL     1     -46.719  30.024  21.945  1.00  0.00    -0.219 NA
ATOM     46  H   UNL     1     -44.783  30.566  22.410  1.00  0.00     0.106 H 
BRANCH  43  47
ATOM     47  N   UNL     1     -48.929  29.458  21.467  1.00  0.00    -0.383 N 
ATOM     48  H   UNL     1     -49.322  28.681  21.987  1.00  0.00     0.158 HD
ATOM     49  H   UNL     1     -49.585  30.032  20.957  1.00  0.00     0.158 HD
ENDBRANCH  43  47
ENDBRANCH  31  35
ENDBRANCH   1  26
TORSDOF 7
ENDMDL
MODEL 2
REMARK VINA RESULT:      -9.8      1.631     10.324
REMARK SMILES CNc1ccc2ccc(OCc3cncc(-n4ccc5c(N)ncnc54)c3)cc2n1
REMARK SMILES IDX 11 1 10 4 9 5 3 6 4 7 30 8 5 9 29 11 6 12 28 14 7 15 8 17
REMARK SMILES IDX 2 20 1 22 12 26 13 27 27 28 14 29 16 31 15 33 17 35 18 36
REMARK SMILES IDX 26 37 19 38 20 40 25 41 21 43 24 44 23 45 22 47
REMARK H PARENT 11 2 11 3 4 10 5 13 28 16 7 18 8 19 2 21 1 23 1 24 1 25 13 30
REMARK H PARENT 27 32 15 34 18 39 19 42 24 46 22 48 22 49
REMARK Flexibility Score: inf
ROOT
ATOM      1  C   UNL     1     -47.465  35.261  27.687  1.00  0.00     0.115 C 
ATOM      2  H   UNL     1     -48.331  35.779  27.257  1.00  0.00     0.076 H 
ATOM      3  H   UNL     1     -47.872  34.478  28.340  1.00  0.00     0.076 H 
ENDROOT
BRANCH   1   4
ATOM      4  O   UNL     1     -46.749  34.690  26.589  1.00  0.00    -0.489 OA
BRANCH   4   5
ATOM      5  C   UNL     1     -47.320  33.643  25.917  1.00  0.00     0.122 A 
ATOM      6  C   UNL     1     -46.427  30.261  22.690  1.00  0.00     0.126 A 
ATOM      7  C   UNL     1     -47.715  29.754  22.784  1.00  0.00    -0.019 A 
ATOM      8  N   UNL     1     -46.017  31.322  23.409  1.00  0.00    -0.231 NA
ATOM      9  C   UNL     1     -48.611  30.350  23.665  1.00  0.00    -0.049 A 
ATOM     10  H   UNL     1     -48.029  28.919  22.168  1.00  0.00     0.066 H 
ATOM     11  C   UNL     1     -46.878  31.903  24.264  1.00  0.00     0.076 A 
ATOM     12  C   UNL     1     -48.199  31.445  24.428  1.00  0.00     0.001 A 
ATOM     13  H   UNL     1     -49.622  29.959  23.744  1.00  0.00     0.063 H 
ATOM     14  C   UNL     1     -46.466  32.992  25.019  1.00  0.00     0.007 A 
ATOM     15  C   UNL     1     -49.061  32.083  25.336  1.00  0.00    -0.049 A 
ATOM     16  H   UNL     1     -45.445  33.349  24.900  1.00  0.00     0.069 H 
ATOM     17  C   UNL     1     -48.620  33.178  26.080  1.00  0.00    -0.019 A 
ATOM     18  H   UNL     1     -50.080  31.725  25.473  1.00  0.00     0.063 H 
ATOM     19  H   UNL     1     -49.311  33.627  26.786  1.00  0.00     0.066 H 
BRANCH   6  20
ATOM     20  N   UNL     1     -45.478  29.723  21.817  1.00  0.00    -0.373 N 
ATOM     21  H   UNL     1     -44.935  30.536  21.525  1.00  0.00     0.161 HD
BRANCH  20  22
ATOM     22  C   UNL     1     -44.627  28.713  22.422  1.00  0.00     0.005 C 
ATOM     23  H   UNL     1     -44.629  28.850  23.508  1.00  0.00     0.045 H 
ATOM     24  H   UNL     1     -44.991  27.701  22.213  1.00  0.00     0.045 H 
ATOM     25  H   UNL     1     -43.589  28.803  22.085  1.00  0.00     0.045 H 
ENDBRANCH  20  22
ENDBRANCH   6  20
ENDBRANCH   4   5
ENDBRANCH   1   4
BRANCH   1  26
ATOM     26  C   UNL     1     -46.665  36.281  28.456  1.00  0.00     0.010 A 
ATOM     27  C   UNL     1     -46.407  36.136  29.811  1.00  0.00     0.034 A 
ATOM     28  C   UNL     1     -46.103  37.391  27.805  1.00  0.00    -0.028 A 
ATOM     29  N   UNL     1     -45.674  37.010  30.531  1.00  0.00    -0.262 NA
ATOM     30  H   UNL     1     -46.794  35.292  30.378  1.00  0.00     0.084 H 
ATOM     31  C   UNL     1     -45.337  38.326  28.518  1.00  0.00     0.066 A 
ATOM     32  H   UNL     1     -46.296  37.499  26.742  1.00  0.00     0.065 H 
ATOM     33  C   UNL     1     -45.161  38.082  29.874  1.00  0.00     0.051 A 
ATOM     34  H   UNL     1     -44.581  38.723  30.529  1.00  0.00     0.086 H 
BRANCH  31  35
ATOM     35  N   UNL     1     -44.763  39.468  27.869  1.00  0.00    -0.300 N 
ATOM     36  C   UNL     1     -45.161  39.969  26.636  1.00  0.00     0.012 A 
ATOM     37  C   UNL     1     -43.724  40.286  28.324  1.00  0.00     0.150 A 
ATOM     38  C   UNL     1     -44.398  41.067  26.314  1.00  0.00    -0.031 A 
ATOM     39  H   UNL     1     -45.952  39.511  26.060  1.00  0.00     0.082 H 
ATOM     40  C   UNL     1     -43.486  41.275  27.373  1.00  0.00     0.061 A 
ATOM     41  N   UNL     1     -43.055  40.171  29.488  1.00  0.00    -0.218 NA
ATOM     42  H   UNL     1     -44.492  41.659  25.413  1.00  0.00     0.065 H 
ATOM     43  C   UNL     1     -42.472  42.204  27.648  1.00  0.00     0.136 A 
ATOM     44  C   UNL     1     -42.115  41.115  29.646  1.00  0.00     0.120 A 
ATOM     45  N   UNL     1     -41.787  42.104  28.800  1.00  0.00    -0.219 NA
ATOM     46  H   UNL     1     -41.546  41.073  30.570  1.00  0.00     0.106 H 
BRANCH  43  47
ATOM     47  N   UNL     1     -42.116  43.230  26.785  1.00  0.00    -0.383 N 
ATOM     48  H   UNL     1     -42.944  43.676  26.404  1.00  0.00     0.158 HD
ATOM     49  H   UNL     1     -41.394  43.847  27.127  1.00  0.00     0.158 HD
ENDBRANCH  43  47
ENDBRANCH  31  35
ENDBRANCH   1  26
TORSDOF 7
ENDMDL
MODEL 3
REMARK VINA RESULT:      -9.3      2.377     10.840
REMARK SMILES CNc1ccc2ccc(OCc3cncc(-n4ccc5c(N)ncnc54)c3)cc2n1
REMARK SMILES IDX 11 1 10 4 9 5 3 6 4 7 30 8 5 9 29 11 6 12 28 14 7 15 8 17
REMARK SMILES IDX 2 20 1 22 12 26 13 27 27 28 14 29 16 31 15 33 17 35 18 36
REMARK SMILES IDX 26 37 19 38 20 40 25 41 21 43 24 44 23 45 22 47
REMARK H PARENT 11 2 11 3 4 10 5 13 28 16 7 18 8 19 2 21 1 23 1 24 1 25 13 30
REMARK H PARENT 27 32 15 34 18 39 19 42 24 46 22 48 22 49
REMARK Flexibility Score: inf
ROOT
ATOM      1  C   UNL     1     -46.499  34.023  27.095  1.00  0.00     0.115 C 
ATOM      2  H   UNL     1     -46.005  33.716  28.024  1.00  0.00     0.076 H 
ATOM      3  H   UNL     1     -45.739  33.946  26.306  1.00  0.00     0.076 H 
ENDROOT
BRANCH   1   4
ATOM      4  O   UNL     1     -47.562  33.093  26.874  1.00  0.00    -0.489 OA
BRANCH   4   5
ATOM      5  C   UNL     1     -47.453  32.220  25.826  1.00  0.00     0.122 A 
ATOM      6  C   UNL     1     -49.317  28.251  23.976  1.00  0.00     0.126 A 
ATOM      7  C   UNL     1     -48.450  28.281  22.894  1.00  0.00    -0.019 A 
ATOM      8  N   UNL     1     -49.287  29.180  24.950  1.00  0.00    -0.231 NA
ATOM      9  C   UNL     1     -47.527  29.318  22.800  1.00  0.00    -0.049 A 
ATOM     10  H   UNL     1     -48.472  27.502  22.142  1.00  0.00     0.066 H 
ATOM     11  C   UNL     1     -48.398  30.186  24.864  1.00  0.00     0.076 A 
ATOM     12  C   UNL     1     -47.489  30.298  23.795  1.00  0.00     0.001 A 
ATOM     13  H   UNL     1     -46.843  29.349  21.956  1.00  0.00     0.063 H 
ATOM     14  C   UNL     1     -48.362  31.156  25.855  1.00  0.00     0.007 A 
ATOM     15  C   UNL     1     -46.580  31.368  23.748  1.00  0.00    -0.049 A 
ATOM     16  H   UNL     1     -49.065  31.078  26.683  1.00  0.00     0.069 H 
ATOM     17  C   UNL     1     -46.565  32.329  24.760  1.00  0.00    -0.019 A 
ATOM     18  H   UNL     1     -45.884  31.464  22.917  1.00  0.00     0.063 H 
ATOM     19  H   UNL     1     -45.864  33.151  24.674  1.00  0.00     0.066 H 
BRANCH   6  20
ATOM     20  N   UNL     1     -50.260  27.234  24.145  1.00  0.00    -0.373 N 
ATOM     21  H   UNL     1     -50.321  26.810  23.218  1.00  0.00     0.161 HD
BRANCH  20  22
ATOM     22  C   UNL     1     -49.891  26.249  25.148  1.00  0.00     0.005 C 
ATOM     23  H   UNL     1     -50.212  25.259  24.809  1.00  0.00     0.045 H 
ATOM     24  H   UNL     1     -48.806  26.215  25.300  1.00  0.00     0.045 H 
ATOM     25  H   UNL     1     -50.386  26.442  26.105  1.00  0.00     0.045 H 
ENDBRANCH  20  22
ENDBRANCH   6  20
ENDBRANCH   4   5
ENDBRANCH   1   4
BRANCH   1  26
ATOM     26  C   UNL     1     -46.975  35.440  27.285  1.00  0.00     0.010 A 
ATOM     27  C   UNL     1     -48.310  35.737  27.518  1.00  0.00     0.034 A 
ATOM     28  C   UNL     1     -46.064  36.509  27.288  1.00  0.00    -0.028 A 
ATOM     29  N   UNL     1     -48.775  36.987  27.721  1.00  0.00    -0.262 NA
ATOM     30  H   UNL     1     -49.070  34.960  27.548  1.00  0.00     0.084 H 
ATOM     31  C   UNL     1     -46.507  37.825  27.491  1.00  0.00     0.066 A 
ATOM     32  H   UNL     1     -45.018  36.277  27.116  1.00  0.00     0.065 H 
ATOM     33  C   UNL     1     -47.870  38.000  27.699  1.00  0.00     0.051 A 
ATOM     34  H   UNL     1     -48.331  38.964  27.880  1.00  0.00     0.086 H 
BRANCH  31  35
ATOM     35  N   UNL     1     -45.590  38.927  27.490  1.00  0.00    -0.300 N 
ATOM     36  C   UNL     1     -45.528  39.913  26.513  1.00  0.00     0.012 A 
ATOM     37  C   UNL     1     -44.606  39.231  28.437  1.00  0.00     0.150 A 
ATOM     38  C   UNL     1     -44.535  40.811  26.823  1.00  0.00    -0.031 A 
ATOM     39  H   UNL     1     -46.183  39.909  25.654  1.00  0.00     0.082 H 
ATOM     40  C   UNL     1     -43.945  40.389  28.036  1.00  0.00     0.061 A 
ATOM     41  N   UNL     1     -44.330  38.547  29.564  1.00  0.00    -0.218 NA
ATOM     42  H   UNL     1     -44.266  41.683  26.240  1.00  0.00     0.065 H 
ATOM     43  C   UNL     1     -42.915  40.862  28.862  1.00  0.00     0.136 A 
ATOM     44  C   UNL     1     -43.334  39.093  30.276  1.00  0.00     0.120 A 
ATOM     45  N   UNL     1     -42.618  40.191  29.987  1.00  0.00    -0.219 NA
ATOM     46  H   UNL     1     -43.070  38.584  31.198  1.00  0.00     0.106 H 
BRANCH  43  47
ATOM     47  N   UNL     1     -42.162  41.993  28.579  1.00  0.00    -0.383 N 
ATOM     48  H   UNL     1     -41.526  42.196  29.343  1.00  0.00     0.158 HD
ATOM     49  H   UNL     1     -41.768  42.023  27.650  1.00  0.00     0.158 HD
ENDBRANCH  43  47
ENDBRANCH  31  35
ENDBRANCH   1  26
TORSDOF 7
ENDMDL
MODEL 4
REMARK VINA RESULT:      -9.2      1.675     10.212
REMARK SMILES CNc1ccc2ccc(OCc3cncc(-n4ccc5c(N)ncnc54)c3)cc2n1
REMARK SMILES IDX 11 1 10 4 9 5 3 6 4 7 30 8 5 9 29 11 6 12 28 14 7 15 8 17
REMARK SMILES IDX 2 20 1 22 12 26 13 27 27 28 14 29 16 31 15 33 17 35 18 36
REMARK SMILES IDX 26 37 19 38 20 40 25 41 21 43 24 44 23 45 22 47
REMARK H PARENT 11 2 11 3 4 10 5 13 28 16 7 18 8 19 2 21 1 23 1 24 1 25 13 30
REMARK H PARENT 27 32 15 34 18 39 19 42 24 46 22 48 22 49
REMARK Flexibility Score: inf
ROOT
ATOM      1  C   UNL     1     -46.153  35.403  28.183  1.00  0.00     0.115 C 
ATOM      2  H   UNL     1     -47.068  34.908  28.529  1.00  0.00     0.076 H 
ATOM      3  H   UNL     1     -45.368  35.125  28.898  1.00  0.00     0.076 H 
ENDROOT
BRANCH   1   4
ATOM      4  O   UNL     1     -45.872  34.875  26.884  1.00  0.00    -0.489 OA
BRANCH   4   5
ATOM      5  C   UNL     1     -46.808  34.069  26.296  1.00  0.00     0.122 A 
ATOM      6  C   UNL     1     -47.373  30.678  23.005  1.00  0.00     0.126 A 
ATOM      7  C   UNL     1     -48.732  30.577  23.262  1.00  0.00    -0.019 A 
ATOM      8  N   UNL     1     -46.578  31.545  23.659  1.00  0.00    -0.231 NA
ATOM      9  C   UNL     1     -49.293  31.386  24.244  1.00  0.00    -0.049 A 
ATOM     10  H   UNL     1     -49.355  29.895  22.696  1.00  0.00     0.066 H 
ATOM     11  C   UNL     1     -47.114  32.329  24.612  1.00  0.00     0.076 A 
ATOM     12  C   UNL     1     -48.482  32.283  24.943  1.00  0.00     0.001 A 
ATOM     13  H   UNL     1     -50.357  31.314  24.452  1.00  0.00     0.063 H 
ATOM     14  C   UNL     1     -46.305  33.221  25.302  1.00  0.00     0.007 A 
ATOM     15  C   UNL     1     -48.995  33.121  25.947  1.00  0.00    -0.049 A 
ATOM     16  H   UNL     1     -45.246  33.259  25.055  1.00  0.00     0.069 H 
ATOM     17  C   UNL     1     -48.159  34.009  26.624  1.00  0.00    -0.019 A 
ATOM     18  H   UNL     1     -50.050  33.080  26.213  1.00  0.00     0.063 H 
ATOM     19  H   UNL     1     -48.591  34.622  27.407  1.00  0.00     0.066 H 
BRANCH   6  20
ATOM     20  N   UNL     1     -46.743  29.909  22.023  1.00  0.00    -0.373 N 
ATOM     21  H   UNL     1     -46.886  30.449  21.169  1.00  0.00     0.161 HD
BRANCH  20  22
ATOM     22  C   UNL     1     -45.329  29.683  22.270  1.00  0.00     0.005 C 
ATOM     23  H   UNL     1     -45.217  29.089  23.183  1.00  0.00     0.045 H 
ATOM     24  H   UNL     1     -44.860  29.126  21.451  1.00  0.00     0.045 H 
ATOM     25  H   UNL     1     -44.789  30.622  22.425  1.00  0.00     0.045 H 
ENDBRANCH  20  22
ENDBRANCH   6  20
ENDBRANCH   4   5
ENDBRANCH   1   4
BRANCH   1  26
ATOM     26  C   UNL     1     -46.417  36.887  28.181  1.00  0.00     0.010 A 
ATOM     27  C   UNL     1     -47.686  37.403  28.394  1.00  0.00     0.034 A 
ATOM     28  C   UNL     1     -45.365  37.802  28.017  1.00  0.00    -0.028 A 
ATOM     29  N   UNL     1     -47.962  38.723  28.428  1.00  0.00    -0.262 NA
ATOM     30  H   UNL     1     -48.547  36.756  28.547  1.00  0.00     0.084 H 
ATOM     31  C   UNL     1     -45.609  39.184  28.041  1.00  0.00     0.066 A 
ATOM     32  H   UNL     1     -44.369  37.400  27.861  1.00  0.00     0.065 H 
ATOM     33  C   UNL     1     -46.925  39.581  28.247  1.00  0.00     0.051 A 
ATOM     34  H   UNL     1     -47.238  40.618  28.298  1.00  0.00     0.086 H 
BRANCH  31  35
ATOM     35  N   UNL     1     -44.547  40.131  27.868  1.00  0.00    -0.300 N 
ATOM     36  C   UNL     1     -43.475  40.295  28.737  1.00  0.00     0.012 A 
ATOM     37  C   UNL     1     -44.372  41.051  26.829  1.00  0.00     0.150 A 
ATOM     38  C   UNL     1     -42.648  41.289  28.270  1.00  0.00    -0.031 A 
ATOM     39  H   UNL     1     -43.372  39.705  29.636  1.00  0.00     0.082 H 
ATOM     40  C   UNL     1     -43.206  41.775  27.066  1.00  0.00     0.061 A 
ATOM     41  N   UNL     1     -45.172  41.223  25.758  1.00  0.00    -0.218 NA
ATOM     42  H   UNL     1     -41.735  41.626  28.743  1.00  0.00     0.065 H 
ATOM     43  C   UNL     1     -42.854  42.754  26.126  1.00  0.00     0.136 A 
ATOM     44  C   UNL     1     -44.735  42.179  24.928  1.00  0.00     0.120 A 
ATOM     45  N   UNL     1     -43.641  42.948  25.054  1.00  0.00    -0.219 NA
ATOM     46  H   UNL     1     -45.340  42.359  24.044  1.00  0.00     0.106 H 
BRANCH  43  47
ATOM     47  N   UNL     1     -41.730  43.560  26.242  1.00  0.00    -0.383 N 
ATOM     48  H   UNL     1     -41.995  44.539  26.249  1.00  0.00     0.158 HD
ATOM     49  H   UNL     1     -41.067  43.271  26.947  1.00  0.00     0.158 HD
ENDBRANCH  43  47
ENDBRANCH  31  35
ENDBRANCH   1  26
TORSDOF 7
ENDMDL
MODEL 5
REMARK VINA RESULT:      -9.2      1.959      2.541
REMARK SMILES CNc1ccc2ccc(OCc3cncc(-n4ccc5c(N)ncnc54)c3)cc2n1
REMARK SMILES IDX 11 1 10 4 9 5 3 6 4 7 30 8 5 9 29 11 6 12 28 14 7 15 8 17
REMARK SMILES IDX 2 20 1 22 12 26 13 27 27 28 14 29 16 31 15 33 17 35 18 36
REMARK SMILES IDX 26 37 19 38 20 40 25 41 21 43 24 44 23 45 22 47
REMARK H PARENT 11 2 11 3 4 10 5 13 28 16 7 18 8 19 2 21 1 23 1 24 1 25 13 30
REMARK H PARENT 27 32 15 34 18 39 19 42 24 46 22 48 22 49
REMARK Flexibility Score: inf
ROOT
ATOM      1  C   UNL     1     -48.870  35.221  27.004  1.00  0.00     0.115 C 
ATOM      2  H   UNL     1     -49.858  34.763  27.131  1.00  0.00     0.076 H 
ATOM      3  H   UNL     1     -49.031  36.130  26.409  1.00  0.00     0.076 H 
ENDROOT
BRANCH   1   4
ATOM      4  O   UNL     1     -48.403  35.545  28.316  1.00  0.00    -0.489 OA
BRANCH   4   5
ATOM      5  C   UNL     1     -47.357  36.419  28.435  1.00  0.00     0.122 A 
ATOM      6  C   UNL     1     -45.573  40.471  26.690  1.00  0.00     0.126 A 
ATOM      7  C   UNL     1     -44.492  40.434  27.558  1.00  0.00    -0.019 A 
ATOM      8  N   UNL     1     -46.521  39.516  26.678  1.00  0.00    -0.231 NA
ATOM      9  C   UNL     1     -44.390  39.383  28.462  1.00  0.00    -0.049 A 
ATOM     10  H   UNL     1     -43.725  41.199  27.523  1.00  0.00     0.066 H 
ATOM     11  C   UNL     1     -46.429  38.496  27.551  1.00  0.00     0.076 A 
ATOM     12  C   UNL     1     -45.370  38.387  28.473  1.00  0.00     0.001 A 
ATOM     13  H   UNL     1     -43.546  39.345  29.145  1.00  0.00     0.063 H 
ATOM     14  C   UNL     1     -47.404  37.508  27.558  1.00  0.00     0.007 A 
ATOM     15  C   UNL     1     -45.319  37.304  29.366  1.00  0.00    -0.049 A 
ATOM     16  H   UNL     1     -48.228  37.588  26.851  1.00  0.00     0.069 H 
ATOM     17  C   UNL     1     -46.312  36.324  29.349  1.00  0.00    -0.019 A 
ATOM     18  H   UNL     1     -44.508  37.223  30.088  1.00  0.00     0.063 H 
ATOM     19  H   UNL     1     -46.247  35.518  30.071  1.00  0.00     0.066 H 
BRANCH   6  20
ATOM     20  N   UNL     1     -45.734  41.488  25.746  1.00  0.00    -0.373 N 
ATOM     21  H   UNL     1     -46.274  42.195  26.247  1.00  0.00     0.161 HD
BRANCH  20  22
ATOM     22  C   UNL     1     -44.483  42.038  25.253  1.00  0.00     0.005 C 
ATOM     23  H   UNL     1     -43.895  41.234  24.799  1.00  0.00     0.045 H 
ATOM     24  H   UNL     1     -44.652  42.802  24.486  1.00  0.00     0.045 H 
ATOM     25  H   UNL     1     -43.880  42.463  26.062  1.00  0.00     0.045 H 
ENDBRANCH  20  22
ENDBRANCH   6  20
ENDBRANCH   4   5
ENDBRANCH   1   4
BRANCH   1  26
ATOM     26  C   UNL     1     -47.999  34.223  26.289  1.00  0.00     0.010 A 
ATOM     27  C   UNL     1     -46.643  34.444  26.093  1.00  0.00     0.034 A 
ATOM     28  C   UNL     1     -48.526  33.000  25.843  1.00  0.00    -0.028 A 
ATOM     29  N   UNL     1     -45.822  33.565  25.483  1.00  0.00    -0.262 NA
ATOM     30  H   UNL     1     -46.161  35.360  26.428  1.00  0.00     0.084 H 
ATOM     31  C   UNL     1     -47.706  32.060  25.199  1.00  0.00     0.066 A 
ATOM     32  H   UNL     1     -49.584  32.821  26.004  1.00  0.00     0.065 H 
ATOM     33  C   UNL     1     -46.367  32.400  25.047  1.00  0.00     0.051 A 
ATOM     34  H   UNL     1     -45.633  31.755  24.579  1.00  0.00     0.086 H 
BRANCH  31  35
ATOM     35  N   UNL     1     -48.231  30.810  24.732  1.00  0.00    -0.300 N 
ATOM     36  C   UNL     1     -48.747  29.808  25.544  1.00  0.00     0.012 A 
ATOM     37  C   UNL     1     -48.330  30.356  23.413  1.00  0.00     0.150 A 
ATOM     38  C   UNL     1     -49.158  28.749  24.769  1.00  0.00    -0.031 A 
ATOM     39  H   UNL     1     -48.782  29.904  26.619  1.00  0.00     0.082 H 
ATOM     40  C   UNL     1     -48.898  29.084  23.421  1.00  0.00     0.061 A 
ATOM     41  N   UNL     1     -47.962  31.019  22.299  1.00  0.00    -0.218 NA
ATOM     42  H   UNL     1     -49.604  27.834  25.136  1.00  0.00     0.065 H 
ATOM     43  C   UNL     1     -49.085  28.454  22.182  1.00  0.00     0.136 A 
ATOM     44  C   UNL     1     -48.192  30.323  21.177  1.00  0.00     0.120 A 
ATOM     45  N   UNL     1     -48.718  29.094  21.060  1.00  0.00    -0.219 NA
ATOM     46  H   UNL     1     -47.917  30.812  20.247  1.00  0.00     0.106 H 
BRANCH  43  47
ATOM     47  N   UNL     1     -49.623  27.183  22.042  1.00  0.00    -0.383 N 
ATOM     48  H   UNL     1     -48.983  26.581  21.534  1.00  0.00     0.158 HD
ATOM     49  H   UNL     1     -50.031  26.795  22.880  1.00  0.00     0.158 HD
ENDBRANCH  43  47
ENDBRANCH  31  35
ENDBRANCH   1  26
TORSDOF 7
ENDMDL
MODEL 6
REMARK VINA RESULT:      -9.2      1.653     10.142
REMARK SMILES CNc1ccc2ccc(OCc3cncc(-n4ccc5c(N)ncnc54)c3)cc2n1
REMARK SMILES IDX 11 1 10 4 9 5 3 6 4 7 30 8 5 9 29 11 6 12 28 14 7 15 8 17
REMARK SMILES IDX 2 20 1 22 12 26 13 27 27 28 14 29 16 31 15 33 17 35 18 36
REMARK SMILES IDX 26 37 19 38 20 40 25 41 21 43 24 44 23 45 22 47
REMARK H PARENT 11 2 11 3 4 10 5 13 28 16 7 18 8 19 2 21 1 23 1 24 1 25 13 30
REMARK H PARENT 27 32 15 34 18 39 19 42 24 46 22 48 22 49
REMARK Flexibility Score: inf
ROOT
ATOM      1  C   UNL     1     -46.091  36.774  28.495  1.00  0.00     0.115 C 
ATOM      2  H   UNL     1     -47.119  37.100  28.298  1.00  0.00     0.076 H 
ATOM      3  H   UNL     1     -46.134  36.170  29.411  1.00  0.00     0.076 H 
ENDROOT
BRANCH   1   4
ATOM      4  O   UNL     1     -45.698  35.976  27.375  1.00  0.00    -0.489 OA
BRANCH   4   5
ATOM      5  C   UNL     1     -46.600  35.083  26.866  1.00  0.00     0.122 A 
ATOM      6  C   UNL     1     -46.973  31.170  24.183  1.00  0.00     0.126 A 
ATOM      7  C   UNL     1     -48.349  31.120  24.349  1.00  0.00    -0.019 A 
ATOM      8  N   UNL     1     -46.215  32.135  24.736  1.00  0.00    -0.231 NA
ATOM      9  C   UNL     1     -48.969  32.090  25.130  1.00  0.00    -0.049 A 
ATOM     10  H   UNL     1     -48.940  30.351  23.865  1.00  0.00     0.066 H 
ATOM     11  C   UNL     1     -46.809  33.076  25.493  1.00  0.00     0.076 A 
ATOM     12  C   UNL     1     -48.198  33.093  25.722  1.00  0.00     0.001 A 
ATOM     13  H   UNL     1     -50.047  32.059  25.264  1.00  0.00     0.063 H 
ATOM     14  C   UNL     1     -46.039  34.072  26.078  1.00  0.00     0.007 A 
ATOM     15  C   UNL     1     -48.771  34.096  26.521  1.00  0.00    -0.049 A 
ATOM     16  H   UNL     1     -44.964  34.062  25.909  1.00  0.00     0.069 H 
ATOM     17  C   UNL     1     -47.973  35.086  27.095  1.00  0.00    -0.019 A 
ATOM     18  H   UNL     1     -49.843  34.105  26.709  1.00  0.00     0.063 H 
ATOM     19  H   UNL     1     -48.452  35.827  27.724  1.00  0.00     0.066 H 
BRANCH   6  20
ATOM     20  N   UNL     1     -46.284  30.238  23.403  1.00  0.00    -0.373 N 
ATOM     21  H   UNL     1     -46.877  29.408  23.443  1.00  0.00     0.161 HD
BRANCH  20  22
ATOM     22  C   UNL     1     -46.071  30.663  22.030  1.00  0.00     0.005 C 
ATOM     23  H   UNL     1     -45.890  29.781  21.408  1.00  0.00     0.045 H 
ATOM     24  H   UNL     1     -46.948  31.181  21.626  1.00  0.00     0.045 H 
ATOM     25  H   UNL     1     -45.193  31.311  21.937  1.00  0.00     0.045 H 
ENDBRANCH  20  22
ENDBRANCH   6  20
ENDBRANCH   4   5
ENDBRANCH   1   4
BRANCH   1  26
ATOM     26  C   UNL     1     -45.251  38.012  28.672  1.00  0.00     0.010 A 
ATOM     27  C   UNL     1     -44.434  38.188  29.778  1.00  0.00     0.034 A 
ATOM     28  C   UNL     1     -45.227  39.009  27.684  1.00  0.00    -0.028 A 
ATOM     29  N   UNL     1     -43.645  39.267  29.963  1.00  0.00    -0.262 NA
ATOM     30  H   UNL     1     -44.386  37.450  30.575  1.00  0.00     0.084 H 
ATOM     31  C   UNL     1     -44.424  40.150  27.838  1.00  0.00     0.066 A 
ATOM     32  H   UNL     1     -45.858  38.867  26.812  1.00  0.00     0.065 H 
ATOM     33  C   UNL     1     -43.660  40.222  28.997  1.00  0.00     0.051 A 
ATOM     34  H   UNL     1     -42.992  41.044  29.225  1.00  0.00     0.086 H 
BRANCH  31  35
ATOM     35  N   UNL     1     -44.394  41.180  26.842  1.00  0.00    -0.300 N 
ATOM     36  C   UNL     1     -45.507  41.681  26.178  1.00  0.00     0.012 A 
ATOM     37  C   UNL     1     -43.281  41.871  26.350  1.00  0.00     0.150 A 
ATOM     38  C   UNL     1     -45.117  42.655  25.289  1.00  0.00    -0.031 A 
ATOM     39  H   UNL     1     -46.502  41.309  26.369  1.00  0.00     0.082 H 
ATOM     40  C   UNL     1     -43.713  42.782  25.388  1.00  0.00     0.061 A 
ATOM     41  N   UNL     1     -41.999  41.715  26.731  1.00  0.00    -0.218 NA
ATOM     42  H   UNL     1     -45.775  43.219  24.641  1.00  0.00     0.065 H 
ATOM     43  C   UNL     1     -42.737  43.579  24.773  1.00  0.00     0.136 A 
ATOM     44  C   UNL     1     -41.158  42.532  26.081  1.00  0.00     0.120 A 
ATOM     45  N   UNL     1     -41.451  43.436  25.132  1.00  0.00    -0.219 NA
ATOM     46  H   UNL     1     -40.109  42.451  26.352  1.00  0.00     0.106 H 
BRANCH  43  47
ATOM     47  N   UNL     1     -43.020  44.515  23.788  1.00  0.00    -0.383 N 
ATOM     48  H   UNL     1     -44.014  44.717  23.766  1.00  0.00     0.158 HD
ATOM     49  H   UNL     1     -42.401  45.313  23.765  1.00  0.00     0.158 HD
ENDBRANCH  43  47
ENDBRANCH  31  35
ENDBRANCH   1  26
TORSDOF 7
ENDMDL
MODEL 7
REMARK VINA RESULT:      -9.0      1.854      2.614
REMARK SMILES CNc1ccc2ccc(OCc3cncc(-n4ccc5c(N)ncnc54)c3)cc2n1
REMARK SMILES IDX 11 1 10 4 9 5 3 6 4 7 30 8 5 9 29 11 6 12 28 14 7 15 8 17
REMARK SMILES IDX 2 20 1 22 12 26 13 27 27 28 14 29 16 31 15 33 17 35 18 36
REMARK SMILES IDX 26 37 19 38 20 40 25 41 21 43 24 44 23 45 22 47
REMARK H PARENT 11 2 11 3 4 10 5 13 28 16 7 18 8 19 2 21 1 23 1 24 1 25 13 30
REMARK H PARENT 27 32 15 34 18 39 19 42 24 46 22 48 22 49
REMARK Flexibility Score: inf
ROOT
ATOM      1  C   UNL     1     -46.565  38.286  26.750  1.00  0.00     0.115 C 
ATOM      2  H   UNL     1     -47.640  38.495  26.685  1.00  0.00     0.076 H 
ATOM      3  H   UNL     1     -46.141  38.563  25.776  1.00  0.00     0.076 H 
ENDROOT
BRANCH   1   4
ATOM      4  O   UNL     1     -46.053  39.125  27.789  1.00  0.00    -0.489 OA
BRANCH   4   5
ATOM      5  C   UNL     1     -45.041  39.993  27.481  1.00  0.00     0.122 A 
ATOM      6  C   UNL     1     -43.563  43.092  24.187  1.00  0.00     0.126 A 
ATOM      7  C   UNL     1     -42.425  43.408  24.914  1.00  0.00    -0.019 A 
ATOM      8  N   UNL     1     -44.465  42.191  24.616  1.00  0.00    -0.231 NA
ATOM      9  C   UNL     1     -42.215  42.786  26.140  1.00  0.00    -0.049 A 
ATOM     10  H   UNL     1     -41.696  44.112  24.529  1.00  0.00     0.066 H 
ATOM     11  C   UNL     1     -44.269  41.586  25.801  1.00  0.00     0.076 A 
ATOM     12  C   UNL     1     -43.147  41.856  26.608  1.00  0.00     0.001 A 
ATOM     13  H   UNL     1     -41.326  43.026  26.716  1.00  0.00     0.063 H 
ATOM     14  C   UNL     1     -45.196  40.662  26.262  1.00  0.00     0.007 A 
ATOM     15  C   UNL     1     -42.987  41.200  27.840  1.00  0.00    -0.049 A 
ATOM     16  H   UNL     1     -46.069  40.452  25.646  1.00  0.00     0.069 H 
ATOM     17  C   UNL     1     -43.934  40.273  28.276  1.00  0.00    -0.019 A 
ATOM     18  H   UNL     1     -42.126  41.414  28.470  1.00  0.00     0.063 H 
ATOM     19  H   UNL     1     -43.784  39.807  29.244  1.00  0.00     0.066 H 
BRANCH   6  20
ATOM     20  N   UNL     1     -43.832  43.667  22.942  1.00  0.00    -0.373 N 
ATOM     21  H   UNL     1     -44.372  42.947  22.459  1.00  0.00     0.161 HD
BRANCH  20  22
ATOM     22  C   UNL     1     -44.571  44.915  23.017  1.00  0.00     0.005 C 
ATOM     23  H   UNL     1     -43.879  45.725  23.269  1.00  0.00     0.045 H 
ATOM     24  H   UNL     1     -45.041  45.164  22.059  1.00  0.00     0.045 H 
ATOM     25  H   UNL     1     -45.336  44.887  23.800  1.00  0.00     0.045 H 
ENDBRANCH  20  22
ENDBRANCH   6  20
ENDBRANCH   4   5
ENDBRANCH   1   4
BRANCH   1  26
ATOM     26  C   UNL     1     -46.408  36.816  27.038  1.00  0.00     0.010 A 
ATOM     27  C   UNL     1     -45.527  36.350  28.003  1.00  0.00     0.034 A 
ATOM     28  C   UNL     1     -47.199  35.865  26.372  1.00  0.00    -0.028 A 
ATOM     29  N   UNL     1     -45.375  35.046  28.312  1.00  0.00    -0.262 NA
ATOM     30  H   UNL     1     -44.895  37.028  28.572  1.00  0.00     0.084 H 
ATOM     31  C   UNL     1     -47.069  34.498  26.660  1.00  0.00     0.066 A 
ATOM     32  H   UNL     1     -47.897  36.229  25.625  1.00  0.00     0.065 H 
ATOM     33  C   UNL     1     -46.141  34.152  27.635  1.00  0.00     0.051 A 
ATOM     34  H   UNL     1     -45.958  33.132  27.955  1.00  0.00     0.086 H 
BRANCH  31  35
ATOM     35  N   UNL     1     -47.864  33.516  25.983  1.00  0.00    -0.300 N 
ATOM     36  C   UNL     1     -49.227  33.324  26.171  1.00  0.00     0.012 A 
ATOM     37  C   UNL     1     -47.450  32.582  25.027  1.00  0.00     0.150 A 
ATOM     38  C   UNL     1     -49.667  32.300  25.366  1.00  0.00    -0.031 A 
ATOM     39  H   UNL     1     -49.797  33.918  26.871  1.00  0.00     0.082 H 
ATOM     40  C   UNL     1     -48.552  31.823  24.641  1.00  0.00     0.061 A 
ATOM     41  N   UNL     1     -46.206  32.427  24.533  1.00  0.00    -0.218 NA
ATOM     42  H   UNL     1     -50.685  31.938  25.304  1.00  0.00     0.065 H 
ATOM     43  C   UNL     1     -48.341  30.824  23.679  1.00  0.00     0.136 A 
ATOM     44  C   UNL     1     -46.125  31.450  23.619  1.00  0.00     0.120 A 
ATOM     45  N   UNL     1     -47.107  30.648  23.177  1.00  0.00    -0.219 NA
ATOM     46  H   UNL     1     -45.144  31.283  23.184  1.00  0.00     0.106 H 
BRANCH  43  47
ATOM     47  N   UNL     1     -49.342  29.984  23.213  1.00  0.00    -0.383 N 
ATOM     48  H   UNL     1     -50.184  30.094  23.766  1.00  0.00     0.158 HD
ATOM     49  H   UNL     1     -49.463  29.977  22.210  1.00  0.00     0.158 HD
ENDBRANCH  43  47
ENDBRANCH  31  35
ENDBRANCH   1  26
TORSDOF 7
ENDMDL
