MODEL 1
REMARK VINA RESULT:     -10.4      0.000      0.000
REMARK SMILES O=C(NCc1ccc2cc(CNC[C@@H]3CCO3)[nH]c2c1)c1cc(=O)n2ccccc2n1
REMARK SMILES IDX 5 1 6 2 7 3 8 4 9 5 10 6 18 7 19 8 20 9 4 15 3 18 1 19 2 20
REMARK SMILES IDX 21 22 22 23 31 24 23 25 30 27 24 28 25 29 29 30 26 31 28 32
REMARK SMILES IDX 27 34 11 38 12 41 13 43 14 46 15 47 17 48 16 50
REMARK H PARENT 6 10 7 11 9 12 18 13 20 14 4 16 4 17 3 21 22 26 29 33 26 35
REMARK H PARENT 28 36 27 37 11 39 11 40 12 42 13 44 13 45 14 49 15 51 15 52
REMARK H PARENT 16 53 16 54
REMARK Flexibility Score: inf
ROOT
ATOM      1  C   UNL     1     -47.955  35.174  26.654  1.00  0.00    -0.027 A 
ATOM      2  C   UNL     1     -46.707  35.069  26.026  1.00  0.00    -0.057 A 
ATOM      3  C   UNL     1     -46.349  33.921  25.309  1.00  0.00    -0.052 A 
ATOM      4  C   UNL     1     -47.259  32.852  25.221  1.00  0.00    -0.000 A 
ATOM      5  C   UNL     1     -47.230  31.577  24.594  1.00  0.00    -0.032 A 
ATOM      6  C   UNL     1     -48.428  30.940  24.856  1.00  0.00     0.030 A 
ATOM      7  N   UNL     1     -49.182  31.800  25.619  1.00  0.00    -0.357 N 
ATOM      8  C   UNL     1     -48.493  32.968  25.857  1.00  0.00     0.046 A 
ATOM      9  C   UNL     1     -48.869  34.108  26.581  1.00  0.00    -0.033 A 
ATOM     10  H   UNL     1     -45.995  35.891  26.095  1.00  0.00     0.063 H 
ATOM     11  H   UNL     1     -45.378  33.859  24.826  1.00  0.00     0.063 H 
ATOM     12  H   UNL     1     -46.417  31.161  24.015  1.00  0.00     0.065 H 
ATOM     13  H   UNL     1     -50.114  31.611  25.960  1.00  0.00     0.166 HD
ATOM     14  H   UNL     1     -49.837  34.164  27.069  1.00  0.00     0.065 H 
ENDROOT
BRANCH   1  15
ATOM     15  C   UNL     1     -48.300  36.418  27.435  1.00  0.00     0.043 C 
ATOM     16  H   UNL     1     -49.205  36.882  27.026  1.00  0.00     0.054 H 
ATOM     17  H   UNL     1     -48.507  36.168  28.480  1.00  0.00     0.054 H 
BRANCH  15  18
ATOM     18  N   UNL     1     -47.200  37.348  27.427  1.00  0.00    -0.347 N 
ATOM     19  O   UNL     1     -46.392  36.844  29.523  1.00  0.00    -0.268 OA
ATOM     20  C   UNL     1     -46.374  37.531  28.509  1.00  0.00     0.270 C 
ATOM     21  H   UNL     1     -47.152  38.056  26.703  1.00  0.00     0.164 HD
BRANCH  20  22
ATOM     22  C   UNL     1     -45.432  38.698  28.319  1.00  0.00     0.136 A 
ATOM     23  C   UNL     1     -45.660  39.477  27.260  1.00  0.00     0.035 A 
ATOM     24  N   UNL     1     -44.413  38.881  29.225  1.00  0.00    -0.225 NA
ATOM     25  C   UNL     1     -44.767  40.619  27.032  1.00  0.00     0.258 A 
ATOM     26  H   UNL     1     -46.465  39.320  26.553  1.00  0.00     0.071 H 
ATOM     27  C   UNL     1     -43.623  39.890  29.017  1.00  0.00     0.140 A 
ATOM     28  O   UNL     1     -44.973  41.346  26.061  1.00  0.00    -0.269 OA
ATOM     29  N   UNL     1     -43.745  40.781  27.955  1.00  0.00    -0.268 N 
ATOM     30  C   UNL     1     -42.502  40.128  29.971  1.00  0.00    -0.019 A 
ATOM     31  C   UNL     1     -42.857  41.840  27.805  1.00  0.00     0.014 A 
ATOM     32  C   UNL     1     -41.672  41.161  29.783  1.00  0.00    -0.057 A 
ATOM     33  H   UNL     1     -42.398  39.440  30.800  1.00  0.00     0.066 H 
ATOM     34  C   UNL     1     -41.852  42.047  28.665  1.00  0.00    -0.045 A 
ATOM     35  H   UNL     1     -43.012  42.496  26.952  1.00  0.00     0.082 H 
ATOM     36  H   UNL     1     -40.850  41.351  30.466  1.00  0.00     0.062 H 
ATOM     37  H   UNL     1     -41.165  42.877  28.536  1.00  0.00     0.064 H 
ENDBRANCH  20  22
ENDBRANCH  15  18
ENDBRANCH   1  15
BRANCH   6  38
ATOM     38  C   UNL     1     -48.928  29.600  24.438  1.00  0.00     0.036 C 
ATOM     39  H   UNL     1     -49.983  29.491  24.718  1.00  0.00     0.049 H 
ATOM     40  H   UNL     1     -48.859  29.518  23.348  1.00  0.00     0.049 H 
BRANCH  38  41
ATOM     41  N   UNL     1     -48.121  28.569  25.077  1.00  0.00    -0.309 NA
ATOM     42  H   UNL     1     -47.637  28.974  25.875  1.00  0.00     0.123 HD
BRANCH  41  43
ATOM     43  C   UNL     1     -48.942  27.427  25.496  1.00  0.00     0.022 C 
ATOM     44  H   UNL     1     -49.802  27.318  24.824  1.00  0.00     0.046 H 
ATOM     45  H   UNL     1     -49.336  27.616  26.503  1.00  0.00     0.046 H 
BRANCH  43  46
ATOM     46  C   UNL     1     -48.175  26.094  25.509  1.00  0.00     0.072 C 
ATOM     47  C   UNL     1     -48.069  25.278  26.806  1.00  0.00    -0.002 C 
ATOM     48  O   UNL     1     -46.733  26.283  25.475  1.00  0.00    -0.377 OA
ATOM     49  H   UNL     1     -48.487  25.480  24.654  1.00  0.00     0.062 H 
ATOM     50  C   UNL     1     -46.607  25.717  26.801  1.00  0.00     0.050 C 
ATOM     51  H   UNL     1     -48.660  25.621  27.656  1.00  0.00     0.032 H 
ATOM     52  H   UNL     1     -48.215  24.202  26.671  1.00  0.00     0.032 H 
ATOM     53  H   UNL     1     -46.341  26.482  27.536  1.00  0.00     0.057 H 
ATOM     54  H   UNL     1     -45.877  24.905  26.829  1.00  0.00     0.057 H 
ENDBRANCH  43  46
ENDBRANCH  41  43
ENDBRANCH  38  41
ENDBRANCH   6  38
TORSDOF 7
ENDMDL
MODEL 2
REMARK VINA RESULT:      -9.5      2.111      3.018
REMARK SMILES O=C(NCc1ccc2cc(CNC[C@@H]3CCO3)[nH]c2c1)c1cc(=O)n2ccccc2n1
REMARK SMILES IDX 5 1 6 2 7 3 8 4 9 5 10 6 18 7 19 8 20 9 4 15 3 18 1 19 2 20
REMARK SMILES IDX 21 22 22 23 31 24 23 25 30 27 24 28 25 29 29 30 26 31 28 32
REMARK SMILES IDX 27 34 11 38 12 41 13 43 14 46 15 47 17 48 16 50
REMARK H PARENT 6 10 7 11 9 12 18 13 20 14 4 16 4 17 3 21 22 26 29 33 26 35
REMARK H PARENT 28 36 27 37 11 39 11 40 12 42 13 44 13 45 14 49 15 51 15 52
REMARK H PARENT 16 53 16 54
REMARK Flexibility Score: inf
ROOT
ATOM      1  C   UNL     1     -47.603  36.059  27.057  1.00  0.00    -0.027 A 
ATOM      2  C   UNL     1     -46.302  35.685  26.694  1.00  0.00    -0.057 A 
ATOM      3  C   UNL     1     -46.036  34.423  26.147  1.00  0.00    -0.052 A 
ATOM      4  C   UNL     1     -47.095  33.516  25.962  1.00  0.00    -0.000 A 
ATOM      5  C   UNL     1     -47.187  32.194  25.449  1.00  0.00    -0.032 A 
ATOM      6  C   UNL     1     -48.508  31.795  25.517  1.00  0.00     0.030 A 
ATOM      7  N   UNL     1     -49.217  32.843  26.053  1.00  0.00    -0.357 N 
ATOM      8  C   UNL     1     -48.382  33.900  26.335  1.00  0.00     0.046 A 
ATOM      9  C   UNL     1     -48.667  35.157  26.886  1.00  0.00    -0.033 A 
ATOM     10  H   UNL     1     -45.477  36.380  26.841  1.00  0.00     0.063 H 
ATOM     11  H   UNL     1     -45.022  34.151  25.870  1.00  0.00     0.063 H 
ATOM     12  H   UNL     1     -46.372  31.590  25.072  1.00  0.00     0.065 H 
ATOM     13  H   UNL     1     -50.213  32.848  26.218  1.00  0.00     0.166 HD
ATOM     14  H   UNL     1     -49.680  35.424  27.169  1.00  0.00     0.065 H 
ENDROOT
BRANCH   1  15
ATOM     15  C   UNL     1     -47.850  37.420  27.661  1.00  0.00     0.043 C 
ATOM     16  H   UNL     1     -48.772  37.852  27.256  1.00  0.00     0.054 H 
ATOM     17  H   UNL     1     -47.979  37.338  28.746  1.00  0.00     0.054 H 
BRANCH  15  18
ATOM     18  N   UNL     1     -46.730  38.294  27.429  1.00  0.00    -0.347 N 
ATOM     19  O   UNL     1     -45.855  38.200  29.556  1.00  0.00    -0.268 OA
ATOM     20  C   UNL     1     -45.859  38.667  28.424  1.00  0.00     0.270 C 
ATOM     21  H   UNL     1     -46.692  38.840  26.575  1.00  0.00     0.164 HD
BRANCH  20  22
ATOM     22  C   UNL     1     -44.897  39.741  27.970  1.00  0.00     0.136 A 
ATOM     23  C   UNL     1     -43.862  39.987  28.775  1.00  0.00     0.035 A 
ATOM     24  N   UNL     1     -45.143  40.393  26.783  1.00  0.00    -0.225 NA
ATOM     25  C   UNL     1     -42.904  41.026  28.378  1.00  0.00     0.258 A 
ATOM     26  H   UNL     1     -43.681  39.468  29.708  1.00  0.00     0.071 H 
ATOM     27  C   UNL     1     -44.296  41.315  26.438  1.00  0.00     0.140 A 
ATOM     28  O   UNL     1     -41.943  41.257  29.111  1.00  0.00    -0.269 OA
ATOM     29  N   UNL     1     -43.176  41.672  27.181  1.00  0.00    -0.268 N 
ATOM     30  C   UNL     1     -44.522  42.051  25.161  1.00  0.00    -0.019 A 
ATOM     31  C   UNL     1     -42.315  42.671  26.740  1.00  0.00     0.014 A 
ATOM     32  C   UNL     1     -43.666  43.005  24.779  1.00  0.00    -0.057 A 
ATOM     33  H   UNL     1     -45.392  41.780  24.577  1.00  0.00     0.066 H 
ATOM     34  C   UNL     1     -42.524  43.328  25.592  1.00  0.00    -0.045 A 
ATOM     35  H   UNL     1     -41.459  42.899  27.370  1.00  0.00     0.082 H 
ATOM     36  H   UNL     1     -43.813  43.552  23.854  1.00  0.00     0.062 H 
ATOM     37  H   UNL     1     -41.845  44.107  25.259  1.00  0.00     0.064 H 
ENDBRANCH  20  22
ENDBRANCH  15  18
ENDBRANCH   1  15
BRANCH   6  38
ATOM     38  C   UNL     1     -49.159  30.519  25.110  1.00  0.00     0.036 C 
ATOM     39  H   UNL     1     -49.928  30.240  25.842  1.00  0.00     0.049 H 
ATOM     40  H   UNL     1     -49.654  30.664  24.143  1.00  0.00     0.049 H 
BRANCH  38  41
ATOM     41  N   UNL     1     -48.148  29.475  25.010  1.00  0.00    -0.309 NA
ATOM     42  H   UNL     1     -48.165  28.916  25.860  1.00  0.00     0.123 HD
BRANCH  41  43
ATOM     43  C   UNL     1     -48.362  28.629  23.831  1.00  0.00     0.022 C 
ATOM     44  H   UNL     1     -49.343  28.843  23.390  1.00  0.00     0.046 H 
ATOM     45  H   UNL     1     -48.365  27.575  24.138  1.00  0.00     0.046 H 
BRANCH  43  46
ATOM     46  C   UNL     1     -47.297  28.821  22.739  1.00  0.00     0.072 C 
ATOM     47  C   UNL     1     -46.198  29.881  22.912  1.00  0.00    -0.002 C 
ATOM     48  O   UNL     1     -47.819  29.510  21.568  1.00  0.00    -0.377 OA
ATOM     49  H   UNL     1     -46.890  27.845  22.442  1.00  0.00     0.062 H 
ATOM     50  C   UNL     1     -46.951  30.640  21.821  1.00  0.00     0.050 C 
ATOM     51  H   UNL     1     -46.143  30.382  23.879  1.00  0.00     0.032 H 
ATOM     52  H   UNL     1     -45.200  29.545  22.617  1.00  0.00     0.032 H 
ATOM     53  H   UNL     1     -47.520  31.512  22.158  1.00  0.00     0.057 H 
ATOM     54  H   UNL     1     -46.357  30.901  20.942  1.00  0.00     0.057 H 
ENDBRANCH  43  46
ENDBRANCH  41  43
ENDBRANCH  38  41
ENDBRANCH   6  38
TORSDOF 7
ENDMDL
MODEL 3
REMARK VINA RESULT:      -9.5      1.930     11.660
REMARK SMILES O=C(NCc1ccc2cc(CNC[C@@H]3CCO3)[nH]c2c1)c1cc(=O)n2ccccc2n1
REMARK SMILES IDX 5 1 6 2 7 3 8 4 9 5 10 6 18 7 19 8 20 9 4 15 3 18 1 19 2 20
REMARK SMILES IDX 21 22 22 23 31 24 23 25 30 27 24 28 25 29 29 30 26 31 28 32
REMARK SMILES IDX 27 34 11 38 12 41 13 43 14 46 15 47 17 48 16 50
REMARK H PARENT 6 10 7 11 9 12 18 13 20 14 4 16 4 17 3 21 22 26 29 33 26 35
REMARK H PARENT 28 36 27 37 11 39 11 40 12 42 13 44 13 45 14 49 15 51 15 52
REMARK H PARENT 16 53 16 54
REMARK Flexibility Score: inf
ROOT
ATOM      1  C   UNL     1     -47.991  34.200  26.607  1.00  0.00    -0.027 A 
ATOM      2  C   UNL     1     -46.714  33.711  26.910  1.00  0.00    -0.057 A 
ATOM      3  C   UNL     1     -45.713  34.554  27.408  1.00  0.00    -0.052 A 
ATOM      4  C   UNL     1     -45.997  35.918  27.605  1.00  0.00    -0.000 A 
ATOM      5  C   UNL     1     -45.244  37.025  28.082  1.00  0.00    -0.032 A 
ATOM      6  C   UNL     1     -46.056  38.143  28.051  1.00  0.00     0.030 A 
ATOM      7  N   UNL     1     -47.279  37.738  27.573  1.00  0.00    -0.357 N 
ATOM      8  C   UNL     1     -47.269  36.391  27.292  1.00  0.00     0.046 A 
ATOM      9  C   UNL     1     -48.283  35.563  26.790  1.00  0.00    -0.033 A 
ATOM     10  H   UNL     1     -46.486  32.657  26.754  1.00  0.00     0.063 H 
ATOM     11  H   UNL     1     -44.729  34.156  27.639  1.00  0.00     0.063 H 
ATOM     12  H   UNL     1     -44.213  37.013  28.410  1.00  0.00     0.065 H 
ATOM     13  H   UNL     1     -48.082  38.338  27.445  1.00  0.00     0.166 HD
ATOM     14  H   UNL     1     -49.263  35.965  26.553  1.00  0.00     0.065 H 
ENDROOT
BRANCH   1  15
ATOM     15  C   UNL     1     -49.040  33.267  26.053  1.00  0.00     0.043 C 
ATOM     16  H   UNL     1     -49.889  33.200  26.743  1.00  0.00     0.054 H 
ATOM     17  H   UNL     1     -49.425  33.648  25.101  1.00  0.00     0.054 H 
BRANCH  15  18
ATOM     18  N   UNL     1     -48.482  31.964  25.799  1.00  0.00    -0.347 N 
ATOM     19  O   UNL     1     -49.635  31.540  23.853  1.00  0.00    -0.268 OA
ATOM     20  C   UNL     1     -48.882  31.176  24.748  1.00  0.00     0.270 C 
ATOM     21  H   UNL     1     -47.946  31.501  26.525  1.00  0.00     0.164 HD
BRANCH  20  22
ATOM     22  C   UNL     1     -48.296  29.785  24.819  1.00  0.00     0.136 A 
ATOM     23  C   UNL     1     -47.313  29.513  23.958  1.00  0.00     0.035 A 
ATOM     24  N   UNL     1     -48.802  28.898  25.741  1.00  0.00    -0.225 NA
ATOM     25  C   UNL     1     -46.717  28.172  23.986  1.00  0.00     0.258 A 
ATOM     26  H   UNL     1     -46.926  30.219  23.234  1.00  0.00     0.071 H 
ATOM     27  C   UNL     1     -48.274  27.712  25.760  1.00  0.00     0.140 A 
ATOM     28  O   UNL     1     -45.806  27.912  23.199  1.00  0.00    -0.269 OA
ATOM     29  N   UNL     1     -47.246  27.294  24.921  1.00  0.00    -0.268 N 
ATOM     30  C   UNL     1     -48.791  26.715  26.741  1.00  0.00    -0.019 A 
ATOM     31  C   UNL     1     -46.733  26.005  25.006  1.00  0.00     0.014 A 
ATOM     32  C   UNL     1     -48.266  25.486  26.784  1.00  0.00    -0.057 A 
ATOM     33  H   UNL     1     -49.592  27.031  27.397  1.00  0.00     0.066 H 
ATOM     34  C   UNL     1     -47.203  25.114  25.889  1.00  0.00    -0.045 A 
ATOM     35  H   UNL     1     -45.931  25.746  24.319  1.00  0.00     0.082 H 
ATOM     36  H   UNL     1     -48.629  24.746  27.490  1.00  0.00     0.062 H 
ATOM     37  H   UNL     1     -46.795  24.110  25.945  1.00  0.00     0.064 H 
ENDBRANCH  20  22
ENDBRANCH  15  18
ENDBRANCH   1  15
BRANCH   6  38
ATOM     38  C   UNL     1     -45.782  39.554  28.444  1.00  0.00     0.036 C 
ATOM     39  H   UNL     1     -46.624  39.951  29.025  1.00  0.00     0.049 H 
ATOM     40  H   UNL     1     -44.891  39.579  29.082  1.00  0.00     0.049 H 
BRANCH  38  41
ATOM     41  N   UNL     1     -45.569  40.352  27.244  1.00  0.00    -0.309 NA
ATOM     42  H   UNL     1     -45.845  41.313  27.433  1.00  0.00     0.123 HD
BRANCH  41  43
ATOM     43  C   UNL     1     -44.172  40.294  26.800  1.00  0.00     0.022 C 
ATOM     44  H   UNL     1     -44.109  39.788  25.829  1.00  0.00     0.046 H 
ATOM     45  H   UNL     1     -43.590  39.701  27.515  1.00  0.00     0.046 H 
BRANCH  43  46
ATOM     46  C   UNL     1     -43.517  41.679  26.658  1.00  0.00     0.072 C 
ATOM     47  C   UNL     1     -42.064  41.894  27.108  1.00  0.00    -0.002 C 
ATOM     48  O   UNL     1     -43.997  42.625  27.654  1.00  0.00    -0.377 OA
ATOM     49  H   UNL     1     -43.705  42.075  25.651  1.00  0.00     0.062 H 
ATOM     50  C   UNL     1     -42.682  42.690  28.254  1.00  0.00     0.050 C 
ATOM     51  H   UNL     1     -41.501  41.007  27.402  1.00  0.00     0.032 H 
ATOM     52  H   UNL     1     -41.465  42.493  26.417  1.00  0.00     0.032 H 
ATOM     53  H   UNL     1     -42.667  42.200  29.233  1.00  0.00     0.057 H 
ATOM     54  H   UNL     1     -42.329  43.720  28.349  1.00  0.00     0.057 H 
ENDBRANCH  43  46
ENDBRANCH  41  43
ENDBRANCH  38  41
ENDBRANCH   6  38
TORSDOF 7
ENDMDL
MODEL 4
REMARK VINA RESULT:      -9.4      1.613      2.142
REMARK SMILES O=C(NCc1ccc2cc(CNC[C@@H]3CCO3)[nH]c2c1)c1cc(=O)n2ccccc2n1
REMARK SMILES IDX 5 1 6 2 7 3 8 4 9 5 10 6 18 7 19 8 20 9 4 15 3 18 1 19 2 20
REMARK SMILES IDX 21 22 22 23 31 24 23 25 30 27 24 28 25 29 29 30 26 31 28 32
REMARK SMILES IDX 27 34 11 38 12 41 13 43 14 46 15 47 17 48 16 50
REMARK H PARENT 6 10 7 11 9 12 18 13 20 14 4 16 4 17 3 21 22 26 29 33 26 35
REMARK H PARENT 28 36 27 37 11 39 11 40 12 42 13 44 13 45 14 49 15 51 15 52
REMARK H PARENT 16 53 16 54
REMARK Flexibility Score: inf
ROOT
ATOM      1  C   UNL     1     -48.040  34.461  26.440  1.00  0.00    -0.027 A 
ATOM      2  C   UNL     1     -46.752  34.553  25.894  1.00  0.00    -0.057 A 
ATOM      3  C   UNL     1     -46.236  33.539  25.077  1.00  0.00    -0.052 A 
ATOM      4  C   UNL     1     -47.025  32.407  24.804  1.00  0.00    -0.000 A 
ATOM      5  C   UNL     1     -46.828  31.225  24.040  1.00  0.00    -0.032 A 
ATOM      6  C   UNL     1     -47.967  30.450  24.141  1.00  0.00     0.030 A 
ATOM      7  N   UNL     1     -48.849  31.135  24.943  1.00  0.00    -0.357 N 
ATOM      8  C   UNL     1     -48.300  32.326  25.361  1.00  0.00     0.046 A 
ATOM      9  C   UNL     1     -48.833  33.330  26.182  1.00  0.00    -0.033 A 
ATOM     10  H   UNL     1     -46.134  35.424  26.106  1.00  0.00     0.063 H 
ATOM     11  H   UNL     1     -45.237  33.628  24.661  1.00  0.00     0.063 H 
ATOM     12  H   UNL     1     -45.943  30.961  23.476  1.00  0.00     0.065 H 
ATOM     13  H   UNL     1     -49.775  30.819  25.193  1.00  0.00     0.166 HD
ATOM     14  H   UNL     1     -49.828  33.234  26.603  1.00  0.00     0.065 H 
ENDROOT
BRANCH   1  15
ATOM     15  C   UNL     1     -48.556  35.564  27.331  1.00  0.00     0.043 C 
ATOM     16  H   UNL     1     -49.388  36.085  26.844  1.00  0.00     0.054 H 
ATOM     17  H   UNL     1     -48.938  35.149  28.270  1.00  0.00     0.054 H 
BRANCH  15  18
ATOM     18  N   UNL     1     -47.502  36.485  27.669  1.00  0.00    -0.347 N 
ATOM     19  O   UNL     1     -48.840  38.323  28.028  1.00  0.00    -0.268 OA
ATOM     20  C   UNL     1     -47.730  37.815  27.924  1.00  0.00     0.270 C 
ATOM     21  H   UNL     1     -46.537  36.222  27.498  1.00  0.00     0.164 HD
BRANCH  20  22
ATOM     22  C   UNL     1     -46.446  38.602  28.052  1.00  0.00     0.136 A 
ATOM     23  C   UNL     1     -45.706  38.354  29.134  1.00  0.00     0.035 A 
ATOM     24  N   UNL     1     -46.126  39.513  27.072  1.00  0.00    -0.225 NA
ATOM     25  C   UNL     1     -44.453  39.099  29.305  1.00  0.00     0.258 A 
ATOM     26  H   UNL     1     -45.971  37.636  29.900  1.00  0.00     0.071 H 
ATOM     27  C   UNL     1     -45.019  40.173  27.229  1.00  0.00     0.140 A 
ATOM     28  O   UNL     1     -43.761  38.874  30.297  1.00  0.00    -0.269 OA
ATOM     29  N   UNL     1     -44.153  40.014  28.307  1.00  0.00    -0.268 N 
ATOM     30  C   UNL     1     -44.631  41.173  26.194  1.00  0.00    -0.019 A 
ATOM     31  C   UNL     1     -42.984  40.760  28.400  1.00  0.00     0.014 A 
ATOM     32  C   UNL     1     -43.495  41.868  26.328  1.00  0.00    -0.057 A 
ATOM     33  H   UNL     1     -45.298  41.304  25.352  1.00  0.00     0.066 H 
ATOM     34  C   UNL     1     -42.641  41.657  27.466  1.00  0.00    -0.045 A 
ATOM     35  H   UNL     1     -42.354  40.585  29.269  1.00  0.00     0.082 H 
ATOM     36  H   UNL     1     -43.195  42.600  25.585  1.00  0.00     0.062 H 
ATOM     37  H   UNL     1     -41.726  42.234  27.551  1.00  0.00     0.064 H 
ENDBRANCH  20  22
ENDBRANCH  15  18
ENDBRANCH   1  15
BRANCH   6  38
ATOM     38  C   UNL     1     -48.301  29.129  23.539  1.00  0.00     0.036 C 
ATOM     39  H   UNL     1     -48.298  29.205  22.445  1.00  0.00     0.049 H 
ATOM     40  H   UNL     1     -47.533  28.402  23.827  1.00  0.00     0.049 H 
BRANCH  38  41
ATOM     41  N   UNL     1     -49.609  28.701  24.018  1.00  0.00    -0.309 NA
ATOM     42  H   UNL     1     -50.315  29.344  23.668  1.00  0.00     0.123 HD
BRANCH  41  43
ATOM     43  C   UNL     1     -49.911  27.327  23.601  1.00  0.00     0.022 C 
ATOM     44  H   UNL     1     -49.208  27.009  22.822  1.00  0.00     0.046 H 
ATOM     45  H   UNL     1     -50.917  27.294  23.166  1.00  0.00     0.046 H 
BRANCH  43  46
ATOM     46  C   UNL     1     -49.837  26.309  24.752  1.00  0.00     0.072 C 
ATOM     47  C   UNL     1     -50.368  26.681  26.145  1.00  0.00    -0.002 C 
ATOM     48  O   UNL     1     -48.487  26.159  25.275  1.00  0.00    -0.377 OA
ATOM     49  H   UNL     1     -50.211  25.335  24.410  1.00  0.00     0.062 H 
ATOM     50  C   UNL     1     -48.896  26.716  26.547  1.00  0.00     0.050 C 
ATOM     51  H   UNL     1     -50.902  27.628  26.234  1.00  0.00     0.032 H 
ATOM     52  H   UNL     1     -50.947  25.889  26.630  1.00  0.00     0.032 H 
ATOM     53  H   UNL     1     -48.471  27.712  26.700  1.00  0.00     0.057 H 
ATOM     54  H   UNL     1     -48.625  26.065  27.382  1.00  0.00     0.057 H 
ENDBRANCH  43  46
ENDBRANCH  41  43
ENDBRANCH  38  41
ENDBRANCH   6  38
TORSDOF 7
ENDMDL
MODEL 5
REMARK VINA RESULT:      -9.3      2.885      3.617
REMARK SMILES O=C(NCc1ccc2cc(CNC[C@@H]3CCO3)[nH]c2c1)c1cc(=O)n2ccccc2n1
REMARK SMILES IDX 5 1 6 2 7 3 8 4 9 5 10 6 18 7 19 8 20 9 4 15 3 18 1 19 2 20
REMARK SMILES IDX 21 22 22 23 31 24 23 25 30 27 24 28 25 29 29 30 26 31 28 32
REMARK SMILES IDX 27 34 11 38 12 41 13 43 14 46 15 47 17 48 16 50
REMARK H PARENT 6 10 7 11 9 12 18 13 20 14 4 16 4 17 3 21 22 26 29 33 26 35
REMARK H PARENT 28 36 27 37 11 39 11 40 12 42 13 44 13 45 14 49 15 51 15 52
REMARK H PARENT 16 53 16 54
REMARK Flexibility Score: inf
ROOT
ATOM      1  C   UNL     1     -46.371  35.643  27.793  1.00  0.00    -0.027 A 
ATOM      2  C   UNL     1     -47.765  35.654  27.648  1.00  0.00    -0.057 A 
ATOM      3  C   UNL     1     -48.413  34.753  26.795  1.00  0.00    -0.052 A 
ATOM      4  C   UNL     1     -47.649  33.822  26.068  1.00  0.00    -0.000 A 
ATOM      5  C   UNL     1     -47.965  32.792  25.141  1.00  0.00    -0.032 A 
ATOM      6  C   UNL     1     -46.785  32.195  24.740  1.00  0.00     0.030 A 
ATOM      7  N   UNL     1     -45.766  32.834  25.405  1.00  0.00    -0.357 N 
ATOM      8  C   UNL     1     -46.264  33.828  26.217  1.00  0.00     0.046 A 
ATOM      9  C   UNL     1     -45.597  34.723  27.064  1.00  0.00    -0.033 A 
ATOM     10  H   UNL     1     -48.362  36.376  28.204  1.00  0.00     0.063 H 
ATOM     11  H   UNL     1     -49.494  34.775  26.696  1.00  0.00     0.063 H 
ATOM     12  H   UNL     1     -48.952  32.516  24.794  1.00  0.00     0.065 H 
ATOM     13  H   UNL     1     -44.784  32.610  25.320  1.00  0.00     0.166 HD
ATOM     14  H   UNL     1     -44.515  34.704  27.154  1.00  0.00     0.065 H 
ENDROOT
BRANCH   1  15
ATOM     15  C   UNL     1     -45.704  36.641  28.707  1.00  0.00     0.043 C 
ATOM     16  H   UNL     1     -46.363  36.882  29.549  1.00  0.00     0.054 H 
ATOM     17  H   UNL     1     -44.784  36.221  29.125  1.00  0.00     0.054 H 
BRANCH  15  18
ATOM     18  N   UNL     1     -45.340  37.832  27.984  1.00  0.00    -0.347 N 
ATOM     19  O   UNL     1     -44.224  38.875  29.706  1.00  0.00    -0.268 OA
ATOM     20  C   UNL     1     -44.685  38.887  28.571  1.00  0.00     0.270 C 
ATOM     21  H   UNL     1     -45.766  38.017  27.082  1.00  0.00     0.164 HD
BRANCH  20  22
ATOM     22  C   UNL     1     -44.600  40.089  27.659  1.00  0.00     0.136 A 
ATOM     23  C   UNL     1     -45.746  40.497  27.110  1.00  0.00     0.035 A 
ATOM     24  N   UNL     1     -43.374  40.675  27.447  1.00  0.00    -0.225 NA
ATOM     25  C   UNL     1     -45.712  41.657  26.211  1.00  0.00     0.258 A 
ATOM     26  H   UNL     1     -46.705  40.024  27.283  1.00  0.00     0.071 H 
ATOM     27  C   UNL     1     -43.347  41.698  26.648  1.00  0.00     0.140 A 
ATOM     28  O   UNL     1     -46.764  42.044  25.704  1.00  0.00    -0.269 OA
ATOM     29  N   UNL     1     -44.464  42.228  26.009  1.00  0.00    -0.268 N 
ATOM     30  C   UNL     1     -42.040  42.366  26.385  1.00  0.00    -0.019 A 
ATOM     31  C   UNL     1     -44.351  43.330  25.169  1.00  0.00     0.014 A 
ATOM     32  C   UNL     1     -41.982  43.423  25.567  1.00  0.00    -0.057 A 
ATOM     33  H   UNL     1     -41.165  41.960  26.877  1.00  0.00     0.066 H 
ATOM     34  C   UNL     1     -43.174  43.925  24.937  1.00  0.00    -0.045 A 
ATOM     35  H   UNL     1     -45.265  43.691  24.703  1.00  0.00     0.082 H 
ATOM     36  H   UNL     1     -41.040  43.923  25.363  1.00  0.00     0.062 H 
ATOM     37  H   UNL     1     -43.099  44.784  24.279  1.00  0.00     0.064 H 
ENDBRANCH  20  22
ENDBRANCH  15  18
ENDBRANCH   1  15
BRANCH   6  38
ATOM     38  C   UNL     1     -46.537  31.069  23.797  1.00  0.00     0.036 C 
ATOM     39  H   UNL     1     -45.460  30.964  23.614  1.00  0.00     0.049 H 
ATOM     40  H   UNL     1     -46.892  30.138  24.252  1.00  0.00     0.049 H 
BRANCH  38  41
ATOM     41  N   UNL     1     -47.244  31.326  22.549  1.00  0.00    -0.309 NA
ATOM     42  H   UNL     1     -46.576  31.635  21.848  1.00  0.00     0.123 HD
BRANCH  41  43
ATOM     43  C   UNL     1     -47.965  30.135  22.085  1.00  0.00     0.022 C 
ATOM     44  H   UNL     1     -47.895  29.339  22.836  1.00  0.00     0.046 H 
ATOM     45  H   UNL     1     -47.492  29.761  21.168  1.00  0.00     0.046 H 
BRANCH  43  46
ATOM     46  C   UNL     1     -49.455  30.393  21.803  1.00  0.00     0.072 C 
ATOM     47  C   UNL     1     -50.219  31.454  22.610  1.00  0.00    -0.002 C 
ATOM     48  O   UNL     1     -50.310  29.337  22.323  1.00  0.00    -0.377 OA
ATOM     49  H   UNL     1     -49.614  30.498  20.721  1.00  0.00     0.062 H 
ATOM     50  C   UNL     1     -50.910  30.260  23.264  1.00  0.00     0.050 C 
ATOM     51  H   UNL     1     -49.632  32.083  23.281  1.00  0.00     0.032 H 
ATOM     52  H   UNL     1     -50.883  32.082  22.009  1.00  0.00     0.032 H 
ATOM     53  H   UNL     1     -50.601  30.038  24.290  1.00  0.00     0.057 H 
ATOM     54  H   UNL     1     -52.000  30.258  23.196  1.00  0.00     0.057 H 
ENDBRANCH  43  46
ENDBRANCH  41  43
ENDBRANCH  38  41
ENDBRANCH   6  38
TORSDOF 7
ENDMDL
MODEL 6
REMARK VINA RESULT:      -9.3      2.174      3.598
REMARK SMILES O=C(NCc1ccc2cc(CNC[C@@H]3CCO3)[nH]c2c1)c1cc(=O)n2ccccc2n1
REMARK SMILES IDX 5 1 6 2 7 3 8 4 9 5 10 6 18 7 19 8 20 9 4 15 3 18 1 19 2 20
REMARK SMILES IDX 21 22 22 23 31 24 23 25 30 27 24 28 25 29 29 30 26 31 28 32
REMARK SMILES IDX 27 34 11 38 12 41 13 43 14 46 15 47 17 48 16 50
REMARK H PARENT 6 10 7 11 9 12 18 13 20 14 4 16 4 17 3 21 22 26 29 33 26 35
REMARK H PARENT 28 36 27 37 11 39 11 40 12 42 13 44 13 45 14 49 15 51 15 52
REMARK H PARENT 16 53 16 54
REMARK Flexibility Score: inf
ROOT
ATOM      1  C   UNL     1     -46.295  36.363  28.714  1.00  0.00    -0.027 A 
ATOM      2  C   UNL     1     -47.668  36.462  28.455  1.00  0.00    -0.057 A 
ATOM      3  C   UNL     1     -48.278  35.680  27.467  1.00  0.00    -0.052 A 
ATOM      4  C   UNL     1     -47.495  34.781  26.719  1.00  0.00    -0.000 A 
ATOM      5  C   UNL     1     -47.773  33.860  25.673  1.00  0.00    -0.032 A 
ATOM      6  C   UNL     1     -46.590  33.241  25.317  1.00  0.00     0.030 A 
ATOM      7  N   UNL     1     -45.606  33.761  26.124  1.00  0.00    -0.357 N 
ATOM      8  C   UNL     1     -46.129  34.700  26.983  1.00  0.00     0.046 A 
ATOM      9  C   UNL     1     -45.501  35.476  27.967  1.00  0.00    -0.033 A 
ATOM     10  H   UNL     1     -48.279  37.160  29.026  1.00  0.00     0.063 H 
ATOM     11  H   UNL     1     -49.344  35.768  27.281  1.00  0.00     0.063 H 
ATOM     12  H   UNL     1     -48.737  33.669  25.220  1.00  0.00     0.065 H 
ATOM     13  H   UNL     1     -44.632  33.494  26.100  1.00  0.00     0.166 HD
ATOM     14  H   UNL     1     -44.433  35.392  28.145  1.00  0.00     0.065 H 
ENDROOT
BRANCH   1  15
ATOM     15  C   UNL     1     -45.667  37.236  29.773  1.00  0.00     0.043 C 
ATOM     16  H   UNL     1     -46.433  37.596  30.469  1.00  0.00     0.054 H 
ATOM     17  H   UNL     1     -44.940  36.663  30.359  1.00  0.00     0.054 H 
BRANCH  15  18
ATOM     18  N   UNL     1     -44.961  38.339  29.174  1.00  0.00    -0.347 N 
ATOM     19  O   UNL     1     -46.813  39.504  28.461  1.00  0.00    -0.268 OA
ATOM     20  C   UNL     1     -45.598  39.354  28.503  1.00  0.00     0.270 C 
ATOM     21  H   UNL     1     -43.958  38.272  29.034  1.00  0.00     0.164 HD
BRANCH  20  22
ATOM     22  C   UNL     1     -44.628  40.274  27.800  1.00  0.00     0.136 A 
ATOM     23  C   UNL     1     -43.459  40.480  28.411  1.00  0.00     0.035 A 
ATOM     24  N   UNL     1     -44.999  40.839  26.601  1.00  0.00    -0.225 NA
ATOM     25  C   UNL     1     -42.487  41.372  27.768  1.00  0.00     0.258 A 
ATOM     26  H   UNL     1     -43.180  40.031  29.356  1.00  0.00     0.071 H 
ATOM     27  C   UNL     1     -44.137  41.630  26.038  1.00  0.00     0.140 A 
ATOM     28  O   UNL     1     -41.404  41.564  28.321  1.00  0.00    -0.269 OA
ATOM     29  N   UNL     1     -42.885  41.932  26.563  1.00  0.00    -0.268 N 
ATOM     30  C   UNL     1     -44.495  42.267  24.739  1.00  0.00    -0.019 A 
ATOM     31  C   UNL     1     -42.018  42.789  25.895  1.00  0.00     0.014 A 
ATOM     32  C   UNL     1     -43.627  43.087  24.134  1.00  0.00    -0.057 A 
ATOM     33  H   UNL     1     -45.468  42.039  24.323  1.00  0.00     0.066 H 
ATOM     34  C   UNL     1     -42.346  43.359  24.728  1.00  0.00    -0.045 A 
ATOM     35  H   UNL     1     -41.055  42.981  26.363  1.00  0.00     0.082 H 
ATOM     36  H   UNL     1     -43.869  43.560  23.188  1.00  0.00     0.062 H 
ATOM     37  H   UNL     1     -41.661  44.027  24.217  1.00  0.00     0.064 H 
ENDBRANCH  20  22
ENDBRANCH  15  18
ENDBRANCH   1  15
BRANCH   6  38
ATOM     38  C   UNL     1     -46.311  32.196  24.293  1.00  0.00     0.036 C 
ATOM     39  H   UNL     1     -45.729  32.627  23.467  1.00  0.00     0.049 H 
ATOM     40  H   UNL     1     -45.708  31.402  24.749  1.00  0.00     0.049 H 
BRANCH  38  41
ATOM     41  N   UNL     1     -47.572  31.658  23.802  1.00  0.00    -0.309 NA
ATOM     42  H   UNL     1     -48.082  32.395  23.322  1.00  0.00     0.123 HD
BRANCH  41  43
ATOM     43  C   UNL     1     -47.357  30.514  22.909  1.00  0.00     0.022 C 
ATOM     44  H   UNL     1     -46.329  30.525  22.527  1.00  0.00     0.046 H 
ATOM     45  H   UNL     1     -48.027  30.599  22.044  1.00  0.00     0.046 H 
BRANCH  43  46
ATOM     46  C   UNL     1     -47.597  29.154  23.587  1.00  0.00     0.072 C 
ATOM     47  C   UNL     1     -48.670  28.199  23.041  1.00  0.00    -0.002 C 
ATOM     48  O   UNL     1     -48.311  29.281  24.849  1.00  0.00    -0.377 OA
ATOM     49  H   UNL     1     -46.637  28.650  23.755  1.00  0.00     0.062 H 
ATOM     50  C   UNL     1     -49.447  28.571  24.301  1.00  0.00     0.050 C 
ATOM     51  H   UNL     1     -49.144  28.476  22.098  1.00  0.00     0.032 H 
ATOM     52  H   UNL     1     -48.358  27.152  22.999  1.00  0.00     0.032 H 
ATOM     53  H   UNL     1     -50.299  29.241  24.151  1.00  0.00     0.057 H 
ATOM     54  H   UNL     1     -49.742  27.730  24.932  1.00  0.00     0.057 H 
ENDBRANCH  43  46
ENDBRANCH  41  43
ENDBRANCH  38  41
ENDBRANCH   6  38
TORSDOF 7
ENDMDL
MODEL 7
REMARK VINA RESULT:      -9.2      2.113     11.491
REMARK SMILES O=C(NCc1ccc2cc(CNC[C@@H]3CCO3)[nH]c2c1)c1cc(=O)n2ccccc2n1
REMARK SMILES IDX 5 1 6 2 7 3 8 4 9 5 10 6 18 7 19 8 20 9 4 15 3 18 1 19 2 20
REMARK SMILES IDX 21 22 22 23 31 24 23 25 30 27 24 28 25 29 29 30 26 31 28 32
REMARK SMILES IDX 27 34 11 38 12 41 13 43 14 46 15 47 17 48 16 50
REMARK H PARENT 6 10 7 11 9 12 18 13 20 14 4 16 4 17 3 21 22 26 29 33 26 35
REMARK H PARENT 28 36 27 37 11 39 11 40 12 42 13 44 13 45 14 49 15 51 15 52
REMARK H PARENT 16 53 16 54
REMARK Flexibility Score: inf
ROOT
ATOM      1  C   UNL     1     -46.709  33.678  25.595  1.00  0.00    -0.027 A 
ATOM      2  C   UNL     1     -48.049  33.974  25.880  1.00  0.00    -0.057 A 
ATOM      3  C   UNL     1     -48.395  34.827  26.935  1.00  0.00    -0.052 A 
ATOM      4  C   UNL     1     -47.378  35.393  27.725  1.00  0.00    -0.000 A 
ATOM      5  C   UNL     1     -47.366  36.275  28.839  1.00  0.00    -0.032 A 
ATOM      6  C   UNL     1     -46.051  36.485  29.210  1.00  0.00     0.030 A 
ATOM      7  N   UNL     1     -45.269  35.757  28.345  1.00  0.00    -0.357 N 
ATOM      8  C   UNL     1     -46.051  35.083  27.434  1.00  0.00     0.046 A 
ATOM      9  C   UNL     1     -45.685  34.230  26.384  1.00  0.00    -0.033 A 
ATOM     10  H   UNL     1     -48.842  33.535  25.276  1.00  0.00     0.063 H 
ATOM     11  H   UNL     1     -49.439  35.047  27.140  1.00  0.00     0.063 H 
ATOM     12  H   UNL     1     -48.228  36.710  29.328  1.00  0.00     0.065 H 
ATOM     13  H   UNL     1     -44.260  35.719  28.364  1.00  0.00     0.166 HD
ATOM     14  H   UNL     1     -44.642  34.005  26.186  1.00  0.00     0.065 H 
ENDROOT
BRANCH   1  15
ATOM     15  C   UNL     1     -46.374  32.739  24.462  1.00  0.00     0.043 C 
ATOM     16  H   UNL     1     -46.683  33.175  23.506  1.00  0.00     0.054 H 
ATOM     17  H   UNL     1     -45.292  32.575  24.410  1.00  0.00     0.054 H 
BRANCH  15  18
ATOM     18  N   UNL     1     -46.992  31.454  24.663  1.00  0.00    -0.347 N 
ATOM     19  O   UNL     1     -47.503  31.042  22.456  1.00  0.00    -0.268 OA
ATOM     20  C   UNL     1     -47.571  30.740  23.641  1.00  0.00     0.270 C 
ATOM     21  H   UNL     1     -47.221  31.152  25.604  1.00  0.00     0.164 HD
BRANCH  20  22
ATOM     22  C   UNL     1     -48.322  29.529  24.143  1.00  0.00     0.136 A 
ATOM     23  C   UNL     1     -49.648  29.551  23.993  1.00  0.00     0.035 A 
ATOM     24  N   UNL     1     -47.613  28.500  24.719  1.00  0.00    -0.225 NA
ATOM     25  C   UNL     1     -50.421  28.399  24.472  1.00  0.00     0.258 A 
ATOM     26  H   UNL     1     -50.195  30.369  23.541  1.00  0.00     0.071 H 
ATOM     27  C   UNL     1     -48.301  27.484  25.144  1.00  0.00     0.140 A 
ATOM     28  O   UNL     1     -51.644  28.408  24.333  1.00  0.00    -0.269 OA
ATOM     29  N   UNL     1     -49.685  27.376  25.051  1.00  0.00    -0.268 N 
ATOM     30  C   UNL     1     -47.576  26.345  25.777  1.00  0.00    -0.019 A 
ATOM     31  C   UNL     1     -50.348  26.252  25.530  1.00  0.00     0.014 A 
ATOM     32  C   UNL     1     -48.259  25.285  26.224  1.00  0.00    -0.057 A 
ATOM     33  H   UNL     1     -46.499  26.421  25.854  1.00  0.00     0.066 H 
ATOM     34  C   UNL     1     -49.691  25.232  26.098  1.00  0.00    -0.045 A 
ATOM     35  H   UNL     1     -51.430  26.234  25.425  1.00  0.00     0.082 H 
ATOM     36  H   UNL     1     -47.750  24.446  26.688  1.00  0.00     0.062 H 
ATOM     37  H   UNL     1     -50.219  24.360  26.469  1.00  0.00     0.064 H 
ENDBRANCH  20  22
ENDBRANCH  15  18
ENDBRANCH   1  15
BRANCH   6  38
ATOM     38  C   UNL     1     -45.470  37.320  30.298  1.00  0.00     0.036 C 
ATOM     39  H   UNL     1     -46.215  37.477  31.088  1.00  0.00     0.049 H 
ATOM     40  H   UNL     1     -44.620  36.788  30.740  1.00  0.00     0.049 H 
BRANCH  38  41
ATOM     41  N   UNL     1     -45.037  38.595  29.742  1.00  0.00    -0.309 NA
ATOM     42  H   UNL     1     -44.051  38.730  29.953  1.00  0.00     0.123 HD
BRANCH  41  43
ATOM     43  C   UNL     1     -45.269  38.658  28.295  1.00  0.00     0.022 C 
ATOM     44  H   UNL     1     -46.257  38.247  28.056  1.00  0.00     0.046 H 
ATOM     45  H   UNL     1     -44.524  38.036  27.782  1.00  0.00     0.046 H 
BRANCH  43  46
ATOM     46  C   UNL     1     -45.196  40.085  27.725  1.00  0.00     0.072 C 
ATOM     47  C   UNL     1     -44.774  40.311  26.266  1.00  0.00    -0.002 C 
ATOM     48  O   UNL     1     -44.035  40.817  28.206  1.00  0.00    -0.377 OA
ATOM     49  H   UNL     1     -46.112  40.633  27.984  1.00  0.00     0.062 H 
ATOM     50  C   UNL     1     -43.485  40.862  26.868  1.00  0.00     0.050 C 
ATOM     51  H   UNL     1     -44.659  39.425  25.641  1.00  0.00     0.032 H 
ATOM     52  H   UNL     1     -45.376  41.056  25.735  1.00  0.00     0.032 H 
ATOM     53  H   UNL     1     -42.606  40.216  26.778  1.00  0.00     0.057 H 
ATOM     54  H   UNL     1     -43.229  41.882  26.569  1.00  0.00     0.057 H 
ENDBRANCH  43  46
ENDBRANCH  41  43
ENDBRANCH  38  41
ENDBRANCH   6  38
TORSDOF 7
ENDMDL
