MODEL 1
REMARK VINA RESULT:     -10.0      0.000      0.000
REMARK SMILES COC1CN(Cc2cc3ccc(CNC(=O)c4cc(=O)n5ccccc5n4)cc3[nH]2)C1
REMARK SMILES IDX 7 1 8 2 9 3 10 4 11 5 12 6 28 7 29 8 30 9 6 15 5 18 3 19
REMARK SMILES IDX 4 20 31 21 2 27 1 28 13 32 14 35 15 36 16 38 17 39 18 40
REMARK SMILES IDX 27 41 19 42 26 44 20 45 21 46 25 47 22 48 24 49 23 51
REMARK H PARENT 8 10 10 11 11 12 28 13 30 14 6 16 6 17 3 22 4 23 4 24 31 25
REMARK H PARENT 31 26 1 29 1 30 1 31 13 33 13 34 14 37 18 43 25 50 22 52 24 53
REMARK H PARENT 23 54
REMARK Flexibility Score: inf
ROOT
ATOM      1  C   UNL     1     -47.014  32.431  25.285  1.00  0.00     0.030 A 
ATOM      2  C   UNL     1     -48.114  33.249  25.460  1.00  0.00    -0.032 A 
ATOM      3  C   UNL     1     -47.817  34.180  26.492  1.00  0.00    -0.000 A 
ATOM      4  C   UNL     1     -48.520  35.246  27.080  1.00  0.00    -0.052 A 
ATOM      5  C   UNL     1     -47.916  35.982  28.107  1.00  0.00    -0.057 A 
ATOM      6  C   UNL     1     -46.628  35.668  28.565  1.00  0.00    -0.027 A 
ATOM      7  C   UNL     1     -45.914  34.609  27.978  1.00  0.00    -0.033 A 
ATOM      8  C   UNL     1     -46.535  33.885  26.952  1.00  0.00     0.046 A 
ATOM      9  N   UNL     1     -46.082  32.810  26.223  1.00  0.00    -0.357 N 
ATOM     10  H   UNL     1     -49.036  33.195  24.894  1.00  0.00     0.065 H 
ATOM     11  H   UNL     1     -49.518  35.503  26.741  1.00  0.00     0.063 H 
ATOM     12  H   UNL     1     -48.461  36.813  28.552  1.00  0.00     0.063 H 
ATOM     13  H   UNL     1     -44.913  34.355  28.313  1.00  0.00     0.065 H 
ATOM     14  H   UNL     1     -45.180  32.373  26.354  1.00  0.00     0.166 HD
ENDROOT
BRANCH   1  15
ATOM     15  C   UNL     1     -46.776  31.283  24.355  1.00  0.00     0.039 C 
ATOM     16  H   UNL     1     -45.695  31.122  24.264  1.00  0.00     0.050 H 
ATOM     17  H   UNL     1     -47.162  30.368  24.827  1.00  0.00     0.050 H 
BRANCH  15  18
ATOM     18  N   UNL     1     -47.328  31.363  22.996  1.00  0.00    -0.292 NA
ATOM     19  C   UNL     1     -47.962  29.521  22.106  1.00  0.00     0.082 C 
ATOM     20  C   UNL     1     -48.637  30.718  22.818  1.00  0.00     0.026 C 
ATOM     21  C   UNL     1     -46.708  30.424  22.046  1.00  0.00     0.026 C 
ATOM     22  H   UNL     1     -47.819  28.649  22.755  1.00  0.00     0.063 H 
ATOM     23  H   UNL     1     -49.209  30.478  23.718  1.00  0.00     0.046 H 
ATOM     24  H   UNL     1     -49.303  31.294  22.161  1.00  0.00     0.046 H 
ATOM     25  H   UNL     1     -46.541  30.872  21.058  1.00  0.00     0.046 H 
ATOM     26  H   UNL     1     -45.767  29.954  22.349  1.00  0.00     0.046 H 
BRANCH  19  27
ATOM     27  O   UNL     1     -48.517  29.115  20.830  1.00  0.00    -0.379 OA
BRANCH  27  28
ATOM     28  C   UNL     1     -49.649  28.261  20.901  1.00  0.00     0.036 C 
ATOM     29  H   UNL     1     -50.465  28.667  20.297  1.00  0.00     0.053 H 
ATOM     30  H   UNL     1     -49.974  28.199  21.942  1.00  0.00     0.053 H 
ATOM     31  H   UNL     1     -49.388  27.257  20.551  1.00  0.00     0.053 H 
ENDBRANCH  27  28
ENDBRANCH  19  27
ENDBRANCH  15  18
ENDBRANCH   1  15
BRANCH   6  32
ATOM     32  C   UNL     1     -46.001  36.495  29.661  1.00  0.00     0.043 C 
ATOM     33  H   UNL     1     -45.344  35.873  30.279  1.00  0.00     0.054 H 
ATOM     34  H   UNL     1     -46.776  36.902  30.318  1.00  0.00     0.054 H 
BRANCH  32  35
ATOM     35  N   UNL     1     -45.193  37.551  29.107  1.00  0.00    -0.347 N 
ATOM     36  C   UNL     1     -44.473  38.421  29.888  1.00  0.00     0.270 C 
ATOM     37  H   UNL     1     -45.322  37.823  28.138  1.00  0.00     0.164 HD
ATOM     38  O   UNL     1     -44.328  38.311  31.099  1.00  0.00    -0.268 OA
BRANCH  36  39
ATOM     39  C   UNL     1     -43.879  39.554  29.085  1.00  0.00     0.136 A 
ATOM     40  C   UNL     1     -42.792  40.137  29.596  1.00  0.00     0.035 A 
ATOM     41  N   UNL     1     -44.482  39.917  27.900  1.00  0.00    -0.225 NA
ATOM     42  C   UNL     1     -42.183  41.246  28.852  1.00  0.00     0.258 A 
ATOM     43  H   UNL     1     -42.329  39.844  30.529  1.00  0.00     0.071 H 
ATOM     44  C   UNL     1     -43.940  40.899  27.248  1.00  0.00     0.140 A 
ATOM     45  O   UNL     1     -41.180  41.788  29.314  1.00  0.00    -0.269 OA
ATOM     46  N   UNL     1     -42.810  41.594  27.664  1.00  0.00    -0.268 N 
ATOM     47  C   UNL     1     -44.559  41.327  25.960  1.00  0.00    -0.019 A 
ATOM     48  C   UNL     1     -42.292  42.637  26.905  1.00  0.00     0.014 A 
ATOM     49  C   UNL     1     -44.024  42.338  25.265  1.00  0.00    -0.057 A 
ATOM     50  H   UNL     1     -45.439  40.793  25.627  1.00  0.00     0.066 H 
ATOM     51  C   UNL     1     -42.853  43.017  25.750  1.00  0.00    -0.045 A 
ATOM     52  H   UNL     1     -41.406  43.136  27.291  1.00  0.00     0.082 H 
ATOM     53  H   UNL     1     -44.459  42.664  24.326  1.00  0.00     0.062 H 
ATOM     54  H   UNL     1     -42.439  43.833  25.166  1.00  0.00     0.064 H 
ENDBRANCH  36  39
ENDBRANCH  32  35
ENDBRANCH   6  32
TORSDOF 7
ENDMDL
MODEL 2
REMARK VINA RESULT:      -9.8      1.971      2.844
REMARK SMILES COC1CN(Cc2cc3ccc(CNC(=O)c4cc(=O)n5ccccc5n4)cc3[nH]2)C1
REMARK SMILES IDX 7 1 8 2 9 3 10 4 11 5 12 6 28 7 29 8 30 9 6 15 5 18 3 19
REMARK SMILES IDX 4 20 31 21 2 27 1 28 13 32 14 35 15 36 16 38 17 39 18 40
REMARK SMILES IDX 27 41 19 42 26 44 20 45 21 46 25 47 22 48 24 49 23 51
REMARK H PARENT 8 10 10 11 11 12 28 13 30 14 6 16 6 17 3 22 4 23 4 24 31 25
REMARK H PARENT 31 26 1 29 1 30 1 31 13 33 13 34 14 37 18 43 25 50 22 52 24 53
REMARK H PARENT 23 54
REMARK Flexibility Score: inf
ROOT
ATOM      1  C   UNL     1     -48.175  31.842  25.578  1.00  0.00     0.030 A 
ATOM      2  C   UNL     1     -46.911  32.400  25.540  1.00  0.00    -0.032 A 
ATOM      3  C   UNL     1     -46.991  33.719  26.063  1.00  0.00    -0.000 A 
ATOM      4  C   UNL     1     -46.051  34.739  26.292  1.00  0.00    -0.052 A 
ATOM      5  C   UNL     1     -46.479  35.957  26.836  1.00  0.00    -0.057 A 
ATOM      6  C   UNL     1     -47.829  36.178  27.147  1.00  0.00    -0.027 A 
ATOM      7  C   UNL     1     -48.775  35.162  26.930  1.00  0.00    -0.033 A 
ATOM      8  C   UNL     1     -48.327  33.952  26.385  1.00  0.00     0.046 A 
ATOM      9  N   UNL     1     -49.024  32.811  26.061  1.00  0.00    -0.357 N 
ATOM     10  H   UNL     1     -46.015  31.907  25.185  1.00  0.00     0.065 H 
ATOM     11  H   UNL     1     -45.003  34.588  26.055  1.00  0.00     0.063 H 
ATOM     12  H   UNL     1     -45.746  36.740  27.020  1.00  0.00     0.063 H 
ATOM     13  H   UNL     1     -49.823  35.310  27.171  1.00  0.00     0.065 H 
ATOM     14  H   UNL     1     -50.022  32.702  26.177  1.00  0.00     0.166 HD
ENDROOT
BRANCH   1  15
ATOM     15  C   UNL     1     -48.673  30.498  25.147  1.00  0.00     0.039 C 
ATOM     16  H   UNL     1     -48.714  29.841  26.025  1.00  0.00     0.050 H 
ATOM     17  H   UNL     1     -49.717  30.603  24.821  1.00  0.00     0.050 H 
BRANCH  15  18
ATOM     18  N   UNL     1     -47.935  29.788  24.095  1.00  0.00    -0.292 NA
ATOM     19  C   UNL     1     -48.892  29.638  22.184  1.00  0.00     0.082 C 
ATOM     20  C   UNL     1     -47.797  30.522  22.829  1.00  0.00     0.026 C 
ATOM     21  C   UNL     1     -48.718  28.734  23.427  1.00  0.00     0.026 C 
ATOM     22  H   UNL     1     -49.878  30.117  22.150  1.00  0.00     0.063 H 
ATOM     23  H   UNL     1     -47.997  31.596  22.843  1.00  0.00     0.046 H 
ATOM     24  H   UNL     1     -46.807  30.388  22.372  1.00  0.00     0.046 H 
ATOM     25  H   UNL     1     -48.128  27.830  23.229  1.00  0.00     0.046 H 
ATOM     26  H   UNL     1     -49.644  28.413  23.916  1.00  0.00     0.046 H 
BRANCH  19  27
ATOM     27  O   UNL     1     -48.580  29.030  20.905  1.00  0.00    -0.379 OA
BRANCH  27  28
ATOM     28  C   UNL     1     -49.569  29.187  19.898  1.00  0.00     0.036 C 
ATOM     29  H   UNL     1     -50.504  28.716  20.212  1.00  0.00     0.053 H 
ATOM     30  H   UNL     1     -49.216  28.703  18.985  1.00  0.00     0.053 H 
ATOM     31  H   UNL     1     -49.736  30.249  19.695  1.00  0.00     0.053 H 
ENDBRANCH  27  28
ENDBRANCH  19  27
ENDBRANCH  15  18
ENDBRANCH   1  15
BRANCH   6  32
ATOM     32  C   UNL     1     -48.252  37.495  27.751  1.00  0.00     0.043 C 
ATOM     33  H   UNL     1     -48.651  37.342  28.759  1.00  0.00     0.054 H 
ATOM     34  H   UNL     1     -49.049  37.948  27.151  1.00  0.00     0.054 H 
BRANCH  32  35
ATOM     35  N   UNL     1     -47.129  38.390  27.866  1.00  0.00    -0.347 N 
ATOM     36  C   UNL     1     -46.933  39.448  27.012  1.00  0.00     0.270 C 
ATOM     37  H   UNL     1     -46.332  38.123  28.435  1.00  0.00     0.164 HD
ATOM     38  O   UNL     1     -47.741  39.821  26.171  1.00  0.00    -0.268 OA
BRANCH  36  39
ATOM     39  C   UNL     1     -45.588  40.105  27.213  1.00  0.00     0.136 A 
ATOM     40  C   UNL     1     -45.185  40.938  26.252  1.00  0.00     0.035 A 
ATOM     41  N   UNL     1     -44.867  39.808  28.350  1.00  0.00    -0.225 NA
ATOM     42  C   UNL     1     -43.882  41.596  26.402  1.00  0.00     0.258 A 
ATOM     43  H   UNL     1     -45.760  41.160  25.362  1.00  0.00     0.071 H 
ATOM     44  C   UNL     1     -43.715  40.392  28.477  1.00  0.00     0.140 A 
ATOM     45  O   UNL     1     -43.503  42.368  25.522  1.00  0.00    -0.269 OA
ATOM     46  N   UNL     1     -43.174  41.279  27.553  1.00  0.00    -0.268 N 
ATOM     47  C   UNL     1     -42.898  40.101  29.690  1.00  0.00    -0.019 A 
ATOM     48  C   UNL     1     -41.929  41.863  27.765  1.00  0.00     0.014 A 
ATOM     49  C   UNL     1     -41.706  40.687  29.850  1.00  0.00    -0.057 A 
ATOM     50  H   UNL     1     -43.310  39.411  30.416  1.00  0.00     0.066 H 
ATOM     51  C   UNL     1     -41.202  41.597  28.857  1.00  0.00    -0.045 A 
ATOM     52  H   UNL     1     -41.569  42.547  27.001  1.00  0.00     0.082 H 
ATOM     53  H   UNL     1     -41.097  40.489  30.726  1.00  0.00     0.062 H 
ATOM     54  H   UNL     1     -40.231  42.057  29.011  1.00  0.00     0.064 H 
ENDBRANCH  36  39
ENDBRANCH  32  35
ENDBRANCH   6  32
TORSDOF 7
ENDMDL
MODEL 3
REMARK VINA RESULT:      -9.6      2.391      3.241
REMARK SMILES COC1CN(Cc2cc3ccc(CNC(=O)c4cc(=O)n5ccccc5n4)cc3[nH]2)C1
REMARK SMILES IDX 7 1 8 2 9 3 10 4 11 5 12 6 28 7 29 8 30 9 6 15 5 18 3 19
REMARK SMILES IDX 4 20 31 21 2 27 1 28 13 32 14 35 15 36 16 38 17 39 18 40
REMARK SMILES IDX 27 41 19 42 26 44 20 45 21 46 25 47 22 48 24 49 23 51
REMARK H PARENT 8 10 10 11 11 12 28 13 30 14 6 16 6 17 3 22 4 23 4 24 31 25
REMARK H PARENT 31 26 1 29 1 30 1 31 13 33 13 34 14 37 18 43 25 50 22 52 24 53
REMARK H PARENT 23 54
REMARK Flexibility Score: inf
ROOT
ATOM      1  C   UNL     1     -48.117  31.658  24.258  1.00  0.00     0.030 A 
ATOM      2  C   UNL     1     -46.803  32.017  24.490  1.00  0.00    -0.032 A 
ATOM      3  C   UNL     1     -46.790  33.063  25.452  1.00  0.00    -0.000 A 
ATOM      4  C   UNL     1     -45.771  33.799  26.082  1.00  0.00    -0.052 A 
ATOM      5  C   UNL     1     -46.116  34.790  27.010  1.00  0.00    -0.057 A 
ATOM      6  C   UNL     1     -47.457  35.067  27.313  1.00  0.00    -0.027 A 
ATOM      7  C   UNL     1     -48.482  34.331  26.693  1.00  0.00    -0.033 A 
ATOM      8  C   UNL     1     -48.117  33.344  25.769  1.00  0.00     0.046 A 
ATOM      9  N   UNL     1     -48.899  32.498  25.017  1.00  0.00    -0.357 N 
ATOM     10  H   UNL     1     -45.935  31.566  24.025  1.00  0.00     0.065 H 
ATOM     11  H   UNL     1     -44.727  33.602  25.860  1.00  0.00     0.063 H 
ATOM     12  H   UNL     1     -45.323  35.351  27.503  1.00  0.00     0.063 H 
ATOM     13  H   UNL     1     -49.526  34.525  26.919  1.00  0.00     0.065 H 
ATOM     14  H   UNL     1     -49.910  32.490  25.036  1.00  0.00     0.166 HD
ENDROOT
BRANCH   1  15
ATOM     15  C   UNL     1     -48.714  30.635  23.344  1.00  0.00     0.039 C 
ATOM     16  H   UNL     1     -49.495  31.115  22.742  1.00  0.00     0.050 H 
ATOM     17  H   UNL     1     -47.947  30.325  22.622  1.00  0.00     0.050 H 
BRANCH  15  18
ATOM     18  N   UNL     1     -49.296  29.425  23.941  1.00  0.00    -0.292 NA
ATOM     19  C   UNL     1     -47.919  27.970  24.698  1.00  0.00     0.082 C 
ATOM     20  C   UNL     1     -48.802  29.096  25.285  1.00  0.00     0.026 C 
ATOM     21  C   UNL     1     -48.740  28.171  23.403  1.00  0.00     0.026 C 
ATOM     22  H   UNL     1     -46.867  28.256  24.574  1.00  0.00     0.063 H 
ATOM     23  H   UNL     1     -48.274  29.879  25.836  1.00  0.00     0.046 H 
ATOM     24  H   UNL     1     -49.597  28.724  25.946  1.00  0.00     0.046 H 
ATOM     25  H   UNL     1     -49.507  27.401  23.250  1.00  0.00     0.046 H 
ATOM     26  H   UNL     1     -48.161  28.237  22.476  1.00  0.00     0.046 H 
BRANCH  19  27
ATOM     27  O   UNL     1     -48.017  26.663  25.318  1.00  0.00    -0.379 OA
BRANCH  27  28
ATOM     28  C   UNL     1     -46.798  25.940  25.412  1.00  0.00     0.036 C 
ATOM     29  H   UNL     1     -46.398  25.745  24.414  1.00  0.00     0.053 H 
ATOM     30  H   UNL     1     -46.997  24.986  25.907  1.00  0.00     0.053 H 
ATOM     31  H   UNL     1     -46.070  26.501  26.005  1.00  0.00     0.053 H 
ENDBRANCH  27  28
ENDBRANCH  19  27
ENDBRANCH  15  18
ENDBRANCH   1  15
BRANCH   6  32
ATOM     32  C   UNL     1     -47.791  36.129  28.332  1.00  0.00     0.043 C 
ATOM     33  H   UNL     1     -47.791  35.702  29.341  1.00  0.00     0.054 H 
ATOM     34  H   UNL     1     -48.794  36.527  28.148  1.00  0.00     0.054 H 
BRANCH  32  35
ATOM     35  N   UNL     1     -46.811  37.184  28.313  1.00  0.00    -0.347 N 
ATOM     36  C   UNL     1     -47.066  38.424  27.779  1.00  0.00     0.270 C 
ATOM     37  H   UNL     1     -45.835  36.963  28.481  1.00  0.00     0.164 HD
ATOM     38  O   UNL     1     -48.166  38.804  27.400  1.00  0.00    -0.268 OA
BRANCH  36  39
ATOM     39  C   UNL     1     -45.823  39.278  27.695  1.00  0.00     0.136 A 
ATOM     40  C   UNL     1     -45.673  40.000  26.583  1.00  0.00     0.035 A 
ATOM     41  N   UNL     1     -44.932  39.259  28.746  1.00  0.00    -0.225 NA
ATOM     42  C   UNL     1     -44.478  40.841  26.455  1.00  0.00     0.258 A 
ATOM     43  H   UNL     1     -46.380  40.004  25.762  1.00  0.00     0.071 H 
ATOM     44  C   UNL     1     -43.876  40.004  28.627  1.00  0.00     0.140 A 
ATOM     45  O   UNL     1     -44.333  41.513  25.434  1.00  0.00    -0.269 OA
ATOM     46  N   UNL     1     -43.595  40.804  27.525  1.00  0.00    -0.268 N 
ATOM     47  C   UNL     1     -42.883  40.016  29.739  1.00  0.00    -0.019 A 
ATOM     48  C   UNL     1     -42.438  41.574  27.476  1.00  0.00     0.014 A 
ATOM     49  C   UNL     1     -41.784  40.774  29.646  1.00  0.00    -0.057 A 
ATOM     50  H   UNL     1     -43.092  39.397  30.602  1.00  0.00     0.066 H 
ATOM     51  C   UNL     1     -41.551  41.579  28.478  1.00  0.00    -0.045 A 
ATOM     52  H   UNL     1     -42.283  42.175  26.583  1.00  0.00     0.082 H 
ATOM     53  H   UNL     1     -41.049  40.796  30.445  1.00  0.00     0.062 H 
ATOM     54  H   UNL     1     -40.651  42.184  28.428  1.00  0.00     0.064 H 
ENDBRANCH  36  39
ENDBRANCH  32  35
ENDBRANCH   6  32
TORSDOF 7
ENDMDL
MODEL 4
REMARK VINA RESULT:      -9.5      1.846      2.553
REMARK SMILES COC1CN(Cc2cc3ccc(CNC(=O)c4cc(=O)n5ccccc5n4)cc3[nH]2)C1
REMARK SMILES IDX 7 1 8 2 9 3 10 4 11 5 12 6 28 7 29 8 30 9 6 15 5 18 3 19
REMARK SMILES IDX 4 20 31 21 2 27 1 28 13 32 14 35 15 36 16 38 17 39 18 40
REMARK SMILES IDX 27 41 19 42 26 44 20 45 21 46 25 47 22 48 24 49 23 51
REMARK H PARENT 8 10 10 11 11 12 28 13 30 14 6 16 6 17 3 22 4 23 4 24 31 25
REMARK H PARENT 31 26 1 29 1 30 1 31 13 33 13 34 14 37 18 43 25 50 22 52 24 53
REMARK H PARENT 23 54
REMARK Flexibility Score: inf
ROOT
ATOM      1  C   UNL     1     -47.099  33.669  26.370  1.00  0.00     0.030 A 
ATOM      2  C   UNL     1     -48.079  34.633  26.519  1.00  0.00    -0.032 A 
ATOM      3  C   UNL     1     -47.491  35.774  27.129  1.00  0.00    -0.000 A 
ATOM      4  C   UNL     1     -47.973  37.042  27.501  1.00  0.00    -0.052 A 
ATOM      5  C   UNL     1     -47.100  37.958  28.100  1.00  0.00    -0.057 A 
ATOM      6  C   UNL     1     -45.758  37.631  28.343  1.00  0.00    -0.027 A 
ATOM      7  C   UNL     1     -45.265  36.369  27.968  1.00  0.00    -0.033 A 
ATOM      8  C   UNL     1     -46.154  35.467  27.370  1.00  0.00     0.046 A 
ATOM      9  N   UNL     1     -45.949  34.182  26.923  1.00  0.00    -0.357 N 
ATOM     10  H   UNL     1     -49.112  34.535  26.210  1.00  0.00     0.065 H 
ATOM     11  H   UNL     1     -49.009  37.313  27.324  1.00  0.00     0.063 H 
ATOM     12  H   UNL     1     -47.476  38.942  28.377  1.00  0.00     0.063 H 
ATOM     13  H   UNL     1     -44.227  36.099  28.140  1.00  0.00     0.065 H 
ATOM     14  H   UNL     1     -45.066  33.692  26.984  1.00  0.00     0.166 HD
ENDROOT
BRANCH   1  15
ATOM     15  C   UNL     1     -47.155  32.284  25.806  1.00  0.00     0.039 C 
ATOM     16  H   UNL     1     -46.180  31.805  25.953  1.00  0.00     0.050 H 
ATOM     17  H   UNL     1     -47.858  31.692  26.408  1.00  0.00     0.050 H 
BRANCH  15  18
ATOM     18  N   UNL     1     -47.519  32.124  24.392  1.00  0.00    -0.292 NA
ATOM     19  C   UNL     1     -47.986  30.138  23.739  1.00  0.00     0.082 C 
ATOM     20  C   UNL     1     -48.776  31.403  24.151  1.00  0.00     0.026 C 
ATOM     21  C   UNL     1     -46.755  31.074  23.697  1.00  0.00     0.026 C 
ATOM     22  H   UNL     1     -47.913  29.387  24.535  1.00  0.00     0.063 H 
ATOM     23  H   UNL     1     -49.461  31.284  24.996  1.00  0.00     0.046 H 
ATOM     24  H   UNL     1     -49.359  31.837  23.328  1.00  0.00     0.046 H 
ATOM     25  H   UNL     1     -46.465  31.366  22.680  1.00  0.00     0.046 H 
ATOM     26  H   UNL     1     -45.854  30.699  24.193  1.00  0.00     0.046 H 
BRANCH  19  27
ATOM     27  O   UNL     1     -48.352  29.511  22.485  1.00  0.00    -0.379 OA
BRANCH  27  28
ATOM     28  C   UNL     1     -48.848  28.184  22.588  1.00  0.00     0.036 C 
ATOM     29  H   UNL     1     -49.488  28.089  23.470  1.00  0.00     0.053 H 
ATOM     30  H   UNL     1     -48.000  27.503  22.691  1.00  0.00     0.053 H 
ATOM     31  H   UNL     1     -49.410  27.919  21.688  1.00  0.00     0.053 H 
ENDBRANCH  27  28
ENDBRANCH  19  27
ENDBRANCH  15  18
ENDBRANCH   1  15
BRANCH   6  32
ATOM     32  C   UNL     1     -44.841  38.651  28.972  1.00  0.00     0.043 C 
ATOM     33  H   UNL     1     -43.903  38.178  29.285  1.00  0.00     0.054 H 
ATOM     34  H   UNL     1     -45.305  39.075  29.869  1.00  0.00     0.054 H 
BRANCH  32  35
ATOM     35  N   UNL     1     -44.505  39.688  28.031  1.00  0.00    -0.347 N 
ATOM     36  C   UNL     1     -43.551  40.642  28.287  1.00  0.00     0.270 C 
ATOM     37  H   UNL     1     -45.128  39.878  27.253  1.00  0.00     0.164 HD
ATOM     38  O   UNL     1     -42.802  40.633  29.256  1.00  0.00    -0.268 OA
BRANCH  36  39
ATOM     39  C   UNL     1     -43.530  41.728  27.238  1.00  0.00     0.136 A 
ATOM     40  C   UNL     1     -42.331  42.066  26.758  1.00  0.00     0.035 A 
ATOM     41  N   UNL     1     -44.722  42.298  26.848  1.00  0.00    -0.225 NA
ATOM     42  C   UNL     1     -42.262  43.121  25.741  1.00  0.00     0.258 A 
ATOM     43  H   UNL     1     -41.401  41.612  27.075  1.00  0.00     0.071 H 
ATOM     44  C   UNL     1     -44.654  43.231  25.949  1.00  0.00     0.140 A 
ATOM     45  O   UNL     1     -41.161  43.438  25.291  1.00  0.00    -0.269 OA
ATOM     46  N   UNL     1     -43.475  43.681  25.366  1.00  0.00    -0.268 N 
ATOM     47  C   UNL     1     -45.919  43.878  25.496  1.00  0.00    -0.019 A 
ATOM     48  C   UNL     1     -43.489  44.688  24.407  1.00  0.00     0.014 A 
ATOM     49  C   UNL     1     -45.882  44.844  24.570  1.00  0.00    -0.057 A 
ATOM     50  H   UNL     1     -46.843  43.535  25.943  1.00  0.00     0.066 H 
ATOM     51  C   UNL     1     -44.629  45.265  24.006  1.00  0.00    -0.045 A 
ATOM     52  H   UNL     1     -42.529  44.990  23.995  1.00  0.00     0.082 H 
ATOM     53  H   UNL     1     -46.792  45.326  24.227  1.00  0.00     0.062 H 
ATOM     54  H   UNL     1     -44.627  46.050  23.257  1.00  0.00     0.064 H 
ENDBRANCH  36  39
ENDBRANCH  32  35
ENDBRANCH   6  32
TORSDOF 7
ENDMDL
MODEL 5
REMARK VINA RESULT:      -9.3      1.642      2.636
REMARK SMILES COC1CN(Cc2cc3ccc(CNC(=O)c4cc(=O)n5ccccc5n4)cc3[nH]2)C1
REMARK SMILES IDX 7 1 8 2 9 3 10 4 11 5 12 6 28 7 29 8 30 9 6 15 5 18 3 19
REMARK SMILES IDX 4 20 31 21 2 27 1 28 13 32 14 35 15 36 16 38 17 39 18 40
REMARK SMILES IDX 27 41 19 42 26 44 20 45 21 46 25 47 22 48 24 49 23 51
REMARK H PARENT 8 10 10 11 11 12 28 13 30 14 6 16 6 17 3 22 4 23 4 24 31 25
REMARK H PARENT 31 26 1 29 1 30 1 31 13 33 13 34 14 37 18 43 25 50 22 52 24 53
REMARK H PARENT 23 54
REMARK Flexibility Score: inf
ROOT
ATOM      1  C   UNL     1     -48.228  30.560  24.258  1.00  0.00     0.030 A 
ATOM      2  C   UNL     1     -47.011  31.202  24.129  1.00  0.00    -0.032 A 
ATOM      3  C   UNL     1     -47.059  32.404  24.885  1.00  0.00    -0.000 A 
ATOM      4  C   UNL     1     -46.137  33.433  25.146  1.00  0.00    -0.052 A 
ATOM      5  C   UNL     1     -46.521  34.507  25.958  1.00  0.00    -0.057 A 
ATOM      6  C   UNL     1     -47.810  34.579  26.506  1.00  0.00    -0.027 A 
ATOM      7  C   UNL     1     -48.737  33.552  26.256  1.00  0.00    -0.033 A 
ATOM      8  C   UNL     1     -48.333  32.486  25.443  1.00  0.00     0.046 A 
ATOM      9  N   UNL     1     -49.026  31.371  25.030  1.00  0.00    -0.357 N 
ATOM     10  H   UNL     1     -46.164  30.839  23.559  1.00  0.00     0.065 H 
ATOM     11  H   UNL     1     -45.135  33.397  24.730  1.00  0.00     0.063 H 
ATOM     12  H   UNL     1     -45.800  35.297  26.165  1.00  0.00     0.063 H 
ATOM     13  H   UNL     1     -49.737  33.585  26.678  1.00  0.00     0.065 H 
ATOM     14  H   UNL     1     -49.987  31.175  25.275  1.00  0.00     0.166 HD
ENDROOT
BRANCH   1  15
ATOM     15  C   UNL     1     -48.733  29.278  23.675  1.00  0.00     0.039 C 
ATOM     16  H   UNL     1     -48.109  28.454  24.043  1.00  0.00     0.050 H 
ATOM     17  H   UNL     1     -49.734  29.081  24.083  1.00  0.00     0.050 H 
BRANCH  15  18
ATOM     18  N   UNL     1     -48.805  29.159  22.213  1.00  0.00    -0.292 NA
ATOM     19  C   UNL     1     -50.718  28.673  21.381  1.00  0.00     0.082 C 
ATOM     20  C   UNL     1     -49.868  29.951  21.577  1.00  0.00     0.026 C 
ATOM     21  C   UNL     1     -49.425  27.907  21.747  1.00  0.00     0.026 C 
ATOM     22  H   UNL     1     -51.505  28.549  22.135  1.00  0.00     0.063 H 
ATOM     23  H   UNL     1     -50.330  30.746  22.169  1.00  0.00     0.046 H 
ATOM     24  H   UNL     1     -49.545  30.406  20.631  1.00  0.00     0.046 H 
ATOM     25  H   UNL     1     -48.911  27.480  20.876  1.00  0.00     0.046 H 
ATOM     26  H   UNL     1     -49.539  27.102  22.480  1.00  0.00     0.046 H 
BRANCH  19  27
ATOM     27  O   UNL     1     -51.248  28.430  20.054  1.00  0.00    -0.379 OA
BRANCH  27  28
ATOM     28  C   UNL     1     -52.375  27.569  19.995  1.00  0.00     0.036 C 
ATOM     29  H   UNL     1     -53.016  27.727  20.867  1.00  0.00     0.053 H 
ATOM     30  H   UNL     1     -52.024  26.534  19.997  1.00  0.00     0.053 H 
ATOM     31  H   UNL     1     -52.942  27.749  19.077  1.00  0.00     0.053 H 
ENDBRANCH  27  28
ENDBRANCH  19  27
ENDBRANCH  15  18
ENDBRANCH   1  15
BRANCH   6  32
ATOM     32  C   UNL     1     -48.184  35.742  27.392  1.00  0.00     0.043 C 
ATOM     33  H   UNL     1     -48.382  35.396  28.412  1.00  0.00     0.054 H 
ATOM     34  H   UNL     1     -49.100  36.218  27.027  1.00  0.00     0.054 H 
BRANCH  32  35
ATOM     35  N   UNL     1     -47.107  36.697  27.466  1.00  0.00    -0.347 N 
ATOM     36  C   UNL     1     -46.428  36.960  28.630  1.00  0.00     0.270 C 
ATOM     37  H   UNL     1     -46.980  37.366  26.714  1.00  0.00     0.164 HD
ATOM     38  O   UNL     1     -46.563  36.330  29.671  1.00  0.00    -0.268 OA
BRANCH  36  39
ATOM     39  C   UNL     1     -45.491  38.137  28.493  1.00  0.00     0.136 A 
ATOM     40  C   UNL     1     -44.636  38.335  29.499  1.00  0.00     0.035 A 
ATOM     41  N   UNL     1     -45.574  38.924  27.365  1.00  0.00    -0.225 NA
ATOM     42  C   UNL     1     -43.710  39.469  29.411  1.00  0.00     0.258 A 
ATOM     43  H   UNL     1     -44.583  37.710  30.381  1.00  0.00     0.071 H 
ATOM     44  C   UNL     1     -44.754  39.927  27.294  1.00  0.00     0.140 A 
ATOM     45  O   UNL     1     -42.916  39.658  30.332  1.00  0.00    -0.269 OA
ATOM     46  N   UNL     1     -43.815  40.248  28.268  1.00  0.00    -0.268 N 
ATOM     47  C   UNL     1     -44.807  40.808  26.092  1.00  0.00    -0.019 A 
ATOM     48  C   UNL     1     -42.970  41.343  28.114  1.00  0.00     0.014 A 
ATOM     49  C   UNL     1     -43.974  41.851  25.990  1.00  0.00    -0.057 A 
ATOM     50  H   UNL     1     -45.535  40.567  25.328  1.00  0.00     0.066 H 
ATOM     51  C   UNL     1     -43.025  42.130  27.033  1.00  0.00    -0.045 A 
ATOM     52  H   UNL     1     -42.261  41.535  28.916  1.00  0.00     0.082 H 
ATOM     53  H   UNL     1     -43.997  42.503  25.123  1.00  0.00     0.062 H 
ATOM     54  H   UNL     1     -42.361  42.982  26.924  1.00  0.00     0.064 H 
ENDBRANCH  36  39
ENDBRANCH  32  35
ENDBRANCH   6  32
TORSDOF 7
ENDMDL
MODEL 6
REMARK VINA RESULT:      -9.2      1.990      2.419
REMARK SMILES COC1CN(Cc2cc3ccc(CNC(=O)c4cc(=O)n5ccccc5n4)cc3[nH]2)C1
REMARK SMILES IDX 7 1 8 2 9 3 10 4 11 5 12 6 28 7 29 8 30 9 6 15 5 18 3 19
REMARK SMILES IDX 4 20 31 21 2 27 1 28 13 32 14 35 15 36 16 38 17 39 18 40
REMARK SMILES IDX 27 41 19 42 26 44 20 45 21 46 25 47 22 48 24 49 23 51
REMARK H PARENT 8 10 10 11 11 12 28 13 30 14 6 16 6 17 3 22 4 23 4 24 31 25
REMARK H PARENT 31 26 1 29 1 30 1 31 13 33 13 34 14 37 18 43 25 50 22 52 24 53
REMARK H PARENT 23 54
REMARK Flexibility Score: inf
ROOT
ATOM      1  C   UNL     1     -46.687  32.731  24.977  1.00  0.00     0.030 A 
ATOM      2  C   UNL     1     -47.860  33.346  25.373  1.00  0.00    -0.032 A 
ATOM      3  C   UNL     1     -47.543  34.307  26.371  1.00  0.00    -0.000 A 
ATOM      4  C   UNL     1     -48.299  35.232  27.113  1.00  0.00    -0.052 A 
ATOM      5  C   UNL     1     -47.653  36.053  28.046  1.00  0.00    -0.057 A 
ATOM      6  C   UNL     1     -46.270  35.962  28.258  1.00  0.00    -0.027 A 
ATOM      7  C   UNL     1     -45.505  35.046  27.516  1.00  0.00    -0.033 A 
ATOM      8  C   UNL     1     -46.169  34.234  26.588  1.00  0.00     0.046 A 
ATOM      9  N   UNL     1     -45.679  33.259  25.750  1.00  0.00    -0.357 N 
ATOM     10  H   UNL     1     -48.846  33.138  24.976  1.00  0.00     0.065 H 
ATOM     11  H   UNL     1     -49.371  35.315  26.965  1.00  0.00     0.063 H 
ATOM     12  H   UNL     1     -48.242  36.774  28.611  1.00  0.00     0.063 H 
ATOM     13  H   UNL     1     -44.431  34.966  27.660  1.00  0.00     0.065 H 
ATOM     14  H   UNL     1     -44.708  32.982  25.705  1.00  0.00     0.166 HD
ENDROOT
BRANCH   1  15
ATOM     15  C   UNL     1     -46.431  31.647  23.977  1.00  0.00     0.039 C 
ATOM     16  H   UNL     1     -45.941  32.088  23.100  1.00  0.00     0.050 H 
ATOM     17  H   UNL     1     -45.691  30.954  24.399  1.00  0.00     0.050 H 
BRANCH  15  18
ATOM     18  N   UNL     1     -47.574  30.860  23.497  1.00  0.00    -0.292 NA
ATOM     19  C   UNL     1     -47.663  28.814  24.126  1.00  0.00     0.082 C 
ATOM     20  C   UNL     1     -48.323  30.150  24.544  1.00  0.00     0.026 C 
ATOM     21  C   UNL     1     -47.194  29.583  22.868  1.00  0.00     0.026 C 
ATOM     22  H   UNL     1     -46.826  28.517  24.770  1.00  0.00     0.063 H 
ATOM     23  H   UNL     1     -48.161  30.460  25.580  1.00  0.00     0.046 H 
ATOM     24  H   UNL     1     -49.408  30.170  24.371  1.00  0.00     0.046 H 
ATOM     25  H   UNL     1     -47.790  29.359  21.974  1.00  0.00     0.046 H 
ATOM     26  H   UNL     1     -46.142  29.453  22.595  1.00  0.00     0.046 H 
BRANCH  19  27
ATOM     27  O   UNL     1     -48.545  27.687  23.892  1.00  0.00    -0.379 OA
BRANCH  27  28
ATOM     28  C   UNL     1     -48.571  26.710  24.922  1.00  0.00     0.036 C 
ATOM     29  H   UNL     1     -47.602  26.208  24.990  1.00  0.00     0.053 H 
ATOM     30  H   UNL     1     -49.337  25.969  24.680  1.00  0.00     0.053 H 
ATOM     31  H   UNL     1     -48.819  27.176  25.880  1.00  0.00     0.053 H 
ENDBRANCH  27  28
ENDBRANCH  19  27
ENDBRANCH  15  18
ENDBRANCH   1  15
BRANCH   6  32
ATOM     32  C   UNL     1     -45.604  36.877  29.257  1.00  0.00     0.043 C 
ATOM     33  H   UNL     1     -44.713  36.398  29.678  1.00  0.00     0.054 H 
ATOM     34  H   UNL     1     -46.284  37.086  30.090  1.00  0.00     0.054 H 
BRANCH  32  35
ATOM     35  N   UNL     1     -45.177  38.100  28.627  1.00  0.00    -0.347 N 
ATOM     36  C   UNL     1     -46.017  39.169  28.436  1.00  0.00     0.270 C 
ATOM     37  H   UNL     1     -44.310  38.114  28.100  1.00  0.00     0.164 HD
ATOM     38  O   UNL     1     -47.150  39.253  28.894  1.00  0.00    -0.268 OA
BRANCH  36  39
ATOM     39  C   UNL     1     -45.392  40.243  27.578  1.00  0.00     0.136 A 
ATOM     40  C   UNL     1     -46.223  40.936  26.796  1.00  0.00     0.035 A 
ATOM     41  N   UNL     1     -44.030  40.437  27.645  1.00  0.00    -0.225 NA
ATOM     42  C   UNL     1     -45.660  41.986  25.940  1.00  0.00     0.258 A 
ATOM     43  H   UNL     1     -47.292  40.771  26.751  1.00  0.00     0.071 H 
ATOM     44  C   UNL     1     -43.537  41.367  26.884  1.00  0.00     0.140 A 
ATOM     45  O   UNL     1     -46.418  42.632  25.219  1.00  0.00    -0.269 OA
ATOM     46  N   UNL     1     -44.286  42.161  26.024  1.00  0.00    -0.268 N 
ATOM     47  C   UNL     1     -42.067  41.613  26.922  1.00  0.00    -0.019 A 
ATOM     48  C   UNL     1     -43.679  43.138  25.241  1.00  0.00     0.014 A 
ATOM     49  C   UNL     1     -41.528  42.564  26.149  1.00  0.00    -0.057 A 
ATOM     50  H   UNL     1     -41.474  41.000  27.589  1.00  0.00     0.066 H 
ATOM     51  C   UNL     1     -42.358  43.353  25.280  1.00  0.00    -0.045 A 
ATOM     52  H   UNL     1     -44.326  43.722  24.591  1.00  0.00     0.082 H 
ATOM     53  H   UNL     1     -40.461  42.759  26.163  1.00  0.00     0.062 H 
ATOM     54  H   UNL     1     -41.895  44.118  24.663  1.00  0.00     0.064 H 
ENDBRANCH  36  39
ENDBRANCH  32  35
ENDBRANCH   6  32
TORSDOF 7
ENDMDL
MODEL 7
REMARK VINA RESULT:      -9.1      1.894      2.424
REMARK SMILES COC1CN(Cc2cc3ccc(CNC(=O)c4cc(=O)n5ccccc5n4)cc3[nH]2)C1
REMARK SMILES IDX 7 1 8 2 9 3 10 4 11 5 12 6 28 7 29 8 30 9 6 15 5 18 3 19
REMARK SMILES IDX 4 20 31 21 2 27 1 28 13 32 14 35 15 36 16 38 17 39 18 40
REMARK SMILES IDX 27 41 19 42 26 44 20 45 21 46 25 47 22 48 24 49 23 51
REMARK H PARENT 8 10 10 11 11 12 28 13 30 14 6 16 6 17 3 22 4 23 4 24 31 25
REMARK H PARENT 31 26 1 29 1 30 1 31 13 33 13 34 14 37 18 43 25 50 22 52 24 53
REMARK H PARENT 23 54
REMARK Flexibility Score: inf
ROOT
ATOM      1  C   UNL     1     -47.940  33.141  26.010  1.00  0.00     0.030 A 
ATOM      2  C   UNL     1     -46.608  33.261  26.357  1.00  0.00    -0.032 A 
ATOM      3  C   UNL     1     -46.440  34.484  27.063  1.00  0.00    -0.000 A 
ATOM      4  C   UNL     1     -45.343  35.121  27.669  1.00  0.00    -0.052 A 
ATOM      5  C   UNL     1     -45.531  36.357  28.299  1.00  0.00    -0.057 A 
ATOM      6  C   UNL     1     -46.790  36.974  28.327  1.00  0.00    -0.027 A 
ATOM      7  C   UNL     1     -47.895  36.341  27.730  1.00  0.00    -0.033 A 
ATOM      8  C   UNL     1     -47.687  35.105  27.106  1.00  0.00     0.046 A 
ATOM      9  N   UNL     1     -48.570  34.285  26.443  1.00  0.00    -0.357 N 
ATOM     10  H   UNL     1     -45.831  32.539  26.137  1.00  0.00     0.065 H 
ATOM     11  H   UNL     1     -44.360  34.660  27.656  1.00  0.00     0.063 H 
ATOM     12  H   UNL     1     -44.680  36.842  28.775  1.00  0.00     0.063 H 
ATOM     13  H   UNL     1     -48.879  36.799  27.748  1.00  0.00     0.065 H 
ATOM     14  H   UNL     1     -49.550  34.494  26.309  1.00  0.00     0.166 HD
ENDROOT
BRANCH   1  15
ATOM     15  C   UNL     1     -48.671  32.074  25.257  1.00  0.00     0.039 C 
ATOM     16  H   UNL     1     -49.574  31.803  25.818  1.00  0.00     0.050 H 
ATOM     17  H   UNL     1     -49.039  32.504  24.315  1.00  0.00     0.050 H 
BRANCH  15  18
ATOM     18  N   UNL     1     -47.955  30.831  24.941  1.00  0.00    -0.292 NA
ATOM     19  C   UNL     1     -48.951  29.452  23.641  1.00  0.00     0.082 C 
ATOM     20  C   UNL     1     -47.843  30.524  23.509  1.00  0.00     0.026 C 
ATOM     21  C   UNL     1     -48.751  29.613  25.166  1.00  0.00     0.026 C 
ATOM     22  H   UNL     1     -49.938  29.797  23.310  1.00  0.00     0.063 H 
ATOM     23  H   UNL     1     -48.043  31.333  22.801  1.00  0.00     0.046 H 
ATOM     24  H   UNL     1     -46.863  30.105  23.243  1.00  0.00     0.046 H 
ATOM     25  H   UNL     1     -48.165  28.802  25.616  1.00  0.00     0.046 H 
ATOM     26  H   UNL     1     -49.666  29.715  25.758  1.00  0.00     0.046 H 
BRANCH  19  27
ATOM     27  O   UNL     1     -48.666  28.139  23.096  1.00  0.00    -0.379 OA
BRANCH  27  28
ATOM     28  C   UNL     1     -49.664  27.605  22.238  1.00  0.00     0.036 C 
ATOM     29  H   UNL     1     -50.470  27.160  22.829  1.00  0.00     0.053 H 
ATOM     30  H   UNL     1     -49.211  26.829  21.617  1.00  0.00     0.053 H 
ATOM     31  H   UNL     1     -50.065  28.389  21.590  1.00  0.00     0.053 H 
ENDBRANCH  27  28
ENDBRANCH  19  27
ENDBRANCH  15  18
ENDBRANCH   1  15
BRANCH   6  32
ATOM     32  C   UNL     1     -46.960  38.298  29.032  1.00  0.00     0.043 C 
ATOM     33  H   UNL     1     -46.736  38.193  30.099  1.00  0.00     0.054 H 
ATOM     34  H   UNL     1     -47.996  38.640  28.949  1.00  0.00     0.054 H 
BRANCH  32  35
ATOM     35  N   UNL     1     -46.052  39.282  28.499  1.00  0.00    -0.347 N 
ATOM     36  C   UNL     1     -46.274  39.926  27.307  1.00  0.00     0.270 C 
ATOM     37  H   UNL     1     -45.113  39.352  28.876  1.00  0.00     0.164 HD
ATOM     38  O   UNL     1     -47.307  39.843  26.653  1.00  0.00    -0.268 OA
BRANCH  36  39
ATOM     39  C   UNL     1     -45.087  40.753  26.873  1.00  0.00     0.136 A 
ATOM     40  C   UNL     1     -44.036  40.759  27.696  1.00  0.00     0.035 A 
ATOM     41  N   UNL     1     -45.157  41.441  25.681  1.00  0.00    -0.225 NA
ATOM     42  C   UNL     1     -42.861  41.552  27.317  1.00  0.00     0.258 A 
ATOM     43  H   UNL     1     -43.995  40.215  28.631  1.00  0.00     0.071 H 
ATOM     44  C   UNL     1     -44.115  42.142  25.353  1.00  0.00     0.140 A 
ATOM     45  O   UNL     1     -41.886  41.562  28.068  1.00  0.00    -0.269 OA
ATOM     46  N   UNL     1     -42.956  42.238  26.115  1.00  0.00    -0.268 N 
ATOM     47  C   UNL     1     -44.144  42.906  24.072  1.00  0.00    -0.019 A 
ATOM     48  C   UNL     1     -41.882  43.013  25.690  1.00  0.00     0.014 A 
ATOM     49  C   UNL     1     -43.086  43.638  23.706  1.00  0.00    -0.057 A 
ATOM     50  H   UNL     1     -45.042  42.838  23.471  1.00  0.00     0.066 H 
ATOM     51  C   UNL     1     -41.916  43.696  24.540  1.00  0.00    -0.045 A 
ATOM     52  H   UNL     1     -41.008  43.042  26.337  1.00  0.00     0.082 H 
ATOM     53  H   UNL     1     -43.088  44.201  22.777  1.00  0.00     0.062 H 
ATOM     54  H   UNL     1     -41.072  44.298  24.219  1.00  0.00     0.064 H 
ENDBRANCH  36  39
ENDBRANCH  32  35
ENDBRANCH   6  32
TORSDOF 7
ENDMDL
