MODEL 1
REMARK VINA RESULT:      -9.9      0.000      0.000
REMARK SMILES CCNc1ccc2ccc(OC[C@H]3C[C@@H](n4ccc5c(N)ncnc54)[C@H](O)[C@@H]3O)cc2n1
REMARK SMILES IDX 11 1 10 2 4 3 5 4 32 5 6 6 31 8 7 9 30 11 8 12 9 14 3 17
REMARK SMILES IDX 2 19 1 22 12 26 13 29 14 30 28 31 15 33 26 36 29 40 16 42
REMARK SMILES IDX 17 43 25 44 18 45 19 47 24 48 20 50 23 51 22 52 21 54 27 57
REMARK H PARENT 5 7 6 10 30 13 8 15 9 16 3 18 2 20 2 21 1 23 1 24 1 25 12 27
REMARK H PARENT 12 28 13 32 14 34 14 35 28 37 15 38 26 39 29 41 17 46 18 49
REMARK H PARENT 23 53 21 55 21 56 27 58
REMARK Flexibility Score: inf
ROOT
ATOM      1  O   UNL     1     -46.059  34.857  26.493  1.00  0.00    -0.493 OA
ENDROOT
BRANCH   1   2
ATOM      2  C   UNL     1     -46.825  33.843  25.991  1.00  0.00     0.121 A 
ATOM      3  C   UNL     1     -47.094  30.698  22.430  1.00  0.00     0.126 A 
ATOM      4  C   UNL     1     -48.287  30.175  22.909  1.00  0.00    -0.019 A 
ATOM      5  N   UNL     1     -46.456  31.711  23.043  1.00  0.00    -0.231 NA
ATOM      6  C   UNL     1     -48.834  30.703  24.073  1.00  0.00    -0.049 A 
ATOM      7  H   UNL     1     -48.797  29.380  22.377  1.00  0.00     0.066 H 
ATOM      8  C   UNL     1     -46.980  32.225  24.170  1.00  0.00     0.076 A 
ATOM      9  C   UNL     1     -48.180  31.748  24.730  1.00  0.00     0.001 A 
ATOM     10  H   UNL     1     -49.769  30.299  24.453  1.00  0.00     0.063 H 
ATOM     11  C   UNL     1     -46.327  33.265  24.818  1.00  0.00     0.007 A 
ATOM     12  C   UNL     1     -48.688  32.317  25.910  1.00  0.00    -0.049 A 
ATOM     13  H   UNL     1     -45.398  33.638  24.394  1.00  0.00     0.069 H 
ATOM     14  C   UNL     1     -48.011  33.363  26.538  1.00  0.00    -0.019 A 
ATOM     15  H   UNL     1     -49.614  31.949  26.345  1.00  0.00     0.063 H 
ATOM     16  H   UNL     1     -48.434  33.775  27.449  1.00  0.00     0.066 H 
BRANCH   3  17
ATOM     17  N   UNL     1     -46.495  30.235  21.260  1.00  0.00    -0.370 N 
ATOM     18  H   UNL     1     -47.277  29.855  20.726  1.00  0.00     0.162 HD
BRANCH  17  19
ATOM     19  C   UNL     1     -45.762  31.236  20.490  1.00  0.00     0.013 C 
ATOM     20  H   UNL     1     -44.877  30.828  19.988  1.00  0.00     0.049 H 
ATOM     21  H   UNL     1     -45.401  32.009  21.179  1.00  0.00     0.049 H 
BRANCH  19  22
ATOM     22  C   UNL     1     -46.690  31.883  19.475  1.00  0.00    -0.048 C 
ATOM     23  H   UNL     1     -47.730  31.801  19.805  1.00  0.00     0.025 H 
ATOM     24  H   UNL     1     -46.458  32.945  19.344  1.00  0.00     0.025 H 
ATOM     25  H   UNL     1     -46.602  31.398  18.498  1.00  0.00     0.025 H 
ENDBRANCH  19  22
ENDBRANCH  17  19
ENDBRANCH   3  17
ENDBRANCH   1   2
BRANCH   1  26
ATOM     26  C   UNL     1     -45.956  34.967  27.910  1.00  0.00     0.094 C 
ATOM     27  H   UNL     1     -46.646  34.261  28.389  1.00  0.00     0.071 H 
ATOM     28  H   UNL     1     -44.930  34.748  28.230  1.00  0.00     0.071 H 
BRANCH  26  29
ATOM     29  C   UNL     1     -46.322  36.386  28.343  1.00  0.00     0.024 C 
ATOM     30  C   UNL     1     -45.119  37.325  28.472  1.00  0.00    -0.021 C 
ATOM     31  C   UNL     1     -47.203  37.132  27.341  1.00  0.00     0.088 C 
ATOM     32  H   UNL     1     -46.837  36.316  29.311  1.00  0.00     0.037 H 
ATOM     33  C   UNL     1     -45.722  38.744  28.425  1.00  0.00     0.064 C 
ATOM     34  H   UNL     1     -44.397  37.161  27.663  1.00  0.00     0.029 H 
ATOM     35  H   UNL     1     -44.583  37.155  29.413  1.00  0.00     0.029 H 
ATOM     36  C   UNL     1     -47.136  38.586  27.832  1.00  0.00     0.101 C 
ATOM     37  H   UNL     1     -46.824  37.060  26.316  1.00  0.00     0.063 H 
ATOM     38  H   UNL     1     -45.808  39.111  29.456  1.00  0.00     0.056 H 
ATOM     39  H   UNL     1     -47.384  39.299  27.039  1.00  0.00     0.065 H 
BRANCH  31  40
ATOM     40  O   UNL     1     -48.550  36.664  27.374  1.00  0.00    -0.390 OA
ATOM     41  H   UNL     1     -49.107  37.393  27.042  1.00  0.00     0.211 HD
ENDBRANCH  31  40
BRANCH  33  42
ATOM     42  N   UNL     1     -44.883  39.703  27.723  1.00  0.00    -0.327 N 
ATOM     43  C   UNL     1     -45.133  40.174  26.455  1.00  0.00     0.007 A 
ATOM     44  C   UNL     1     -43.739  40.289  28.210  1.00  0.00     0.145 A 
ATOM     45  C   UNL     1     -44.139  41.073  26.131  1.00  0.00    -0.031 A 
ATOM     46  H   UNL     1     -45.992  39.836  25.890  1.00  0.00     0.082 H 
ATOM     47  C   UNL     1     -43.250  41.151  27.238  1.00  0.00     0.061 A 
ATOM     48  N   UNL     1     -43.195  40.064  29.418  1.00  0.00    -0.218 NA
ATOM     49  H   UNL     1     -44.063  41.620  25.201  1.00  0.00     0.065 H 
ATOM     50  C   UNL     1     -42.078  41.854  27.549  1.00  0.00     0.136 A 
ATOM     51  C   UNL     1     -42.085  40.799  29.606  1.00  0.00     0.120 A 
ATOM     52  N   UNL     1     -41.501  41.660  28.751  1.00  0.00    -0.219 NA
ATOM     53  H   UNL     1     -41.594  40.682  30.567  1.00  0.00     0.106 H 
BRANCH  50  54
ATOM     54  N   UNL     1     -41.456  42.737  26.679  1.00  0.00    -0.383 N 
ATOM     55  H   UNL     1     -41.163  42.329  25.802  1.00  0.00     0.158 HD
ATOM     56  H   UNL     1     -40.765  43.291  27.171  1.00  0.00     0.158 HD
ENDBRANCH  50  54
ENDBRANCH  33  42
BRANCH  36  57
ATOM     57  O   UNL     1     -48.110  38.771  28.876  1.00  0.00    -0.388 OA
ATOM     58  H   UNL     1     -48.708  37.997  28.789  1.00  0.00     0.211 HD
ENDBRANCH  36  57
ENDBRANCH  26  29
ENDBRANCH   1  26
TORSDOF 10
ENDMDL
MODEL 2
REMARK VINA RESULT:      -9.7      1.657      2.278
REMARK SMILES CCNc1ccc2ccc(OC[C@H]3C[C@@H](n4ccc5c(N)ncnc54)[C@H](O)[C@@H]3O)cc2n1
REMARK SMILES IDX 11 1 10 2 4 3 5 4 32 5 6 6 31 8 7 9 30 11 8 12 9 14 3 17
REMARK SMILES IDX 2 19 1 22 12 26 13 29 14 30 28 31 15 33 26 36 29 40 16 42
REMARK SMILES IDX 17 43 25 44 18 45 19 47 24 48 20 50 23 51 22 52 21 54 27 57
REMARK H PARENT 5 7 6 10 30 13 8 15 9 16 3 18 2 20 2 21 1 23 1 24 1 25 12 27
REMARK H PARENT 12 28 13 32 14 34 14 35 28 37 15 38 26 39 29 41 17 46 18 49
REMARK H PARENT 23 53 21 55 21 56 27 58
REMARK Flexibility Score: inf
ROOT
ATOM      1  O   UNL     1     -47.772  35.199  27.704  1.00  0.00    -0.493 OA
ENDROOT
BRANCH   1   2
ATOM      2  C   UNL     1     -47.500  34.296  26.716  1.00  0.00     0.121 A 
ATOM      3  C   UNL     1     -49.451  30.830  24.102  1.00  0.00     0.126 A 
ATOM      4  C   UNL     1     -48.263  30.597  23.425  1.00  0.00    -0.019 A 
ATOM      5  N   UNL     1     -49.559  31.765  25.064  1.00  0.00    -0.231 NA
ATOM      6  C   UNL     1     -47.148  31.368  23.736  1.00  0.00    -0.049 A 
ATOM      7  H   UNL     1     -48.195  29.816  22.677  1.00  0.00     0.066 H 
ATOM      8  C   UNL     1     -48.484  32.515  25.368  1.00  0.00     0.076 A 
ATOM      9  C   UNL     1     -47.243  32.351  24.724  1.00  0.00     0.001 A 
ATOM     10  H   UNL     1     -46.214  31.190  23.210  1.00  0.00     0.063 H 
ATOM     11  C   UNL     1     -48.584  33.488  26.353  1.00  0.00     0.007 A 
ATOM     12  C   UNL     1     -46.150  33.158  25.076  1.00  0.00    -0.049 A 
ATOM     13  H   UNL     1     -49.540  33.624  26.854  1.00  0.00     0.069 H 
ATOM     14  C   UNL     1     -46.279  34.128  26.071  1.00  0.00    -0.019 A 
ATOM     15  H   UNL     1     -45.190  33.035  24.579  1.00  0.00     0.063 H 
ATOM     16  H   UNL     1     -45.412  34.734  26.315  1.00  0.00     0.066 H 
BRANCH   3  17
ATOM     17  N   UNL     1     -50.605  30.086  23.860  1.00  0.00    -0.370 N 
ATOM     18  H   UNL     1     -50.734  29.560  24.724  1.00  0.00     0.162 HD
BRANCH  17  19
ATOM     19  C   UNL     1     -51.795  30.863  23.527  1.00  0.00     0.013 C 
ATOM     20  H   UNL     1     -52.029  31.631  24.273  1.00  0.00     0.049 H 
ATOM     21  H   UNL     1     -52.656  30.185  23.497  1.00  0.00     0.049 H 
BRANCH  19  22
ATOM     22  C   UNL     1     -51.627  31.497  22.156  1.00  0.00    -0.048 C 
ATOM     23  H   UNL     1     -52.535  32.040  21.875  1.00  0.00     0.025 H 
ATOM     24  H   UNL     1     -50.790  32.202  22.142  1.00  0.00     0.025 H 
ATOM     25  H   UNL     1     -51.435  30.736  21.393  1.00  0.00     0.025 H 
ENDBRANCH  19  22
ENDBRANCH  17  19
ENDBRANCH   3  17
ENDBRANCH   1   2
BRANCH   1  26
ATOM     26  C   UNL     1     -46.720  35.525  28.608  1.00  0.00     0.094 C 
ATOM     27  H   UNL     1     -46.838  34.954  29.537  1.00  0.00     0.071 H 
ATOM     28  H   UNL     1     -45.749  35.290  28.154  1.00  0.00     0.071 H 
BRANCH  26  29
ATOM     29  C   UNL     1     -46.769  37.017  28.935  1.00  0.00     0.024 C 
ATOM     30  C   UNL     1     -45.399  37.703  28.914  1.00  0.00    -0.021 C 
ATOM     31  C   UNL     1     -47.558  37.848  27.923  1.00  0.00     0.088 C 
ATOM     32  H   UNL     1     -47.216  37.124  29.933  1.00  0.00     0.037 H 
ATOM     33  C   UNL     1     -45.715  39.206  28.778  1.00  0.00     0.064 C 
ATOM     34  H   UNL     1     -44.784  37.338  28.083  1.00  0.00     0.029 H 
ATOM     35  H   UNL     1     -44.840  37.499  29.835  1.00  0.00     0.029 H 
ATOM     36  C   UNL     1     -47.172  39.292  28.282  1.00  0.00     0.101 C 
ATOM     37  H   UNL     1     -47.275  37.626  26.889  1.00  0.00     0.063 H 
ATOM     38  H   UNL     1     -45.653  39.659  29.776  1.00  0.00     0.056 H 
ATOM     39  H   UNL     1     -47.333  39.979  27.445  1.00  0.00     0.065 H 
BRANCH  31  40
ATOM     40  O   UNL     1     -48.964  37.664  28.073  1.00  0.00    -0.390 OA
ATOM     41  H   UNL     1     -49.394  38.368  27.553  1.00  0.00     0.211 HD
ENDBRANCH  31  40
BRANCH  33  42
ATOM     42  N   UNL     1     -44.758  39.923  27.949  1.00  0.00    -0.327 N 
ATOM     43  C   UNL     1     -44.951  40.224  26.621  1.00  0.00     0.007 A 
ATOM     44  C   UNL     1     -43.541  40.414  28.356  1.00  0.00     0.145 A 
ATOM     45  C   UNL     1     -43.846  40.918  26.176  1.00  0.00    -0.031 A 
ATOM     46  H   UNL     1     -45.853  39.924  26.102  1.00  0.00     0.082 H 
ATOM     47  C   UNL     1     -42.945  41.042  27.270  1.00  0.00     0.061 A 
ATOM     48  N   UNL     1     -43.023  40.305  29.591  1.00  0.00    -0.218 NA
ATOM     49  H   UNL     1     -43.703  41.300  25.175  1.00  0.00     0.065 H 
ATOM     50  C   UNL     1     -41.686  41.618  27.486  1.00  0.00     0.136 A 
ATOM     51  C   UNL     1     -41.822  40.901  29.679  1.00  0.00     0.120 A 
ATOM     52  N   UNL     1     -41.131  41.533  28.711  1.00  0.00    -0.219 NA
ATOM     53  H   UNL     1     -41.344  40.867  30.653  1.00  0.00     0.106 H 
BRANCH  50  54
ATOM     54  N   UNL     1     -40.956  42.264  26.499  1.00  0.00    -0.383 N 
ATOM     55  H   UNL     1     -40.012  41.922  26.380  1.00  0.00     0.158 HD
ATOM     56  H   UNL     1     -41.063  43.268  26.579  1.00  0.00     0.158 HD
ENDBRANCH  50  54
ENDBRANCH  33  42
BRANCH  36  57
ATOM     57  O   UNL     1     -48.013  39.746  29.358  1.00  0.00    -0.388 OA
ATOM     58  H   UNL     1     -47.994  40.725  29.285  1.00  0.00     0.211 HD
ENDBRANCH  36  57
ENDBRANCH  26  29
ENDBRANCH   1  26
TORSDOF 10
ENDMDL
MODEL 3
REMARK VINA RESULT:      -9.1      2.199      3.228
REMARK SMILES CCNc1ccc2ccc(OC[C@H]3C[C@@H](n4ccc5c(N)ncnc54)[C@H](O)[C@@H]3O)cc2n1
REMARK SMILES IDX 11 1 10 2 4 3 5 4 32 5 6 6 31 8 7 9 30 11 8 12 9 14 3 17
REMARK SMILES IDX 2 19 1 22 12 26 13 29 14 30 28 31 15 33 26 36 29 40 16 42
REMARK SMILES IDX 17 43 25 44 18 45 19 47 24 48 20 50 23 51 22 52 21 54 27 57
REMARK H PARENT 5 7 6 10 30 13 8 15 9 16 3 18 2 20 2 21 1 23 1 24 1 25 12 27
REMARK H PARENT 12 28 13 32 14 34 14 35 28 37 15 38 26 39 29 41 17 46 18 49
REMARK H PARENT 23 53 21 55 21 56 27 58
REMARK Flexibility Score: inf
ROOT
ATOM      1  O   UNL     1     -46.495  33.726  25.615  1.00  0.00    -0.493 OA
ENDROOT
BRANCH   1   2
ATOM      2  C   UNL     1     -46.678  32.600  24.864  1.00  0.00     0.121 A 
ATOM      3  C   UNL     1     -49.050  28.477  24.725  1.00  0.00     0.126 A 
ATOM      4  C   UNL     1     -48.463  28.117  23.520  1.00  0.00    -0.019 A 
ATOM      5  N   UNL     1     -48.760  29.633  25.349  1.00  0.00    -0.231 NA
ATOM      6  C   UNL     1     -47.557  28.988  22.926  1.00  0.00    -0.049 A 
ATOM      7  H   UNL     1     -48.691  27.165  23.055  1.00  0.00     0.066 H 
ATOM      8  C   UNL     1     -47.885  30.480  24.778  1.00  0.00     0.076 A 
ATOM      9  C   UNL     1     -47.251  30.199  23.553  1.00  0.00     0.001 A 
ATOM     10  H   UNL     1     -47.093  28.712  21.983  1.00  0.00     0.063 H 
ATOM     11  C   UNL     1     -47.583  31.681  25.407  1.00  0.00     0.007 A 
ATOM     12  C   UNL     1     -46.345  31.115  22.996  1.00  0.00    -0.049 A 
ATOM     13  H   UNL     1     -48.069  31.908  26.352  1.00  0.00     0.069 H 
ATOM     14  C   UNL     1     -46.059  32.313  23.652  1.00  0.00    -0.019 A 
ATOM     15  H   UNL     1     -45.855  30.900  22.049  1.00  0.00     0.063 H 
ATOM     16  H   UNL     1     -45.354  32.997  23.189  1.00  0.00     0.066 H 
BRANCH   3  17
ATOM     17  N   UNL     1     -49.952  27.649  25.391  1.00  0.00    -0.370 N 
ATOM     18  H   UNL     1     -50.851  28.104  25.237  1.00  0.00     0.162 HD
BRANCH  17  19
ATOM     19  C   UNL     1     -49.976  26.259  24.946  1.00  0.00     0.013 C 
ATOM     20  H   UNL     1     -49.487  26.110  23.976  1.00  0.00     0.049 H 
ATOM     21  H   UNL     1     -51.021  25.952  24.819  1.00  0.00     0.049 H 
BRANCH  19  22
ATOM     22  C   UNL     1     -49.333  25.372  25.999  1.00  0.00    -0.048 C 
ATOM     23  H   UNL     1     -48.678  25.963  26.647  1.00  0.00     0.025 H 
ATOM     24  H   UNL     1     -50.087  24.889  26.628  1.00  0.00     0.025 H 
ATOM     25  H   UNL     1     -48.732  24.584  25.534  1.00  0.00     0.025 H 
ENDBRANCH  19  22
ENDBRANCH  17  19
ENDBRANCH   3  17
ENDBRANCH   1   2
BRANCH   1  26
ATOM     26  C   UNL     1     -46.290  33.560  27.016  1.00  0.00     0.094 C 
ATOM     27  H   UNL     1     -46.830  32.673  27.368  1.00  0.00     0.071 H 
ATOM     28  H   UNL     1     -45.220  33.444  27.227  1.00  0.00     0.071 H 
BRANCH  26  29
ATOM     29  C   UNL     1     -46.815  34.787  27.760  1.00  0.00     0.024 C 
ATOM     30  C   UNL     1     -45.739  35.833  28.070  1.00  0.00    -0.021 C 
ATOM     31  C   UNL     1     -47.836  35.603  26.968  1.00  0.00     0.088 C 
ATOM     32  H   UNL     1     -47.266  34.437  28.699  1.00  0.00     0.037 H 
ATOM     33  C   UNL     1     -46.524  37.130  28.352  1.00  0.00     0.064 C 
ATOM     34  H   UNL     1     -45.045  35.950  27.230  1.00  0.00     0.029 H 
ATOM     35  H   UNL     1     -45.139  35.537  28.939  1.00  0.00     0.029 H 
ATOM     36  C   UNL     1     -47.934  36.911  27.769  1.00  0.00     0.101 C 
ATOM     37  H   UNL     1     -47.503  35.809  25.946  1.00  0.00     0.063 H 
ATOM     38  H   UNL     1     -46.605  37.249  29.441  1.00  0.00     0.056 H 
ATOM     39  H   UNL     1     -48.313  37.737  27.160  1.00  0.00     0.065 H 
BRANCH  31  40
ATOM     40  O   UNL     1     -49.107  34.958  26.925  1.00  0.00    -0.390 OA
ATOM     41  H   UNL     1     -49.149  34.371  27.702  1.00  0.00     0.211 HD
ENDBRANCH  31  40
BRANCH  33  42
ATOM     42  N   UNL     1     -45.854  38.325  27.864  1.00  0.00    -0.327 N 
ATOM     43  C   UNL     1     -46.190  38.988  26.706  1.00  0.00     0.007 A 
ATOM     44  C   UNL     1     -44.811  38.978  28.476  1.00  0.00     0.145 A 
ATOM     45  C   UNL     1     -45.353  40.076  26.579  1.00  0.00    -0.031 A 
ATOM     46  H   UNL     1     -46.992  38.635  26.070  1.00  0.00     0.082 H 
ATOM     47  C   UNL     1     -44.474  40.077  27.697  1.00  0.00     0.061 A 
ATOM     48  N   UNL     1     -44.224  38.613  29.628  1.00  0.00    -0.218 NA
ATOM     49  H   UNL     1     -45.374  40.797  25.773  1.00  0.00     0.065 H 
ATOM     50  C   UNL     1     -43.423  40.881  28.160  1.00  0.00     0.136 A 
ATOM     51  C   UNL     1     -43.241  39.462  29.974  1.00  0.00     0.120 A 
ATOM     52  N   UNL     1     -42.809  40.552  29.312  1.00  0.00    -0.219 NA
ATOM     53  H   UNL     1     -42.727  39.240  30.905  1.00  0.00     0.106 H 
BRANCH  50  54
ATOM     54  N   UNL     1     -42.958  42.002  27.487  1.00  0.00    -0.383 N 
ATOM     55  H   UNL     1     -42.130  42.420  27.887  1.00  0.00     0.158 HD
ATOM     56  H   UNL     1     -43.724  42.631  27.276  1.00  0.00     0.158 HD
ENDBRANCH  50  54
ENDBRANCH  33  42
BRANCH  36  57
ATOM     57  O   UNL     1     -48.869  36.728  28.848  1.00  0.00    -0.388 OA
ATOM     58  H   UNL     1     -48.684  35.822  29.179  1.00  0.00     0.211 HD
ENDBRANCH  36  57
ENDBRANCH  26  29
ENDBRANCH   1  26
TORSDOF 10
ENDMDL
MODEL 4
REMARK VINA RESULT:      -8.9      3.939     11.111
REMARK SMILES CCNc1ccc2ccc(OC[C@H]3C[C@@H](n4ccc5c(N)ncnc54)[C@H](O)[C@@H]3O)cc2n1
REMARK SMILES IDX 11 1 10 2 4 3 5 4 32 5 6 6 31 8 7 9 30 11 8 12 9 14 3 17
REMARK SMILES IDX 2 19 1 22 12 26 13 29 14 30 28 31 15 33 26 36 29 40 16 42
REMARK SMILES IDX 17 43 25 44 18 45 19 47 24 48 20 50 23 51 22 52 21 54 27 57
REMARK H PARENT 5 7 6 10 30 13 8 15 9 16 3 18 2 20 2 21 1 23 1 24 1 25 12 27
REMARK H PARENT 12 28 13 32 14 34 14 35 28 37 15 38 26 39 29 41 17 46 18 49
REMARK H PARENT 23 53 21 55 21 56 27 58
REMARK Flexibility Score: inf
ROOT
ATOM      1  O   UNL     1     -46.200  31.299  24.085  1.00  0.00    -0.493 OA
ENDROOT
BRANCH   1   2
ATOM      2  C   UNL     1     -46.988  32.133  24.826  1.00  0.00     0.121 A 
ATOM      3  C   UNL     1     -47.136  36.473  26.775  1.00  0.00     0.126 A 
ATOM      4  C   UNL     1     -48.400  36.252  27.304  1.00  0.00    -0.019 A 
ATOM      5  N   UNL     1     -46.482  35.538  26.061  1.00  0.00    -0.231 NA
ATOM      6  C   UNL     1     -49.022  35.030  27.073  1.00  0.00    -0.049 A 
ATOM      7  H   UNL     1     -48.891  37.010  27.902  1.00  0.00     0.066 H 
ATOM      8  C   UNL     1     -47.080  34.354  25.834  1.00  0.00     0.076 A 
ATOM      9  C   UNL     1     -48.364  34.051  26.325  1.00  0.00     0.001 A 
ATOM     10  H   UNL     1     -50.011  34.849  27.485  1.00  0.00     0.063 H 
ATOM     11  C   UNL     1     -46.419  33.384  25.092  1.00  0.00     0.007 A 
ATOM     12  C   UNL     1     -48.946  32.800  26.061  1.00  0.00    -0.049 A 
ATOM     13  H   UNL     1     -45.428  33.611  24.706  1.00  0.00     0.069 H 
ATOM     14  C   UNL     1     -48.259  31.844  25.313  1.00  0.00    -0.019 A 
ATOM     15  H   UNL     1     -49.939  32.564  26.438  1.00  0.00     0.063 H 
ATOM     16  H   UNL     1     -48.742  30.890  25.129  1.00  0.00     0.066 H 
BRANCH   3  17
ATOM     17  N   UNL     1     -46.441  37.663  26.979  1.00  0.00    -0.370 N 
ATOM     18  H   UNL     1     -47.180  38.342  27.158  1.00  0.00     0.162 HD
BRANCH  17  19
ATOM     19  C   UNL     1     -45.464  37.643  28.063  1.00  0.00     0.013 C 
ATOM     20  H   UNL     1     -44.694  36.873  27.932  1.00  0.00     0.049 H 
ATOM     21  H   UNL     1     -45.985  37.406  28.998  1.00  0.00     0.049 H 
BRANCH  19  22
ATOM     22  C   UNL     1     -44.819  39.012  28.199  1.00  0.00    -0.048 C 
ATOM     23  H   UNL     1     -44.694  39.270  29.255  1.00  0.00     0.025 H 
ATOM     24  H   UNL     1     -43.833  39.037  27.723  1.00  0.00     0.025 H 
ATOM     25  H   UNL     1     -45.436  39.785  27.729  1.00  0.00     0.025 H 
ENDBRANCH  19  22
ENDBRANCH  17  19
ENDBRANCH   3  17
ENDBRANCH   1   2
BRANCH   1  26
ATOM     26  C   UNL     1     -46.201  31.474  22.671  1.00  0.00     0.094 C 
ATOM     27  H   UNL     1     -46.633  32.450  22.417  1.00  0.00     0.071 H 
ATOM     28  H   UNL     1     -45.175  31.416  22.285  1.00  0.00     0.071 H 
BRANCH  26  29
ATOM     29  C   UNL     1     -47.041  30.376  22.018  1.00  0.00     0.024 C 
ATOM     30  C   UNL     1     -47.421  29.237  22.969  1.00  0.00    -0.021 C 
ATOM     31  C   UNL     1     -48.408  30.851  21.526  1.00  0.00     0.088 C 
ATOM     32  H   UNL     1     -46.462  29.972  21.176  1.00  0.00     0.037 H 
ATOM     33  C   UNL     1     -48.616  28.539  22.287  1.00  0.00     0.064 C 
ATOM     34  H   UNL     1     -47.684  29.619  23.963  1.00  0.00     0.029 H 
ATOM     35  H   UNL     1     -46.585  28.542  23.108  1.00  0.00     0.029 H 
ATOM     36  C   UNL     1     -49.153  29.538  21.243  1.00  0.00     0.101 C 
ATOM     37  H   UNL     1     -48.944  31.436  22.282  1.00  0.00     0.063 H 
ATOM     38  H   UNL     1     -48.238  27.650  21.767  1.00  0.00     0.056 H 
ATOM     39  H   UNL     1     -50.239  29.672  21.252  1.00  0.00     0.065 H 
BRANCH  31  40
ATOM     40  O   UNL     1     -48.299  31.622  20.331  1.00  0.00    -0.390 OA
ATOM     41  H   UNL     1     -47.456  31.368  19.911  1.00  0.00     0.211 HD
ENDBRANCH  31  40
BRANCH  33  42
ATOM     42  N   UNL     1     -49.617  28.062  23.228  1.00  0.00    -0.327 N 
ATOM     43  C   UNL     1     -50.957  28.368  23.162  1.00  0.00     0.007 A 
ATOM     44  C   UNL     1     -49.391  27.236  24.303  1.00  0.00     0.145 A 
ATOM     45  C   UNL     1     -51.593  27.727  24.203  1.00  0.00    -0.031 A 
ATOM     46  H   UNL     1     -51.347  29.011  22.383  1.00  0.00     0.082 H 
ATOM     47  C   UNL     1     -50.607  27.007  24.934  1.00  0.00     0.061 A 
ATOM     48  N   UNL     1     -48.200  26.737  24.674  1.00  0.00    -0.218 NA
ATOM     49  H   UNL     1     -52.652  27.766  24.414  1.00  0.00     0.065 H 
ATOM     50  C   UNL     1     -50.587  26.176  26.062  1.00  0.00     0.136 A 
ATOM     51  C   UNL     1     -48.307  25.950  25.758  1.00  0.00     0.120 A 
ATOM     52  N   UNL     1     -49.413  25.653  26.466  1.00  0.00    -0.219 NA
ATOM     53  H   UNL     1     -47.385  25.498  26.111  1.00  0.00     0.106 H 
BRANCH  50  54
ATOM     54  N   UNL     1     -51.714  25.867  26.810  1.00  0.00    -0.383 N 
ATOM     55  H   UNL     1     -51.711  26.237  27.751  1.00  0.00     0.158 HD
ATOM     56  H   UNL     1     -51.944  24.885  26.714  1.00  0.00     0.158 HD
ENDBRANCH  50  54
ENDBRANCH  33  42
BRANCH  36  57
ATOM     57  O   UNL     1     -48.802  29.078  19.925  1.00  0.00    -0.388 OA
ATOM     58  H   UNL     1     -48.646  29.902  19.415  1.00  0.00     0.211 HD
ENDBRANCH  36  57
ENDBRANCH  26  29
ENDBRANCH   1  26
TORSDOF 10
ENDMDL
MODEL 5
REMARK VINA RESULT:      -8.8      1.402     10.063
REMARK SMILES CCNc1ccc2ccc(OC[C@H]3C[C@@H](n4ccc5c(N)ncnc54)[C@H](O)[C@@H]3O)cc2n1
REMARK SMILES IDX 11 1 10 2 4 3 5 4 32 5 6 6 31 8 7 9 30 11 8 12 9 14 3 17
REMARK SMILES IDX 2 19 1 22 12 26 13 29 14 30 28 31 15 33 26 36 29 40 16 42
REMARK SMILES IDX 17 43 25 44 18 45 19 47 24 48 20 50 23 51 22 52 21 54 27 57
REMARK H PARENT 5 7 6 10 30 13 8 15 9 16 3 18 2 20 2 21 1 23 1 24 1 25 12 27
REMARK H PARENT 12 28 13 32 14 34 14 35 28 37 15 38 26 39 29 41 17 46 18 49
REMARK H PARENT 23 53 21 55 21 56 27 58
REMARK Flexibility Score: inf
ROOT
ATOM      1  O   UNL     1     -47.149  36.812  27.796  1.00  0.00    -0.493 OA
ENDROOT
BRANCH   1   2
ATOM      2  C   UNL     1     -46.851  38.085  27.399  1.00  0.00     0.121 A 
ATOM      3  C   UNL     1     -43.349  41.306  27.305  1.00  0.00     0.126 A 
ATOM      4  C   UNL     1     -44.158  42.247  26.684  1.00  0.00    -0.019 A 
ATOM      5  N   UNL     1     -43.797  40.082  27.639  1.00  0.00    -0.231 NA
ATOM      6  C   UNL     1     -45.472  41.910  26.378  1.00  0.00    -0.049 A 
ATOM      7  H   UNL     1     -43.781  43.237  26.455  1.00  0.00     0.066 H 
ATOM      8  C   UNL     1     -45.067  39.750  27.344  1.00  0.00     0.076 A 
ATOM      9  C   UNL     1     -45.952  40.640  26.707  1.00  0.00     0.001 A 
ATOM     10  H   UNL     1     -46.111  42.642  25.893  1.00  0.00     0.063 H 
ATOM     11  C   UNL     1     -45.539  38.487  27.676  1.00  0.00     0.007 A 
ATOM     12  C   UNL     1     -47.269  40.246  26.420  1.00  0.00    -0.049 A 
ATOM     13  H   UNL     1     -44.862  37.791  28.166  1.00  0.00     0.069 H 
ATOM     14  C   UNL     1     -47.717  38.971  26.767  1.00  0.00    -0.019 A 
ATOM     15  H   UNL     1     -47.954  40.932  25.927  1.00  0.00     0.063 H 
ATOM     16  H   UNL     1     -48.741  38.703  26.527  1.00  0.00     0.066 H 
BRANCH   3  17
ATOM     17  N   UNL     1     -42.029  41.577  27.660  1.00  0.00    -0.370 N 
ATOM     18  H   UNL     1     -41.736  42.272  26.973  1.00  0.00     0.162 HD
BRANCH  17  19
ATOM     19  C   UNL     1     -41.831  42.059  29.023  1.00  0.00     0.013 C 
ATOM     20  H   UNL     1     -42.659  42.681  29.383  1.00  0.00     0.049 H 
ATOM     21  H   UNL     1     -40.935  42.690  29.042  1.00  0.00     0.049 H 
BRANCH  19  22
ATOM     22  C   UNL     1     -41.615  40.880  29.958  1.00  0.00    -0.048 C 
ATOM     23  H   UNL     1     -41.103  41.206  30.869  1.00  0.00     0.025 H 
ATOM     24  H   UNL     1     -42.567  40.422  30.247  1.00  0.00     0.025 H 
ATOM     25  H   UNL     1     -41.004  40.107  29.480  1.00  0.00     0.025 H 
ENDBRANCH  19  22
ENDBRANCH  17  19
ENDBRANCH   3  17
ENDBRANCH   1   2
BRANCH   1  26
ATOM     26  C   UNL     1     -48.151  36.110  27.065  1.00  0.00     0.094 C 
ATOM     27  H   UNL     1     -49.132  36.270  27.530  1.00  0.00     0.071 H 
ATOM     28  H   UNL     1     -48.177  36.466  26.027  1.00  0.00     0.071 H 
BRANCH  26  29
ATOM     29  C   UNL     1     -47.839  34.614  27.071  1.00  0.00     0.024 C 
ATOM     30  C   UNL     1     -48.894  33.756  26.367  1.00  0.00    -0.021 C 
ATOM     31  C   UNL     1     -46.566  34.244  26.310  1.00  0.00     0.088 C 
ATOM     32  H   UNL     1     -47.750  34.299  28.120  1.00  0.00     0.037 H 
ATOM     33  C   UNL     1     -48.177  32.424  26.063  1.00  0.00     0.064 C 
ATOM     34  H   UNL     1     -49.257  34.242  25.454  1.00  0.00     0.029 H 
ATOM     35  H   UNL     1     -49.767  33.597  27.011  1.00  0.00     0.029 H 
ATOM     36  C   UNL     1     -46.669  32.716  26.182  1.00  0.00     0.101 C 
ATOM     37  H   UNL     1     -46.523  34.705  25.318  1.00  0.00     0.063 H 
ATOM     38  H   UNL     1     -48.461  31.701  26.839  1.00  0.00     0.056 H 
ATOM     39  H   UNL     1     -46.060  32.332  25.357  1.00  0.00     0.065 H 
BRANCH  31  40
ATOM     40  O   UNL     1     -45.393  34.598  27.041  1.00  0.00    -0.390 OA
ATOM     41  H   UNL     1     -45.694  34.946  27.901  1.00  0.00     0.211 HD
ENDBRANCH  31  40
BRANCH  33  42
ATOM     42  N   UNL     1     -48.575  31.834  24.795  1.00  0.00    -0.327 N 
ATOM     43  C   UNL     1     -49.873  31.744  24.351  1.00  0.00     0.007 A 
ATOM     44  C   UNL     1     -47.733  31.295  23.852  1.00  0.00     0.145 A 
ATOM     45  C   UNL     1     -49.860  31.145  23.110  1.00  0.00    -0.031 A 
ATOM     46  H   UNL     1     -50.698  32.113  24.949  1.00  0.00     0.082 H 
ATOM     47  C   UNL     1     -48.505  30.855  22.785  1.00  0.00     0.061 A 
ATOM     48  N   UNL     1     -46.395  31.213  23.949  1.00  0.00    -0.218 NA
ATOM     49  H   UNL     1     -50.728  30.942  22.498  1.00  0.00     0.065 H 
ATOM     50  C   UNL     1     -47.823  30.272  21.709  1.00  0.00     0.136 A 
ATOM     51  C   UNL     1     -45.853  30.648  22.857  1.00  0.00     0.120 A 
ATOM     52  N   UNL     1     -46.481  30.173  21.765  1.00  0.00    -0.219 NA
ATOM     53  H   UNL     1     -44.770  30.559  22.855  1.00  0.00     0.106 H 
BRANCH  50  54
ATOM     54  N   UNL     1     -48.453  29.769  20.580  1.00  0.00    -0.383 N 
ATOM     55  H   UNL     1     -47.961  29.013  20.124  1.00  0.00     0.158 HD
ATOM     56  H   UNL     1     -48.768  30.525  19.984  1.00  0.00     0.158 HD
ENDBRANCH  50  54
ENDBRANCH  33  42
BRANCH  36  57
ATOM     57  O   UNL     1     -46.163  32.112  27.386  1.00  0.00    -0.388 OA
ATOM     58  H   UNL     1     -45.702  32.845  27.850  1.00  0.00     0.211 HD
ENDBRANCH  36  57
ENDBRANCH  26  29
ENDBRANCH   1  26
TORSDOF 10
ENDMDL
MODEL 6
REMARK VINA RESULT:      -8.8      1.852      9.892
REMARK SMILES CCNc1ccc2ccc(OC[C@H]3C[C@@H](n4ccc5c(N)ncnc54)[C@H](O)[C@@H]3O)cc2n1
REMARK SMILES IDX 11 1 10 2 4 3 5 4 32 5 6 6 31 8 7 9 30 11 8 12 9 14 3 17
REMARK SMILES IDX 2 19 1 22 12 26 13 29 14 30 28 31 15 33 26 36 29 40 16 42
REMARK SMILES IDX 17 43 25 44 18 45 19 47 24 48 20 50 23 51 22 52 21 54 27 57
REMARK H PARENT 5 7 6 10 30 13 8 15 9 16 3 18 2 20 2 21 1 23 1 24 1 25 12 27
REMARK H PARENT 12 28 13 32 14 34 14 35 28 37 15 38 26 39 29 41 17 46 18 49
REMARK H PARENT 23 53 21 55 21 56 27 58
REMARK Flexibility Score: inf
ROOT
ATOM      1  O   UNL     1     -48.101  35.831  28.551  1.00  0.00    -0.493 OA
ENDROOT
BRANCH   1   2
ATOM      2  C   UNL     1     -47.071  36.716  28.704  1.00  0.00     0.121 A 
ATOM      3  C   UNL     1     -44.855  40.361  26.595  1.00  0.00     0.126 A 
ATOM      4  C   UNL     1     -43.945  40.480  27.636  1.00  0.00    -0.019 A 
ATOM      5  N   UNL     1     -45.820  39.423  26.588  1.00  0.00    -0.231 NA
ATOM      6  C   UNL     1     -44.044  39.615  28.720  1.00  0.00    -0.049 A 
ATOM      7  H   UNL     1     -43.157  41.224  27.600  1.00  0.00     0.066 H 
ATOM      8  C   UNL     1     -45.922  38.585  27.636  1.00  0.00     0.076 A 
ATOM      9  C   UNL     1     -45.047  38.643  28.737  1.00  0.00     0.001 A 
ATOM     10  H   UNL     1     -43.334  39.703  29.538  1.00  0.00     0.063 H 
ATOM     11  C   UNL     1     -46.919  37.618  27.646  1.00  0.00     0.007 A 
ATOM     12  C   UNL     1     -45.193  37.745  29.807  1.00  0.00    -0.049 A 
ATOM     13  H   UNL     1     -47.601  37.568  26.801  1.00  0.00     0.069 H 
ATOM     14  C   UNL     1     -46.203  36.783  29.790  1.00  0.00    -0.019 A 
ATOM     15  H   UNL     1     -44.519  37.789  30.659  1.00  0.00     0.063 H 
ATOM     16  H   UNL     1     -46.285  36.108  30.635  1.00  0.00     0.066 H 
BRANCH   3  17
ATOM     17  N   UNL     1     -44.808  41.177  25.466  1.00  0.00    -0.370 N 
ATOM     18  H   UNL     1     -45.290  40.628  24.755  1.00  0.00     0.162 HD
BRANCH  17  19
ATOM     19  C   UNL     1     -45.412  42.497  25.620  1.00  0.00     0.013 C 
ATOM     20  H   UNL     1     -46.003  42.594  26.539  1.00  0.00     0.049 H 
ATOM     21  H   UNL     1     -46.104  42.662  24.786  1.00  0.00     0.049 H 
BRANCH  19  22
ATOM     22  C   UNL     1     -44.331  43.565  25.575  1.00  0.00    -0.048 C 
ATOM     23  H   UNL     1     -43.345  43.103  25.469  1.00  0.00     0.025 H 
ATOM     24  H   UNL     1     -44.480  44.246  24.732  1.00  0.00     0.025 H 
ATOM     25  H   UNL     1     -44.332  44.163  26.492  1.00  0.00     0.025 H 
ENDBRANCH  19  22
ENDBRANCH  17  19
ENDBRANCH   3  17
ENDBRANCH   1   2
BRANCH   1  26
ATOM     26  C   UNL     1     -48.531  35.543  27.223  1.00  0.00     0.094 C 
ATOM     27  H   UNL     1     -49.627  35.563  27.174  1.00  0.00     0.071 H 
ATOM     28  H   UNL     1     -48.120  36.284  26.526  1.00  0.00     0.071 H 
BRANCH  26  29
ATOM     29  C   UNL     1     -48.043  34.153  26.815  1.00  0.00     0.024 C 
ATOM     30  C   UNL     1     -49.140  33.256  26.233  1.00  0.00    -0.021 C 
ATOM     31  C   UNL     1     -47.008  34.163  25.691  1.00  0.00     0.088 C 
ATOM     32  H   UNL     1     -47.617  33.676  27.709  1.00  0.00     0.037 H 
ATOM     33  C   UNL     1     -48.380  32.154  25.467  1.00  0.00     0.064 C 
ATOM     34  H   UNL     1     -49.810  33.823  25.575  1.00  0.00     0.029 H 
ATOM     35  H   UNL     1     -49.763  32.827  27.026  1.00  0.00     0.029 H 
ATOM     36  C   UNL     1     -46.950  32.691  25.256  1.00  0.00     0.101 C 
ATOM     37  H   UNL     1     -47.312  34.795  24.850  1.00  0.00     0.063 H 
ATOM     38  H   UNL     1     -48.334  31.264  26.108  1.00  0.00     0.056 H 
ATOM     39  H   UNL     1     -46.562  32.578  24.239  1.00  0.00     0.065 H 
BRANCH  31  40
ATOM     40  O   UNL     1     -45.729  34.589  26.157  1.00  0.00    -0.390 OA
ATOM     41  H   UNL     1     -45.088  33.914  25.866  1.00  0.00     0.211 HD
ENDBRANCH  31  40
BRANCH  33  42
ATOM     42  N   UNL     1     -49.048  31.738  24.244  1.00  0.00    -0.327 N 
ATOM     43  C   UNL     1     -50.408  31.790  24.044  1.00  0.00     0.007 A 
ATOM     44  C   UNL     1     -48.439  31.249  23.113  1.00  0.00     0.145 A 
ATOM     45  C   UNL     1     -50.670  31.333  22.770  1.00  0.00    -0.031 A 
ATOM     46  H   UNL     1     -51.076  32.147  24.818  1.00  0.00     0.082 H 
ATOM     47  C   UNL     1     -49.426  30.986  22.172  1.00  0.00     0.061 A 
ATOM     48  N   UNL     1     -47.119  31.063  22.950  1.00  0.00    -0.218 NA
ATOM     49  H   UNL     1     -51.647  31.260  22.314  1.00  0.00     0.065 H 
ATOM     50  C   UNL     1     -49.002  30.480  20.936  1.00  0.00     0.136 A 
ATOM     51  C   UNL     1     -46.833  30.585  21.726  1.00  0.00     0.120 A 
ATOM     52  N   UNL     1     -47.686  30.280  20.730  1.00  0.00    -0.219 NA
ATOM     53  H   UNL     1     -45.781  30.421  21.514  1.00  0.00     0.106 H 
BRANCH  50  54
ATOM     54  N   UNL     1     -49.866  30.151  19.901  1.00  0.00    -0.383 N 
ATOM     55  H   UNL     1     -49.729  29.227  19.515  1.00  0.00     0.158 HD
ATOM     56  H   UNL     1     -49.927  30.912  19.236  1.00  0.00     0.158 HD
ENDBRANCH  50  54
ENDBRANCH  33  42
BRANCH  36  57
ATOM     57  O   UNL     1     -46.046  31.984  26.125  1.00  0.00    -0.388 OA
ATOM     58  H   UNL     1     -45.842  31.155  25.640  1.00  0.00     0.211 HD
ENDBRANCH  36  57
ENDBRANCH  26  29
ENDBRANCH   1  26
TORSDOF 10
ENDMDL
MODEL 7
REMARK VINA RESULT:      -8.7      2.937      9.785
REMARK SMILES CCNc1ccc2ccc(OC[C@H]3C[C@@H](n4ccc5c(N)ncnc54)[C@H](O)[C@@H]3O)cc2n1
REMARK SMILES IDX 11 1 10 2 4 3 5 4 32 5 6 6 31 8 7 9 30 11 8 12 9 14 3 17
REMARK SMILES IDX 2 19 1 22 12 26 13 29 14 30 28 31 15 33 26 36 29 40 16 42
REMARK SMILES IDX 17 43 25 44 18 45 19 47 24 48 20 50 23 51 22 52 21 54 27 57
REMARK H PARENT 5 7 6 10 30 13 8 15 9 16 3 18 2 20 2 21 1 23 1 24 1 25 12 27
REMARK H PARENT 12 28 13 32 14 34 14 35 28 37 15 38 26 39 29 41 17 46 18 49
REMARK H PARENT 23 53 21 55 21 56 27 58
REMARK Flexibility Score: inf
ROOT
ATOM      1  O   UNL     1     -44.612  39.360  27.986  1.00  0.00    -0.493 OA
ENDROOT
BRANCH   1   2
ATOM      2  C   UNL     1     -43.965  40.449  27.474  1.00  0.00     0.121 A 
ATOM      3  C   UNL     1     -43.884  43.407  23.747  1.00  0.00     0.126 A 
ATOM      4  C   UNL     1     -42.819  44.126  24.272  1.00  0.00    -0.019 A 
ATOM      5  N   UNL     1     -44.413  42.343  24.378  1.00  0.00    -0.231 NA
ATOM      6  C   UNL     1     -42.292  43.748  25.502  1.00  0.00    -0.049 A 
ATOM      7  H   UNL     1     -42.391  44.959  23.726  1.00  0.00     0.066 H 
ATOM      8  C   UNL     1     -43.908  41.974  25.569  1.00  0.00     0.076 A 
ATOM      9  C   UNL     1     -42.836  42.653  26.178  1.00  0.00     0.001 A 
ATOM     10  H   UNL     1     -41.458  44.305  25.918  1.00  0.00     0.063 H 
ATOM     11  C   UNL     1     -44.451  40.883  26.235  1.00  0.00     0.007 A 
ATOM     12  C   UNL     1     -42.343  42.229  27.423  1.00  0.00    -0.049 A 
ATOM     13  H   UNL     1     -45.281  40.354  25.774  1.00  0.00     0.069 H 
ATOM     14  C   UNL     1     -42.907  41.128  28.069  1.00  0.00    -0.019 A 
ATOM     15  H   UNL     1     -41.515  42.753  27.895  1.00  0.00     0.063 H 
ATOM     16  H   UNL     1     -42.500  40.832  29.030  1.00  0.00     0.066 H 
BRANCH   3  17
ATOM     17  N   UNL     1     -44.453  43.712  22.512  1.00  0.00    -0.370 N 
ATOM     18  H   UNL     1     -45.410  43.372  22.601  1.00  0.00     0.162 HD
BRANCH  17  19
ATOM     19  C   UNL     1     -44.421  45.123  22.137  1.00  0.00     0.013 C 
ATOM     20  H   UNL     1     -43.565  45.661  22.562  1.00  0.00     0.049 H 
ATOM     21  H   UNL     1     -45.321  45.608  22.533  1.00  0.00     0.049 H 
BRANCH  19  22
ATOM     22  C   UNL     1     -44.424  45.252  20.623  1.00  0.00    -0.048 C 
ATOM     23  H   UNL     1     -44.915  44.386  20.169  1.00  0.00     0.025 H 
ATOM     24  H   UNL     1     -44.957  46.152  20.301  1.00  0.00     0.025 H 
ATOM     25  H   UNL     1     -43.403  45.310  20.232  1.00  0.00     0.025 H 
ENDBRANCH  19  22
ENDBRANCH  17  19
ENDBRANCH   3  17
ENDBRANCH   1   2
BRANCH   1  26
ATOM     26  C   UNL     1     -45.939  39.105  27.531  1.00  0.00     0.094 C 
ATOM     27  H   UNL     1     -46.609  39.901  27.877  1.00  0.00     0.071 H 
ATOM     28  H   UNL     1     -45.957  39.062  26.435  1.00  0.00     0.071 H 
BRANCH  26  29
ATOM     29  C   UNL     1     -46.426  37.769  28.091  1.00  0.00     0.024 C 
ATOM     30  C   UNL     1     -47.199  36.917  27.080  1.00  0.00    -0.021 C 
ATOM     31  C   UNL     1     -45.299  36.825  28.510  1.00  0.00     0.088 C 
ATOM     32  H   UNL     1     -47.069  37.987  28.955  1.00  0.00     0.037 H 
ATOM     33  C   UNL     1     -47.159  35.489  27.660  1.00  0.00     0.064 C 
ATOM     34  H   UNL     1     -46.741  36.967  26.085  1.00  0.00     0.029 H 
ATOM     35  H   UNL     1     -48.231  37.271  26.972  1.00  0.00     0.029 H 
ATOM     36  C   UNL     1     -46.022  35.482  28.700  1.00  0.00     0.101 C 
ATOM     37  H   UNL     1     -44.525  36.732  27.742  1.00  0.00     0.063 H 
ATOM     38  H   UNL     1     -48.112  35.304  28.174  1.00  0.00     0.056 H 
ATOM     39  H   UNL     1     -45.336  34.633  28.627  1.00  0.00     0.065 H 
BRANCH  31  40
ATOM     40  O   UNL     1     -44.695  37.236  29.734  1.00  0.00    -0.390 OA
ATOM     41  H   UNL     1     -43.781  37.500  29.520  1.00  0.00     0.211 HD
ENDBRANCH  31  40
BRANCH  33  42
ATOM     42  N   UNL     1     -47.043  34.457  26.641  1.00  0.00    -0.327 N 
ATOM     43  C   UNL     1     -45.868  34.110  26.016  1.00  0.00     0.007 A 
ATOM     44  C   UNL     1     -48.064  33.672  26.161  1.00  0.00     0.145 A 
ATOM     45  C   UNL     1     -46.142  33.090  25.129  1.00  0.00    -0.031 A 
ATOM     46  H   UNL     1     -44.938  34.611  26.251  1.00  0.00     0.082 H 
ATOM     47  C   UNL     1     -47.534  32.807  25.214  1.00  0.00     0.061 A 
ATOM     48  N   UNL     1     -49.350  33.734  26.547  1.00  0.00    -0.218 NA
ATOM     49  H   UNL     1     -45.420  32.597  24.493  1.00  0.00     0.065 H 
ATOM     50  C   UNL     1     -48.425  31.913  24.605  1.00  0.00     0.136 A 
ATOM     51  C   UNL     1     -50.104  32.826  25.904  1.00  0.00     0.120 A 
ATOM     52  N   UNL     1     -49.723  31.940  24.965  1.00  0.00    -0.219 NA
ATOM     53  H   UNL     1     -51.156  32.806  26.173  1.00  0.00     0.106 H 
BRANCH  50  54
ATOM     54  N   UNL     1     -48.053  31.000  23.629  1.00  0.00    -0.383 N 
ATOM     55  H   UNL     1     -47.174  31.204  23.174  1.00  0.00     0.158 HD
ATOM     56  H   UNL     1     -48.837  30.792  23.022  1.00  0.00     0.158 HD
ENDBRANCH  50  54
ENDBRANCH  33  42
BRANCH  36  57
ATOM     57  O   UNL     1     -46.590  35.443  30.023  1.00  0.00    -0.388 OA
ATOM     58  H   UNL     1     -46.884  36.365  30.188  1.00  0.00     0.211 HD
ENDBRANCH  36  57
ENDBRANCH  26  29
ENDBRANCH   1  26
TORSDOF 10
ENDMDL
