MODEL 1
REMARK VINA RESULT:     -10.3      0.000      0.000
REMARK SMILES Cn1ccc(-c2cn(-c3cncc(CSc4ccc5ccc(N6CCC6)nc5c4)c3)c3ncnc(N)c23)n1
REMARK SMILES IDX 9 1 10 2 11 3 12 4 13 5 30 6 8 10 6 11 7 12 37 13 31 15
REMARK SMILES IDX 35 16 32 17 34 18 33 19 5 21 2 22 3 23 38 24 4 25 1 28 36 32
REMARK SMILES IDX 14 35 15 38 16 39 17 40 29 41 18 42 28 44 19 46 27 48 20 49
REMARK SMILES IDX 22 50 21 51 23 54 24 55 26 56 25 57
REMARK H PARENT 10 7 12 8 30 9 7 14 33 20 3 26 4 27 1 29 1 30 1 31 36 33 36 34
REMARK H PARENT 14 36 14 37 17 43 29 45 18 47 20 52 21 53 24 58 24 59 26 60
REMARK H PARENT 26 61 25 62 25 63
REMARK Flexibility Score: inf
ROOT
ATOM      1  C   UNL     1     -47.260  38.095  27.420  1.00  0.00     0.066 A 
ATOM      2  C   UNL     1     -48.508  38.407  27.950  1.00  0.00     0.051 A 
ATOM      3  N   UNL     1     -49.545  37.536  28.039  1.00  0.00    -0.262 NA
ATOM      4  C   UNL     1     -49.325  36.275  27.614  1.00  0.00     0.031 A 
ATOM      5  C   UNL     1     -48.128  35.849  27.057  1.00  0.00    -0.017 A 
ATOM      6  C   UNL     1     -47.099  36.796  26.932  1.00  0.00    -0.031 A 
ATOM      7  H   UNL     1     -48.757  39.387  28.342  1.00  0.00     0.086 H 
ATOM      8  H   UNL     1     -50.161  35.594  27.753  1.00  0.00     0.084 H 
ATOM      9  H   UNL     1     -46.158  36.457  26.514  1.00  0.00     0.065 H 
ENDROOT
BRANCH   1  10
ATOM     10  N   UNL     1     -46.185  39.043  27.438  1.00  0.00    -0.299 N 
ATOM     11  C   UNL     1     -44.929  40.833  26.887  1.00  0.00     0.033 A 
ATOM     12  C   UNL     1     -46.035  40.087  26.544  1.00  0.00     0.021 A 
ATOM     13  C   UNL     1     -44.366  40.264  28.056  1.00  0.00     0.071 A 
ATOM     14  H   UNL     1     -46.723  40.257  25.730  1.00  0.00     0.083 H 
ATOM     15  C   UNL     1     -45.123  39.127  28.346  1.00  0.00     0.150 A 
ATOM     16  C   UNL     1     -43.305  40.558  28.931  1.00  0.00     0.137 A 
ATOM     17  N   UNL     1     -44.853  38.264  29.347  1.00  0.00    -0.218 NA
ATOM     18  N   UNL     1     -43.037  39.721  29.949  1.00  0.00    -0.219 NA
ATOM     19  C   UNL     1     -43.804  38.630  30.089  1.00  0.00     0.120 A 
ATOM     20  H   UNL     1     -43.545  37.969  30.910  1.00  0.00     0.106 H 
BRANCH  11  21
ATOM     21  C   UNL     1     -44.453  42.005  26.156  1.00  0.00     0.095 A 
ATOM     22  N   UNL     1     -43.940  44.003  25.714  1.00  0.00    -0.275 N 
ATOM     23  C   UNL     1     -43.759  43.337  24.538  1.00  0.00     0.025 A 
ATOM     24  N   UNL     1     -44.359  43.214  26.719  1.00  0.00    -0.173 NA
ATOM     25  C   UNL     1     -44.102  42.029  24.790  1.00  0.00    -0.016 A 
ATOM     26  H   UNL     1     -43.429  43.835  23.637  1.00  0.00     0.084 H 
ATOM     27  H   UNL     1     -44.107  41.210  24.083  1.00  0.00     0.066 H 
BRANCH  22  28
ATOM     28  C   UNL     1     -43.736  45.411  25.955  1.00  0.00     0.030 C 
ATOM     29  H   UNL     1     -42.833  45.531  26.558  1.00  0.00     0.048 H 
ATOM     30  H   UNL     1     -44.598  45.818  26.491  1.00  0.00     0.048 H 
ATOM     31  H   UNL     1     -43.625  45.913  24.991  1.00  0.00     0.048 H 
ENDBRANCH  22  28
ENDBRANCH  11  21
BRANCH  16  32
ATOM     32  N   UNL     1     -42.504  41.690  28.852  1.00  0.00    -0.383 N 
ATOM     33  H   UNL     1     -42.329  42.008  27.907  1.00  0.00     0.158 HD
ATOM     34  H   UNL     1     -42.839  42.395  29.498  1.00  0.00     0.158 HD
ENDBRANCH  16  32
ENDBRANCH   1  10
BRANCH   5  35
ATOM     35  C   UNL     1     -47.904  34.408  26.687  1.00  0.00     0.025 C 
ATOM     36  H   UNL     1     -47.924  33.790  27.591  1.00  0.00     0.043 H 
ATOM     37  H   UNL     1     -48.719  34.044  26.050  1.00  0.00     0.043 H 
BRANCH  35  38
ATOM     38  S   UNL     1     -46.300  34.124  25.846  1.00  0.00    -0.121 SA
BRANCH  38  39
ATOM     39  C   UNL     1     -46.712  32.674  24.888  1.00  0.00     0.010 A 
ATOM     40  C   UNL     1     -46.059  32.415  23.685  1.00  0.00    -0.048 A 
ATOM     41  C   UNL     1     -47.649  31.757  25.379  1.00  0.00    -0.022 A 
ATOM     42  C   UNL     1     -46.311  31.224  23.005  1.00  0.00    -0.052 A 
ATOM     43  H   UNL     1     -45.342  33.124  23.278  1.00  0.00     0.063 H 
ATOM     44  C   UNL     1     -47.888  30.549  24.741  1.00  0.00     0.074 A 
ATOM     45  H   UNL     1     -48.167  31.953  26.316  1.00  0.00     0.066 H 
ATOM     46  C   UNL     1     -47.207  30.282  23.538  1.00  0.00     0.000 A 
ATOM     47  H   UNL     1     -45.791  31.024  22.072  1.00  0.00     0.063 H 
ATOM     48  N   UNL     1     -48.734  29.669  25.303  1.00  0.00    -0.231 NA
ATOM     49  C   UNL     1     -47.444  29.054  22.919  1.00  0.00    -0.049 A 
ATOM     50  C   UNL     1     -48.938  28.471  24.710  1.00  0.00     0.129 A 
ATOM     51  C   UNL     1     -48.314  28.142  23.511  1.00  0.00    -0.019 A 
ATOM     52  H   UNL     1     -46.952  28.791  21.987  1.00  0.00     0.063 H 
ATOM     53  H   UNL     1     -48.501  27.187  23.035  1.00  0.00     0.066 H 
BRANCH  50  54
ATOM     54  N   UNL     1     -49.823  27.562  25.317  1.00  0.00    -0.356 N 
ATOM     55  C   UNL     1     -49.504  26.787  26.485  1.00  0.00     0.021 C 
ATOM     56  C   UNL     1     -50.482  26.454  24.688  1.00  0.00     0.021 C 
ATOM     57  C   UNL     1     -50.691  25.897  26.101  1.00  0.00    -0.018 C 
ATOM     58  H   UNL     1     -48.523  26.303  26.427  1.00  0.00     0.049 H 
ATOM     59  H   UNL     1     -49.608  27.344  27.419  1.00  0.00     0.049 H 
ATOM     60  H   UNL     1     -49.816  25.866  24.050  1.00  0.00     0.049 H 
ATOM     61  H   UNL     1     -51.390  26.733  24.149  1.00  0.00     0.049 H 
ATOM     62  H   UNL     1     -51.641  26.186  26.565  1.00  0.00     0.030 H 
ATOM     63  H   UNL     1     -50.542  24.822  26.220  1.00  0.00     0.030 H 
ENDBRANCH  50  54
ENDBRANCH  38  39
ENDBRANCH  35  38
ENDBRANCH   5  35
TORSDOF 8
ENDMDL
MODEL 2
REMARK VINA RESULT:     -10.2      1.874      2.178
REMARK SMILES Cn1ccc(-c2cn(-c3cncc(CSc4ccc5ccc(N6CCC6)nc5c4)c3)c3ncnc(N)c23)n1
REMARK SMILES IDX 9 1 10 2 11 3 12 4 13 5 30 6 8 10 6 11 7 12 37 13 31 15
REMARK SMILES IDX 35 16 32 17 34 18 33 19 5 21 2 22 3 23 38 24 4 25 1 28 36 32
REMARK SMILES IDX 14 35 15 38 16 39 17 40 29 41 18 42 28 44 19 46 27 48 20 49
REMARK SMILES IDX 22 50 21 51 23 54 24 55 26 56 25 57
REMARK H PARENT 10 7 12 8 30 9 7 14 33 20 3 26 4 27 1 29 1 30 1 31 36 33 36 34
REMARK H PARENT 14 36 14 37 17 43 29 45 18 47 20 52 21 53 24 58 24 59 26 60
REMARK H PARENT 26 61 25 62 25 63
REMARK Flexibility Score: inf
ROOT
ATOM      1  C   UNL     1     -45.337  38.181  28.652  1.00  0.00     0.066 A 
ATOM      2  C   UNL     1     -45.569  37.989  30.010  1.00  0.00     0.051 A 
ATOM      3  N   UNL     1     -46.050  36.841  30.554  1.00  0.00    -0.262 NA
ATOM      4  C   UNL     1     -46.279  35.814  29.710  1.00  0.00     0.031 A 
ATOM      5  C   UNL     1     -46.096  35.890  28.337  1.00  0.00    -0.017 A 
ATOM      6  C   UNL     1     -45.651  37.112  27.810  1.00  0.00    -0.031 A 
ATOM      7  H   UNL     1     -45.381  38.751  30.759  1.00  0.00     0.086 H 
ATOM      8  H   UNL     1     -46.610  34.895  30.188  1.00  0.00     0.084 H 
ATOM      9  H   UNL     1     -45.490  37.165  26.739  1.00  0.00     0.065 H 
ENDROOT
BRANCH   1  10
ATOM     10  N   UNL     1     -44.746  39.393  28.163  1.00  0.00    -0.299 N 
ATOM     11  C   UNL     1     -44.428  41.239  26.908  1.00  0.00     0.033 A 
ATOM     12  C   UNL     1     -45.185  40.098  27.058  1.00  0.00     0.021 A 
ATOM     13  C   UNL     1     -43.488  41.280  27.967  1.00  0.00     0.071 A 
ATOM     14  H   UNL     1     -46.015  39.768  26.452  1.00  0.00     0.083 H 
ATOM     15  C   UNL     1     -43.664  40.102  28.698  1.00  0.00     0.150 A 
ATOM     16  C   UNL     1     -42.497  42.166  28.427  1.00  0.00     0.137 A 
ATOM     17  N   UNL     1     -42.900  39.731  29.746  1.00  0.00    -0.218 NA
ATOM     18  N   UNL     1     -41.743  41.823  29.486  1.00  0.00    -0.219 NA
ATOM     19  C   UNL     1     -41.972  40.637  30.067  1.00  0.00     0.120 A 
ATOM     20  H   UNL     1     -41.331  40.387  30.907  1.00  0.00     0.106 H 
BRANCH  11  21
ATOM     21  C   UNL     1     -44.596  42.217  25.838  1.00  0.00     0.095 A 
ATOM     22  N   UNL     1     -44.151  43.494  24.217  1.00  0.00    -0.275 N 
ATOM     23  C   UNL     1     -45.448  43.778  24.528  1.00  0.00     0.025 A 
ATOM     24  N   UNL     1     -43.608  42.544  24.998  1.00  0.00    -0.173 NA
ATOM     25  C   UNL     1     -45.765  42.970  25.595  1.00  0.00    -0.016 A 
ATOM     26  H   UNL     1     -46.020  44.523  23.993  1.00  0.00     0.084 H 
ATOM     27  H   UNL     1     -46.706  42.935  26.128  1.00  0.00     0.066 H 
BRANCH  22  28
ATOM     28  C   UNL     1     -43.353  44.102  23.181  1.00  0.00     0.030 C 
ATOM     29  H   UNL     1     -43.985  44.257  22.303  1.00  0.00     0.048 H 
ATOM     30  H   UNL     1     -42.519  43.442  22.927  1.00  0.00     0.048 H 
ATOM     31  H   UNL     1     -42.973  45.057  23.554  1.00  0.00     0.048 H 
ENDBRANCH  22  28
ENDBRANCH  11  21
BRANCH  16  32
ATOM     32  N   UNL     1     -42.242  43.419  27.883  1.00  0.00    -0.383 N 
ATOM     33  H   UNL     1     -42.593  43.540  26.941  1.00  0.00     0.158 HD
ATOM     34  H   UNL     1     -42.502  44.141  28.545  1.00  0.00     0.158 HD
ENDBRANCH  16  32
ENDBRANCH   1  10
BRANCH   5  35
ATOM     35  C   UNL     1     -46.277  34.686  27.454  1.00  0.00     0.025 C 
ATOM     36  H   UNL     1     -45.559  34.726  26.627  1.00  0.00     0.043 H 
ATOM     37  H   UNL     1     -46.054  33.766  28.006  1.00  0.00     0.043 H 
BRANCH  35  38
ATOM     38  S   UNL     1     -47.959  34.570  26.732  1.00  0.00    -0.121 SA
BRANCH  38  39
ATOM     39  C   UNL     1     -47.716  33.199  25.615  1.00  0.00     0.010 A 
ATOM     40  C   UNL     1     -46.472  32.981  25.026  1.00  0.00    -0.048 A 
ATOM     41  C   UNL     1     -48.761  32.299  25.378  1.00  0.00    -0.022 A 
ATOM     42  C   UNL     1     -46.268  31.845  24.244  1.00  0.00    -0.052 A 
ATOM     43  H   UNL     1     -45.653  33.679  25.183  1.00  0.00     0.063 H 
ATOM     44  C   UNL     1     -48.572  31.142  24.636  1.00  0.00     0.074 A 
ATOM     45  H   UNL     1     -49.738  32.464  25.830  1.00  0.00     0.066 H 
ATOM     46  C   UNL     1     -47.306  30.915  24.064  1.00  0.00     0.000 A 
ATOM     47  H   UNL     1     -45.291  31.677  23.797  1.00  0.00     0.063 H 
ATOM     48  N   UNL     1     -49.586  30.270  24.513  1.00  0.00    -0.231 NA
ATOM     49  C   UNL     1     -47.125  29.737  23.337  1.00  0.00    -0.049 A 
ATOM     50  C   UNL     1     -49.396  29.119  23.829  1.00  0.00     0.129 A 
ATOM     51  C   UNL     1     -48.178  28.832  23.222  1.00  0.00    -0.019 A 
ATOM     52  H   UNL     1     -46.173  29.507  22.869  1.00  0.00     0.063 H 
ATOM     53  H   UNL     1     -48.043  27.917  22.660  1.00  0.00     0.066 H 
BRANCH  50  54
ATOM     54  N   UNL     1     -50.469  28.218  23.718  1.00  0.00    -0.356 N 
ATOM     55  C   UNL     1     -50.628  27.284  22.636  1.00  0.00     0.021 C 
ATOM     56  C   UNL     1     -51.866  28.542  23.722  1.00  0.00     0.021 C 
ATOM     57  C   UNL     1     -52.092  27.170  23.076  1.00  0.00    -0.018 C 
ATOM     58  H   UNL     1     -50.473  27.736  21.650  1.00  0.00     0.049 H 
ATOM     59  H   UNL     1     -50.024  26.381  22.749  1.00  0.00     0.049 H 
ATOM     60  H   UNL     1     -52.110  29.400  23.089  1.00  0.00     0.049 H 
ATOM     61  H   UNL     1     -52.284  28.668  24.723  1.00  0.00     0.049 H 
ATOM     62  H   UNL     1     -52.287  26.361  23.789  1.00  0.00     0.030 H 
ATOM     63  H   UNL     1     -52.831  27.133  22.274  1.00  0.00     0.030 H 
ENDBRANCH  50  54
ENDBRANCH  38  39
ENDBRANCH  35  38
ENDBRANCH   5  35
TORSDOF 8
ENDMDL
MODEL 3
REMARK VINA RESULT:     -10.0      2.212     12.476
REMARK SMILES Cn1ccc(-c2cn(-c3cncc(CSc4ccc5ccc(N6CCC6)nc5c4)c3)c3ncnc(N)c23)n1
REMARK SMILES IDX 9 1 10 2 11 3 12 4 13 5 30 6 8 10 6 11 7 12 37 13 31 15
REMARK SMILES IDX 35 16 32 17 34 18 33 19 5 21 2 22 3 23 38 24 4 25 1 28 36 32
REMARK SMILES IDX 14 35 15 38 16 39 17 40 29 41 18 42 28 44 19 46 27 48 20 49
REMARK SMILES IDX 22 50 21 51 23 54 24 55 26 56 25 57
REMARK H PARENT 10 7 12 8 30 9 7 14 33 20 3 26 4 27 1 29 1 30 1 31 36 33 36 34
REMARK H PARENT 14 36 14 37 17 43 29 45 18 47 20 52 21 53 24 58 24 59 26 60
REMARK H PARENT 26 61 25 62 25 63
REMARK Flexibility Score: inf
ROOT
ATOM      1  C   UNL     1     -46.919  32.907  26.165  1.00  0.00     0.066 A 
ATOM      2  C   UNL     1     -46.351  32.679  27.415  1.00  0.00     0.051 A 
ATOM      3  N   UNL     1     -45.952  33.656  28.268  1.00  0.00    -0.262 NA
ATOM      4  C   UNL     1     -46.160  34.931  27.879  1.00  0.00     0.031 A 
ATOM      5  C   UNL     1     -46.707  35.282  26.653  1.00  0.00    -0.017 A 
ATOM      6  C   UNL     1     -47.054  34.242  25.778  1.00  0.00    -0.031 A 
ATOM      7  H   UNL     1     -46.180  31.686  27.817  1.00  0.00     0.086 H 
ATOM      8  H   UNL     1     -45.879  35.684  28.612  1.00  0.00     0.084 H 
ATOM      9  H   UNL     1     -47.498  34.517  24.828  1.00  0.00     0.065 H 
ENDROOT
BRANCH   1  10
ATOM     10  N   UNL     1     -47.396  31.824  25.356  1.00  0.00    -0.299 N 
ATOM     11  C   UNL     1     -48.626  30.052  24.697  1.00  0.00     0.033 A 
ATOM     12  C   UNL     1     -48.373  30.922  25.735  1.00  0.00     0.021 A 
ATOM     13  C   UNL     1     -47.801  30.424  23.607  1.00  0.00     0.071 A 
ATOM     14  H   UNL     1     -48.849  30.955  26.704  1.00  0.00     0.083 H 
ATOM     15  C   UNL     1     -47.009  31.484  24.054  1.00  0.00     0.150 A 
ATOM     16  C   UNL     1     -47.611  30.011  22.276  1.00  0.00     0.137 A 
ATOM     17  N   UNL     1     -46.034  32.069  23.328  1.00  0.00    -0.218 NA
ATOM     18  N   UNL     1     -46.660  30.600  21.531  1.00  0.00    -0.219 NA
ATOM     19  C   UNL     1     -45.926  31.570  22.094  1.00  0.00     0.120 A 
ATOM     20  H   UNL     1     -45.155  32.008  21.467  1.00  0.00     0.106 H 
BRANCH  11  21
ATOM     21  C   UNL     1     -49.588  28.955  24.744  1.00  0.00     0.095 A 
ATOM     22  N   UNL     1     -50.483  27.110  25.243  1.00  0.00    -0.275 N 
ATOM     23  C   UNL     1     -51.310  27.645  24.300  1.00  0.00     0.025 A 
ATOM     24  N   UNL     1     -49.427  27.889  25.535  1.00  0.00    -0.173 NA
ATOM     25  C   UNL     1     -50.743  28.847  23.941  1.00  0.00    -0.016 A 
ATOM     26  H   UNL     1     -52.199  27.136  23.956  1.00  0.00     0.084 H 
ATOM     27  H   UNL     1     -51.109  29.542  23.198  1.00  0.00     0.066 H 
BRANCH  22  28
ATOM     28  C   UNL     1     -50.636  25.841  25.912  1.00  0.00     0.030 C 
ATOM     29  H   UNL     1     -51.700  25.669  26.089  1.00  0.00     0.048 H 
ATOM     30  H   UNL     1     -50.099  25.864  26.865  1.00  0.00     0.048 H 
ATOM     31  H   UNL     1     -50.221  25.061  25.269  1.00  0.00     0.048 H 
ENDBRANCH  22  28
ENDBRANCH  11  21
BRANCH  16  32
ATOM     32  N   UNL     1     -48.366  29.037  21.634  1.00  0.00    -0.383 N 
ATOM     33  H   UNL     1     -47.905  28.613  20.840  1.00  0.00     0.158 HD
ATOM     34  H   UNL     1     -48.748  28.392  22.317  1.00  0.00     0.158 HD
ENDBRANCH  16  32
ENDBRANCH   1  10
BRANCH   5  35
ATOM     35  C   UNL     1     -47.003  36.716  26.310  1.00  0.00     0.025 C 
ATOM     36  H   UNL     1     -46.119  37.174  25.852  1.00  0.00     0.043 H 
ATOM     37  H   UNL     1     -47.800  36.776  25.560  1.00  0.00     0.043 H 
BRANCH  35  38
ATOM     38  S   UNL     1     -47.465  37.724  27.771  1.00  0.00    -0.121 SA
BRANCH  38  39
ATOM     39  C   UNL     1     -46.133  38.912  27.753  1.00  0.00     0.010 A 
ATOM     40  C   UNL     1     -45.121  38.851  28.710  1.00  0.00    -0.048 A 
ATOM     41  C   UNL     1     -46.065  39.871  26.736  1.00  0.00    -0.022 A 
ATOM     42  C   UNL     1     -44.030  39.714  28.618  1.00  0.00    -0.052 A 
ATOM     43  H   UNL     1     -45.165  38.126  29.519  1.00  0.00     0.063 H 
ATOM     44  C   UNL     1     -44.972  40.714  26.600  1.00  0.00     0.074 A 
ATOM     45  H   UNL     1     -46.853  39.929  25.987  1.00  0.00     0.066 H 
ATOM     46  C   UNL     1     -43.942  40.631  27.556  1.00  0.00     0.000 A 
ATOM     47  H   UNL     1     -43.240  39.654  29.362  1.00  0.00     0.063 H 
ATOM     48  N   UNL     1     -44.920  41.556  25.554  1.00  0.00    -0.231 NA
ATOM     49  C   UNL     1     -42.840  41.472  27.396  1.00  0.00    -0.049 A 
ATOM     50  C   UNL     1     -43.838  42.349  25.392  1.00  0.00     0.129 A 
ATOM     51  C   UNL     1     -42.788  42.335  26.304  1.00  0.00    -0.019 A 
ATOM     52  H   UNL     1     -42.015  41.458  28.101  1.00  0.00     0.063 H 
ATOM     53  H   UNL     1     -41.935  42.990  26.174  1.00  0.00     0.066 H 
BRANCH  50  54
ATOM     54  N   UNL     1     -43.801  43.218  24.287  1.00  0.00    -0.356 N 
ATOM     55  C   UNL     1     -42.590  43.705  23.685  1.00  0.00     0.021 C 
ATOM     56  C   UNL     1     -44.439  44.498  24.180  1.00  0.00     0.021 C 
ATOM     57  C   UNL     1     -43.460  44.787  23.036  1.00  0.00    -0.018 C 
ATOM     58  H   UNL     1     -41.862  44.071  24.416  1.00  0.00     0.049 H 
ATOM     59  H   UNL     1     -42.127  42.991  23.000  1.00  0.00     0.049 H 
ATOM     60  H   UNL     1     -44.309  45.118  25.072  1.00  0.00     0.049 H 
ATOM     61  H   UNL     1     -45.493  44.441  23.899  1.00  0.00     0.049 H 
ATOM     62  H   UNL     1     -43.838  44.527  22.041  1.00  0.00     0.030 H 
ATOM     63  H   UNL     1     -43.035  45.792  23.011  1.00  0.00     0.030 H 
ENDBRANCH  50  54
ENDBRANCH  38  39
ENDBRANCH  35  38
ENDBRANCH   5  35
TORSDOF 8
ENDMDL
MODEL 4
REMARK VINA RESULT:      -9.7      1.812      2.863
REMARK SMILES Cn1ccc(-c2cn(-c3cncc(CSc4ccc5ccc(N6CCC6)nc5c4)c3)c3ncnc(N)c23)n1
REMARK SMILES IDX 9 1 10 2 11 3 12 4 13 5 30 6 8 10 6 11 7 12 37 13 31 15
REMARK SMILES IDX 35 16 32 17 34 18 33 19 5 21 2 22 3 23 38 24 4 25 1 28 36 32
REMARK SMILES IDX 14 35 15 38 16 39 17 40 29 41 18 42 28 44 19 46 27 48 20 49
REMARK SMILES IDX 22 50 21 51 23 54 24 55 26 56 25 57
REMARK H PARENT 10 7 12 8 30 9 7 14 33 20 3 26 4 27 1 29 1 30 1 31 36 33 36 34
REMARK H PARENT 14 36 14 37 17 43 29 45 18 47 20 52 21 53 24 58 24 59 26 60
REMARK H PARENT 26 61 25 62 25 63
REMARK Flexibility Score: inf
ROOT
ATOM      1  C   UNL     1     -45.768  38.646  27.746  1.00  0.00     0.066 A 
ATOM      2  C   UNL     1     -45.539  38.460  29.106  1.00  0.00     0.051 A 
ATOM      3  N   UNL     1     -45.566  37.257  29.734  1.00  0.00    -0.262 NA
ATOM      4  C   UNL     1     -45.797  36.171  28.967  1.00  0.00     0.031 A 
ATOM      5  C   UNL     1     -46.050  36.232  27.604  1.00  0.00    -0.017 A 
ATOM      6  C   UNL     1     -46.068  37.500  27.005  1.00  0.00    -0.031 A 
ATOM      7  H   UNL     1     -45.315  39.275  29.787  1.00  0.00     0.086 H 
ATOM      8  H   UNL     1     -45.756  35.222  29.496  1.00  0.00     0.084 H 
ATOM      9  H   UNL     1     -46.247  37.544  25.937  1.00  0.00     0.065 H 
ENDROOT
BRANCH   1  10
ATOM     10  N   UNL     1     -45.637  39.938  27.139  1.00  0.00    -0.299 N 
ATOM     11  C   UNL     1     -44.714  41.683  26.049  1.00  0.00     0.033 A 
ATOM     12  C   UNL     1     -44.470  40.443  26.597  1.00  0.00     0.021 A 
ATOM     13  C   UNL     1     -46.091  41.971  26.223  1.00  0.00     0.071 A 
ATOM     14  H   UNL     1     -43.539  39.895  26.610  1.00  0.00     0.083 H 
ATOM     15  C   UNL     1     -46.629  40.906  26.948  1.00  0.00     0.150 A 
ATOM     16  C   UNL     1     -46.978  43.000  25.857  1.00  0.00     0.137 A 
ATOM     17  N   UNL     1     -47.905  40.845  27.383  1.00  0.00    -0.218 NA
ATOM     18  N   UNL     1     -48.259  42.943  26.262  1.00  0.00    -0.219 NA
ATOM     19  C   UNL     1     -48.641  41.893  27.004  1.00  0.00     0.120 A 
ATOM     20  H   UNL     1     -49.677  41.891  27.327  1.00  0.00     0.106 H 
BRANCH  11  21
ATOM     21  C   UNL     1     -43.710  42.522  25.402  1.00  0.00     0.095 A 
ATOM     22  N   UNL     1     -42.656  43.574  23.906  1.00  0.00    -0.275 N 
ATOM     23  C   UNL     1     -41.891  43.717  25.026  1.00  0.00     0.025 A 
ATOM     24  N   UNL     1     -43.773  42.853  24.108  1.00  0.00    -0.173 NA
ATOM     25  C   UNL     1     -42.546  43.027  26.020  1.00  0.00    -0.016 A 
ATOM     26  H   UNL     1     -40.960  44.267  25.023  1.00  0.00     0.084 H 
ATOM     27  H   UNL     1     -42.223  42.899  27.044  1.00  0.00     0.066 H 
BRANCH  22  28
ATOM     28  C   UNL     1     -42.378  44.098  22.591  1.00  0.00     0.030 C 
ATOM     29  H   UNL     1     -43.290  44.035  21.993  1.00  0.00     0.048 H 
ATOM     30  H   UNL     1     -41.585  43.508  22.124  1.00  0.00     0.048 H 
ATOM     31  H   UNL     1     -42.058  45.137  22.696  1.00  0.00     0.048 H 
ENDBRANCH  22  28
ENDBRANCH  11  21
BRANCH  16  32
ATOM     32  N   UNL     1     -46.642  44.089  25.063  1.00  0.00    -0.383 N 
ATOM     33  H   UNL     1     -45.929  44.687  25.461  1.00  0.00     0.158 HD
ATOM     34  H   UNL     1     -46.479  43.784  24.110  1.00  0.00     0.158 HD
ENDBRANCH  16  32
ENDBRANCH   1  10
BRANCH   5  35
ATOM     35  C   UNL     1     -46.207  34.983  26.780  1.00  0.00     0.025 C 
ATOM     36  H   UNL     1     -45.798  35.151  25.778  1.00  0.00     0.043 H 
ATOM     37  H   UNL     1     -45.627  34.160  27.213  1.00  0.00     0.043 H 
BRANCH  35  38
ATOM     38  S   UNL     1     -47.956  34.462  26.594  1.00  0.00    -0.121 SA
BRANCH  38  39
ATOM     39  C   UNL     1     -47.730  32.986  25.615  1.00  0.00     0.010 A 
ATOM     40  C   UNL     1     -46.818  32.971  24.562  1.00  0.00    -0.048 A 
ATOM     41  C   UNL     1     -48.422  31.816  25.947  1.00  0.00    -0.022 A 
ATOM     42  C   UNL     1     -46.571  31.781  23.878  1.00  0.00    -0.052 A 
ATOM     43  H   UNL     1     -46.283  33.874  24.277  1.00  0.00     0.063 H 
ATOM     44  C   UNL     1     -48.166  30.611  25.308  1.00  0.00     0.074 A 
ATOM     45  H   UNL     1     -49.140  31.819  26.766  1.00  0.00     0.066 H 
ATOM     46  C   UNL     1     -47.226  30.598  24.261  1.00  0.00     0.000 A 
ATOM     47  H   UNL     1     -45.851  31.775  23.064  1.00  0.00     0.063 H 
ATOM     48  N   UNL     1     -48.798  29.501  25.726  1.00  0.00    -0.231 NA
ATOM     49  C   UNL     1     -46.964  29.374  23.641  1.00  0.00    -0.049 A 
ATOM     50  C   UNL     1     -48.520  28.316  25.138  1.00  0.00     0.129 A 
ATOM     51  C   UNL     1     -47.615  28.226  24.085  1.00  0.00    -0.019 A 
ATOM     52  H   UNL     1     -46.252  29.300  22.825  1.00  0.00     0.063 H 
ATOM     53  H   UNL     1     -47.415  27.274  23.608  1.00  0.00     0.066 H 
BRANCH  50  54
ATOM     54  N   UNL     1     -49.188  27.166  25.594  1.00  0.00    -0.356 N 
ATOM     55  C   UNL     1     -48.540  25.911  25.862  1.00  0.00     0.021 C 
ATOM     56  C   UNL     1     -50.310  26.522  24.975  1.00  0.00     0.021 C 
ATOM     57  C   UNL     1     -49.937  25.285  25.800  1.00  0.00    -0.018 C 
ATOM     58  H   UNL     1     -47.855  25.600  25.066  1.00  0.00     0.049 H 
ATOM     59  H   UNL     1     -48.044  25.877  26.835  1.00  0.00     0.049 H 
ATOM     60  H   UNL     1     -50.197  26.411  23.892  1.00  0.00     0.049 H 
ATOM     61  H   UNL     1     -51.270  26.983  25.219  1.00  0.00     0.049 H 
ATOM     62  H   UNL     1     -50.446  25.218  26.768  1.00  0.00     0.030 H 
ATOM     63  H   UNL     1     -50.009  24.325  25.285  1.00  0.00     0.030 H 
ENDBRANCH  50  54
ENDBRANCH  38  39
ENDBRANCH  35  38
ENDBRANCH   5  35
TORSDOF 8
ENDMDL
MODEL 5
REMARK VINA RESULT:      -9.3      2.153     12.722
REMARK SMILES Cn1ccc(-c2cn(-c3cncc(CSc4ccc5ccc(N6CCC6)nc5c4)c3)c3ncnc(N)c23)n1
REMARK SMILES IDX 9 1 10 2 11 3 12 4 13 5 30 6 8 10 6 11 7 12 37 13 31 15
REMARK SMILES IDX 35 16 32 17 34 18 33 19 5 21 2 22 3 23 38 24 4 25 1 28 36 32
REMARK SMILES IDX 14 35 15 38 16 39 17 40 29 41 18 42 28 44 19 46 27 48 20 49
REMARK SMILES IDX 22 50 21 51 23 54 24 55 26 56 25 57
REMARK H PARENT 10 7 12 8 30 9 7 14 33 20 3 26 4 27 1 29 1 30 1 31 36 33 36 34
REMARK H PARENT 14 36 14 37 17 43 29 45 18 47 20 52 21 53 24 58 24 59 26 60
REMARK H PARENT 26 61 25 62 25 63
REMARK Flexibility Score: inf
ROOT
ATOM      1  C   UNL     1     -47.932  32.468  25.249  1.00  0.00     0.066 A 
ATOM      2  C   UNL     1     -46.640  32.829  24.882  1.00  0.00     0.051 A 
ATOM      3  N   UNL     1     -46.037  33.994  25.233  1.00  0.00    -0.262 NA
ATOM      4  C   UNL     1     -46.739  34.833  26.022  1.00  0.00     0.031 A 
ATOM      5  C   UNL     1     -48.038  34.587  26.443  1.00  0.00    -0.017 A 
ATOM      6  C   UNL     1     -48.645  33.397  26.011  1.00  0.00    -0.031 A 
ATOM      7  H   UNL     1     -45.997  32.199  24.277  1.00  0.00     0.086 H 
ATOM      8  H   UNL     1     -46.203  35.728  26.328  1.00  0.00     0.084 H 
ATOM      9  H   UNL     1     -49.653  33.198  26.356  1.00  0.00     0.065 H 
ENDROOT
BRANCH   1  10
ATOM     10  N   UNL     1     -48.470  31.182  24.912  1.00  0.00    -0.299 N 
ATOM     11  C   UNL     1     -49.010  28.999  25.085  1.00  0.00     0.033 A 
ATOM     12  C   UNL     1     -48.319  30.037  25.672  1.00  0.00     0.021 A 
ATOM     13  C   UNL     1     -49.647  29.503  23.924  1.00  0.00     0.071 A 
ATOM     14  H   UNL     1     -47.751  30.021  26.590  1.00  0.00     0.083 H 
ATOM     15  C   UNL     1     -49.254  30.838  23.805  1.00  0.00     0.150 A 
ATOM     16  C   UNL     1     -50.523  29.011  22.939  1.00  0.00     0.137 A 
ATOM     17  N   UNL     1     -49.590  31.645  22.777  1.00  0.00    -0.218 NA
ATOM     18  N   UNL     1     -50.887  29.810  21.921  1.00  0.00    -0.219 NA
ATOM     19  C   UNL     1     -50.396  31.057  21.889  1.00  0.00     0.120 A 
ATOM     20  H   UNL     1     -50.697  31.666  21.041  1.00  0.00     0.106 H 
BRANCH  11  21
ATOM     21  C   UNL     1     -49.063  27.635  25.601  1.00  0.00     0.095 A 
ATOM     22  N   UNL     1     -48.445  25.713  26.218  1.00  0.00    -0.275 N 
ATOM     23  C   UNL     1     -49.806  25.679  26.307  1.00  0.00     0.025 A 
ATOM     24  N   UNL     1     -47.965  26.896  25.794  1.00  0.00    -0.173 NA
ATOM     25  C   UNL     1     -50.241  26.917  25.894  1.00  0.00    -0.016 A 
ATOM     26  H   UNL     1     -50.341  24.797  26.629  1.00  0.00     0.084 H 
ATOM     27  H   UNL     1     -51.267  27.251  25.809  1.00  0.00     0.066 H 
BRANCH  22  28
ATOM     28  C   UNL     1     -47.528  24.641  26.520  1.00  0.00     0.030 C 
ATOM     29  H   UNL     1     -46.736  25.035  27.162  1.00  0.00     0.048 H 
ATOM     30  H   UNL     1     -47.098  24.257  25.591  1.00  0.00     0.048 H 
ATOM     31  H   UNL     1     -48.080  23.850  27.031  1.00  0.00     0.048 H 
ENDBRANCH  22  28
ENDBRANCH  11  21
BRANCH  16  32
ATOM     32  N   UNL     1     -51.087  27.742  22.944  1.00  0.00    -0.383 N 
ATOM     33  H   UNL     1     -50.430  26.997  22.746  1.00  0.00     0.158 HD
ATOM     34  H   UNL     1     -51.653  27.619  23.776  1.00  0.00     0.158 HD
ENDBRANCH  16  32
ENDBRANCH   1  10
BRANCH   5  35
ATOM     35  C   UNL     1     -48.741  35.512  27.399  1.00  0.00     0.025 C 
ATOM     36  H   UNL     1     -49.277  36.283  26.835  1.00  0.00     0.043 H 
ATOM     37  H   UNL     1     -49.500  34.969  27.973  1.00  0.00     0.043 H 
BRANCH  35  38
ATOM     38  S   UNL     1     -47.593  36.356  28.554  1.00  0.00    -0.121 SA
BRANCH  38  39
ATOM     39  C   UNL     1     -47.617  38.000  27.858  1.00  0.00     0.010 A 
ATOM     40  C   UNL     1     -48.779  38.768  27.902  1.00  0.00    -0.048 A 
ATOM     41  C   UNL     1     -46.445  38.548  27.324  1.00  0.00    -0.022 A 
ATOM     42  C   UNL     1     -48.752  40.088  27.456  1.00  0.00    -0.052 A 
ATOM     43  H   UNL     1     -49.704  38.353  28.296  1.00  0.00     0.063 H 
ATOM     44  C   UNL     1     -46.383  39.871  26.910  1.00  0.00     0.074 A 
ATOM     45  H   UNL     1     -45.534  37.955  27.282  1.00  0.00     0.066 H 
ATOM     46  C   UNL     1     -47.554  40.648  26.979  1.00  0.00     0.000 A 
ATOM     47  H   UNL     1     -49.660  40.684  27.502  1.00  0.00     0.063 H 
ATOM     48  N   UNL     1     -45.209  40.370  26.486  1.00  0.00    -0.231 NA
ATOM     49  C   UNL     1     -47.471  41.983  26.577  1.00  0.00    -0.049 A 
ATOM     50  C   UNL     1     -45.131  41.670  26.123  1.00  0.00     0.129 A 
ATOM     51  C   UNL     1     -46.249  42.496  26.149  1.00  0.00    -0.019 A 
ATOM     52  H   UNL     1     -48.341  42.632  26.604  1.00  0.00     0.063 H 
ATOM     53  H   UNL     1     -46.179  43.531  25.836  1.00  0.00     0.066 H 
BRANCH  50  54
ATOM     54  N   UNL     1     -43.892  42.172  25.688  1.00  0.00    -0.356 N 
ATOM     55  C   UNL     1     -42.686  42.128  26.470  1.00  0.00     0.021 C 
ATOM     56  C   UNL     1     -43.618  43.504  25.232  1.00  0.00     0.021 C 
ATOM     57  C   UNL     1     -42.143  43.199  25.518  1.00  0.00    -0.018 C 
ATOM     58  H   UNL     1     -42.830  42.456  27.504  1.00  0.00     0.049 H 
ATOM     59  H   UNL     1     -42.182  41.159  26.436  1.00  0.00     0.049 H 
ATOM     60  H   UNL     1     -44.065  44.275  25.867  1.00  0.00     0.049 H 
ATOM     61  H   UNL     1     -43.873  43.670  24.183  1.00  0.00     0.049 H 
ATOM     62  H   UNL     1     -41.590  42.802  24.659  1.00  0.00     0.030 H 
ATOM     63  H   UNL     1     -41.567  44.003  25.979  1.00  0.00     0.030 H 
ENDBRANCH  50  54
ENDBRANCH  38  39
ENDBRANCH  35  38
ENDBRANCH   5  35
TORSDOF 8
ENDMDL
MODEL 6
REMARK VINA RESULT:      -9.1      1.907      3.177
REMARK SMILES Cn1ccc(-c2cn(-c3cncc(CSc4ccc5ccc(N6CCC6)nc5c4)c3)c3ncnc(N)c23)n1
REMARK SMILES IDX 9 1 10 2 11 3 12 4 13 5 30 6 8 10 6 11 7 12 37 13 31 15
REMARK SMILES IDX 35 16 32 17 34 18 33 19 5 21 2 22 3 23 38 24 4 25 1 28 36 32
REMARK SMILES IDX 14 35 15 38 16 39 17 40 29 41 18 42 28 44 19 46 27 48 20 49
REMARK SMILES IDX 22 50 21 51 23 54 24 55 26 56 25 57
REMARK H PARENT 10 7 12 8 30 9 7 14 33 20 3 26 4 27 1 29 1 30 1 31 36 33 36 34
REMARK H PARENT 14 36 14 37 17 43 29 45 18 47 20 52 21 53 24 58 24 59 26 60
REMARK H PARENT 26 61 25 62 25 63
REMARK Flexibility Score: inf
ROOT
ATOM      1  C   UNL     1     -47.003  40.781  26.910  1.00  0.00     0.066 A 
ATOM      2  C   UNL     1     -48.207  41.336  27.331  1.00  0.00     0.051 A 
ATOM      3  N   UNL     1     -49.211  40.638  27.921  1.00  0.00    -0.262 NA
ATOM      4  C   UNL     1     -48.997  39.324  28.139  1.00  0.00     0.031 A 
ATOM      5  C   UNL     1     -47.843  38.658  27.754  1.00  0.00    -0.017 A 
ATOM      6  C   UNL     1     -46.853  39.405  27.097  1.00  0.00    -0.031 A 
ATOM      7  H   UNL     1     -48.446  42.388  27.223  1.00  0.00     0.086 H 
ATOM      8  H   UNL     1     -49.800  38.811  28.663  1.00  0.00     0.084 H 
ATOM      9  H   UNL     1     -45.944  38.887  26.813  1.00  0.00     0.065 H 
ENDROOT
BRANCH   1  10
ATOM     10  N   UNL     1     -45.954  41.598  26.373  1.00  0.00    -0.299 N 
ATOM     11  C   UNL     1     -44.917  43.170  25.132  1.00  0.00     0.033 A 
ATOM     12  C   UNL     1     -46.113  42.523  25.358  1.00  0.00     0.021 A 
ATOM     13  C   UNL     1     -43.967  42.661  26.051  1.00  0.00     0.071 A 
ATOM     14  H   UNL     1     -47.059  42.687  24.865  1.00  0.00     0.083 H 
ATOM     15  C   UNL     1     -44.613  41.652  26.769  1.00  0.00     0.150 A 
ATOM     16  C   UNL     1     -42.626  42.918  26.390  1.00  0.00     0.137 A 
ATOM     17  N   UNL     1     -44.017  40.869  27.692  1.00  0.00    -0.218 NA
ATOM     18  N   UNL     1     -42.024  42.163  27.325  1.00  0.00    -0.219 NA
ATOM     19  C   UNL     1     -42.737  41.186  27.903  1.00  0.00     0.120 A 
ATOM     20  H   UNL     1     -42.210  40.585  28.639  1.00  0.00     0.106 H 
BRANCH  11  21
ATOM     21  C   UNL     1     -44.704  44.200  24.120  1.00  0.00     0.095 A 
ATOM     22  N   UNL     1     -44.281  45.113  22.265  1.00  0.00    -0.275 N 
ATOM     23  C   UNL     1     -44.397  46.154  23.138  1.00  0.00     0.025 A 
ATOM     24  N   UNL     1     -44.467  43.910  22.836  1.00  0.00    -0.173 NA
ATOM     25  C   UNL     1     -44.659  45.589  24.365  1.00  0.00    -0.016 A 
ATOM     26  H   UNL     1     -44.270  47.183  22.830  1.00  0.00     0.084 H 
ATOM     27  H   UNL     1     -44.790  46.107  25.305  1.00  0.00     0.066 H 
BRANCH  22  28
ATOM     28  C   UNL     1     -43.983  45.191  20.855  1.00  0.00     0.030 C 
ATOM     29  H   UNL     1     -44.922  45.315  20.310  1.00  0.00     0.048 H 
ATOM     30  H   UNL     1     -43.486  44.271  20.536  1.00  0.00     0.048 H 
ATOM     31  H   UNL     1     -43.325  46.047  20.689  1.00  0.00     0.048 H 
ENDBRANCH  22  28
ENDBRANCH  11  21
BRANCH  16  32
ATOM     32  N   UNL     1     -41.855  43.939  25.847  1.00  0.00    -0.383 N 
ATOM     33  H   UNL     1     -41.469  44.575  26.533  1.00  0.00     0.158 HD
ATOM     34  H   UNL     1     -41.193  43.554  25.182  1.00  0.00     0.158 HD
ENDBRANCH  16  32
ENDBRANCH   1  10
BRANCH   5  35
ATOM     35  C   UNL     1     -47.617  37.212  28.106  1.00  0.00     0.025 C 
ATOM     36  H   UNL     1     -46.767  36.824  27.533  1.00  0.00     0.043 H 
ATOM     37  H   UNL     1     -47.345  37.111  29.163  1.00  0.00     0.043 H 
BRANCH  35  38
ATOM     38  S   UNL     1     -49.069  36.151  27.748  1.00  0.00    -0.121 SA
BRANCH  38  39
ATOM     39  C   UNL     1     -48.310  34.956  26.660  1.00  0.00     0.010 A 
ATOM     40  C   UNL     1     -47.035  35.181  26.145  1.00  0.00    -0.048 A 
ATOM     41  C   UNL     1     -48.969  33.755  26.374  1.00  0.00    -0.022 A 
ATOM     42  C   UNL     1     -46.410  34.191  25.388  1.00  0.00    -0.052 A 
ATOM     43  H   UNL     1     -46.514  36.116  26.340  1.00  0.00     0.063 H 
ATOM     44  C   UNL     1     -48.354  32.739  25.656  1.00  0.00     0.074 A 
ATOM     45  H   UNL     1     -49.967  33.572  26.768  1.00  0.00     0.066 H 
ATOM     46  C   UNL     1     -47.056  32.964  25.159  1.00  0.00     0.000 A 
ATOM     47  H   UNL     1     -45.412  34.370  24.998  1.00  0.00     0.063 H 
ATOM     48  N   UNL     1     -49.001  31.574  25.485  1.00  0.00    -0.231 NA
ATOM     49  C   UNL     1     -46.443  31.925  24.456  1.00  0.00    -0.049 A 
ATOM     50  C   UNL     1     -48.390  30.565  24.825  1.00  0.00     0.129 A 
ATOM     51  C   UNL     1     -47.116  30.717  24.291  1.00  0.00    -0.019 A 
ATOM     52  H   UNL     1     -45.445  32.039  24.045  1.00  0.00     0.063 H 
ATOM     53  H   UNL     1     -46.644  29.908  23.747  1.00  0.00     0.066 H 
BRANCH  50  54
ATOM     54  N   UNL     1     -49.083  29.352  24.663  1.00  0.00    -0.356 N 
ATOM     55  C   UNL     1     -48.816  28.163  25.426  1.00  0.00     0.021 C 
ATOM     56  C   UNL     1     -49.239  28.608  23.446  1.00  0.00     0.021 C 
ATOM     57  C   UNL     1     -49.580  27.406  24.334  1.00  0.00    -0.018 C 
ATOM     58  H   UNL     1     -47.749  27.926  25.495  1.00  0.00     0.049 H 
ATOM     59  H   UNL     1     -49.278  28.168  26.416  1.00  0.00     0.049 H 
ATOM     60  H   UNL     1     -48.309  28.517  22.878  1.00  0.00     0.049 H 
ATOM     61  H   UNL     1     -50.048  28.972  22.810  1.00  0.00     0.049 H 
ATOM     62  H   UNL     1     -50.650  27.282  24.535  1.00  0.00     0.030 H 
ATOM     63  H   UNL     1     -49.155  26.448  24.029  1.00  0.00     0.030 H 
ENDBRANCH  50  54
ENDBRANCH  38  39
ENDBRANCH  35  38
ENDBRANCH   5  35
TORSDOF 8
ENDMDL
MODEL 7
REMARK VINA RESULT:      -8.8      5.345     10.283
REMARK SMILES Cn1ccc(-c2cn(-c3cncc(CSc4ccc5ccc(N6CCC6)nc5c4)c3)c3ncnc(N)c23)n1
REMARK SMILES IDX 9 1 10 2 11 3 12 4 13 5 30 6 8 10 6 11 7 12 37 13 31 15
REMARK SMILES IDX 35 16 32 17 34 18 33 19 5 21 2 22 3 23 38 24 4 25 1 28 36 32
REMARK SMILES IDX 14 35 15 38 16 39 17 40 29 41 18 42 28 44 19 46 27 48 20 49
REMARK SMILES IDX 22 50 21 51 23 54 24 55 26 56 25 57
REMARK H PARENT 10 7 12 8 30 9 7 14 33 20 3 26 4 27 1 29 1 30 1 31 36 33 36 34
REMARK H PARENT 14 36 14 37 17 43 29 45 18 47 20 52 21 53 24 58 24 59 26 60
REMARK H PARENT 26 61 25 62 25 63
REMARK Flexibility Score: inf
ROOT
ATOM      1  C   UNL     1     -43.587  42.422  25.480  1.00  0.00     0.066 A 
ATOM      2  C   UNL     1     -42.378  43.109  25.528  1.00  0.00     0.051 A 
ATOM      3  N   UNL     1     -42.015  44.089  24.661  1.00  0.00    -0.262 NA
ATOM      4  C   UNL     1     -42.914  44.434  23.716  1.00  0.00     0.031 A 
ATOM      5  C   UNL     1     -44.145  43.814  23.562  1.00  0.00    -0.017 A 
ATOM      6  C   UNL     1     -44.458  42.768  24.444  1.00  0.00    -0.031 A 
ATOM      7  H   UNL     1     -41.615  42.916  26.274  1.00  0.00     0.086 H 
ATOM      8  H   UNL     1     -42.610  45.260  23.077  1.00  0.00     0.084 H 
ATOM      9  H   UNL     1     -45.428  42.297  24.334  1.00  0.00     0.065 H 
ENDROOT
BRANCH   1  10
ATOM     10  N   UNL     1     -43.936  41.459  26.483  1.00  0.00    -0.299 N 
ATOM     11  C   UNL     1     -44.956  39.712  27.479  1.00  0.00     0.033 A 
ATOM     12  C   UNL     1     -44.930  40.506  26.354  1.00  0.00     0.021 A 
ATOM     13  C   UNL     1     -43.927  40.153  28.348  1.00  0.00     0.071 A 
ATOM     14  H   UNL     1     -45.548  40.429  25.473  1.00  0.00     0.083 H 
ATOM     15  C   UNL     1     -43.347  41.269  27.738  1.00  0.00     0.150 A 
ATOM     16  C   UNL     1     -43.388  39.758  29.585  1.00  0.00     0.137 A 
ATOM     17  N   UNL     1     -42.376  42.025  28.292  1.00  0.00    -0.218 NA
ATOM     18  N   UNL     1     -42.403  40.486  30.140  1.00  0.00    -0.219 NA
ATOM     19  C   UNL     1     -41.970  41.570  29.481  1.00  0.00     0.120 A 
ATOM     20  H   UNL     1     -41.188  42.143  29.970  1.00  0.00     0.106 H 
BRANCH  11  21
ATOM     21  C   UNL     1     -45.888  38.611  27.702  1.00  0.00     0.095 A 
ATOM     22  N   UNL     1     -46.624  36.672  28.097  1.00  0.00    -0.275 N 
ATOM     23  C   UNL     1     -47.737  37.407  27.811  1.00  0.00     0.025 A 
ATOM     24  N   UNL     1     -45.483  37.382  28.041  1.00  0.00    -0.173 NA
ATOM     25  C   UNL     1     -47.287  38.677  27.532  1.00  0.00    -0.016 A 
ATOM     26  H   UNL     1     -48.728  36.977  27.809  1.00  0.00     0.084 H 
ATOM     27  H   UNL     1     -47.886  39.529  27.239  1.00  0.00     0.066 H 
BRANCH  22  28
ATOM     28  C   UNL     1     -46.571  35.269  28.429  1.00  0.00     0.030 C 
ATOM     29  H   UNL     1     -47.566  34.953  28.752  1.00  0.00     0.048 H 
ATOM     30  H   UNL     1     -45.851  35.112  29.236  1.00  0.00     0.048 H 
ATOM     31  H   UNL     1     -46.261  34.716  27.539  1.00  0.00     0.048 H 
ENDBRANCH  22  28
ENDBRANCH  11  21
BRANCH  16  32
ATOM     32  N   UNL     1     -43.776  38.626  30.291  1.00  0.00    -0.383 N 
ATOM     33  H   UNL     1     -43.004  38.070  30.637  1.00  0.00     0.158 HD
ATOM     34  H   UNL     1     -44.482  38.872  30.976  1.00  0.00     0.158 HD
ENDBRANCH  16  32
ENDBRANCH   1  10
BRANCH   5  35
ATOM     35  C   UNL     1     -45.148  44.301  22.551  1.00  0.00     0.025 C 
ATOM     36  H   UNL     1     -44.651  44.453  21.587  1.00  0.00     0.043 H 
ATOM     37  H   UNL     1     -45.922  43.545  22.380  1.00  0.00     0.043 H 
BRANCH  35  38
ATOM     38  S   UNL     1     -45.939  45.885  23.031  1.00  0.00    -0.121 SA
BRANCH  38  39
ATOM     39  C   UNL     1     -47.575  45.296  23.435  1.00  0.00     0.010 A 
ATOM     40  C   UNL     1     -48.603  45.370  22.496  1.00  0.00    -0.048 A 
ATOM     41  C   UNL     1     -47.814  44.696  24.676  1.00  0.00    -0.022 A 
ATOM     42  C   UNL     1     -49.845  44.807  22.785  1.00  0.00    -0.052 A 
ATOM     43  H   UNL     1     -48.442  45.849  21.533  1.00  0.00     0.063 H 
ATOM     44  C   UNL     1     -49.029  44.094  24.973  1.00  0.00     0.074 A 
ATOM     45  H   UNL     1     -47.019  44.638  25.417  1.00  0.00     0.066 H 
ATOM     46  C   UNL     1     -50.055  44.151  24.011  1.00  0.00     0.000 A 
ATOM     47  H   UNL     1     -50.638  44.860  22.044  1.00  0.00     0.063 H 
ATOM     48  N   UNL     1     -49.174  43.458  26.147  1.00  0.00    -0.231 NA
ATOM     49  C   UNL     1     -51.264  43.524  24.316  1.00  0.00    -0.049 A 
ATOM     50  C   UNL     1     -50.340  42.831  26.424  1.00  0.00     0.129 A 
ATOM     51  C   UNL     1     -51.405  42.858  25.531  1.00  0.00    -0.019 A 
ATOM     52  H   UNL     1     -52.094  43.537  23.617  1.00  0.00     0.063 H 
ATOM     53  H   UNL     1     -52.341  42.369  25.772  1.00  0.00     0.066 H 
BRANCH  50  54
ATOM     54  N   UNL     1     -50.468  42.166  27.656  1.00  0.00    -0.356 N 
ATOM     55  C   UNL     1     -49.684  42.471  28.822  1.00  0.00     0.021 C 
ATOM     56  C   UNL     1     -50.367  40.753  27.885  1.00  0.00     0.021 C 
ATOM     57  C   UNL     1     -50.122  41.103  29.357  1.00  0.00    -0.018 C 
ATOM     58  H   UNL     1     -48.614  42.566  28.609  1.00  0.00     0.049 H 
ATOM     59  H   UNL     1     -50.049  43.339  29.376  1.00  0.00     0.049 H 
ATOM     60  H   UNL     1     -49.518  40.296  27.368  1.00  0.00     0.049 H 
ATOM     61  H   UNL     1     -51.289  40.207  27.674  1.00  0.00     0.049 H 
ATOM     62  H   UNL     1     -51.028  41.127  29.972  1.00  0.00     0.030 H 
ATOM     63  H   UNL     1     -49.353  40.520  29.867  1.00  0.00     0.030 H 
ENDBRANCH  50  54
ENDBRANCH  38  39
ENDBRANCH  35  38
ENDBRANCH   5  35
TORSDOF 8
ENDMDL
