MODEL 1
REMARK VINA RESULT:      -9.7      0.000      0.000
REMARK SMILES Nc1ncnc2c1ccn2[C@@H]1C[C@H](CCc2ccc3ccc(NCCO)nc3c2)[C@@H](O)[C@H]1O
REMARK SMILES IDX 16 1 17 2 18 3 19 4 20 5 21 6 22 7 27 8 28 9 29 10 15 16
REMARK SMILES IDX 14 19 13 22 11 23 12 24 32 25 30 29 10 33 2 34 3 35 7 36
REMARK SMILES IDX 4 37 6 38 8 39 5 40 9 42 1 45 33 48 31 50 23 52 24 54 25 57
REMARK SMILES IDX 26 60
REMARK H PARENT 17 11 18 12 20 13 21 14 29 15 15 17 15 18 14 20 14 21 11 26
REMARK H PARENT 12 27 12 28 32 30 13 31 30 32 4 41 8 43 9 44 1 46 1 47 33 49
REMARK H PARENT 31 51 23 53 24 55 24 56 25 58 25 59 26 61
REMARK Flexibility Score: inf
ROOT
ATOM      1  C   UNL     1     -47.043  34.117  26.276  1.00  0.00    -0.046 A 
ATOM      2  C   UNL     1     -48.402  34.188  26.589  1.00  0.00    -0.058 A 
ATOM      3  C   UNL     1     -49.294  33.274  26.032  1.00  0.00    -0.053 A 
ATOM      4  C   UNL     1     -48.833  32.275  25.158  1.00  0.00     0.000 A 
ATOM      5  C   UNL     1     -49.697  31.344  24.578  1.00  0.00    -0.049 A 
ATOM      6  C   UNL     1     -49.186  30.374  23.722  1.00  0.00    -0.019 A 
ATOM      7  C   UNL     1     -47.819  30.343  23.463  1.00  0.00     0.126 A 
ATOM      8  N   UNL     1     -46.979  31.245  24.007  1.00  0.00    -0.231 NA
ATOM      9  C   UNL     1     -47.466  32.185  24.837  1.00  0.00     0.073 A 
ATOM     10  C   UNL     1     -46.597  33.109  25.405  1.00  0.00    -0.033 A 
ATOM     11  H   UNL     1     -48.772  34.953  27.269  1.00  0.00     0.063 H 
ATOM     12  H   UNL     1     -50.350  33.344  26.283  1.00  0.00     0.063 H 
ATOM     13  H   UNL     1     -50.764  31.370  24.781  1.00  0.00     0.063 H 
ATOM     14  H   UNL     1     -49.851  29.658  23.253  1.00  0.00     0.066 H 
ATOM     15  H   UNL     1     -45.540  33.033  25.160  1.00  0.00     0.065 H 
ENDROOT
BRANCH   1  16
ATOM     16  C   UNL     1     -46.060  35.088  26.885  1.00  0.00    -0.027 C 
ATOM     17  H   UNL     1     -46.057  36.002  26.279  1.00  0.00     0.032 H 
ATOM     18  H   UNL     1     -45.051  34.669  26.809  1.00  0.00     0.032 H 
BRANCH  16  19
ATOM     19  C   UNL     1     -46.417  35.407  28.341  1.00  0.00    -0.044 C 
ATOM     20  H   UNL     1     -47.370  34.917  28.584  1.00  0.00     0.027 H 
ATOM     21  H   UNL     1     -45.670  34.958  29.009  1.00  0.00     0.027 H 
BRANCH  19  22
ATOM     22  C   UNL     1     -46.539  36.896  28.689  1.00  0.00    -0.010 C 
ATOM     23  C   UNL     1     -45.614  39.150  28.637  1.00  0.00     0.064 C 
ATOM     24  C   UNL     1     -45.213  37.661  28.724  1.00  0.00    -0.024 C 
ATOM     25  C   UNL     1     -47.084  39.175  28.171  1.00  0.00     0.101 C 
ATOM     26  H   UNL     1     -45.552  39.578  29.648  1.00  0.00     0.056 H 
ATOM     27  H   UNL     1     -44.556  37.369  27.898  1.00  0.00     0.029 H 
ATOM     28  H   UNL     1     -44.666  37.455  29.649  1.00  0.00     0.029 H 
ATOM     29  C   UNL     1     -47.385  37.734  27.730  1.00  0.00     0.085 C 
ATOM     30  H   UNL     1     -47.300  39.897  27.377  1.00  0.00     0.065 H 
ATOM     31  H   UNL     1     -46.990  36.941  29.691  1.00  0.00     0.033 H 
ATOM     32  H   UNL     1     -47.091  37.577  26.690  1.00  0.00     0.063 H 
BRANCH  23  33
ATOM     33  N   UNL     1     -44.717  39.939  27.807  1.00  0.00    -0.327 N 
ATOM     34  C   UNL     1     -41.762  41.824  27.319  1.00  0.00     0.136 A 
ATOM     35  N   UNL     1     -41.188  41.769  28.536  1.00  0.00    -0.219 NA
ATOM     36  C   UNL     1     -42.986  41.174  27.115  1.00  0.00     0.061 A 
ATOM     37  C   UNL     1     -41.817  41.077  29.505  1.00  0.00     0.120 A 
ATOM     38  C   UNL     1     -43.525  40.500  28.203  1.00  0.00     0.145 A 
ATOM     39  C   UNL     1     -43.888  40.998  26.031  1.00  0.00    -0.031 A 
ATOM     40  N   UNL     1     -42.984  40.411  29.430  1.00  0.00    -0.218 NA
ATOM     41  H   UNL     1     -41.317  41.055  30.467  1.00  0.00     0.106 H 
ATOM     42  C   UNL     1     -44.945  40.238  26.485  1.00  0.00     0.007 A 
ATOM     43  H   UNL     1     -43.774  41.383  25.025  1.00  0.00     0.065 H 
ATOM     44  H   UNL     1     -45.831  39.884  25.972  1.00  0.00     0.082 H 
BRANCH  34  45
ATOM     45  N   UNL     1     -41.102  42.548  26.336  1.00  0.00    -0.383 N 
ATOM     46  H   UNL     1     -41.725  42.757  25.566  1.00  0.00     0.158 HD
ATOM     47  H   UNL     1     -40.186  42.198  26.093  1.00  0.00     0.158 HD
ENDBRANCH  34  45
ENDBRANCH  23  33
BRANCH  25  48
ATOM     48  O   UNL     1     -47.929  39.521  29.283  1.00  0.00    -0.388 OA
ATOM     49  H   UNL     1     -48.516  40.237  28.963  1.00  0.00     0.211 HD
ENDBRANCH  25  48
BRANCH  29  50
ATOM     50  O   UNL     1     -48.770  37.438  27.870  1.00  0.00    -0.390 OA
ATOM     51  H   UNL     1     -49.176  37.563  26.994  1.00  0.00     0.211 HD
ENDBRANCH  29  50
ENDBRANCH  19  22
ENDBRANCH  16  19
ENDBRANCH   1  16
BRANCH   7  52
ATOM     52  N   UNL     1     -47.344  29.364  22.574  1.00  0.00    -0.368 N 
ATOM     53  H   UNL     1     -48.095  28.703  22.398  1.00  0.00     0.162 HD
BRANCH  52  54
ATOM     54  C   UNL     1     -46.122  28.667  22.990  1.00  0.00     0.039 C 
ATOM     55  H   UNL     1     -46.263  27.599  22.782  1.00  0.00     0.051 H 
ATOM     56  H   UNL     1     -45.959  28.725  24.073  1.00  0.00     0.051 H 
BRANCH  54  57
ATOM     57  C   UNL     1     -44.887  29.141  22.218  1.00  0.00     0.060 C 
ATOM     58  H   UNL     1     -44.120  28.359  22.206  1.00  0.00     0.058 H 
ATOM     59  H   UNL     1     -45.130  29.400  21.185  1.00  0.00     0.058 H 
BRANCH  57  60
ATOM     60  O   UNL     1     -44.329  30.296  22.849  1.00  0.00    -0.395 OA
ATOM     61  H   UNL     1     -44.652  30.287  23.766  1.00  0.00     0.210 HD
ENDBRANCH  57  60
ENDBRANCH  54  57
ENDBRANCH  52  54
ENDBRANCH   7  52
TORSDOF 11
ENDMDL
MODEL 2
REMARK VINA RESULT:      -9.3      2.401     10.501
REMARK SMILES Nc1ncnc2c1ccn2[C@@H]1C[C@H](CCc2ccc3ccc(NCCO)nc3c2)[C@@H](O)[C@H]1O
REMARK SMILES IDX 16 1 17 2 18 3 19 4 20 5 21 6 22 7 27 8 28 9 29 10 15 16
REMARK SMILES IDX 14 19 13 22 11 23 12 24 32 25 30 29 10 33 2 34 3 35 7 36
REMARK SMILES IDX 4 37 6 38 8 39 5 40 9 42 1 45 33 48 31 50 23 52 24 54 25 57
REMARK SMILES IDX 26 60
REMARK H PARENT 17 11 18 12 20 13 21 14 29 15 15 17 15 18 14 20 14 21 11 26
REMARK H PARENT 12 27 12 28 32 30 13 31 30 32 4 41 8 43 9 44 1 46 1 47 33 49
REMARK H PARENT 31 51 23 53 24 55 24 56 25 58 25 59 26 61
REMARK Flexibility Score: inf
ROOT
ATOM      1  C   UNL     1     -46.171  38.039  28.542  1.00  0.00    -0.046 A 
ATOM      2  C   UNL     1     -45.597  37.485  29.688  1.00  0.00    -0.058 A 
ATOM      3  C   UNL     1     -44.437  38.040  30.224  1.00  0.00    -0.053 A 
ATOM      4  C   UNL     1     -43.841  39.161  29.620  1.00  0.00     0.000 A 
ATOM      5  C   UNL     1     -42.678  39.742  30.126  1.00  0.00    -0.049 A 
ATOM      6  C   UNL     1     -42.132  40.852  29.489  1.00  0.00    -0.019 A 
ATOM      7  C   UNL     1     -42.762  41.371  28.362  1.00  0.00     0.126 A 
ATOM      8  N   UNL     1     -43.877  40.809  27.857  1.00  0.00    -0.231 NA
ATOM      9  C   UNL     1     -44.411  39.736  28.468  1.00  0.00     0.073 A 
ATOM     10  C   UNL     1     -45.567  39.162  27.953  1.00  0.00    -0.033 A 
ATOM     11  H   UNL     1     -46.051  36.621  30.169  1.00  0.00     0.063 H 
ATOM     12  H   UNL     1     -44.000  37.596  31.115  1.00  0.00     0.063 H 
ATOM     13  H   UNL     1     -42.188  39.337  31.007  1.00  0.00     0.063 H 
ATOM     14  H   UNL     1     -41.220  41.300  29.865  1.00  0.00     0.066 H 
ATOM     15  H   UNL     1     -46.008  39.613  27.066  1.00  0.00     0.065 H 
ENDROOT
BRANCH   1  16
ATOM     16  C   UNL     1     -47.438  37.461  27.958  1.00  0.00    -0.027 C 
ATOM     17  H   UNL     1     -48.103  38.289  27.686  1.00  0.00     0.032 H 
ATOM     18  H   UNL     1     -47.962  36.892  28.733  1.00  0.00     0.032 H 
BRANCH  16  19
ATOM     19  C   UNL     1     -47.141  36.585  26.736  1.00  0.00    -0.044 C 
ATOM     20  H   UNL     1     -47.915  36.767  25.977  1.00  0.00     0.027 H 
ATOM     21  H   UNL     1     -46.194  36.899  26.280  1.00  0.00     0.027 H 
BRANCH  19  22
ATOM     22  C   UNL     1     -47.071  35.075  26.997  1.00  0.00    -0.010 C 
ATOM     23  C   UNL     1     -47.346  32.788  26.200  1.00  0.00     0.064 C 
ATOM     24  C   UNL     1     -47.913  34.216  26.049  1.00  0.00    -0.024 C 
ATOM     25  C   UNL     1     -45.983  32.938  26.908  1.00  0.00     0.101 C 
ATOM     26  H   UNL     1     -48.025  32.219  26.850  1.00  0.00     0.056 H 
ATOM     27  H   UNL     1     -47.847  34.571  25.015  1.00  0.00     0.029 H 
ATOM     28  H   UNL     1     -48.972  34.249  26.325  1.00  0.00     0.029 H 
ATOM     29  C   UNL     1     -45.683  34.444  26.877  1.00  0.00     0.085 C 
ATOM     30  H   UNL     1     -45.171  32.353  26.466  1.00  0.00     0.065 H 
ATOM     31  H   UNL     1     -47.442  34.923  28.021  1.00  0.00     0.033 H 
ATOM     32  H   UNL     1     -45.193  34.723  25.943  1.00  0.00     0.063 H 
BRANCH  23  33
ATOM     33  N   UNL     1     -47.281  32.059  24.943  1.00  0.00    -0.327 N 
ATOM     34  C   UNL     1     -48.790  30.255  22.298  1.00  0.00     0.136 A 
ATOM     35  N   UNL     1     -50.087  30.258  22.659  1.00  0.00    -0.219 NA
ATOM     36  C   UNL     1     -47.854  30.892  23.123  1.00  0.00     0.061 A 
ATOM     37  C   UNL     1     -50.428  30.888  23.799  1.00  0.00     0.120 A 
ATOM     38  C   UNL     1     -48.344  31.500  24.272  1.00  0.00     0.145 A 
ATOM     39  C   UNL     1     -46.449  31.107  23.108  1.00  0.00    -0.031 A 
ATOM     40  N   UNL     1     -49.628  31.535  24.666  1.00  0.00    -0.218 NA
ATOM     41  H   UNL     1     -51.485  30.870  24.048  1.00  0.00     0.106 H 
ATOM     42  C   UNL     1     -46.123  31.824  24.240  1.00  0.00     0.007 A 
ATOM     43  H   UNL     1     -45.752  30.777  22.348  1.00  0.00     0.065 H 
ATOM     44  H   UNL     1     -45.167  32.188  24.594  1.00  0.00     0.082 H 
BRANCH  34  45
ATOM     45  N   UNL     1     -48.457  29.595  21.124  1.00  0.00    -0.383 N 
ATOM     46  H   UNL     1     -49.201  28.966  20.843  1.00  0.00     0.158 HD
ATOM     47  H   UNL     1     -47.518  29.222  21.097  1.00  0.00     0.158 HD
ENDBRANCH  34  45
ENDBRANCH  23  33
BRANCH  25  48
ATOM     48  O   UNL     1     -46.108  32.503  28.274  1.00  0.00    -0.388 OA
ATOM     49  H   UNL     1     -46.810  31.819  28.275  1.00  0.00     0.211 HD
ENDBRANCH  25  48
BRANCH  29  50
ATOM     50  O   UNL     1     -44.851  34.819  27.969  1.00  0.00    -0.390 OA
ATOM     51  H   UNL     1     -45.126  34.281  28.733  1.00  0.00     0.211 HD
ENDBRANCH  29  50
ENDBRANCH  19  22
ENDBRANCH  16  19
ENDBRANCH   1  16
BRANCH   7  52
ATOM     52  N   UNL     1     -42.168  42.478  27.732  1.00  0.00    -0.368 N 
ATOM     53  H   UNL     1     -41.974  43.180  28.440  1.00  0.00     0.162 HD
BRANCH  52  54
ATOM     54  C   UNL     1     -42.924  43.056  26.617  1.00  0.00     0.039 C 
ATOM     55  H   UNL     1     -43.402  43.974  26.981  1.00  0.00     0.051 H 
ATOM     56  H   UNL     1     -43.754  42.412  26.299  1.00  0.00     0.051 H 
BRANCH  54  57
ATOM     57  C   UNL     1     -42.028  43.427  25.432  1.00  0.00     0.060 C 
ATOM     58  H   UNL     1     -41.509  44.373  25.624  1.00  0.00     0.058 H 
ATOM     59  H   UNL     1     -41.276  42.658  25.236  1.00  0.00     0.058 H 
BRANCH  57  60
ATOM     60  O   UNL     1     -42.818  43.589  24.252  1.00  0.00    -0.395 OA
ATOM     61  H   UNL     1     -43.746  43.557  24.541  1.00  0.00     0.210 HD
ENDBRANCH  57  60
ENDBRANCH  54  57
ENDBRANCH  52  54
ENDBRANCH   7  52
TORSDOF 11
ENDMDL
MODEL 3
REMARK VINA RESULT:      -9.1      2.353      3.164
REMARK SMILES Nc1ncnc2c1ccn2[C@@H]1C[C@H](CCc2ccc3ccc(NCCO)nc3c2)[C@@H](O)[C@H]1O
REMARK SMILES IDX 16 1 17 2 18 3 19 4 20 5 21 6 22 7 27 8 28 9 29 10 15 16
REMARK SMILES IDX 14 19 13 22 11 23 12 24 32 25 30 29 10 33 2 34 3 35 7 36
REMARK SMILES IDX 4 37 6 38 8 39 5 40 9 42 1 45 33 48 31 50 23 52 24 54 25 57
REMARK SMILES IDX 26 60
REMARK H PARENT 17 11 18 12 20 13 21 14 29 15 15 17 15 18 14 20 14 21 11 26
REMARK H PARENT 12 27 12 28 32 30 13 31 30 32 4 41 8 43 9 44 1 46 1 47 33 49
REMARK H PARENT 31 51 23 53 24 55 24 56 25 58 25 59 26 61
REMARK Flexibility Score: inf
ROOT
ATOM      1  C   UNL     1     -46.787  32.341  24.692  1.00  0.00    -0.046 A 
ATOM      2  C   UNL     1     -46.296  32.020  23.425  1.00  0.00    -0.058 A 
ATOM      3  C   UNL     1     -46.643  30.808  22.830  1.00  0.00    -0.053 A 
ATOM      4  C   UNL     1     -47.492  29.908  23.496  1.00  0.00     0.000 A 
ATOM      5  C   UNL     1     -47.859  28.685  22.933  1.00  0.00    -0.049 A 
ATOM      6  C   UNL     1     -48.704  27.832  23.636  1.00  0.00    -0.019 A 
ATOM      7  C   UNL     1     -49.177  28.217  24.887  1.00  0.00     0.126 A 
ATOM      8  N   UNL     1     -48.818  29.389  25.445  1.00  0.00    -0.231 NA
ATOM      9  C   UNL     1     -48.001  30.219  24.771  1.00  0.00     0.073 A 
ATOM     10  C   UNL     1     -47.639  31.433  25.342  1.00  0.00    -0.033 A 
ATOM     11  H   UNL     1     -45.643  32.710  22.895  1.00  0.00     0.063 H 
ATOM     12  H   UNL     1     -46.251  30.571  21.844  1.00  0.00     0.063 H 
ATOM     13  H   UNL     1     -47.490  28.385  21.956  1.00  0.00     0.063 H 
ATOM     14  H   UNL     1     -48.982  26.873  23.215  1.00  0.00     0.066 H 
ATOM     15  H   UNL     1     -48.039  31.673  26.325  1.00  0.00     0.065 H 
ENDROOT
BRANCH   1  16
ATOM     16  C   UNL     1     -46.435  33.657  25.344  1.00  0.00    -0.027 C 
ATOM     17  H   UNL     1     -47.172  34.406  25.032  1.00  0.00     0.032 H 
ATOM     18  H   UNL     1     -45.470  34.000  24.957  1.00  0.00     0.032 H 
BRANCH  16  19
ATOM     19  C   UNL     1     -46.405  33.533  26.872  1.00  0.00    -0.044 C 
ATOM     20  H   UNL     1     -47.014  32.668  27.166  1.00  0.00     0.027 H 
ATOM     21  H   UNL     1     -45.383  33.307  27.202  1.00  0.00     0.027 H 
BRANCH  19  22
ATOM     22  C   UNL     1     -46.902  34.757  27.651  1.00  0.00    -0.010 C 
ATOM     23  C   UNL     1     -46.600  37.076  28.340  1.00  0.00     0.064 C 
ATOM     24  C   UNL     1     -45.821  35.790  27.988  1.00  0.00    -0.024 C 
ATOM     25  C   UNL     1     -48.040  36.863  27.828  1.00  0.00     0.101 C 
ATOM     26  H   UNL     1     -46.622  37.172  29.434  1.00  0.00     0.056 H 
ATOM     27  H   UNL     1     -45.137  35.947  27.148  1.00  0.00     0.029 H 
ATOM     28  H   UNL     1     -45.211  35.457  28.834  1.00  0.00     0.029 H 
ATOM     29  C   UNL     1     -47.967  35.603  26.952  1.00  0.00     0.085 C 
ATOM     30  H   UNL     1     -48.462  37.713  27.282  1.00  0.00     0.065 H 
ATOM     31  H   UNL     1     -47.318  34.373  28.594  1.00  0.00     0.033 H 
ATOM     32  H   UNL     1     -47.674  35.856  25.931  1.00  0.00     0.063 H 
BRANCH  23  33
ATOM     33  N   UNL     1     -45.968  38.286  27.839  1.00  0.00    -0.327 N 
ATOM     34  C   UNL     1     -43.565  40.875  28.060  1.00  0.00     0.136 A 
ATOM     35  N   UNL     1     -42.913  40.558  29.194  1.00  0.00    -0.219 NA
ATOM     36  C   UNL     1     -44.618  40.057  27.631  1.00  0.00     0.061 A 
ATOM     37  C   UNL     1     -43.298  39.454  29.862  1.00  0.00     0.120 A 
ATOM     38  C   UNL     1     -44.913  38.952  28.418  1.00  0.00     0.145 A 
ATOM     39  C   UNL     1     -45.528  40.041  26.538  1.00  0.00    -0.031 A 
ATOM     40  N   UNL     1     -44.283  38.593  29.550  1.00  0.00    -0.218 NA
ATOM     41  H   UNL     1     -42.742  39.234  30.767  1.00  0.00     0.106 H 
ATOM     42  C   UNL     1     -46.348  38.944  26.693  1.00  0.00     0.007 A 
ATOM     43  H   UNL     1     -45.573  40.753  25.725  1.00  0.00     0.065 H 
ATOM     44  H   UNL     1     -47.162  38.579  26.079  1.00  0.00     0.082 H 
BRANCH  34  45
ATOM     45  N   UNL     1     -43.158  42.020  27.390  1.00  0.00    -0.383 N 
ATOM     46  H   UNL     1     -43.444  41.988  26.419  1.00  0.00     0.158 HD
ATOM     47  H   UNL     1     -42.203  42.301  27.569  1.00  0.00     0.158 HD
ENDBRANCH  34  45
ENDBRANCH  23  33
BRANCH  25  48
ATOM     48  O   UNL     1     -48.911  36.618  28.947  1.00  0.00    -0.388 OA
ATOM     49  H   UNL     1     -49.427  35.818  28.715  1.00  0.00     0.211 HD
ENDBRANCH  25  48
BRANCH  29  50
ATOM     50  O   UNL     1     -49.221  34.931  26.922  1.00  0.00    -0.390 OA
ATOM     51  H   UNL     1     -49.814  35.463  26.363  1.00  0.00     0.211 HD
ENDBRANCH  29  50
ENDBRANCH  19  22
ENDBRANCH  16  19
ENDBRANCH   1  16
BRANCH   7  52
ATOM     52  N   UNL     1     -50.009  27.319  25.577  1.00  0.00    -0.368 N 
ATOM     53  H   UNL     1     -50.522  27.839  26.283  1.00  0.00     0.162 HD
BRANCH  52  54
ATOM     54  C   UNL     1     -49.338  26.158  26.169  1.00  0.00     0.039 C 
ATOM     55  H   UNL     1     -49.245  25.393  25.386  1.00  0.00     0.051 H 
ATOM     56  H   UNL     1     -49.940  25.685  26.955  1.00  0.00     0.051 H 
BRANCH  54  57
ATOM     57  C   UNL     1     -47.931  26.489  26.674  1.00  0.00     0.060 C 
ATOM     58  H   UNL     1     -47.491  25.623  27.180  1.00  0.00     0.058 H 
ATOM     59  H   UNL     1     -47.266  26.784  25.858  1.00  0.00     0.058 H 
BRANCH  57  60
ATOM     60  O   UNL     1     -47.989  27.565  27.613  1.00  0.00    -0.395 OA
ATOM     61  H   UNL     1     -47.107  27.974  27.611  1.00  0.00     0.210 HD
ENDBRANCH  57  60
ENDBRANCH  54  57
ENDBRANCH  52  54
ENDBRANCH   7  52
TORSDOF 11
ENDMDL
MODEL 4
REMARK VINA RESULT:      -9.1      1.961      2.544
REMARK SMILES Nc1ncnc2c1ccn2[C@@H]1C[C@H](CCc2ccc3ccc(NCCO)nc3c2)[C@@H](O)[C@H]1O
REMARK SMILES IDX 16 1 17 2 18 3 19 4 20 5 21 6 22 7 27 8 28 9 29 10 15 16
REMARK SMILES IDX 14 19 13 22 11 23 12 24 32 25 30 29 10 33 2 34 3 35 7 36
REMARK SMILES IDX 4 37 6 38 8 39 5 40 9 42 1 45 33 48 31 50 23 52 24 54 25 57
REMARK SMILES IDX 26 60
REMARK H PARENT 17 11 18 12 20 13 21 14 29 15 15 17 15 18 14 20 14 21 11 26
REMARK H PARENT 12 27 12 28 32 30 13 31 30 32 4 41 8 43 9 44 1 46 1 47 33 49
REMARK H PARENT 31 51 23 53 24 55 24 56 25 58 25 59 26 61
REMARK Flexibility Score: inf
ROOT
ATOM      1  C   UNL     1     -47.669  32.999  25.752  1.00  0.00    -0.046 A 
ATOM      2  C   UNL     1     -46.544  33.238  24.960  1.00  0.00    -0.058 A 
ATOM      3  C   UNL     1     -46.087  32.254  24.085  1.00  0.00    -0.053 A 
ATOM      4  C   UNL     1     -46.755  31.022  23.990  1.00  0.00     0.000 A 
ATOM      5  C   UNL     1     -46.325  30.012  23.128  1.00  0.00    -0.049 A 
ATOM      6  C   UNL     1     -47.026  28.812  23.073  1.00  0.00    -0.019 A 
ATOM      7  C   UNL     1     -48.151  28.640  23.874  1.00  0.00     0.126 A 
ATOM      8  N   UNL     1     -48.566  29.603  24.720  1.00  0.00    -0.231 NA
ATOM      9  C   UNL     1     -47.894  30.767  24.777  1.00  0.00     0.073 A 
ATOM     10  C   UNL     1     -48.328  31.764  25.643  1.00  0.00    -0.033 A 
ATOM     11  H   UNL     1     -46.020  34.190  25.018  1.00  0.00     0.063 H 
ATOM     12  H   UNL     1     -45.209  32.455  23.476  1.00  0.00     0.063 H 
ATOM     13  H   UNL     1     -45.447  30.148  22.502  1.00  0.00     0.063 H 
ATOM     14  H   UNL     1     -46.690  28.016  22.419  1.00  0.00     0.066 H 
ATOM     15  H   UNL     1     -49.212  31.566  26.246  1.00  0.00     0.065 H 
ENDROOT
BRANCH   1  16
ATOM     16  C   UNL     1     -48.188  34.060  26.694  1.00  0.00    -0.027 C 
ATOM     17  H   UNL     1     -47.948  33.759  27.720  1.00  0.00     0.032 H 
ATOM     18  H   UNL     1     -49.281  34.087  26.632  1.00  0.00     0.032 H 
BRANCH  16  19
ATOM     19  C   UNL     1     -47.582  35.432  26.378  1.00  0.00    -0.044 C 
ATOM     20  H   UNL     1     -46.820  35.309  25.596  1.00  0.00     0.027 H 
ATOM     21  H   UNL     1     -48.353  36.083  25.946  1.00  0.00     0.027 H 
BRANCH  19  22
ATOM     22  C   UNL     1     -46.941  36.168  27.561  1.00  0.00    -0.010 C 
ATOM     23  C   UNL     1     -45.423  37.880  28.399  1.00  0.00     0.064 C 
ATOM     24  C   UNL     1     -45.623  36.878  27.241  1.00  0.00    -0.024 C 
ATOM     25  C   UNL     1     -46.785  37.989  29.116  1.00  0.00     0.101 C 
ATOM     26  H   UNL     1     -44.687  37.453  29.095  1.00  0.00     0.056 H 
ATOM     27  H   UNL     1     -45.661  37.383  26.271  1.00  0.00     0.029 H 
ATOM     28  H   UNL     1     -44.794  36.164  27.193  1.00  0.00     0.029 H 
ATOM     29  C   UNL     1     -47.781  37.284  28.184  1.00  0.00     0.085 C 
ATOM     30  H   UNL     1     -47.099  39.011  29.348  1.00  0.00     0.065 H 
ATOM     31  H   UNL     1     -46.744  35.404  28.328  1.00  0.00     0.033 H 
ATOM     32  H   UNL     1     -48.160  37.974  27.426  1.00  0.00     0.063 H 
BRANCH  23  33
ATOM     33  N   UNL     1     -44.878  39.158  27.967  1.00  0.00    -0.327 N 
ATOM     34  C   UNL     1     -42.681  41.906  28.346  1.00  0.00     0.136 A 
ATOM     35  N   UNL     1     -42.018  41.583  29.473  1.00  0.00    -0.219 NA
ATOM     36  C   UNL     1     -43.665  41.033  27.863  1.00  0.00     0.061 A 
ATOM     37  C   UNL     1     -42.326  40.422  30.081  1.00  0.00     0.120 A 
ATOM     38  C   UNL     1     -43.883  39.871  28.592  1.00  0.00     0.145 A 
ATOM     39  C   UNL     1     -44.559  41.003  26.758  1.00  0.00    -0.031 A 
ATOM     40  N   UNL     1     -43.240  39.505  29.714  1.00  0.00    -0.218 NA
ATOM     41  H   UNL     1     -41.764  40.200  30.982  1.00  0.00     0.106 H 
ATOM     42  C   UNL     1     -45.296  39.841  26.849  1.00  0.00     0.007 A 
ATOM     43  H   UNL     1     -44.650  41.749  25.980  1.00  0.00     0.065 H 
ATOM     44  H   UNL     1     -46.073  39.446  26.206  1.00  0.00     0.082 H 
BRANCH  34  45
ATOM     45  N   UNL     1     -42.355  43.110  27.738  1.00  0.00    -0.383 N 
ATOM     46  H   UNL     1     -41.446  43.052  27.294  1.00  0.00     0.158 HD
ATOM     47  H   UNL     1     -42.531  43.931  28.300  1.00  0.00     0.158 HD
ENDBRANCH  34  45
ENDBRANCH  23  33
BRANCH  25  48
ATOM     48  O   UNL     1     -46.720  37.284  30.369  1.00  0.00    -0.388 OA
ATOM     49  H   UNL     1     -46.289  37.897  31.000  1.00  0.00     0.211 HD
ENDBRANCH  25  48
BRANCH  29  50
ATOM     50  O   UNL     1     -48.878  36.754  28.919  1.00  0.00    -0.390 OA
ATOM     51  H   UNL     1     -48.982  35.826  28.643  1.00  0.00     0.211 HD
ENDBRANCH  29  50
ENDBRANCH  19  22
ENDBRANCH  16  19
ENDBRANCH   1  16
BRANCH   7  52
ATOM     52  N   UNL     1     -48.818  27.406  23.809  1.00  0.00    -0.368 N 
ATOM     53  H   UNL     1     -48.195  26.729  23.377  1.00  0.00     0.162 HD
BRANCH  52  54
ATOM     54  C   UNL     1     -50.119  27.421  23.133  1.00  0.00     0.039 C 
ATOM     55  H   UNL     1     -50.730  28.201  23.606  1.00  0.00     0.051 H 
ATOM     56  H   UNL     1     -50.680  26.491  23.289  1.00  0.00     0.051 H 
BRANCH  54  57
ATOM     57  C   UNL     1     -50.001  27.753  21.643  1.00  0.00     0.060 C 
ATOM     58  H   UNL     1     -50.930  28.202  21.275  1.00  0.00     0.058 H 
ATOM     59  H   UNL     1     -49.182  28.449  21.447  1.00  0.00     0.058 H 
BRANCH  57  60
ATOM     60  O   UNL     1     -49.761  26.560  20.893  1.00  0.00    -0.395 OA
ATOM     61  H   UNL     1     -50.619  26.108  20.821  1.00  0.00     0.210 HD
ENDBRANCH  57  60
ENDBRANCH  54  57
ENDBRANCH  52  54
ENDBRANCH   7  52
TORSDOF 11
ENDMDL
MODEL 5
REMARK VINA RESULT:      -8.9      2.742      3.831
REMARK SMILES Nc1ncnc2c1ccn2[C@@H]1C[C@H](CCc2ccc3ccc(NCCO)nc3c2)[C@@H](O)[C@H]1O
REMARK SMILES IDX 16 1 17 2 18 3 19 4 20 5 21 6 22 7 27 8 28 9 29 10 15 16
REMARK SMILES IDX 14 19 13 22 11 23 12 24 32 25 30 29 10 33 2 34 3 35 7 36
REMARK SMILES IDX 4 37 6 38 8 39 5 40 9 42 1 45 33 48 31 50 23 52 24 54 25 57
REMARK SMILES IDX 26 60
REMARK H PARENT 17 11 18 12 20 13 21 14 29 15 15 17 15 18 14 20 14 21 11 26
REMARK H PARENT 12 27 12 28 32 30 13 31 30 32 4 41 8 43 9 44 1 46 1 47 33 49
REMARK H PARENT 31 51 23 53 24 55 24 56 25 58 25 59 26 61
REMARK Flexibility Score: inf
ROOT
ATOM      1  C   UNL     1     -47.475  33.247  25.702  1.00  0.00    -0.046 A 
ATOM      2  C   UNL     1     -46.438  33.259  24.767  1.00  0.00    -0.058 A 
ATOM      3  C   UNL     1     -46.187  32.129  23.991  1.00  0.00    -0.053 A 
ATOM      4  C   UNL     1     -46.977  30.976  24.139  1.00  0.00     0.000 A 
ATOM      5  C   UNL     1     -46.754  29.826  23.381  1.00  0.00    -0.049 A 
ATOM      6  C   UNL     1     -47.568  28.713  23.568  1.00  0.00    -0.019 A 
ATOM      7  C   UNL     1     -48.598  28.769  24.502  1.00  0.00     0.126 A 
ATOM      8  N   UNL     1     -48.812  29.870  25.248  1.00  0.00    -0.231 NA
ATOM      9  C   UNL     1     -48.030  30.949  25.073  1.00  0.00     0.073 A 
ATOM     10  C   UNL     1     -48.258  32.089  25.835  1.00  0.00    -0.033 A 
ATOM     11  H   UNL     1     -45.822  34.147  24.637  1.00  0.00     0.063 H 
ATOM     12  H   UNL     1     -45.375  32.153  23.268  1.00  0.00     0.063 H 
ATOM     13  H   UNL     1     -45.950  29.783  22.651  1.00  0.00     0.063 H 
ATOM     14  H   UNL     1     -47.392  27.809  22.997  1.00  0.00     0.066 H 
ATOM     15  H   UNL     1     -49.077  32.067  26.552  1.00  0.00     0.065 H 
ENDROOT
BRANCH   1  16
ATOM     16  C   UNL     1     -47.771  34.468  26.540  1.00  0.00    -0.027 C 
ATOM     17  H   UNL     1     -48.841  34.473  26.777  1.00  0.00     0.032 H 
ATOM     18  H   UNL     1     -47.588  35.365  25.940  1.00  0.00     0.032 H 
BRANCH  16  19
ATOM     19  C   UNL     1     -46.934  34.482  27.824  1.00  0.00    -0.044 C 
ATOM     20  H   UNL     1     -47.584  34.221  28.670  1.00  0.00     0.027 H 
ATOM     21  H   UNL     1     -46.173  33.692  27.775  1.00  0.00     0.027 H 
BRANCH  19  22
ATOM     22  C   UNL     1     -46.231  35.806  28.149  1.00  0.00    -0.010 C 
ATOM     23  C   UNL     1     -46.074  38.224  27.884  1.00  0.00     0.064 C 
ATOM     24  C   UNL     1     -46.478  36.932  27.140  1.00  0.00    -0.024 C 
ATOM     25  C   UNL     1     -45.988  37.853  29.379  1.00  0.00     0.101 C 
ATOM     26  H   UNL     1     -45.077  38.522  27.532  1.00  0.00     0.056 H 
ATOM     27  H   UNL     1     -47.522  36.961  26.814  1.00  0.00     0.029 H 
ATOM     28  H   UNL     1     -45.870  36.792  26.240  1.00  0.00     0.029 H 
ATOM     29  C   UNL     1     -46.619  36.456  29.478  1.00  0.00     0.085 C 
ATOM     30  H   UNL     1     -46.469  38.565  30.056  1.00  0.00     0.065 H 
ATOM     31  H   UNL     1     -45.153  35.586  28.164  1.00  0.00     0.033 H 
ATOM     32  H   UNL     1     -47.703  36.527  29.590  1.00  0.00     0.063 H 
BRANCH  23  33
ATOM     33  N   UNL     1     -46.955  39.347  27.604  1.00  0.00    -0.327 N 
ATOM     34  C   UNL     1     -47.576  42.583  26.311  1.00  0.00     0.136 A 
ATOM     35  N   UNL     1     -46.364  42.936  25.843  1.00  0.00    -0.219 NA
ATOM     36  C   UNL     1     -47.731  41.328  26.915  1.00  0.00     0.061 A 
ATOM     37  C   UNL     1     -45.353  42.055  25.966  1.00  0.00     0.120 A 
ATOM     38  C   UNL     1     -46.603  40.521  26.979  1.00  0.00     0.145 A 
ATOM     39  C   UNL     1     -48.795  40.601  27.516  1.00  0.00    -0.031 A 
ATOM     40  N   UNL     1     -45.379  40.828  26.517  1.00  0.00    -0.218 NA
ATOM     41  H   UNL     1     -44.396  42.380  25.571  1.00  0.00     0.106 H 
ATOM     42  C   UNL     1     -48.289  39.389  27.935  1.00  0.00     0.007 A 
ATOM     43  H   UNL     1     -49.821  40.929  27.627  1.00  0.00     0.065 H 
ATOM     44  H   UNL     1     -48.772  38.556  28.431  1.00  0.00     0.082 H 
BRANCH  34  45
ATOM     45  N   UNL     1     -48.603  43.506  26.181  1.00  0.00    -0.383 N 
ATOM     46  H   UNL     1     -49.456  43.053  25.875  1.00  0.00     0.158 HD
ATOM     47  H   UNL     1     -48.350  44.359  25.702  1.00  0.00     0.158 HD
ENDBRANCH  34  45
ENDBRANCH  23  33
BRANCH  25  48
ATOM     48  O   UNL     1     -44.605  37.781  29.771  1.00  0.00    -0.388 OA
ATOM     49  H   UNL     1     -44.393  36.827  29.836  1.00  0.00     0.211 HD
ENDBRANCH  25  48
BRANCH  29  50
ATOM     50  O   UNL     1     -46.085  35.733  30.581  1.00  0.00    -0.390 OA
ATOM     51  H   UNL     1     -45.166  36.035  30.699  1.00  0.00     0.211 HD
ENDBRANCH  29  50
ENDBRANCH  19  22
ENDBRANCH  16  19
ENDBRANCH   1  16
BRANCH   7  52
ATOM     52  N   UNL     1     -49.383  27.617  24.680  1.00  0.00    -0.368 N 
ATOM     53  H   UNL     1     -50.241  27.732  24.147  1.00  0.00     0.162 HD
BRANCH  52  54
ATOM     54  C   UNL     1     -49.677  27.256  26.070  1.00  0.00     0.039 C 
ATOM     55  H   UNL     1     -50.338  26.380  26.053  1.00  0.00     0.051 H 
ATOM     56  H   UNL     1     -50.251  28.034  26.590  1.00  0.00     0.051 H 
BRANCH  54  57
ATOM     57  C   UNL     1     -48.416  26.881  26.856  1.00  0.00     0.060 C 
ATOM     58  H   UNL     1     -48.611  26.020  27.504  1.00  0.00     0.058 H 
ATOM     59  H   UNL     1     -47.585  26.630  26.192  1.00  0.00     0.058 H 
BRANCH  57  60
ATOM     60  O   UNL     1     -48.012  27.974  27.683  1.00  0.00    -0.395 OA
ATOM     61  H   UNL     1     -48.009  27.637  28.595  1.00  0.00     0.210 HD
ENDBRANCH  57  60
ENDBRANCH  54  57
ENDBRANCH  52  54
ENDBRANCH   7  52
TORSDOF 11
ENDMDL
MODEL 6
REMARK VINA RESULT:      -8.8      3.151      4.615
REMARK SMILES Nc1ncnc2c1ccn2[C@@H]1C[C@H](CCc2ccc3ccc(NCCO)nc3c2)[C@@H](O)[C@H]1O
REMARK SMILES IDX 16 1 17 2 18 3 19 4 20 5 21 6 22 7 27 8 28 9 29 10 15 16
REMARK SMILES IDX 14 19 13 22 11 23 12 24 32 25 30 29 10 33 2 34 3 35 7 36
REMARK SMILES IDX 4 37 6 38 8 39 5 40 9 42 1 45 33 48 31 50 23 52 24 54 25 57
REMARK SMILES IDX 26 60
REMARK H PARENT 17 11 18 12 20 13 21 14 29 15 15 17 15 18 14 20 14 21 11 26
REMARK H PARENT 12 27 12 28 32 30 13 31 30 32 4 41 8 43 9 44 1 46 1 47 33 49
REMARK H PARENT 31 51 23 53 24 55 24 56 25 58 25 59 26 61
REMARK Flexibility Score: inf
ROOT
ATOM      1  C   UNL     1     -47.215  37.295  27.480  1.00  0.00    -0.046 A 
ATOM      2  C   UNL     1     -48.556  37.006  27.737  1.00  0.00    -0.058 A 
ATOM      3  C   UNL     1     -49.093  35.782  27.342  1.00  0.00    -0.053 A 
ATOM      4  C   UNL     1     -48.289  34.832  26.689  1.00  0.00     0.000 A 
ATOM      5  C   UNL     1     -48.792  33.597  26.276  1.00  0.00    -0.049 A 
ATOM      6  C   UNL     1     -47.950  32.693  25.636  1.00  0.00    -0.019 A 
ATOM      7  C   UNL     1     -46.617  33.031  25.426  1.00  0.00     0.126 A 
ATOM      8  N   UNL     1     -46.126  34.226  25.808  1.00  0.00    -0.231 NA
ATOM      9  C   UNL     1     -46.933  35.105  26.428  1.00  0.00     0.073 A 
ATOM     10  C   UNL     1     -46.424  36.333  26.832  1.00  0.00    -0.033 A 
ATOM     11  H   UNL     1     -49.189  37.729  28.247  1.00  0.00     0.063 H 
ATOM     12  H   UNL     1     -50.140  35.572  27.547  1.00  0.00     0.063 H 
ATOM     13  H   UNL     1     -49.833  33.333  26.442  1.00  0.00     0.063 H 
ATOM     14  H   UNL     1     -48.336  31.738  25.297  1.00  0.00     0.066 H 
ATOM     15  H   UNL     1     -45.373  36.539  26.634  1.00  0.00     0.065 H 
ENDROOT
BRANCH   1  16
ATOM     16  C   UNL     1     -46.613  38.609  27.917  1.00  0.00    -0.027 C 
ATOM     17  H   UNL     1     -47.056  38.890  28.879  1.00  0.00     0.032 H 
ATOM     18  H   UNL     1     -46.907  39.390  27.207  1.00  0.00     0.032 H 
BRANCH  16  19
ATOM     19  C   UNL     1     -45.087  38.515  28.032  1.00  0.00    -0.044 C 
ATOM     20  H   UNL     1     -44.814  38.526  29.097  1.00  0.00     0.027 H 
ATOM     21  H   UNL     1     -44.749  37.544  27.646  1.00  0.00     0.027 H 
BRANCH  19  22
ATOM     22  C   UNL     1     -44.293  39.618  27.321  1.00  0.00    -0.010 C 
ATOM     23  C   UNL     1     -44.251  41.579  25.875  1.00  0.00     0.064 C 
ATOM     24  C   UNL     1     -45.004  40.254  26.123  1.00  0.00    -0.024 C 
ATOM     25  C   UNL     1     -43.413  41.844  27.144  1.00  0.00     0.101 C 
ATOM     26  H   UNL     1     -43.572  41.431  25.024  1.00  0.00     0.056 H 
ATOM     27  H   UNL     1     -46.066  40.423  26.325  1.00  0.00     0.029 H 
ATOM     28  H   UNL     1     -44.950  39.602  25.244  1.00  0.00     0.029 H 
ATOM     29  C   UNL     1     -43.929  40.831  28.178  1.00  0.00     0.085 C 
ATOM     30  H   UNL     1     -43.463  42.870  27.520  1.00  0.00     0.065 H 
ATOM     31  H   UNL     1     -43.366  39.146  26.963  1.00  0.00     0.033 H 
ATOM     32  H   UNL     1     -44.799  41.226  28.708  1.00  0.00     0.063 H 
BRANCH  23  33
ATOM     33  N   UNL     1     -45.129  42.679  25.508  1.00  0.00    -0.327 N 
ATOM     34  C   UNL     1     -48.233  44.376  25.639  1.00  0.00     0.136 A 
ATOM     35  N   UNL     1     -48.954  43.580  26.451  1.00  0.00    -0.219 NA
ATOM     36  C   UNL     1     -46.911  44.021  25.340  1.00  0.00     0.061 A 
ATOM     37  C   UNL     1     -48.363  42.479  26.952  1.00  0.00     0.120 A 
ATOM     38  C   UNL     1     -46.429  42.856  25.922  1.00  0.00     0.145 A 
ATOM     39  C   UNL     1     -45.853  44.560  24.557  1.00  0.00    -0.031 A 
ATOM     40  N   UNL     1     -47.109  42.038  26.745  1.00  0.00    -0.218 NA
ATOM     41  H   UNL     1     -48.980  41.871  27.606  1.00  0.00     0.106 H 
ATOM     42  C   UNL     1     -44.772  43.713  24.675  1.00  0.00     0.007 A 
ATOM     43  H   UNL     1     -45.880  45.472  23.974  1.00  0.00     0.065 H 
ATOM     44  H   UNL     1     -43.781  43.769  24.241  1.00  0.00     0.082 H 
BRANCH  34  45
ATOM     45  N   UNL     1     -48.861  45.502  25.128  1.00  0.00    -0.383 N 
ATOM     46  H   UNL     1     -48.944  45.440  24.120  1.00  0.00     0.158 HD
ATOM     47  H   UNL     1     -48.527  46.381  25.499  1.00  0.00     0.158 HD
ENDBRANCH  34  45
ENDBRANCH  23  33
BRANCH  25  48
ATOM     48  O   UNL     1     -42.028  41.576  26.862  1.00  0.00    -0.388 OA
ATOM     49  H   UNL     1     -42.014  40.738  26.354  1.00  0.00     0.211 HD
ENDBRANCH  25  48
BRANCH  29  50
ATOM     50  O   UNL     1     -42.916  40.509  29.123  1.00  0.00    -0.390 OA
ATOM     51  H   UNL     1     -43.188  39.681  29.559  1.00  0.00     0.211 HD
ENDBRANCH  29  50
ENDBRANCH  19  22
ENDBRANCH  16  19
ENDBRANCH   1  16
BRANCH   7  52
ATOM     52  N   UNL     1     -45.804  32.102  24.755  1.00  0.00    -0.368 N 
ATOM     53  H   UNL     1     -45.118  32.616  24.209  1.00  0.00     0.162 HD
BRANCH  52  54
ATOM     54  C   UNL     1     -46.511  31.126  23.920  1.00  0.00     0.039 C 
ATOM     55  H   UNL     1     -47.576  31.392  23.927  1.00  0.00     0.051 H 
ATOM     56  H   UNL     1     -46.469  30.113  24.339  1.00  0.00     0.051 H 
BRANCH  54  57
ATOM     57  C   UNL     1     -46.029  31.143  22.466  1.00  0.00     0.060 C 
ATOM     58  H   UNL     1     -45.225  30.414  22.320  1.00  0.00     0.058 H 
ATOM     59  H   UNL     1     -46.837  30.907  21.769  1.00  0.00     0.058 H 
BRANCH  57  60
ATOM     60  O   UNL     1     -45.518  32.436  22.134  1.00  0.00    -0.395 OA
ATOM     61  H   UNL     1     -45.893  32.661  21.265  1.00  0.00     0.210 HD
ENDBRANCH  57  60
ENDBRANCH  54  57
ENDBRANCH  52  54
ENDBRANCH   7  52
TORSDOF 11
ENDMDL
MODEL 7
REMARK VINA RESULT:      -8.8      2.161     10.467
REMARK SMILES Nc1ncnc2c1ccn2[C@@H]1C[C@H](CCc2ccc3ccc(NCCO)nc3c2)[C@@H](O)[C@H]1O
REMARK SMILES IDX 16 1 17 2 18 3 19 4 20 5 21 6 22 7 27 8 28 9 29 10 15 16
REMARK SMILES IDX 14 19 13 22 11 23 12 24 32 25 30 29 10 33 2 34 3 35 7 36
REMARK SMILES IDX 4 37 6 38 8 39 5 40 9 42 1 45 33 48 31 50 23 52 24 54 25 57
REMARK SMILES IDX 26 60
REMARK H PARENT 17 11 18 12 20 13 21 14 29 15 15 17 15 18 14 20 14 21 11 26
REMARK H PARENT 12 27 12 28 32 30 13 31 30 32 4 41 8 43 9 44 1 46 1 47 33 49
REMARK H PARENT 31 51 23 53 24 55 24 56 25 58 25 59 26 61
REMARK Flexibility Score: inf
ROOT
ATOM      1  C   UNL     1     -46.683  38.367  27.560  1.00  0.00    -0.046 A 
ATOM      2  C   UNL     1     -47.573  39.155  26.829  1.00  0.00    -0.058 A 
ATOM      3  C   UNL     1     -47.173  40.405  26.358  1.00  0.00    -0.053 A 
ATOM      4  C   UNL     1     -45.873  40.875  26.611  1.00  0.00     0.000 A 
ATOM      5  C   UNL     1     -45.438  42.121  26.158  1.00  0.00    -0.049 A 
ATOM      6  C   UNL     1     -44.139  42.536  26.436  1.00  0.00    -0.019 A 
ATOM      7  C   UNL     1     -43.292  41.697  27.154  1.00  0.00     0.126 A 
ATOM      8  N   UNL     1     -43.707  40.499  27.607  1.00  0.00    -0.231 NA
ATOM      9  C   UNL     1     -44.961  40.090  27.342  1.00  0.00     0.073 A 
ATOM     10  C   UNL     1     -45.386  38.850  27.801  1.00  0.00    -0.033 A 
ATOM     11  H   UNL     1     -48.581  38.801  26.620  1.00  0.00     0.063 H 
ATOM     12  H   UNL     1     -47.878  41.008  25.792  1.00  0.00     0.063 H 
ATOM     13  H   UNL     1     -46.100  42.775  25.597  1.00  0.00     0.063 H 
ATOM     14  H   UNL     1     -43.797  43.510  26.103  1.00  0.00     0.066 H 
ATOM     15  H   UNL     1     -44.677  38.243  28.360  1.00  0.00     0.065 H 
ENDROOT
BRANCH   1  16
ATOM     16  C   UNL     1     -47.095  37.004  28.063  1.00  0.00    -0.027 C 
ATOM     17  H   UNL     1     -47.824  37.139  28.870  1.00  0.00     0.032 H 
ATOM     18  H   UNL     1     -46.227  36.514  28.517  1.00  0.00     0.032 H 
BRANCH  16  19
ATOM     19  C   UNL     1     -47.687  36.148  26.938  1.00  0.00    -0.044 C 
ATOM     20  H   UNL     1     -48.769  36.330  26.890  1.00  0.00     0.027 H 
ATOM     21  H   UNL     1     -47.284  36.481  25.973  1.00  0.00     0.027 H 
BRANCH  19  22
ATOM     22  C   UNL     1     -47.458  34.636  27.058  1.00  0.00    -0.010 C 
ATOM     23  C   UNL     1     -47.540  32.412  26.064  1.00  0.00     0.064 C 
ATOM     24  C   UNL     1     -48.251  33.783  26.062  1.00  0.00    -0.024 C 
ATOM     25  C   UNL     1     -46.171  32.635  26.739  1.00  0.00     0.101 C 
ATOM     26  H   UNL     1     -48.134  31.722  26.680  1.00  0.00     0.056 H 
ATOM     27  H   UNL     1     -48.262  34.232  25.064  1.00  0.00     0.029 H 
ATOM     28  H   UNL     1     -49.295  33.684  26.375  1.00  0.00     0.029 H 
ATOM     29  C   UNL     1     -46.022  34.161  26.836  1.00  0.00     0.085 C 
ATOM     30  H   UNL     1     -45.325  32.176  26.219  1.00  0.00     0.065 H 
ATOM     31  H   UNL     1     -47.770  34.358  28.075  1.00  0.00     0.033 H 
ATOM     32  H   UNL     1     -45.600  34.570  25.915  1.00  0.00     0.063 H 
BRANCH  23  33
ATOM     33  N   UNL     1     -47.457  31.806  24.744  1.00  0.00    -0.327 N 
ATOM     34  C   UNL     1     -48.893  30.111  21.989  1.00  0.00     0.136 A 
ATOM     35  N   UNL     1     -50.171  29.961  22.386  1.00  0.00    -0.219 NA
ATOM     36  C   UNL     1     -47.989  30.757  22.842  1.00  0.00     0.061 A 
ATOM     37  C   UNL     1     -50.526  30.453  23.588  1.00  0.00     0.120 A 
ATOM     38  C   UNL     1     -48.488  31.212  24.055  1.00  0.00     0.145 A 
ATOM     39  C   UNL     1     -46.610  31.103  22.806  1.00  0.00    -0.031 A 
ATOM     40  N   UNL     1     -49.756  31.092  24.487  1.00  0.00    -0.218 NA
ATOM     41  H   UNL     1     -51.566  30.314  23.865  1.00  0.00     0.106 H 
ATOM     42  C   UNL     1     -46.309  31.743  23.990  1.00  0.00     0.007 A 
ATOM     43  H   UNL     1     -45.915  30.908  22.000  1.00  0.00     0.065 H 
ATOM     44  H   UNL     1     -45.377  32.163  24.348  1.00  0.00     0.082 H 
BRANCH  34  45
ATOM     45  N   UNL     1     -48.546  29.591  20.750  1.00  0.00    -0.383 N 
ATOM     46  H   UNL     1     -48.353  30.336  20.091  1.00  0.00     0.158 HD
ATOM     47  H   UNL     1     -49.139  28.841  20.423  1.00  0.00     0.158 HD
ENDBRANCH  34  45
ENDBRANCH  23  33
BRANCH  25  48
ATOM     48  O   UNL     1     -46.196  32.072  28.062  1.00  0.00    -0.388 OA
ATOM     49  H   UNL     1     -45.260  32.000  28.342  1.00  0.00     0.211 HD
ENDBRANCH  25  48
BRANCH  29  50
ATOM     50  O   UNL     1     -45.186  34.521  27.930  1.00  0.00    -0.390 OA
ATOM     51  H   UNL     1     -44.274  34.563  27.588  1.00  0.00     0.211 HD
ENDBRANCH  29  50
ENDBRANCH  19  22
ENDBRANCH  16  19
ENDBRANCH   1  16
BRANCH   7  52
ATOM     52  N   UNL     1     -41.996  42.161  27.435  1.00  0.00    -0.368 N 
ATOM     53  H   UNL     1     -41.510  42.302  26.554  1.00  0.00     0.162 HD
BRANCH  52  54
ATOM     54  C   UNL     1     -41.203  41.323  28.340  1.00  0.00     0.039 C 
ATOM     55  H   UNL     1     -40.157  41.645  28.259  1.00  0.00     0.051 H 
ATOM     56  H   UNL     1     -41.199  40.269  28.033  1.00  0.00     0.051 H 
BRANCH  54  57
ATOM     57  C   UNL     1     -41.632  41.471  29.802  1.00  0.00     0.060 C 
ATOM     58  H   UNL     1     -40.755  41.567  30.451  1.00  0.00     0.058 H 
ATOM     59  H   UNL     1     -42.266  42.349  29.951  1.00  0.00     0.058 H 
BRANCH  57  60
ATOM     60  O   UNL     1     -42.364  40.316  30.218  1.00  0.00    -0.395 OA
ATOM     61  H   UNL     1     -41.705  39.614  30.358  1.00  0.00     0.210 HD
ENDBRANCH  57  60
ENDBRANCH  54  57
ENDBRANCH  52  54
ENDBRANCH   7  52
TORSDOF 11
ENDMDL
