MODEL 1
REMARK VINA RESULT:     -11.0      0.000      0.000
REMARK SMILES CCc1cc(N2CCNCC2)c2ccc(OCc3cncc(-n4cc(-c5ccn(C)n5)c5c(N)ncnc54)c3)cc2n1
REMARK SMILES IDX 17 1 16 4 15 5 3 6 4 7 42 8 5 9 41 11 12 12 40 13 13 14
REMARK SMILES IDX 14 16 2 19 1 22 6 26 7 27 11 28 8 29 10 32 9 35 18 41 19 42
REMARK SMILES IDX 39 43 20 44 22 46 21 48 23 50 24 51 38 52 25 53 32 55 37 56
REMARK SMILES IDX 33 57 36 58 35 59 26 61 27 62 31 63 28 64 29 66 30 68 34 72
REMARK H PARENT 17 2 17 3 4 10 40 15 13 17 14 18 2 20 2 21 1 23 1 24 1 25 7 30
REMARK H PARENT 7 31 11 33 11 34 8 36 8 37 10 38 10 39 9 40 19 45 39 47 21 49
REMARK H PARENT 24 54 36 60 27 65 28 67 30 69 30 70 30 71 34 73 34 74
REMARK Flexibility Score: inf
ROOT
ATOM      1  C   UNL     1     -47.276  35.082  27.257  1.00  0.00     0.115 C 
ATOM      2  H   UNL     1     -48.246  34.721  27.623  1.00  0.00     0.076 H 
ATOM      3  H   UNL     1     -47.482  35.606  26.317  1.00  0.00     0.076 H 
ENDROOT
BRANCH   1   4
ATOM      4  O   UNL     1     -46.413  33.989  26.933  1.00  0.00    -0.489 OA
BRANCH   4   5
ATOM      5  C   UNL     1     -46.905  32.984  26.146  1.00  0.00     0.122 A 
ATOM      6  C   UNL     1     -46.461  30.989  21.848  1.00  0.00     0.043 A 
ATOM      7  C   UNL     1     -47.422  30.023  22.115  1.00  0.00    -0.016 A 
ATOM      8  N   UNL     1     -46.110  31.936  22.746  1.00  0.00    -0.253 NA
ATOM      9  C   UNL     1     -48.058  30.014  23.360  1.00  0.00     0.048 A 
ATOM     10  H   UNL     1     -47.656  29.280  21.363  1.00  0.00     0.066 H 
ATOM     11  C   UNL     1     -46.705  31.936  23.950  1.00  0.00     0.076 A 
ATOM     12  C   UNL     1     -47.690  30.996  24.314  1.00  0.00     0.024 A 
ATOM     13  C   UNL     1     -46.332  32.903  24.874  1.00  0.00     0.007 A 
ATOM     14  C   UNL     1     -48.263  31.075  25.602  1.00  0.00    -0.047 A 
ATOM     15  H   UNL     1     -45.566  33.621  24.589  1.00  0.00     0.069 H 
ATOM     16  C   UNL     1     -47.873  32.058  26.512  1.00  0.00    -0.019 A 
ATOM     17  H   UNL     1     -49.024  30.355  25.897  1.00  0.00     0.063 H 
ATOM     18  H   UNL     1     -48.333  32.054  27.494  1.00  0.00     0.066 H 
BRANCH   6  19
ATOM     19  C   UNL     1     -45.774  31.035  20.508  1.00  0.00    -0.013 C 
ATOM     20  H   UNL     1     -44.725  31.319  20.651  1.00  0.00     0.033 H 
ATOM     21  H   UNL     1     -45.768  30.035  20.058  1.00  0.00     0.033 H 
BRANCH  19  22
ATOM     22  C   UNL     1     -46.443  32.029  19.571  1.00  0.00    -0.060 C 
ATOM     23  H   UNL     1     -46.444  33.036  19.999  1.00  0.00     0.023 H 
ATOM     24  H   UNL     1     -47.482  31.748  19.369  1.00  0.00     0.023 H 
ATOM     25  H   UNL     1     -45.910  32.065  18.615  1.00  0.00     0.023 H 
ENDBRANCH  19  22
ENDBRANCH   6  19
BRANCH   9  26
ATOM     26  N   UNL     1     -49.026  29.037  23.698  1.00  0.00    -0.368 N 
ATOM     27  C   UNL     1     -50.062  28.801  22.667  1.00  0.00     0.030 C 
ATOM     28  C   UNL     1     -48.391  27.770  24.136  1.00  0.00     0.030 C 
ATOM     29  C   UNL     1     -51.121  27.814  23.210  1.00  0.00     0.013 C 
ATOM     30  H   UNL     1     -50.556  29.746  22.412  1.00  0.00     0.051 H 
ATOM     31  H   UNL     1     -49.627  28.383  21.751  1.00  0.00     0.051 H 
ATOM     32  C   UNL     1     -49.473  26.787  24.640  1.00  0.00     0.013 C 
ATOM     33  H   UNL     1     -47.835  27.309  23.307  1.00  0.00     0.051 H 
ATOM     34  H   UNL     1     -47.685  27.961  24.953  1.00  0.00     0.051 H 
ATOM     35  N   UNL     1     -50.541  26.528  23.651  1.00  0.00    -0.313 NA
ATOM     36  H   UNL     1     -51.656  28.275  24.050  1.00  0.00     0.045 H 
ATOM     37  H   UNL     1     -51.859  27.614  22.427  1.00  0.00     0.045 H 
ATOM     38  H   UNL     1     -48.998  25.834  24.898  1.00  0.00     0.045 H 
ATOM     39  H   UNL     1     -49.924  27.183  25.558  1.00  0.00     0.045 H 
ATOM     40  H   UNL     1     -51.270  25.969  24.092  1.00  0.00     0.122 HD
ENDBRANCH   9  26
ENDBRANCH   4   5
ENDBRANCH   1   4
BRANCH   1  41
ATOM     41  C   UNL     1     -46.650  36.077  28.199  1.00  0.00     0.010 A 
ATOM     42  C   UNL     1     -46.576  35.841  29.564  1.00  0.00     0.034 A 
ATOM     43  C   UNL     1     -46.061  37.255  27.713  1.00  0.00    -0.028 A 
ATOM     44  N   UNL     1     -45.992  36.687  30.438  1.00  0.00    -0.262 NA
ATOM     45  H   UNL     1     -46.995  34.943  30.011  1.00  0.00     0.084 H 
ATOM     46  C   UNL     1     -45.447  38.164  28.590  1.00  0.00     0.066 A 
ATOM     47  H   UNL     1     -46.088  37.423  26.641  1.00  0.00     0.065 H 
ATOM     48  C   UNL     1     -45.446  37.824  29.938  1.00  0.00     0.051 A 
ATOM     49  H   UNL     1     -45.017  38.446  30.714  1.00  0.00     0.086 H 
BRANCH  46  50
ATOM     50  N   UNL     1     -44.856  39.379  28.108  1.00  0.00    -0.299 N 
ATOM     51  C   UNL     1     -45.293  40.088  27.001  1.00  0.00     0.021 A 
ATOM     52  C   UNL     1     -43.765  40.075  28.634  1.00  0.00     0.150 A 
ATOM     53  C   UNL     1     -44.513  41.212  26.829  1.00  0.00     0.033 A 
ATOM     54  H   UNL     1     -46.152  39.772  26.428  1.00  0.00     0.083 H 
ATOM     55  C   UNL     1     -43.522  41.203  27.848  1.00  0.00     0.071 A 
ATOM     56  N   UNL     1     -43.041  39.719  29.714  1.00  0.00    -0.218 NA
ATOM     57  C   UNL     1     -42.428  42.007  28.222  1.00  0.00     0.137 A 
ATOM     58  C   UNL     1     -42.046  40.572  29.984  1.00  0.00     0.120 A 
ATOM     59  N   UNL     1     -41.711  41.681  29.312  1.00  0.00    -0.219 NA
ATOM     60  H   UNL     1     -41.435  40.337  30.850  1.00  0.00     0.106 H 
BRANCH  53  61
ATOM     61  C   UNL     1     -44.693  42.232  25.792  1.00  0.00     0.095 A 
ATOM     62  C   UNL     1     -45.843  43.042  25.656  1.00  0.00    -0.016 A 
ATOM     63  N   UNL     1     -43.767  42.531  24.870  1.00  0.00    -0.173 NA
ATOM     64  C   UNL     1     -45.581  43.857  24.579  1.00  0.00     0.025 A 
ATOM     65  H   UNL     1     -46.746  43.031  26.250  1.00  0.00     0.066 H 
ATOM     66  N   UNL     1     -44.337  43.513  24.145  1.00  0.00    -0.275 N 
ATOM     67  H   UNL     1     -46.166  44.631  24.100  1.00  0.00     0.084 H 
BRANCH  66  68
ATOM     68  C   UNL     1     -43.617  44.082  23.031  1.00  0.00     0.030 C 
ATOM     69  H   UNL     1     -44.283  44.775  22.510  1.00  0.00     0.048 H 
ATOM     70  H   UNL     1     -43.303  43.285  22.355  1.00  0.00     0.048 H 
ATOM     71  H   UNL     1     -42.742  44.609  23.421  1.00  0.00     0.048 H 
ENDBRANCH  66  68
ENDBRANCH  53  61
BRANCH  57  72
ATOM     72  N   UNL     1     -42.023  43.140  27.531  1.00  0.00    -0.383 N 
ATOM     73  H   UNL     1     -41.023  43.329  27.637  1.00  0.00     0.158 HD
ATOM     74  H   UNL     1     -42.391  43.150  26.589  1.00  0.00     0.158 HD
ENDBRANCH  57  72
ENDBRANCH  46  50
ENDBRANCH   1  41
TORSDOF 10
ENDMDL
MODEL 2
REMARK VINA RESULT:     -10.6      1.646      2.544
REMARK SMILES CCc1cc(N2CCNCC2)c2ccc(OCc3cncc(-n4cc(-c5ccn(C)n5)c5c(N)ncnc54)c3)cc2n1
REMARK SMILES IDX 17 1 16 4 15 5 3 6 4 7 42 8 5 9 41 11 12 12 40 13 13 14
REMARK SMILES IDX 14 16 2 19 1 22 6 26 7 27 11 28 8 29 10 32 9 35 18 41 19 42
REMARK SMILES IDX 39 43 20 44 22 46 21 48 23 50 24 51 38 52 25 53 32 55 37 56
REMARK SMILES IDX 33 57 36 58 35 59 26 61 27 62 31 63 28 64 29 66 30 68 34 72
REMARK H PARENT 17 2 17 3 4 10 40 15 13 17 14 18 2 20 2 21 1 23 1 24 1 25 7 30
REMARK H PARENT 7 31 11 33 11 34 8 36 8 37 10 38 10 39 9 40 19 45 39 47 21 49
REMARK H PARENT 24 54 36 60 27 65 28 67 30 69 30 70 30 71 34 73 34 74
REMARK Flexibility Score: inf
ROOT
ATOM      1  C   UNL     1     -47.567  35.148  26.720  1.00  0.00     0.115 C 
ATOM      2  H   UNL     1     -48.632  35.213  26.977  1.00  0.00     0.076 H 
ATOM      3  H   UNL     1     -47.504  35.313  25.639  1.00  0.00     0.076 H 
ENDROOT
BRANCH   1   4
ATOM      4  O   UNL     1     -47.062  33.833  26.962  1.00  0.00    -0.489 OA
BRANCH   4   5
ATOM      5  C   UNL     1     -47.449  32.825  26.122  1.00  0.00     0.122 A 
ATOM      6  C   UNL     1     -46.536  30.889  21.871  1.00  0.00     0.043 A 
ATOM      7  C   UNL     1     -47.494  29.897  22.034  1.00  0.00    -0.016 A 
ATOM      8  N   UNL     1     -46.299  31.835  22.807  1.00  0.00    -0.253 NA
ATOM      9  C   UNL     1     -48.248  29.858  23.211  1.00  0.00     0.048 A 
ATOM     10  H   UNL     1     -47.634  29.156  21.256  1.00  0.00     0.066 H 
ATOM     11  C   UNL     1     -47.008  31.806  23.947  1.00  0.00     0.076 A 
ATOM     12  C   UNL     1     -47.999  30.838  24.205  1.00  0.00     0.024 A 
ATOM     13  C   UNL     1     -46.753  32.772  24.912  1.00  0.00     0.007 A 
ATOM     14  C   UNL     1     -48.698  30.889  25.431  1.00  0.00    -0.047 A 
ATOM     15  H   UNL     1     -45.981  33.512  24.709  1.00  0.00     0.069 H 
ATOM     16  C   UNL     1     -48.424  31.871  26.384  1.00  0.00    -0.019 A 
ATOM     17  H   UNL     1     -49.464  30.146  25.645  1.00  0.00     0.063 H 
ATOM     18  H   UNL     1     -48.977  31.845  27.316  1.00  0.00     0.066 H 
BRANCH   6  19
ATOM     19  C   UNL     1     -45.723  30.967  20.605  1.00  0.00    -0.013 C 
ATOM     20  H   UNL     1     -44.686  31.219  20.858  1.00  0.00     0.033 H 
ATOM     21  H   UNL     1     -45.696  29.985  20.119  1.00  0.00     0.033 H 
BRANCH  19  22
ATOM     22  C   UNL     1     -46.278  32.011  19.648  1.00  0.00    -0.060 C 
ATOM     23  H   UNL     1     -46.293  31.635  18.620  1.00  0.00     0.023 H 
ATOM     24  H   UNL     1     -45.674  32.925  19.663  1.00  0.00     0.023 H 
ATOM     25  H   UNL     1     -47.301  32.277  19.929  1.00  0.00     0.023 H 
ENDBRANCH  19  22
ENDBRANCH   6  19
BRANCH   9  26
ATOM     26  N   UNL     1     -49.218  28.853  23.444  1.00  0.00    -0.368 N 
ATOM     27  C   UNL     1     -50.030  28.483  22.263  1.00  0.00     0.030 C 
ATOM     28  C   UNL     1     -48.622  27.661  24.094  1.00  0.00     0.030 C 
ATOM     29  C   UNL     1     -51.128  27.479  22.681  1.00  0.00     0.013 C 
ATOM     30  H   UNL     1     -50.508  29.377  21.844  1.00  0.00     0.051 H 
ATOM     31  H   UNL     1     -49.413  28.026  21.480  1.00  0.00     0.051 H 
ATOM     32  C   UNL     1     -49.736  26.655  24.469  1.00  0.00     0.013 C 
ATOM     33  H   UNL     1     -47.901  27.174  23.423  1.00  0.00     0.051 H 
ATOM     34  H   UNL     1     -48.091  27.951  25.009  1.00  0.00     0.051 H 
ATOM     35  N   UNL     1     -50.586  26.264  23.326  1.00  0.00    -0.313 NA
ATOM     36  H   UNL     1     -51.831  27.968  23.367  1.00  0.00     0.045 H 
ATOM     37  H   UNL     1     -51.697  27.179  21.795  1.00  0.00     0.045 H 
ATOM     38  H   UNL     1     -49.277  25.754  24.889  1.00  0.00     0.045 H 
ATOM     39  H   UNL     1     -50.368  27.090  25.253  1.00  0.00     0.045 H 
ATOM     40  H   UNL     1     -51.361  25.697  23.669  1.00  0.00     0.122 HD
ENDBRANCH   9  26
ENDBRANCH   4   5
ENDBRANCH   1   4
BRANCH   1  41
ATOM     41  C   UNL     1     -46.758  36.230  27.388  1.00  0.00     0.010 A 
ATOM     42  C   UNL     1     -46.031  35.988  28.545  1.00  0.00     0.034 A 
ATOM     43  C   UNL     1     -46.663  37.511  26.820  1.00  0.00    -0.028 A 
ATOM     44  N   UNL     1     -45.265  36.915  29.154  1.00  0.00    -0.262 NA
ATOM     45  H   UNL     1     -46.042  35.015  29.031  1.00  0.00     0.084 H 
ATOM     46  C   UNL     1     -45.879  38.506  27.426  1.00  0.00     0.066 A 
ATOM     47  H   UNL     1     -47.203  37.690  25.897  1.00  0.00     0.065 H 
ATOM     48  C   UNL     1     -45.206  38.147  28.588  1.00  0.00     0.051 A 
ATOM     49  H   UNL     1     -44.582  38.827  29.155  1.00  0.00     0.086 H 
BRANCH  46  50
ATOM     50  N   UNL     1     -45.786  39.824  26.865  1.00  0.00    -0.299 N 
ATOM     51  C   UNL     1     -44.628  40.386  26.352  1.00  0.00     0.021 A 
ATOM     52  C   UNL     1     -46.800  40.773  26.722  1.00  0.00     0.150 A 
ATOM     53  C   UNL     1     -44.895  41.655  25.882  1.00  0.00     0.033 A 
ATOM     54  H   UNL     1     -43.699  39.839  26.318  1.00  0.00     0.083 H 
ATOM     55  C   UNL     1     -46.269  41.922  26.133  1.00  0.00     0.071 A 
ATOM     56  N   UNL     1     -48.085  40.627  27.102  1.00  0.00    -0.218 NA
ATOM     57  C   UNL     1     -47.155  42.999  25.943  1.00  0.00     0.137 A 
ATOM     58  C   UNL     1     -48.834  41.706  26.848  1.00  0.00     0.120 A 
ATOM     59  N   UNL     1     -48.447  42.861  26.293  1.00  0.00    -0.219 NA
ATOM     60  H   UNL     1     -49.881  41.639  27.128  1.00  0.00     0.106 H 
BRANCH  53  61
ATOM     61  C   UNL     1     -43.934  42.549  25.230  1.00  0.00     0.095 A 
ATOM     62  C   UNL     1     -42.722  42.985  25.812  1.00  0.00    -0.016 A 
ATOM     63  N   UNL     1     -44.086  43.030  23.988  1.00  0.00    -0.173 NA
ATOM     64  C   UNL     1     -42.134  43.783  24.858  1.00  0.00     0.025 A 
ATOM     65  H   UNL     1     -42.332  42.762  26.794  1.00  0.00     0.066 H 
ATOM     66  N   UNL     1     -42.985  43.781  23.794  1.00  0.00    -0.275 N 
ATOM     67  H   UNL     1     -41.206  44.338  24.854  1.00  0.00     0.084 H 
BRANCH  66  68
ATOM     68  C   UNL     1     -42.812  44.479  22.543  1.00  0.00     0.030 C 
ATOM     69  H   UNL     1     -43.625  45.202  22.439  1.00  0.00     0.048 H 
ATOM     70  H   UNL     1     -42.840  43.763  21.719  1.00  0.00     0.048 H 
ATOM     71  H   UNL     1     -41.844  44.987  22.564  1.00  0.00     0.048 H 
ENDBRANCH  66  68
ENDBRANCH  53  61
BRANCH  57  72
ATOM     72  N   UNL     1     -46.786  44.226  25.409  1.00  0.00    -0.383 N 
ATOM     73  H   UNL     1     -47.284  44.442  24.541  1.00  0.00     0.158 HD
ATOM     74  H   UNL     1     -46.770  44.947  26.117  1.00  0.00     0.158 HD
ENDBRANCH  57  72
ENDBRANCH  46  50
ENDBRANCH   1  41
TORSDOF 10
ENDMDL
MODEL 3
REMARK VINA RESULT:     -10.3      1.924     12.671
REMARK SMILES CCc1cc(N2CCNCC2)c2ccc(OCc3cncc(-n4cc(-c5ccn(C)n5)c5c(N)ncnc54)c3)cc2n1
REMARK SMILES IDX 17 1 16 4 15 5 3 6 4 7 42 8 5 9 41 11 12 12 40 13 13 14
REMARK SMILES IDX 14 16 2 19 1 22 6 26 7 27 11 28 8 29 10 32 9 35 18 41 19 42
REMARK SMILES IDX 39 43 20 44 22 46 21 48 23 50 24 51 38 52 25 53 32 55 37 56
REMARK SMILES IDX 33 57 36 58 35 59 26 61 27 62 31 63 28 64 29 66 30 68 34 72
REMARK H PARENT 17 2 17 3 4 10 40 15 13 17 14 18 2 20 2 21 1 23 1 24 1 25 7 30
REMARK H PARENT 7 31 11 33 11 34 8 36 8 37 10 38 10 39 9 40 19 45 39 47 21 49
REMARK H PARENT 24 54 36 60 27 65 28 67 30 69 30 70 30 71 34 73 34 74
REMARK Flexibility Score: inf
ROOT
ATOM      1  C   UNL     1     -46.409  35.744  27.287  1.00  0.00     0.115 C 
ATOM      2  H   UNL     1     -45.628  35.207  27.839  1.00  0.00     0.076 H 
ATOM      3  H   UNL     1     -45.943  36.090  26.357  1.00  0.00     0.076 H 
ENDROOT
BRANCH   1   4
ATOM      4  O   UNL     1     -46.822  36.916  27.995  1.00  0.00    -0.489 OA
BRANCH   4   5
ATOM      5  C   UNL     1     -46.380  38.132  27.550  1.00  0.00     0.122 A 
ATOM      6  C   UNL     1     -42.964  41.381  28.206  1.00  0.00     0.043 A 
ATOM      7  C   UNL     1     -43.456  42.208  27.205  1.00  0.00    -0.016 A 
ATOM      8  N   UNL     1     -43.549  40.207  28.536  1.00  0.00    -0.253 NA
ATOM      9  C   UNL     1     -44.599  41.824  26.498  1.00  0.00     0.048 A 
ATOM     10  H   UNL     1     -42.940  43.132  26.974  1.00  0.00     0.066 H 
ATOM     11  C   UNL     1     -44.643  39.820  27.860  1.00  0.00     0.076 A 
ATOM     12  C   UNL     1     -45.215  40.591  26.828  1.00  0.00     0.024 A 
ATOM     13  C   UNL     1     -45.234  38.608  28.193  1.00  0.00     0.007 A 
ATOM     14  C   UNL     1     -46.369  40.104  26.175  1.00  0.00    -0.047 A 
ATOM     15  H   UNL     1     -44.783  38.015  28.986  1.00  0.00     0.069 H 
ATOM     16  C   UNL     1     -46.946  38.884  26.530  1.00  0.00    -0.019 A 
ATOM     17  H   UNL     1     -46.820  40.688  25.375  1.00  0.00     0.063 H 
ATOM     18  H   UNL     1     -47.817  38.554  25.977  1.00  0.00     0.066 H 
BRANCH   6  19
ATOM     19  C   UNL     1     -41.745  41.777  28.997  1.00  0.00    -0.013 C 
ATOM     20  H   UNL     1     -40.865  41.741  28.345  1.00  0.00     0.033 H 
ATOM     21  H   UNL     1     -41.842  42.817  29.334  1.00  0.00     0.033 H 
BRANCH  19  22
ATOM     22  C   UNL     1     -41.529  40.858  30.189  1.00  0.00    -0.060 C 
ATOM     23  H   UNL     1     -40.628  41.138  30.746  1.00  0.00     0.023 H 
ATOM     24  H   UNL     1     -41.419  39.815  29.873  1.00  0.00     0.023 H 
ATOM     25  H   UNL     1     -42.383  40.916  30.872  1.00  0.00     0.023 H 
ENDBRANCH  19  22
ENDBRANCH   6  19
BRANCH   9  26
ATOM     26  N   UNL     1     -45.130  42.615  25.450  1.00  0.00    -0.368 N 
ATOM     27  C   UNL     1     -45.927  43.782  25.889  1.00  0.00     0.030 C 
ATOM     28  C   UNL     1     -44.080  43.003  24.477  1.00  0.00     0.030 C 
ATOM     29  C   UNL     1     -46.550  44.479  24.658  1.00  0.00     0.013 C 
ATOM     30  H   UNL     1     -46.733  43.454  26.556  1.00  0.00     0.051 H 
ATOM     31  H   UNL     1     -45.309  44.508  26.431  1.00  0.00     0.051 H 
ATOM     32  C   UNL     1     -44.724  43.732  23.273  1.00  0.00     0.013 C 
ATOM     33  H   UNL     1     -43.339  43.664  24.949  1.00  0.00     0.051 H 
ATOM     34  H   UNL     1     -43.556  42.115  24.107  1.00  0.00     0.051 H 
ATOM     35  N   UNL     1     -45.544  44.899  23.659  1.00  0.00    -0.313 NA
ATOM     36  H   UNL     1     -47.273  43.805  24.181  1.00  0.00     0.045 H 
ATOM     37  H   UNL     1     -47.103  45.365  24.989  1.00  0.00     0.045 H 
ATOM     38  H   UNL     1     -43.932  44.069  22.595  1.00  0.00     0.045 H 
ATOM     39  H   UNL     1     -45.349  43.025  22.713  1.00  0.00     0.045 H 
ATOM     40  H   UNL     1     -46.025  45.252  22.833  1.00  0.00     0.122 HD
ENDBRANCH   9  26
ENDBRANCH   4   5
ENDBRANCH   1   4
BRANCH   1  41
ATOM     41  C   UNL     1     -47.556  34.843  26.906  1.00  0.00     0.010 A 
ATOM     42  C   UNL     1     -48.874  35.266  26.991  1.00  0.00     0.034 A 
ATOM     43  C   UNL     1     -47.319  33.558  26.391  1.00  0.00    -0.028 A 
ATOM     44  N   UNL     1     -49.927  34.506  26.626  1.00  0.00    -0.262 NA
ATOM     45  H   UNL     1     -49.133  36.254  27.363  1.00  0.00     0.084 H 
ATOM     46  C   UNL     1     -48.388  32.734  26.004  1.00  0.00     0.066 A 
ATOM     47  H   UNL     1     -46.287  33.241  26.293  1.00  0.00     0.065 H 
ATOM     48  C   UNL     1     -49.666  33.264  26.146  1.00  0.00     0.051 A 
ATOM     49  H   UNL     1     -50.571  32.724  25.897  1.00  0.00     0.086 H 
BRANCH  46  50
ATOM     50  N   UNL     1     -48.162  31.413  25.492  1.00  0.00    -0.299 N 
ATOM     51  C   UNL     1     -48.564  30.243  26.115  1.00  0.00     0.021 A 
ATOM     52  C   UNL     1     -47.520  31.046  24.307  1.00  0.00     0.150 A 
ATOM     53  C   UNL     1     -48.201  29.157  25.345  1.00  0.00     0.033 A 
ATOM     54  H   UNL     1     -49.114  30.254  27.043  1.00  0.00     0.083 H 
ATOM     55  C   UNL     1     -47.515  29.655  24.203  1.00  0.00     0.071 A 
ATOM     56  N   UNL     1     -46.972  31.887  23.407  1.00  0.00    -0.218 NA
ATOM     57  C   UNL     1     -46.875  29.109  23.075  1.00  0.00     0.137 A 
ATOM     58  C   UNL     1     -46.416  31.254  22.368  1.00  0.00     0.120 A 
ATOM     59  N   UNL     1     -46.345  29.934  22.153  1.00  0.00    -0.219 NA
ATOM     60  H   UNL     1     -45.965  31.885  21.608  1.00  0.00     0.106 H 
BRANCH  53  61
ATOM     61  C   UNL     1     -48.491  27.753  25.650  1.00  0.00     0.095 A 
ATOM     62  C   UNL     1     -49.773  27.164  25.571  1.00  0.00    -0.016 A 
ATOM     63  N   UNL     1     -47.558  26.860  26.011  1.00  0.00    -0.173 NA
ATOM     64  C   UNL     1     -49.584  25.847  25.921  1.00  0.00     0.025 A 
ATOM     65  H   UNL     1     -50.711  27.631  25.308  1.00  0.00     0.066 H 
ATOM     66  N   UNL     1     -48.252  25.717  26.176  1.00  0.00    -0.275 N 
ATOM     67  H   UNL     1     -50.272  25.017  26.008  1.00  0.00     0.084 H 
BRANCH  66  68
ATOM     68  C   UNL     1     -47.560  24.519  26.587  1.00  0.00     0.030 C 
ATOM     69  H   UNL     1     -46.752  24.328  25.876  1.00  0.00     0.048 H 
ATOM     70  H   UNL     1     -48.258  23.680  26.596  1.00  0.00     0.048 H 
ATOM     71  H   UNL     1     -47.159  24.682  27.591  1.00  0.00     0.048 H 
ENDBRANCH  66  68
ENDBRANCH  53  61
BRANCH  57  72
ATOM     72  N   UNL     1     -46.744  27.749  22.835  1.00  0.00    -0.383 N 
ATOM     73  H   UNL     1     -47.088  27.178  23.612  1.00  0.00     0.158 HD
ATOM     74  H   UNL     1     -47.070  27.503  21.911  1.00  0.00     0.158 HD
ENDBRANCH  57  72
ENDBRANCH  46  50
ENDBRANCH   1  41
TORSDOF 10
ENDMDL
MODEL 4
REMARK VINA RESULT:     -10.3      1.960      2.740
REMARK SMILES CCc1cc(N2CCNCC2)c2ccc(OCc3cncc(-n4cc(-c5ccn(C)n5)c5c(N)ncnc54)c3)cc2n1
REMARK SMILES IDX 17 1 16 4 15 5 3 6 4 7 42 8 5 9 41 11 12 12 40 13 13 14
REMARK SMILES IDX 14 16 2 19 1 22 6 26 7 27 11 28 8 29 10 32 9 35 18 41 19 42
REMARK SMILES IDX 39 43 20 44 22 46 21 48 23 50 24 51 38 52 25 53 32 55 37 56
REMARK SMILES IDX 33 57 36 58 35 59 26 61 27 62 31 63 28 64 29 66 30 68 34 72
REMARK H PARENT 17 2 17 3 4 10 40 15 13 17 14 18 2 20 2 21 1 23 1 24 1 25 7 30
REMARK H PARENT 7 31 11 33 11 34 8 36 8 37 10 38 10 39 9 40 19 45 39 47 21 49
REMARK H PARENT 24 54 36 60 27 65 28 67 30 69 30 70 30 71 34 73 34 74
REMARK Flexibility Score: inf
ROOT
ATOM      1  C   UNL     1     -47.501  34.280  26.054  1.00  0.00     0.115 C 
ATOM      2  H   UNL     1     -46.743  34.372  25.266  1.00  0.00     0.076 H 
ATOM      3  H   UNL     1     -47.071  33.617  26.814  1.00  0.00     0.076 H 
ENDROOT
BRANCH   1   4
ATOM      4  O   UNL     1     -48.674  33.627  25.562  1.00  0.00    -0.489 OA
BRANCH   4   5
ATOM      5  C   UNL     1     -48.634  32.273  25.380  1.00  0.00     0.122 A 
ATOM      6  C   UNL     1     -49.075  28.894  22.056  1.00  0.00     0.043 A 
ATOM      7  C   UNL     1     -48.818  27.870  22.958  1.00  0.00    -0.016 A 
ATOM      8  N   UNL     1     -49.101  30.196  22.420  1.00  0.00    -0.253 NA
ATOM      9  C   UNL     1     -48.568  28.181  24.298  1.00  0.00     0.048 A 
ATOM     10  H   UNL     1     -48.798  26.844  22.610  1.00  0.00     0.066 H 
ATOM     11  C   UNL     1     -48.854  30.513  23.701  1.00  0.00     0.076 A 
ATOM     12  C   UNL     1     -48.581  29.544  24.688  1.00  0.00     0.024 A 
ATOM     13  C   UNL     1     -48.869  31.852  24.068  1.00  0.00     0.007 A 
ATOM     14  C   UNL     1     -48.337  29.971  26.012  1.00  0.00    -0.047 A 
ATOM     15  H   UNL     1     -49.073  32.595  23.299  1.00  0.00     0.069 H 
ATOM     16  C   UNL     1     -48.360  31.323  26.355  1.00  0.00    -0.019 A 
ATOM     17  H   UNL     1     -48.123  29.234  26.783  1.00  0.00     0.063 H 
ATOM     18  H   UNL     1     -48.142  31.591  27.383  1.00  0.00     0.066 H 
BRANCH   6  19
ATOM     19  C   UNL     1     -49.367  28.586  20.611  1.00  0.00    -0.013 C 
ATOM     20  H   UNL     1     -49.924  29.421  20.170  1.00  0.00     0.033 H 
ATOM     21  H   UNL     1     -48.428  28.508  20.050  1.00  0.00     0.033 H 
BRANCH  19  22
ATOM     22  C   UNL     1     -50.175  27.306  20.464  1.00  0.00    -0.060 C 
ATOM     23  H   UNL     1     -49.522  26.445  20.289  1.00  0.00     0.023 H 
ATOM     24  H   UNL     1     -50.876  27.372  19.625  1.00  0.00     0.023 H 
ATOM     25  H   UNL     1     -50.752  27.116  21.374  1.00  0.00     0.023 H 
ENDBRANCH  19  22
ENDBRANCH   6  19
BRANCH   9  26
ATOM     26  N   UNL     1     -48.273  27.180  25.255  1.00  0.00    -0.368 N 
ATOM     27  C   UNL     1     -49.271  26.091  25.349  1.00  0.00     0.030 C 
ATOM     28  C   UNL     1     -46.899  26.651  25.082  1.00  0.00     0.030 C 
ATOM     29  C   UNL     1     -48.898  25.142  26.511  1.00  0.00     0.013 C 
ATOM     30  H   UNL     1     -50.266  26.512  25.540  1.00  0.00     0.051 H 
ATOM     31  H   UNL     1     -49.318  25.510  24.420  1.00  0.00     0.051 H 
ATOM     32  C   UNL     1     -46.563  25.676  26.236  1.00  0.00     0.013 C 
ATOM     33  H   UNL     1     -46.804  26.126  24.122  1.00  0.00     0.051 H 
ATOM     34  H   UNL     1     -46.170  27.470  25.094  1.00  0.00     0.051 H 
ATOM     35  N   UNL     1     -47.539  24.576  26.382  1.00  0.00    -0.313 NA
ATOM     36  H   UNL     1     -48.975  25.681  27.464  1.00  0.00     0.045 H 
ATOM     37  H   UNL     1     -49.617  24.318  26.546  1.00  0.00     0.045 H 
ATOM     38  H   UNL     1     -45.572  25.244  26.061  1.00  0.00     0.045 H 
ATOM     39  H   UNL     1     -46.509  26.235  27.179  1.00  0.00     0.045 H 
ATOM     40  H   UNL     1     -47.318  24.049  27.225  1.00  0.00     0.122 HD
ENDBRANCH   9  26
ENDBRANCH   4   5
ENDBRANCH   1   4
BRANCH   1  41
ATOM     41  C   UNL     1     -47.788  35.601  26.720  1.00  0.00     0.010 A 
ATOM     42  C   UNL     1     -48.998  35.851  27.351  1.00  0.00     0.034 A 
ATOM     43  C   UNL     1     -46.808  36.606  26.777  1.00  0.00    -0.028 A 
ATOM     44  N   UNL     1     -49.283  37.004  27.990  1.00  0.00    -0.262 NA
ATOM     45  H   UNL     1     -49.797  35.114  27.362  1.00  0.00     0.084 H 
ATOM     46  C   UNL     1     -47.067  37.822  27.429  1.00  0.00     0.066 A 
ATOM     47  H   UNL     1     -45.850  36.397  26.314  1.00  0.00     0.065 H 
ATOM     48  C   UNL     1     -48.320  37.961  28.014  1.00  0.00     0.051 A 
ATOM     49  H   UNL     1     -48.646  38.854  28.534  1.00  0.00     0.086 H 
BRANCH  46  50
ATOM     50  N   UNL     1     -46.081  38.863  27.481  1.00  0.00    -0.299 N 
ATOM     51  C   UNL     1     -45.972  39.897  26.565  1.00  0.00     0.021 A 
ATOM     52  C   UNL     1     -45.069  39.047  28.427  1.00  0.00     0.150 A 
ATOM     53  C   UNL     1     -44.929  40.726  26.921  1.00  0.00     0.033 A 
ATOM     54  H   UNL     1     -46.663  40.001  25.743  1.00  0.00     0.083 H 
ATOM     55  C   UNL     1     -44.332  40.182  28.091  1.00  0.00     0.071 A 
ATOM     56  N   UNL     1     -44.821  38.254  29.489  1.00  0.00    -0.218 NA
ATOM     57  C   UNL     1     -43.245  40.499  28.928  1.00  0.00     0.137 A 
ATOM     58  C   UNL     1     -43.782  38.668  30.222  1.00  0.00     0.120 A 
ATOM     59  N   UNL     1     -42.998  39.733  30.007  1.00  0.00    -0.219 NA
ATOM     60  H   UNL     1     -43.542  38.069  31.095  1.00  0.00     0.106 H 
BRANCH  53  61
ATOM     61  C   UNL     1     -44.529  41.951  26.222  1.00  0.00     0.095 A 
ATOM     62  C   UNL     1     -44.177  42.014  24.854  1.00  0.00    -0.016 A 
ATOM     63  N   UNL     1     -44.483  43.160  26.800  1.00  0.00    -0.173 NA
ATOM     64  C   UNL     1     -43.893  43.340  24.619  1.00  0.00     0.025 A 
ATOM     65  H   UNL     1     -44.125  41.208  24.137  1.00  0.00     0.066 H 
ATOM     66  N   UNL     1     -44.087  43.979  25.807  1.00  0.00    -0.275 N 
ATOM     67  H   UNL     1     -43.575  43.863  23.728  1.00  0.00     0.084 H 
BRANCH  66  68
ATOM     68  C   UNL     1     -43.911  45.386  26.075  1.00  0.00     0.030 C 
ATOM     69  H   UNL     1     -42.839  45.594  26.125  1.00  0.00     0.048 H 
ATOM     70  H   UNL     1     -44.387  45.638  27.025  1.00  0.00     0.048 H 
ATOM     71  H   UNL     1     -44.376  45.951  25.262  1.00  0.00     0.048 H 
ENDBRANCH  66  68
ENDBRANCH  53  61
BRANCH  57  72
ATOM     72  N   UNL     1     -42.386  41.568  28.718  1.00  0.00    -0.383 N 
ATOM     73  H   UNL     1     -42.705  42.187  27.968  1.00  0.00     0.158 HD
ATOM     74  H   UNL     1     -42.122  42.006  29.590  1.00  0.00     0.158 HD
ENDBRANCH  57  72
ENDBRANCH  46  50
ENDBRANCH   1  41
TORSDOF 10
ENDMDL
MODEL 5
REMARK VINA RESULT:      -9.7      2.107     12.797
REMARK SMILES CCc1cc(N2CCNCC2)c2ccc(OCc3cncc(-n4cc(-c5ccn(C)n5)c5c(N)ncnc54)c3)cc2n1
REMARK SMILES IDX 17 1 16 4 15 5 3 6 4 7 42 8 5 9 41 11 12 12 40 13 13 14
REMARK SMILES IDX 14 16 2 19 1 22 6 26 7 27 11 28 8 29 10 32 9 35 18 41 19 42
REMARK SMILES IDX 39 43 20 44 22 46 21 48 23 50 24 51 38 52 25 53 32 55 37 56
REMARK SMILES IDX 33 57 36 58 35 59 26 61 27 62 31 63 28 64 29 66 30 68 34 72
REMARK H PARENT 17 2 17 3 4 10 40 15 13 17 14 18 2 20 2 21 1 23 1 24 1 25 7 30
REMARK H PARENT 7 31 11 33 11 34 8 36 8 37 10 38 10 39 9 40 19 45 39 47 21 49
REMARK H PARENT 24 54 36 60 27 65 28 67 30 69 30 70 30 71 34 73 34 74
REMARK Flexibility Score: inf
ROOT
ATOM      1  C   UNL     1     -48.697  35.711  27.327  1.00  0.00     0.115 C 
ATOM      2  H   UNL     1     -49.232  36.442  26.708  1.00  0.00     0.076 H 
ATOM      3  H   UNL     1     -49.461  35.201  27.925  1.00  0.00     0.076 H 
ENDROOT
BRANCH   1   4
ATOM      4  O   UNL     1     -47.827  36.367  28.253  1.00  0.00    -0.489 OA
BRANCH   4   5
ATOM      5  C   UNL     1     -47.199  37.514  27.854  1.00  0.00     0.122 A 
ATOM      6  C   UNL     1     -43.432  40.275  28.771  1.00  0.00     0.043 A 
ATOM      7  C   UNL     1     -43.743  41.165  27.751  1.00  0.00    -0.016 A 
ATOM      8  N   UNL     1     -44.189  39.189  29.047  1.00  0.00    -0.253 NA
ATOM      9  C   UNL     1     -44.877  40.940  26.966  1.00  0.00     0.048 A 
ATOM     10  H   UNL     1     -43.094  42.012  27.566  1.00  0.00     0.066 H 
ATOM     11  C   UNL     1     -45.277  38.954  28.297  1.00  0.00     0.076 A 
ATOM     12  C   UNL     1     -45.672  39.798  27.239  1.00  0.00     0.024 A 
ATOM     13  C   UNL     1     -46.045  37.831  28.576  1.00  0.00     0.007 A 
ATOM     14  C   UNL     1     -46.835  39.473  26.507  1.00  0.00    -0.047 A 
ATOM     15  H   UNL     1     -45.730  37.180  29.389  1.00  0.00     0.069 H 
ATOM     16  C   UNL     1     -47.591  38.339  26.808  1.00  0.00    -0.019 A 
ATOM     17  H   UNL     1     -47.150  40.114  25.686  1.00  0.00     0.063 H 
ATOM     18  H   UNL     1     -48.460  38.130  26.196  1.00  0.00     0.066 H 
BRANCH   6  19
ATOM     19  C   UNL     1     -42.227  40.503  29.645  1.00  0.00    -0.013 C 
ATOM     20  H   UNL     1     -42.523  40.417  30.697  1.00  0.00     0.033 H 
ATOM     21  H   UNL     1     -41.482  39.719  29.465  1.00  0.00     0.033 H 
BRANCH  19  22
ATOM     22  C   UNL     1     -41.613  41.874  29.404  1.00  0.00    -0.060 C 
ATOM     23  H   UNL     1     -40.720  41.801  28.775  1.00  0.00     0.023 H 
ATOM     24  H   UNL     1     -41.322  42.351  30.347  1.00  0.00     0.023 H 
ATOM     25  H   UNL     1     -42.332  42.528  28.902  1.00  0.00     0.023 H 
ENDBRANCH  19  22
ENDBRANCH   6  19
BRANCH   9  26
ATOM     26  N   UNL     1     -45.227  41.798  25.895  1.00  0.00    -0.368 N 
ATOM     27  C   UNL     1     -46.076  42.951  26.270  1.00  0.00     0.030 C 
ATOM     28  C   UNL     1     -44.033  42.223  25.126  1.00  0.00     0.030 C 
ATOM     29  C   UNL     1     -46.489  43.729  24.999  1.00  0.00     0.013 C 
ATOM     30  H   UNL     1     -46.981  42.600  26.780  1.00  0.00     0.051 H 
ATOM     31  H   UNL     1     -45.546  43.635  26.946  1.00  0.00     0.051 H 
ATOM     32  C   UNL     1     -44.470  43.030  23.881  1.00  0.00     0.013 C 
ATOM     33  H   UNL     1     -43.372  42.843  25.749  1.00  0.00     0.051 H 
ATOM     34  H   UNL     1     -43.463  41.348  24.793  1.00  0.00     0.051 H 
ATOM     35  N   UNL     1     -45.333  44.187  24.200  1.00  0.00    -0.313 NA
ATOM     36  H   UNL     1     -47.131  43.095  24.375  1.00  0.00     0.045 H 
ATOM     37  H   UNL     1     -47.080  44.603  25.290  1.00  0.00     0.045 H 
ATOM     38  H   UNL     1     -43.578  43.392  23.359  1.00  0.00     0.045 H 
ATOM     39  H   UNL     1     -45.003  42.367  23.188  1.00  0.00     0.045 H 
ATOM     40  H   UNL     1     -45.672  44.595  23.331  1.00  0.00     0.122 HD
ENDBRANCH   9  26
ENDBRANCH   4   5
ENDBRANCH   1   4
BRANCH   1  41
ATOM     41  C   UNL     1     -48.003  34.664  26.496  1.00  0.00     0.010 A 
ATOM     42  C   UNL     1     -46.673  34.792  26.123  1.00  0.00     0.034 A 
ATOM     43  C   UNL     1     -48.670  33.486  26.121  1.00  0.00    -0.028 A 
ATOM     44  N   UNL     1     -46.003  33.862  25.411  1.00  0.00    -0.262 NA
ATOM     45  H   UNL     1     -46.088  35.668  26.392  1.00  0.00     0.084 H 
ATOM     46  C   UNL     1     -48.009  32.496  25.376  1.00  0.00     0.066 A 
ATOM     47  H   UNL     1     -49.700  33.370  26.442  1.00  0.00     0.065 H 
ATOM     48  C   UNL     1     -46.680  32.742  25.053  1.00  0.00     0.051 A 
ATOM     49  H   UNL     1     -46.067  32.064  24.472  1.00  0.00     0.086 H 
BRANCH  46  50
ATOM     50  N   UNL     1     -48.683  31.294  24.973  1.00  0.00    -0.299 N 
ATOM     51  C   UNL     1     -48.686  30.109  25.690  1.00  0.00     0.021 A 
ATOM     52  C   UNL     1     -49.448  31.079  23.824  1.00  0.00     0.150 A 
ATOM     53  C   UNL     1     -49.441  29.165  25.027  1.00  0.00     0.033 A 
ATOM     54  H   UNL     1     -48.186  30.022  26.642  1.00  0.00     0.083 H 
ATOM     55  C   UNL     1     -49.912  29.763  23.826  1.00  0.00     0.071 A 
ATOM     56  N   UNL     1     -49.694  31.980  22.852  1.00  0.00    -0.218 NA
ATOM     57  C   UNL     1     -50.680  29.364  22.715  1.00  0.00     0.137 A 
ATOM     58  C   UNL     1     -50.452  31.494  21.864  1.00  0.00     0.120 A 
ATOM     59  N   UNL     1     -50.956  30.258  21.749  1.00  0.00    -0.219 NA
ATOM     60  H   UNL     1     -50.687  32.181  21.057  1.00  0.00     0.106 H 
BRANCH  53  61
ATOM     61  C   UNL     1     -49.715  27.802  25.493  1.00  0.00     0.095 A 
ATOM     62  C   UNL     1     -48.734  26.797  25.649  1.00  0.00    -0.016 A 
ATOM     63  N   UNL     1     -50.930  27.367  25.853  1.00  0.00    -0.173 NA
ATOM     64  C   UNL     1     -49.419  25.699  26.117  1.00  0.00     0.025 A 
ATOM     65  H   UNL     1     -47.676  26.854  25.440  1.00  0.00     0.066 H 
ATOM     66  N   UNL     1     -50.721  26.087  26.219  1.00  0.00    -0.275 N 
ATOM     67  H   UNL     1     -49.092  24.700  26.375  1.00  0.00     0.084 H 
BRANCH  66  68
ATOM     68  C   UNL     1     -51.834  25.283  26.661  1.00  0.00     0.030 C 
ATOM     69  H   UNL     1     -51.675  24.258  26.318  1.00  0.00     0.048 H 
ATOM     70  H   UNL     1     -52.760  25.680  26.238  1.00  0.00     0.048 H 
ATOM     71  H   UNL     1     -51.874  25.324  27.753  1.00  0.00     0.048 H 
ENDBRANCH  66  68
ENDBRANCH  53  61
BRANCH  57  72
ATOM     72  N   UNL     1     -51.186  28.084  22.538  1.00  0.00    -0.383 N 
ATOM     73  H   UNL     1     -51.422  27.887  21.561  1.00  0.00     0.158 HD
ATOM     74  H   UNL     1     -50.625  27.395  23.019  1.00  0.00     0.158 HD
ENDBRANCH  57  72
ENDBRANCH  46  50
ENDBRANCH   1  41
TORSDOF 10
ENDMDL
MODEL 6
REMARK VINA RESULT:      -9.7      1.624      1.933
REMARK SMILES CCc1cc(N2CCNCC2)c2ccc(OCc3cncc(-n4cc(-c5ccn(C)n5)c5c(N)ncnc54)c3)cc2n1
REMARK SMILES IDX 17 1 16 4 15 5 3 6 4 7 42 8 5 9 41 11 12 12 40 13 13 14
REMARK SMILES IDX 14 16 2 19 1 22 6 26 7 27 11 28 8 29 10 32 9 35 18 41 19 42
REMARK SMILES IDX 39 43 20 44 22 46 21 48 23 50 24 51 38 52 25 53 32 55 37 56
REMARK SMILES IDX 33 57 36 58 35 59 26 61 27 62 31 63 28 64 29 66 30 68 34 72
REMARK H PARENT 17 2 17 3 4 10 40 15 13 17 14 18 2 20 2 21 1 23 1 24 1 25 7 30
REMARK H PARENT 7 31 11 33 11 34 8 36 8 37 10 38 10 39 9 40 19 45 39 47 21 49
REMARK H PARENT 24 54 36 60 27 65 28 67 30 69 30 70 30 71 34 73 34 74
REMARK Flexibility Score: inf
ROOT
ATOM      1  C   UNL     1     -46.787  35.375  27.695  1.00  0.00     0.115 C 
ATOM      2  H   UNL     1     -46.054  35.136  28.475  1.00  0.00     0.076 H 
ATOM      3  H   UNL     1     -47.686  34.795  27.934  1.00  0.00     0.076 H 
ENDROOT
BRANCH   1   4
ATOM      4  O   UNL     1     -46.339  34.919  26.416  1.00  0.00    -0.489 OA
BRANCH   4   5
ATOM      5  C   UNL     1     -46.974  33.850  25.848  1.00  0.00     0.122 A 
ATOM      6  C   UNL     1     -46.267  30.127  22.968  1.00  0.00     0.043 A 
ATOM      7  C   UNL     1     -47.577  29.685  23.096  1.00  0.00    -0.016 A 
ATOM      8  N   UNL     1     -45.807  31.236  23.590  1.00  0.00    -0.253 NA
ATOM      9  C   UNL     1     -48.467  30.401  23.901  1.00  0.00     0.048 A 
ATOM     10  H   UNL     1     -47.888  28.782  22.584  1.00  0.00     0.066 H 
ATOM     11  C   UNL     1     -46.648  31.930  24.375  1.00  0.00     0.076 A 
ATOM     12  C   UNL     1     -47.994  31.558  24.568  1.00  0.00     0.024 A 
ATOM     13  C   UNL     1     -46.169  33.061  25.022  1.00  0.00     0.007 A 
ATOM     14  C   UNL     1     -48.804  32.352  25.409  1.00  0.00    -0.047 A 
ATOM     15  H   UNL     1     -45.127  33.339  24.874  1.00  0.00     0.069 H 
ATOM     16  C   UNL     1     -48.300  33.486  26.046  1.00  0.00    -0.019 A 
ATOM     17  H   UNL     1     -49.845  32.076  25.569  1.00  0.00     0.063 H 
ATOM     18  H   UNL     1     -48.965  34.042  26.697  1.00  0.00     0.066 H 
BRANCH   6  19
ATOM     19  C   UNL     1     -45.291  29.387  22.091  1.00  0.00    -0.013 C 
ATOM     20  H   UNL     1     -45.756  29.193  21.117  1.00  0.00     0.033 H 
ATOM     21  H   UNL     1     -44.413  30.015  21.898  1.00  0.00     0.033 H 
BRANCH  19  22
ATOM     22  C   UNL     1     -44.865  28.068  22.718  1.00  0.00    -0.060 C 
ATOM     23  H   UNL     1     -43.886  28.158  23.200  1.00  0.00     0.023 H 
ATOM     24  H   UNL     1     -44.799  27.273  21.968  1.00  0.00     0.023 H 
ATOM     25  H   UNL     1     -45.591  27.758  23.477  1.00  0.00     0.023 H 
ENDBRANCH  19  22
ENDBRANCH   6  19
BRANCH   9  26
ATOM     26  N   UNL     1     -49.806  29.981  24.091  1.00  0.00    -0.368 N 
ATOM     27  C   UNL     1     -50.798  30.639  23.212  1.00  0.00     0.030 C 
ATOM     28  C   UNL     1     -49.925  28.503  24.042  1.00  0.00     0.030 C 
ATOM     29  C   UNL     1     -52.224  30.189  23.607  1.00  0.00     0.013 C 
ATOM     30  H   UNL     1     -50.728  31.728  23.319  1.00  0.00     0.051 H 
ATOM     31  H   UNL     1     -50.628  30.387  22.157  1.00  0.00     0.051 H 
ATOM     32  C   UNL     1     -51.369  28.081  24.405  1.00  0.00     0.013 C 
ATOM     33  H   UNL     1     -49.676  28.128  23.039  1.00  0.00     0.051 H 
ATOM     34  H   UNL     1     -49.236  28.041  24.758  1.00  0.00     0.051 H 
ATOM     35  N   UNL     1     -52.401  28.722  23.563  1.00  0.00    -0.313 NA
ATOM     36  H   UNL     1     -52.455  30.551  24.617  1.00  0.00     0.045 H 
ATOM     37  H   UNL     1     -52.946  30.648  22.925  1.00  0.00     0.045 H 
ATOM     38  H   UNL     1     -51.459  26.994  24.301  1.00  0.00     0.045 H 
ATOM     39  H   UNL     1     -51.564  28.322  25.457  1.00  0.00     0.045 H 
ATOM     40  H   UNL     1     -53.321  28.489  23.933  1.00  0.00     0.122 HD
ENDBRANCH   9  26
ENDBRANCH   4   5
ENDBRANCH   1   4
BRANCH   1  41
ATOM     41  C   UNL     1     -47.175  36.831  27.707  1.00  0.00     0.010 A 
ATOM     42  C   UNL     1     -48.444  37.244  28.084  1.00  0.00     0.034 A 
ATOM     43  C   UNL     1     -46.236  37.827  27.394  1.00  0.00    -0.028 A 
ATOM     44  N   UNL     1     -48.822  38.537  28.145  1.00  0.00    -0.262 NA
ATOM     45  H   UNL     1     -49.218  36.530  28.357  1.00  0.00     0.084 H 
ATOM     46  C   UNL     1     -46.591  39.185  27.441  1.00  0.00     0.066 A 
ATOM     47  H   UNL     1     -45.233  37.506  27.133  1.00  0.00     0.065 H 
ATOM     48  C   UNL     1     -47.895  39.475  27.822  1.00  0.00     0.051 A 
ATOM     49  H   UNL     1     -48.294  40.480  27.884  1.00  0.00     0.086 H 
BRANCH  46  50
ATOM     50  N   UNL     1     -45.646  40.213  27.108  1.00  0.00    -0.299 N 
ATOM     51  C   UNL     1     -45.776  41.094  26.047  1.00  0.00     0.021 A 
ATOM     52  C   UNL     1     -44.451  40.529  27.759  1.00  0.00     0.150 A 
ATOM     53  C   UNL     1     -44.701  41.958  26.025  1.00  0.00     0.033 A 
ATOM     54  H   UNL     1     -46.639  41.077  25.399  1.00  0.00     0.083 H 
ATOM     55  C   UNL     1     -43.839  41.594  27.095  1.00  0.00     0.071 A 
ATOM     56  N   UNL     1     -43.947  39.906  28.842  1.00  0.00    -0.218 NA
ATOM     57  C   UNL     1     -42.599  42.024  27.604  1.00  0.00     0.137 A 
ATOM     58  C   UNL     1     -42.779  40.417  29.247  1.00  0.00     0.120 A 
ATOM     59  N   UNL     1     -42.093  41.430  28.700  1.00  0.00    -0.219 NA
ATOM     60  H   UNL     1     -42.331  39.956  30.122  1.00  0.00     0.106 H 
BRANCH  53  61
ATOM     61  C   UNL     1     -44.504  43.058  25.077  1.00  0.00     0.095 A 
ATOM     62  C   UNL     1     -44.108  42.894  23.730  1.00  0.00    -0.016 A 
ATOM     63  N   UNL     1     -44.708  44.349  25.377  1.00  0.00    -0.173 NA
ATOM     64  C   UNL     1     -44.063  44.168  23.212  1.00  0.00     0.025 A 
ATOM     65  H   UNL     1     -43.875  41.978  23.206  1.00  0.00     0.066 H 
ATOM     66  N   UNL     1     -44.425  44.997  24.231  1.00  0.00    -0.275 N 
ATOM     67  H   UNL     1     -43.807  44.539  22.229  1.00  0.00     0.084 H 
BRANCH  66  68
ATOM     68  C   UNL     1     -44.524  46.435  24.185  1.00  0.00     0.030 C 
ATOM     69  H   UNL     1     -43.803  46.807  23.452  1.00  0.00     0.048 H 
ATOM     70  H   UNL     1     -44.300  46.847  25.172  1.00  0.00     0.048 H 
ATOM     71  H   UNL     1     -45.543  46.701  23.892  1.00  0.00     0.048 H 
ENDBRANCH  66  68
ENDBRANCH  53  61
BRANCH  57  72
ATOM     72  N   UNL     1     -41.839  43.040  27.045  1.00  0.00    -0.383 N 
ATOM     73  H   UNL     1     -41.941  43.094  26.027  1.00  0.00     0.158 HD
ATOM     74  H   UNL     1     -41.941  43.904  27.559  1.00  0.00     0.158 HD
ENDBRANCH  57  72
ENDBRANCH  46  50
ENDBRANCH   1  41
TORSDOF 10
ENDMDL
MODEL 7
REMARK VINA RESULT:      -9.5      2.342     12.327
REMARK SMILES CCc1cc(N2CCNCC2)c2ccc(OCc3cncc(-n4cc(-c5ccn(C)n5)c5c(N)ncnc54)c3)cc2n1
REMARK SMILES IDX 17 1 16 4 15 5 3 6 4 7 42 8 5 9 41 11 12 12 40 13 13 14
REMARK SMILES IDX 14 16 2 19 1 22 6 26 7 27 11 28 8 29 10 32 9 35 18 41 19 42
REMARK SMILES IDX 39 43 20 44 22 46 21 48 23 50 24 51 38 52 25 53 32 55 37 56
REMARK SMILES IDX 33 57 36 58 35 59 26 61 27 62 31 63 28 64 29 66 30 68 34 72
REMARK H PARENT 17 2 17 3 4 10 40 15 13 17 14 18 2 20 2 21 1 23 1 24 1 25 7 30
REMARK H PARENT 7 31 11 33 11 34 8 36 8 37 10 38 10 39 9 40 19 45 39 47 21 49
REMARK H PARENT 24 54 36 60 27 65 28 67 30 69 30 70 30 71 34 73 34 74
REMARK Flexibility Score: inf
ROOT
ATOM      1  C   UNL     1     -48.002  36.545  27.297  1.00  0.00     0.115 C 
ATOM      2  H   UNL     1     -48.224  36.984  26.316  1.00  0.00     0.076 H 
ATOM      3  H   UNL     1     -48.961  36.478  27.824  1.00  0.00     0.076 H 
ENDROOT
BRANCH   1   4
ATOM      4  O   UNL     1     -47.174  37.416  28.071  1.00  0.00    -0.489 OA
BRANCH   4   5
ATOM      5  C   UNL     1     -46.715  38.564  27.487  1.00  0.00     0.122 A 
ATOM      6  C   UNL     1     -48.019  42.988  26.311  1.00  0.00     0.043 A 
ATOM      7  C   UNL     1     -46.769  43.298  25.793  1.00  0.00    -0.016 A 
ATOM      8  N   UNL     1     -48.311  41.776  26.836  1.00  0.00    -0.253 NA
ATOM      9  C   UNL     1     -45.759  42.332  25.812  1.00  0.00     0.048 A 
ATOM     10  H   UNL     1     -46.587  44.290  25.396  1.00  0.00     0.066 H 
ATOM     11  C   UNL     1     -47.350  40.840  26.869  1.00  0.00     0.076 A 
ATOM     12  C   UNL     1     -46.051  41.062  26.370  1.00  0.00     0.024 A 
ATOM     13  C   UNL     1     -47.650  39.601  27.420  1.00  0.00     0.007 A 
ATOM     14  C   UNL     1     -45.105  40.015  26.444  1.00  0.00    -0.047 A 
ATOM     15  H   UNL     1     -48.652  39.439  27.811  1.00  0.00     0.069 H 
ATOM     16  C   UNL     1     -45.432  38.778  27.000  1.00  0.00    -0.019 A 
ATOM     17  H   UNL     1     -44.098  40.173  26.064  1.00  0.00     0.063 H 
ATOM     18  H   UNL     1     -44.657  38.022  27.050  1.00  0.00     0.066 H 
BRANCH   6  19
ATOM     19  C   UNL     1     -49.132  44.003  26.287  1.00  0.00    -0.013 C 
ATOM     20  H   UNL     1     -49.662  43.980  27.246  1.00  0.00     0.033 H 
ATOM     21  H   UNL     1     -48.714  45.012  26.185  1.00  0.00     0.033 H 
BRANCH  19  22
ATOM     22  C   UNL     1     -50.116  43.727  25.160  1.00  0.00    -0.060 C 
ATOM     23  H   UNL     1     -49.596  43.404  24.252  1.00  0.00     0.023 H 
ATOM     24  H   UNL     1     -50.699  44.621  24.913  1.00  0.00     0.023 H 
ATOM     25  H   UNL     1     -50.814  42.937  25.452  1.00  0.00     0.023 H 
ENDBRANCH  19  22
ENDBRANCH   6  19
BRANCH   9  26
ATOM     26  N   UNL     1     -44.458  42.601  25.322  1.00  0.00    -0.368 N 
ATOM     27  C   UNL     1     -44.413  43.312  24.025  1.00  0.00     0.030 C 
ATOM     28  C   UNL     1     -43.621  43.273  26.345  1.00  0.00     0.030 C 
ATOM     29  C   UNL     1     -42.948  43.428  23.546  1.00  0.00     0.013 C 
ATOM     30  H   UNL     1     -44.989  42.757  23.275  1.00  0.00     0.051 H 
ATOM     31  H   UNL     1     -44.839  44.321  24.106  1.00  0.00     0.051 H 
ATOM     32  C   UNL     1     -42.169  43.410  25.828  1.00  0.00     0.013 C 
ATOM     33  H   UNL     1     -44.020  44.269  26.579  1.00  0.00     0.051 H 
ATOM     34  H   UNL     1     -43.606  42.687  27.271  1.00  0.00     0.051 H 
ATOM     35  N   UNL     1     -42.070  44.102  24.525  1.00  0.00    -0.313 NA
ATOM     36  H   UNL     1     -42.551  42.427  23.335  1.00  0.00     0.045 H 
ATOM     37  H   UNL     1     -42.921  43.992  22.608  1.00  0.00     0.045 H 
ATOM     38  H   UNL     1     -41.578  43.965  26.564  1.00  0.00     0.045 H 
ATOM     39  H   UNL     1     -41.720  42.413  25.738  1.00  0.00     0.045 H 
ATOM     40  H   UNL     1     -41.107  44.051  24.197  1.00  0.00     0.122 HD
ENDBRANCH   9  26
ENDBRANCH   4   5
ENDBRANCH   1   4
BRANCH   1  41
ATOM     41  C   UNL     1     -47.454  35.147  27.182  1.00  0.00     0.010 A 
ATOM     42  C   UNL     1     -46.523  34.652  28.084  1.00  0.00     0.034 A 
ATOM     43  C   UNL     1     -47.919  34.272  26.186  1.00  0.00    -0.028 A 
ATOM     44  N   UNL     1     -46.034  33.396  28.039  1.00  0.00    -0.262 NA
ATOM     45  H   UNL     1     -46.131  35.266  28.891  1.00  0.00     0.084 H 
ATOM     46  C   UNL     1     -47.432  32.958  26.104  1.00  0.00     0.066 A 
ATOM     47  H   UNL     1     -48.673  34.648  25.503  1.00  0.00     0.065 H 
ATOM     48  C   UNL     1     -46.493  32.580  27.056  1.00  0.00     0.051 A 
ATOM     49  H   UNL     1     -46.032  31.601  27.091  1.00  0.00     0.086 H 
BRANCH  46  50
ATOM     50  N   UNL     1     -47.886  32.059  25.082  1.00  0.00    -0.299 N 
ATOM     51  C   UNL     1     -49.069  31.337  25.130  1.00  0.00     0.021 A 
ATOM     52  C   UNL     1     -47.261  31.739  23.874  1.00  0.00     0.150 A 
ATOM     53  C   UNL     1     -49.203  30.587  23.981  1.00  0.00     0.033 A 
ATOM     54  H   UNL     1     -49.756  31.431  25.956  1.00  0.00     0.083 H 
ATOM     55  C   UNL     1     -48.048  30.816  23.184  1.00  0.00     0.071 A 
ATOM     56  N   UNL     1     -46.081  32.222  23.438  1.00  0.00    -0.218 NA
ATOM     57  C   UNL     1     -47.547  30.358  21.951  1.00  0.00     0.137 A 
ATOM     58  C   UNL     1     -45.721  31.733  22.246  1.00  0.00     0.120 A 
ATOM     59  N   UNL     1     -46.383  30.848  21.489  1.00  0.00    -0.219 NA
ATOM     60  H   UNL     1     -44.780  32.094  21.844  1.00  0.00     0.106 H 
BRANCH  53  61
ATOM     61  C   UNL     1     -50.342  29.727  23.646  1.00  0.00     0.095 A 
ATOM     62  C   UNL     1     -51.697  30.113  23.756  1.00  0.00    -0.016 A 
ATOM     63  N   UNL     1     -50.221  28.481  23.166  1.00  0.00    -0.173 NA
ATOM     64  C   UNL     1     -52.417  29.021  23.327  1.00  0.00     0.025 A 
ATOM     65  H   UNL     1     -52.101  31.051  24.108  1.00  0.00     0.066 H 
ATOM     66  N   UNL     1     -51.494  28.076  22.990  1.00  0.00    -0.275 N 
ATOM     67  H   UNL     1     -53.480  28.846  23.240  1.00  0.00     0.084 H 
BRANCH  66  68
ATOM     68  C   UNL     1     -51.755  26.749  22.489  1.00  0.00     0.030 C 
ATOM     69  H   UNL     1     -52.647  26.788  21.859  1.00  0.00     0.048 H 
ATOM     70  H   UNL     1     -51.919  26.068  23.327  1.00  0.00     0.048 H 
ATOM     71  H   UNL     1     -50.887  26.424  21.908  1.00  0.00     0.048 H 
ENDBRANCH  66  68
ENDBRANCH  53  61
BRANCH  57  72
ATOM     72  N   UNL     1     -48.180  29.413  21.155  1.00  0.00    -0.383 N 
ATOM     73  H   UNL     1     -47.588  28.600  20.965  1.00  0.00     0.158 HD
ATOM     74  H   UNL     1     -49.119  29.227  21.479  1.00  0.00     0.158 HD
ENDBRANCH  57  72
ENDBRANCH  46  50
ENDBRANCH   1  41
TORSDOF 10
ENDMDL
