MODEL 1
REMARK VINA RESULT:      -9.9      0.000      0.000
REMARK SMILES CNc1ccc2ccc(OC[C@H]3O[C@@H](n4cc(CC5CC5)c5c(N)ncnc54)[C@@H](F)[C@@H]3O)cc2n1
REMARK SMILES IDX 11 1 10 4 9 5 3 6 4 7 35 8 5 9 34 11 6 12 33 14 7 15 8 17
REMARK SMILES IDX 2 20 1 22 12 26 13 27 31 28 14 30 29 31 30 34 32 36 15 38
REMARK SMILES IDX 16 39 28 40 17 41 22 43 27 44 23 45 26 46 25 47 18 49 19 52
REMARK SMILES IDX 20 53 21 54 24 60
REMARK H PARENT 11 2 11 3 4 10 5 13 33 16 7 18 8 19 2 21 1 23 1 24 1 25 12 29
REMARK H PARENT 31 32 14 33 29 35 32 37 16 42 26 48 18 50 18 51 19 55 20 56
REMARK H PARENT 20 57 21 58 21 59 24 61 24 62
REMARK Flexibility Score: inf
ROOT
ATOM      1  C   UNL     1     -45.559  35.245  26.968  1.00  0.00     0.117 C 
ATOM      2  H   UNL     1     -45.062  34.279  27.119  1.00  0.00     0.073 H 
ATOM      3  H   UNL     1     -44.797  35.860  26.476  1.00  0.00     0.073 H 
ENDROOT
BRANCH   1   4
ATOM      4  O   UNL     1     -46.660  35.152  26.064  1.00  0.00    -0.491 OA
BRANCH   4   5
ATOM      5  C   UNL     1     -47.158  33.919  25.750  1.00  0.00     0.121 A 
ATOM      6  C   UNL     1     -46.400  30.128  22.972  1.00  0.00     0.126 A 
ATOM      7  C   UNL     1     -47.524  29.478  23.458  1.00  0.00    -0.019 A 
ATOM      8  N   UNL     1     -46.039  31.356  23.393  1.00  0.00    -0.231 NA
ATOM      9  C   UNL     1     -48.297  30.104  24.429  1.00  0.00    -0.049 A 
ATOM     10  H   UNL     1     -47.811  28.504  23.076  1.00  0.00     0.066 H 
ATOM     11  C   UNL     1     -46.784  31.966  24.333  1.00  0.00     0.076 A 
ATOM     12  C   UNL     1     -47.933  31.373  24.887  1.00  0.00     0.001 A 
ATOM     13  H   UNL     1     -49.180  29.602  24.813  1.00  0.00     0.063 H 
ATOM     14  C   UNL     1     -46.420  33.228  24.780  1.00  0.00     0.007 A 
ATOM     15  C   UNL     1     -48.679  32.053  25.863  1.00  0.00    -0.049 A 
ATOM     16  H   UNL     1     -45.531  33.692  24.358  1.00  0.00     0.069 H 
ATOM     17  C   UNL     1     -48.291  33.323  26.293  1.00  0.00    -0.019 A 
ATOM     18  H   UNL     1     -49.566  31.595  26.296  1.00  0.00     0.063 H 
ATOM     19  H   UNL     1     -48.896  33.807  27.053  1.00  0.00     0.066 H 
BRANCH   6  20
ATOM     20  N   UNL     1     -45.585  29.569  21.985  1.00  0.00    -0.373 N 
ATOM     21  H   UNL     1     -45.149  30.381  21.544  1.00  0.00     0.161 HD
BRANCH  20  22
ATOM     22  C   UNL     1     -44.585  28.646  22.494  1.00  0.00     0.005 C 
ATOM     23  H   UNL     1     -43.820  29.212  23.035  1.00  0.00     0.045 H 
ATOM     24  H   UNL     1     -44.080  28.110  21.685  1.00  0.00     0.045 H 
ATOM     25  H   UNL     1     -45.023  27.924  23.192  1.00  0.00     0.045 H 
ENDBRANCH  20  22
ENDBRANCH   6  20
ENDBRANCH   4   5
ENDBRANCH   1   4
BRANCH   1  26
ATOM     26  C   UNL     1     -45.973  35.894  28.295  1.00  0.00     0.123 C 
ATOM     27  O   UNL     1     -45.082  36.996  28.569  1.00  0.00    -0.345 OA
ATOM     28  C   UNL     1     -47.402  36.451  28.273  1.00  0.00     0.119 C 
ATOM     29  H   UNL     1     -45.863  35.177  29.115  1.00  0.00     0.067 H 
ATOM     30  C   UNL     1     -45.869  38.213  28.541  1.00  0.00     0.169 C 
ATOM     31  C   UNL     1     -47.185  37.885  27.850  1.00  0.00     0.173 C 
ATOM     32  H   UNL     1     -48.073  35.909  27.601  1.00  0.00     0.066 H 
ATOM     33  H   UNL     1     -46.028  38.498  29.589  1.00  0.00     0.088 H 
ATOM     34  F   UNL     1     -47.046  37.913  26.494  1.00  0.00    -0.239 F 
ATOM     35  H   UNL     1     -47.991  38.568  28.129  1.00  0.00     0.074 H 
BRANCH  28  36
ATOM     36  O   UNL     1     -47.973  36.430  29.587  1.00  0.00    -0.387 OA
ATOM     37  H   UNL     1     -48.871  36.057  29.507  1.00  0.00     0.211 HD
ENDBRANCH  28  36
BRANCH  30  38
ATOM     38  N   UNL     1     -45.121  39.283  27.904  1.00  0.00    -0.303 N 
ATOM     39  C   UNL     1     -45.368  39.861  26.685  1.00  0.00     0.012 A 
ATOM     40  C   UNL     1     -44.027  39.879  28.479  1.00  0.00     0.147 A 
ATOM     41  C   UNL     1     -44.421  40.849  26.466  1.00  0.00    -0.017 A 
ATOM     42  H   UNL     1     -46.195  39.532  26.070  1.00  0.00     0.082 H 
ATOM     43  C   UNL     1     -43.554  40.856  27.609  1.00  0.00     0.064 A 
ATOM     44  N   UNL     1     -43.520  39.558  29.682  1.00  0.00    -0.218 NA
ATOM     45  C   UNL     1     -42.422  41.570  28.039  1.00  0.00     0.136 A 
ATOM     46  C   UNL     1     -42.450  40.312  29.981  1.00  0.00     0.120 A 
ATOM     47  N   UNL     1     -41.879  41.278  29.238  1.00  0.00    -0.219 NA
ATOM     48  H   UNL     1     -41.985  40.118  30.942  1.00  0.00     0.106 H 
BRANCH  41  49
ATOM     49  C   UNL     1     -44.348  41.730  25.258  1.00  0.00    -0.023 C 
ATOM     50  H   UNL     1     -44.851  41.243  24.413  1.00  0.00     0.032 H 
ATOM     51  H   UNL     1     -43.297  41.828  24.955  1.00  0.00     0.032 H 
BRANCH  49  52
ATOM     52  C   UNL     1     -44.953  43.092  25.463  1.00  0.00    -0.037 C 
ATOM     53  C   UNL     1     -44.136  44.337  25.229  1.00  0.00    -0.050 C 
ATOM     54  C   UNL     1     -45.245  43.978  24.279  1.00  0.00    -0.050 C 
ATOM     55  H   UNL     1     -45.664  43.108  26.281  1.00  0.00     0.031 H 
ATOM     56  H   UNL     1     -43.113  44.230  24.885  1.00  0.00     0.027 H 
ATOM     57  H   UNL     1     -44.290  45.175  25.901  1.00  0.00     0.027 H 
ATOM     58  H   UNL     1     -46.147  44.578  24.303  1.00  0.00     0.027 H 
ATOM     59  H   UNL     1     -44.970  43.634  23.288  1.00  0.00     0.027 H 
ENDBRANCH  49  52
ENDBRANCH  41  49
BRANCH  45  60
ATOM     60  N   UNL     1     -41.790  42.561  27.300  1.00  0.00    -0.383 N 
ATOM     61  H   UNL     1     -40.861  42.253  27.034  1.00  0.00     0.158 HD
ATOM     62  H   UNL     1     -42.352  42.954  26.559  1.00  0.00     0.158 HD
ENDBRANCH  45  60
ENDBRANCH  30  38
ENDBRANCH   1  26
TORSDOF 10
ENDMDL
MODEL 2
REMARK VINA RESULT:      -9.4      2.151      3.342
REMARK SMILES CNc1ccc2ccc(OC[C@H]3O[C@@H](n4cc(CC5CC5)c5c(N)ncnc54)[C@@H](F)[C@@H]3O)cc2n1
REMARK SMILES IDX 11 1 10 4 9 5 3 6 4 7 35 8 5 9 34 11 6 12 33 14 7 15 8 17
REMARK SMILES IDX 2 20 1 22 12 26 13 27 31 28 14 30 29 31 30 34 32 36 15 38
REMARK SMILES IDX 16 39 28 40 17 41 22 43 27 44 23 45 26 46 25 47 18 49 19 52
REMARK SMILES IDX 20 53 21 54 24 60
REMARK H PARENT 11 2 11 3 4 10 5 13 33 16 7 18 8 19 2 21 1 23 1 24 1 25 12 29
REMARK H PARENT 31 32 14 33 29 35 32 37 16 42 26 48 18 50 18 51 19 55 20 56
REMARK H PARENT 20 57 21 58 21 59 24 61 24 62
REMARK Flexibility Score: inf
ROOT
ATOM      1  C   UNL     1     -46.034  35.202  28.329  1.00  0.00     0.117 C 
ATOM      2  H   UNL     1     -45.076  35.299  28.856  1.00  0.00     0.073 H 
ATOM      3  H   UNL     1     -45.816  35.560  27.317  1.00  0.00     0.073 H 
ENDROOT
BRANCH   1   4
ATOM      4  O   UNL     1     -46.448  33.842  28.205  1.00  0.00    -0.491 OA
BRANCH   4   5
ATOM      5  C   UNL     1     -46.640  33.319  26.957  1.00  0.00     0.121 A 
ATOM      6  C   UNL     1     -48.832  29.793  24.628  1.00  0.00     0.126 A 
ATOM      7  C   UNL     1     -48.324  30.209  23.406  1.00  0.00    -0.019 A 
ATOM      8  N   UNL     1     -48.547  30.428  25.780  1.00  0.00    -0.231 NA
ATOM      9  C   UNL     1     -47.507  31.333  23.364  1.00  0.00    -0.049 A 
ATOM     10  H   UNL     1     -48.541  29.658  22.498  1.00  0.00     0.066 H 
ATOM     11  C   UNL     1     -47.757  31.517  25.746  1.00  0.00     0.076 A 
ATOM     12  C   UNL     1     -47.209  32.013  24.549  1.00  0.00     0.001 A 
ATOM     13  H   UNL     1     -47.103  31.664  22.412  1.00  0.00     0.063 H 
ATOM     14  C   UNL     1     -47.461  32.185  26.926  1.00  0.00     0.007 A 
ATOM     15  C   UNL     1     -46.388  33.152  24.565  1.00  0.00    -0.049 A 
ATOM     16  H   UNL     1     -47.885  31.809  27.854  1.00  0.00     0.069 H 
ATOM     17  C   UNL     1     -46.105  33.802  25.768  1.00  0.00    -0.019 A 
ATOM     18  H   UNL     1     -45.964  33.539  23.641  1.00  0.00     0.063 H 
ATOM     19  H   UNL     1     -45.468  34.681  25.730  1.00  0.00     0.066 H 
BRANCH   6  20
ATOM     20  N   UNL     1     -49.645  28.665  24.749  1.00  0.00    -0.373 N 
ATOM     21  H   UNL     1     -50.066  28.570  23.824  1.00  0.00     0.161 HD
BRANCH  20  22
ATOM     22  C   UNL     1     -48.930  27.457  25.128  1.00  0.00     0.005 C 
ATOM     23  H   UNL     1     -48.758  27.469  26.209  1.00  0.00     0.045 H 
ATOM     24  H   UNL     1     -47.950  27.399  24.644  1.00  0.00     0.045 H 
ATOM     25  H   UNL     1     -49.507  26.557  24.890  1.00  0.00     0.045 H 
ENDBRANCH  20  22
ENDBRANCH   6  20
ENDBRANCH   4   5
ENDBRANCH   1   4
BRANCH   1  26
ATOM     26  C   UNL     1     -47.130  36.069  28.962  1.00  0.00     0.123 C 
ATOM     27  O   UNL     1     -46.594  37.388  29.204  1.00  0.00    -0.345 OA
ATOM     28  C   UNL     1     -48.363  36.230  28.064  1.00  0.00     0.119 C 
ATOM     29  H   UNL     1     -47.424  35.656  29.932  1.00  0.00     0.067 H 
ATOM     30  C   UNL     1     -47.325  38.318  28.365  1.00  0.00     0.169 C 
ATOM     31  C   UNL     1     -48.050  37.499  27.307  1.00  0.00     0.173 C 
ATOM     32  H   UNL     1     -48.539  35.376  27.404  1.00  0.00     0.066 H 
ATOM     33  H   UNL     1     -48.034  38.833  29.026  1.00  0.00     0.088 H 
ATOM     34  F   UNL     1     -47.217  37.185  26.275  1.00  0.00    -0.239 F 
ATOM     35  H   UNL     1     -48.925  38.013  26.900  1.00  0.00     0.074 H 
BRANCH  28  36
ATOM     36  O   UNL     1     -49.541  36.432  28.855  1.00  0.00    -0.387 OA
ATOM     37  H   UNL     1     -50.039  35.594  28.854  1.00  0.00     0.211 HD
ENDBRANCH  28  36
BRANCH  30  38
ATOM     38  N   UNL     1     -46.426  39.320  27.820  1.00  0.00    -0.303 N 
ATOM     39  C   UNL     1     -45.055  39.294  27.815  1.00  0.00     0.012 A 
ATOM     40  C   UNL     1     -46.863  40.467  27.207  1.00  0.00     0.147 A 
ATOM     41  C   UNL     1     -44.594  40.440  27.186  1.00  0.00    -0.017 A 
ATOM     42  H   UNL     1     -44.512  38.466  28.251  1.00  0.00     0.082 H 
ATOM     43  C   UNL     1     -45.751  41.199  26.805  1.00  0.00     0.064 A 
ATOM     44  N   UNL     1     -48.154  40.802  27.033  1.00  0.00    -0.218 NA
ATOM     45  C   UNL     1     -46.016  42.419  26.159  1.00  0.00     0.136 A 
ATOM     46  C   UNL     1     -48.275  41.980  26.400  1.00  0.00     0.120 A 
ATOM     47  N   UNL     1     -47.296  42.795  25.967  1.00  0.00    -0.219 NA
ATOM     48  H   UNL     1     -49.289  42.319  26.216  1.00  0.00     0.106 H 
BRANCH  41  49
ATOM     49  C   UNL     1     -43.156  40.789  26.958  1.00  0.00    -0.023 C 
ATOM     50  H   UNL     1     -43.051  41.321  26.006  1.00  0.00     0.032 H 
ATOM     51  H   UNL     1     -42.583  39.859  26.838  1.00  0.00     0.032 H 
BRANCH  49  52
ATOM     52  C   UNL     1     -42.555  41.627  28.053  1.00  0.00    -0.037 C 
ATOM     53  C   UNL     1     -42.183  41.008  29.377  1.00  0.00    -0.050 C 
ATOM     54  C   UNL     1     -41.105  41.456  28.428  1.00  0.00    -0.050 C 
ATOM     55  H   UNL     1     -42.956  42.634  28.068  1.00  0.00     0.031 H 
ATOM     56  H   UNL     1     -42.334  39.943  29.513  1.00  0.00     0.027 H 
ATOM     57  H   UNL     1     -42.352  41.595  30.273  1.00  0.00     0.027 H 
ATOM     58  H   UNL     1     -40.539  42.343  28.688  1.00  0.00     0.027 H 
ATOM     59  H   UNL     1     -40.523  40.690  27.928  1.00  0.00     0.027 H 
ENDBRANCH  49  52
ENDBRANCH  41  49
BRANCH  45  60
ATOM     60  N   UNL     1     -45.040  43.300  25.711  1.00  0.00    -0.383 N 
ATOM     61  H   UNL     1     -45.476  44.135  25.336  1.00  0.00     0.158 HD
ATOM     62  H   UNL     1     -44.284  43.452  26.362  1.00  0.00     0.158 HD
ENDBRANCH  45  60
ENDBRANCH  30  38
ENDBRANCH   1  26
TORSDOF 10
ENDMDL
MODEL 3
REMARK VINA RESULT:      -9.2      1.676      2.900
REMARK SMILES CNc1ccc2ccc(OC[C@H]3O[C@@H](n4cc(CC5CC5)c5c(N)ncnc54)[C@@H](F)[C@@H]3O)cc2n1
REMARK SMILES IDX 11 1 10 4 9 5 3 6 4 7 35 8 5 9 34 11 6 12 33 14 7 15 8 17
REMARK SMILES IDX 2 20 1 22 12 26 13 27 31 28 14 30 29 31 30 34 32 36 15 38
REMARK SMILES IDX 16 39 28 40 17 41 22 43 27 44 23 45 26 46 25 47 18 49 19 52
REMARK SMILES IDX 20 53 21 54 24 60
REMARK H PARENT 11 2 11 3 4 10 5 13 33 16 7 18 8 19 2 21 1 23 1 24 1 25 12 29
REMARK H PARENT 31 32 14 33 29 35 32 37 16 42 26 48 18 50 18 51 19 55 20 56
REMARK H PARENT 20 57 21 58 21 59 24 61 24 62
REMARK Flexibility Score: inf
ROOT
ATOM      1  C   UNL     1     -46.041  35.061  27.952  1.00  0.00     0.117 C 
ATOM      2  H   UNL     1     -45.873  34.072  28.396  1.00  0.00     0.073 H 
ATOM      3  H   UNL     1     -45.049  35.527  27.962  1.00  0.00     0.073 H 
ENDROOT
BRANCH   1   4
ATOM      4  O   UNL     1     -46.445  34.980  26.585  1.00  0.00    -0.491 OA
BRANCH   4   5
ATOM      5  C   UNL     1     -46.894  33.785  26.097  1.00  0.00     0.121 A 
ATOM      6  C   UNL     1     -46.473  30.809  22.405  1.00  0.00     0.126 A 
ATOM      7  C   UNL     1     -47.396  29.924  22.942  1.00  0.00    -0.019 A 
ATOM      8  N   UNL     1     -46.132  31.957  23.022  1.00  0.00    -0.231 NA
ATOM      9  C   UNL     1     -47.976  30.219  24.171  1.00  0.00    -0.049 A 
ATOM     10  H   UNL     1     -47.678  29.024  22.407  1.00  0.00     0.066 H 
ATOM     11  C   UNL     1     -46.690  32.247  24.211  1.00  0.00     0.076 A 
ATOM     12  C   UNL     1     -47.626  31.400  24.832  1.00  0.00     0.001 A 
ATOM     13  H   UNL     1     -48.701  29.531  24.597  1.00  0.00     0.063 H 
ATOM     14  C   UNL     1     -46.343  33.423  24.861  1.00  0.00     0.007 A 
ATOM     15  C   UNL     1     -48.182  31.748  26.073  1.00  0.00    -0.049 A 
ATOM     16  H   UNL     1     -45.617  34.081  24.388  1.00  0.00     0.069 H 
ATOM     17  C   UNL     1     -47.816  32.939  26.703  1.00  0.00    -0.019 A 
ATOM     18  H   UNL     1     -48.904  31.093  26.557  1.00  0.00     0.063 H 
ATOM     19  H   UNL     1     -48.269  33.164  27.663  1.00  0.00     0.066 H 
BRANCH   6  20
ATOM     20  N   UNL     1     -45.863  30.589  21.169  1.00  0.00    -0.373 N 
ATOM     21  H   UNL     1     -46.337  29.758  20.811  1.00  0.00     0.161 HD
BRANCH  20  22
ATOM     22  C   UNL     1     -45.981  31.702  20.242  1.00  0.00     0.005 C 
ATOM     23  H   UNL     1     -46.844  32.312  20.525  1.00  0.00     0.045 H 
ATOM     24  H   UNL     1     -46.148  31.359  19.216  1.00  0.00     0.045 H 
ATOM     25  H   UNL     1     -45.094  32.344  20.270  1.00  0.00     0.045 H 
ENDBRANCH  20  22
ENDBRANCH   6  20
ENDBRANCH   4   5
ENDBRANCH   1   4
BRANCH   1  26
ATOM     26  C   UNL     1     -47.019  35.905  28.779  1.00  0.00     0.123 C 
ATOM     27  O   UNL     1     -46.390  37.165  29.096  1.00  0.00    -0.345 OA
ATOM     28  C   UNL     1     -48.324  36.215  28.036  1.00  0.00     0.119 C 
ATOM     29  H   UNL     1     -47.237  35.405  29.728  1.00  0.00     0.067 H 
ATOM     30  C   UNL     1     -47.147  38.211  28.436  1.00  0.00     0.169 C 
ATOM     31  C   UNL     1     -48.018  37.542  27.382  1.00  0.00     0.173 C 
ATOM     32  H   UNL     1     -48.612  35.444  27.315  1.00  0.00     0.066 H 
ATOM     33  H   UNL     1     -47.758  38.684  29.215  1.00  0.00     0.088 H 
ATOM     34  F   UNL     1     -47.310  37.301  26.242  1.00  0.00    -0.239 F 
ATOM     35  H   UNL     1     -48.899  38.134  27.122  1.00  0.00     0.074 H 
BRANCH  28  36
ATOM     36  O   UNL     1     -49.405  36.385  28.962  1.00  0.00    -0.387 OA
ATOM     37  H   UNL     1     -49.084  36.962  29.680  1.00  0.00     0.211 HD
ENDBRANCH  28  36
BRANCH  30  38
ATOM     38  N   UNL     1     -46.253  39.224  27.904  1.00  0.00    -0.303 N 
ATOM     39  C   UNL     1     -44.881  39.220  27.929  1.00  0.00     0.012 A 
ATOM     40  C   UNL     1     -46.694  40.359  27.273  1.00  0.00     0.147 A 
ATOM     41  C   UNL     1     -44.426  40.369  27.303  1.00  0.00    -0.017 A 
ATOM     42  H   UNL     1     -44.335  38.403  28.384  1.00  0.00     0.082 H 
ATOM     43  C   UNL     1     -45.586  41.106  26.891  1.00  0.00     0.064 A 
ATOM     44  N   UNL     1     -47.986  40.671  27.068  1.00  0.00    -0.218 NA
ATOM     45  C   UNL     1     -45.856  42.317  26.230  1.00  0.00     0.136 A 
ATOM     46  C   UNL     1     -48.112  41.842  26.423  1.00  0.00     0.120 A 
ATOM     47  N   UNL     1     -47.137  42.671  26.006  1.00  0.00    -0.219 NA
ATOM     48  H   UNL     1     -49.127  42.164  26.214  1.00  0.00     0.106 H 
BRANCH  41  49
ATOM     49  C   UNL     1     -42.989  40.739  27.105  1.00  0.00    -0.023 C 
ATOM     50  H   UNL     1     -42.872  41.277  26.156  1.00  0.00     0.032 H 
ATOM     51  H   UNL     1     -42.399  39.819  26.992  1.00  0.00     0.032 H 
BRANCH  49  52
ATOM     52  C   UNL     1     -42.421  41.580  28.215  1.00  0.00    -0.037 C 
ATOM     53  C   UNL     1     -42.071  40.962  29.544  1.00  0.00    -0.050 C 
ATOM     54  C   UNL     1     -40.978  41.425  28.621  1.00  0.00    -0.050 C 
ATOM     55  H   UNL     1     -42.833  42.583  28.224  1.00  0.00     0.031 H 
ATOM     56  H   UNL     1     -42.212  39.894  29.673  1.00  0.00     0.027 H 
ATOM     57  H   UNL     1     -42.266  41.544  30.438  1.00  0.00     0.027 H 
ATOM     58  H   UNL     1     -40.427  42.318  28.895  1.00  0.00     0.027 H 
ATOM     59  H   UNL     1     -40.376  40.668  28.131  1.00  0.00     0.027 H 
ENDBRANCH  49  52
ENDBRANCH  41  49
BRANCH  45  60
ATOM     60  N   UNL     1     -44.884  43.210  25.797  1.00  0.00    -0.383 N 
ATOM     61  H   UNL     1     -43.990  42.973  26.211  1.00  0.00     0.158 HD
ATOM     62  H   UNL     1     -44.878  43.371  24.800  1.00  0.00     0.158 HD
ENDBRANCH  45  60
ENDBRANCH  30  38
ENDBRANCH   1  26
TORSDOF 10
ENDMDL
MODEL 4
REMARK VINA RESULT:      -9.0      2.656     10.623
REMARK SMILES CNc1ccc2ccc(OC[C@H]3O[C@@H](n4cc(CC5CC5)c5c(N)ncnc54)[C@@H](F)[C@@H]3O)cc2n1
REMARK SMILES IDX 11 1 10 4 9 5 3 6 4 7 35 8 5 9 34 11 6 12 33 14 7 15 8 17
REMARK SMILES IDX 2 20 1 22 12 26 13 27 31 28 14 30 29 31 30 34 32 36 15 38
REMARK SMILES IDX 16 39 28 40 17 41 22 43 27 44 23 45 26 46 25 47 18 49 19 52
REMARK SMILES IDX 20 53 21 54 24 60
REMARK H PARENT 11 2 11 3 4 10 5 13 33 16 7 18 8 19 2 21 1 23 1 24 1 25 12 29
REMARK H PARENT 31 32 14 33 29 35 32 37 16 42 26 48 18 50 18 51 19 55 20 56
REMARK H PARENT 20 57 21 58 21 59 24 61 24 62
REMARK Flexibility Score: inf
ROOT
ATOM      1  C   UNL     1     -47.924  34.985  26.223  1.00  0.00     0.117 C 
ATOM      2  H   UNL     1     -48.664  34.823  25.430  1.00  0.00     0.073 H 
ATOM      3  H   UNL     1     -47.003  35.225  25.680  1.00  0.00     0.073 H 
ENDROOT
BRANCH   1   4
ATOM      4  O   UNL     1     -48.235  36.122  27.029  1.00  0.00    -0.491 OA
BRANCH   4   5
ATOM      5  C   UNL     1     -47.239  36.713  27.754  1.00  0.00     0.121 A 
ATOM      6  C   UNL     1     -44.198  40.375  27.718  1.00  0.00     0.126 A 
ATOM      7  C   UNL     1     -43.642  39.997  28.931  1.00  0.00    -0.019 A 
ATOM      8  N   UNL     1     -45.189  39.677  27.132  1.00  0.00    -0.231 NA
ATOM      9  C   UNL     1     -44.137  38.870  29.577  1.00  0.00    -0.049 A 
ATOM     10  H   UNL     1     -42.820  40.557  29.364  1.00  0.00     0.066 H 
ATOM     11  C   UNL     1     -45.672  38.586  27.752  1.00  0.00     0.076 A 
ATOM     12  C   UNL     1     -45.174  38.139  28.990  1.00  0.00     0.001 A 
ATOM     13  H   UNL     1     -43.706  38.566  30.527  1.00  0.00     0.063 H 
ATOM     14  C   UNL     1     -46.699  37.862  27.162  1.00  0.00     0.007 A 
ATOM     15  C   UNL     1     -45.710  36.992  29.596  1.00  0.00    -0.049 A 
ATOM     16  H   UNL     1     -47.091  38.203  26.207  1.00  0.00     0.069 H 
ATOM     17  C   UNL     1     -46.741  36.281  28.978  1.00  0.00    -0.019 A 
ATOM     18  H   UNL     1     -45.328  36.646  30.554  1.00  0.00     0.063 H 
ATOM     19  H   UNL     1     -47.126  35.404  29.487  1.00  0.00     0.066 H 
BRANCH   6  20
ATOM     20  N   UNL     1     -43.741  41.484  27.004  1.00  0.00    -0.373 N 
ATOM     21  H   UNL     1     -44.205  42.272  27.459  1.00  0.00     0.161 HD
BRANCH  20  22
ATOM     22  C   UNL     1     -42.297  41.645  27.018  1.00  0.00     0.005 C 
ATOM     23  H   UNL     1     -42.050  42.674  26.740  1.00  0.00     0.045 H 
ATOM     24  H   UNL     1     -41.809  40.987  26.293  1.00  0.00     0.045 H 
ATOM     25  H   UNL     1     -41.881  41.459  28.015  1.00  0.00     0.045 H 
ENDBRANCH  20  22
ENDBRANCH   6  20
ENDBRANCH   4   5
ENDBRANCH   1   4
BRANCH   1  26
ATOM     26  C   UNL     1     -47.711  33.730  27.078  1.00  0.00     0.123 C 
ATOM     27  O   UNL     1     -48.663  32.724  26.669  1.00  0.00    -0.345 OA
ATOM     28  C   UNL     1     -46.309  33.127  26.924  1.00  0.00     0.119 C 
ATOM     29  H   UNL     1     -47.910  33.953  28.131  1.00  0.00     0.067 H 
ATOM     30  C   UNL     1     -47.914  31.614  26.112  1.00  0.00     0.169 C 
ATOM     31  C   UNL     1     -46.509  32.118  25.818  1.00  0.00     0.173 C 
ATOM     32  H   UNL     1     -45.538  33.866  26.688  1.00  0.00     0.066 H 
ATOM     33  H   UNL     1     -47.905  30.833  26.884  1.00  0.00     0.088 H 
ATOM     34  F   UNL     1     -46.465  32.778  24.627  1.00  0.00    -0.239 F 
ATOM     35  H   UNL     1     -45.767  31.315  25.796  1.00  0.00     0.074 H 
BRANCH  28  36
ATOM     36  O   UNL     1     -45.919  32.442  28.121  1.00  0.00    -0.387 OA
ATOM     37  H   UNL     1     -45.877  31.491  27.911  1.00  0.00     0.211 HD
ENDBRANCH  28  36
BRANCH  30  38
ATOM     38  N   UNL     1     -48.601  31.074  24.951  1.00  0.00    -0.303 N 
ATOM     39  C   UNL     1     -49.008  31.755  23.833  1.00  0.00     0.012 A 
ATOM     40  C   UNL     1     -48.933  29.748  24.825  1.00  0.00     0.147 A 
ATOM     41  C   UNL     1     -49.612  30.859  22.966  1.00  0.00    -0.017 A 
ATOM     42  H   UNL     1     -48.835  32.819  23.736  1.00  0.00     0.082 H 
ATOM     43  C   UNL     1     -49.575  29.574  23.604  1.00  0.00     0.064 A 
ATOM     44  N   UNL     1     -48.668  28.799  25.740  1.00  0.00    -0.218 NA
ATOM     45  C   UNL     1     -49.995  28.265  23.309  1.00  0.00     0.136 A 
ATOM     46  C   UNL     1     -49.110  27.596  25.340  1.00  0.00     0.120 A 
ATOM     47  N   UNL     1     -49.753  27.282  24.200  1.00  0.00    -0.219 NA
ATOM     48  H   UNL     1     -48.929  26.772  26.022  1.00  0.00     0.106 H 
BRANCH  41  49
ATOM     49  C   UNL     1     -50.180  31.197  21.623  1.00  0.00    -0.023 C 
ATOM     50  H   UNL     1     -50.267  32.285  21.521  1.00  0.00     0.032 H 
ATOM     51  H   UNL     1     -51.210  30.816  21.569  1.00  0.00     0.032 H 
BRANCH  49  52
ATOM     52  C   UNL     1     -49.373  30.663  20.472  1.00  0.00    -0.037 C 
ATOM     53  C   UNL     1     -48.718  31.603  19.493  1.00  0.00    -0.050 C 
ATOM     54  C   UNL     1     -47.874  30.819  20.460  1.00  0.00    -0.050 C 
ATOM     55  H   UNL     1     -49.778  29.736  20.080  1.00  0.00     0.031 H 
ATOM     56  H   UNL     1     -48.819  32.671  19.651  1.00  0.00     0.027 H 
ATOM     57  H   UNL     1     -48.701  31.312  18.448  1.00  0.00     0.027 H 
ATOM     58  H   UNL     1     -47.280  30.002  20.068  1.00  0.00     0.027 H 
ATOM     59  H   UNL     1     -47.399  31.361  21.270  1.00  0.00     0.027 H 
ENDBRANCH  49  52
ENDBRANCH  41  49
BRANCH  45  60
ATOM     60  N   UNL     1     -50.675  27.898  22.155  1.00  0.00    -0.383 N 
ATOM     61  H   UNL     1     -51.559  28.391  22.105  1.00  0.00     0.158 HD
ATOM     62  H   UNL     1     -50.114  27.916  21.316  1.00  0.00     0.158 HD
ENDBRANCH  45  60
ENDBRANCH  30  38
ENDBRANCH   1  26
TORSDOF 10
ENDMDL
MODEL 5
REMARK VINA RESULT:      -8.7      3.452     12.106
REMARK SMILES CNc1ccc2ccc(OC[C@H]3O[C@@H](n4cc(CC5CC5)c5c(N)ncnc54)[C@@H](F)[C@@H]3O)cc2n1
REMARK SMILES IDX 11 1 10 4 9 5 3 6 4 7 35 8 5 9 34 11 6 12 33 14 7 15 8 17
REMARK SMILES IDX 2 20 1 22 12 26 13 27 31 28 14 30 29 31 30 34 32 36 15 38
REMARK SMILES IDX 16 39 28 40 17 41 22 43 27 44 23 45 26 46 25 47 18 49 19 52
REMARK SMILES IDX 20 53 21 54 24 60
REMARK H PARENT 11 2 11 3 4 10 5 13 33 16 7 18 8 19 2 21 1 23 1 24 1 25 12 29
REMARK H PARENT 31 32 14 33 29 35 32 37 16 42 26 48 18 50 18 51 19 55 20 56
REMARK H PARENT 20 57 21 58 21 59 24 61 24 62
REMARK Flexibility Score: inf
ROOT
ATOM      1  C   UNL     1     -46.892  31.951  25.117  1.00  0.00     0.117 C 
ATOM      2  H   UNL     1     -47.237  31.128  25.755  1.00  0.00     0.073 H 
ATOM      3  H   UNL     1     -47.816  32.454  24.812  1.00  0.00     0.073 H 
ENDROOT
BRANCH   1   4
ATOM      4  O   UNL     1     -46.121  32.909  25.841  1.00  0.00    -0.491 OA
BRANCH   4   5
ATOM      5  C   UNL     1     -46.738  34.028  26.326  1.00  0.00     0.121 A 
ATOM      6  C   UNL     1     -45.876  38.250  28.348  1.00  0.00     0.126 A 
ATOM      7  C   UNL     1     -47.228  38.549  28.430  1.00  0.00    -0.019 A 
ATOM      8  N   UNL     1     -45.425  37.090  27.834  1.00  0.00    -0.231 NA
ATOM      9  C   UNL     1     -48.152  37.630  27.946  1.00  0.00    -0.049 A 
ATOM     10  H   UNL     1     -47.565  39.476  28.882  1.00  0.00     0.066 H 
ATOM     11  C   UNL     1     -46.315  36.197  27.363  1.00  0.00     0.076 A 
ATOM     12  C   UNL     1     -47.702  36.425  27.398  1.00  0.00     0.001 A 
ATOM     13  H   UNL     1     -49.212  37.856  28.009  1.00  0.00     0.063 H 
ATOM     14  C   UNL     1     -45.863  35.001  26.824  1.00  0.00     0.007 A 
ATOM     15  C   UNL     1     -48.591  35.460  26.897  1.00  0.00    -0.049 A 
ATOM     16  H   UNL     1     -44.791  34.819  26.791  1.00  0.00     0.069 H 
ATOM     17  C   UNL     1     -48.108  34.264  26.362  1.00  0.00    -0.019 A 
ATOM     18  H   UNL     1     -49.665  35.635  26.919  1.00  0.00     0.063 H 
ATOM     19  H   UNL     1     -48.833  33.551  25.983  1.00  0.00     0.066 H 
BRANCH   6  20
ATOM     20  N   UNL     1     -44.892  39.116  28.829  1.00  0.00    -0.373 N 
ATOM     21  H   UNL     1     -44.180  38.488  29.202  1.00  0.00     0.161 HD
BRANCH  20  22
ATOM     22  C   UNL     1     -44.337  40.002  27.819  1.00  0.00     0.005 C 
ATOM     23  H   UNL     1     -44.965  39.959  26.924  1.00  0.00     0.045 H 
ATOM     24  H   UNL     1     -43.329  39.697  27.524  1.00  0.00     0.045 H 
ATOM     25  H   UNL     1     -44.316  41.041  28.164  1.00  0.00     0.045 H 
ENDBRANCH  20  22
ENDBRANCH   6  20
ENDBRANCH   4   5
ENDBRANCH   1   4
BRANCH   1  26
ATOM     26  C   UNL     1     -46.143  31.445  23.878  1.00  0.00     0.123 C 
ATOM     27  O   UNL     1     -46.436  30.043  23.700  1.00  0.00    -0.345 OA
ATOM     28  C   UNL     1     -46.554  32.168  22.589  1.00  0.00     0.119 C 
ATOM     29  H   UNL     1     -45.062  31.533  24.029  1.00  0.00     0.067 H 
ATOM     30  C   UNL     1     -47.159  29.901  22.452  1.00  0.00     0.169 C 
ATOM     31  C   UNL     1     -47.657  31.284  22.058  1.00  0.00     0.173 C 
ATOM     32  H   UNL     1     -46.879  33.201  22.751  1.00  0.00     0.066 H 
ATOM     33  H   UNL     1     -46.436  29.515  21.722  1.00  0.00     0.088 H 
ATOM     34  F   UNL     1     -48.808  31.597  22.719  1.00  0.00    -0.239 F 
ATOM     35  H   UNL     1     -47.839  31.380  20.984  1.00  0.00     0.074 H 
BRANCH  28  36
ATOM     36  O   UNL     1     -45.471  32.184  21.651  1.00  0.00    -0.387 OA
ATOM     37  H   UNL     1     -45.314  31.263  21.373  1.00  0.00     0.211 HD
ENDBRANCH  28  36
BRANCH  30  38
ATOM     38  N   UNL     1     -48.215  28.913  22.589  1.00  0.00    -0.303 N 
ATOM     39  C   UNL     1     -48.596  28.254  23.730  1.00  0.00     0.012 A 
ATOM     40  C   UNL     1     -49.002  28.505  21.542  1.00  0.00     0.147 A 
ATOM     41  C   UNL     1     -49.648  27.408  23.420  1.00  0.00    -0.017 A 
ATOM     42  H   UNL     1     -48.097  28.439  24.673  1.00  0.00     0.082 H 
ATOM     43  C   UNL     1     -49.904  27.559  22.016  1.00  0.00     0.064 A 
ATOM     44  N   UNL     1     -48.901  28.961  20.281  1.00  0.00    -0.218 NA
ATOM     45  C   UNL     1     -50.792  27.023  21.067  1.00  0.00     0.136 A 
ATOM     46  C   UNL     1     -49.805  28.381  19.475  1.00  0.00     0.120 A 
ATOM     47  N   UNL     1     -50.723  27.449  19.790  1.00  0.00    -0.219 NA
ATOM     48  H   UNL     1     -49.793  28.701  18.439  1.00  0.00     0.106 H 
BRANCH  41  49
ATOM     49  C   UNL     1     -50.365  26.521  24.390  1.00  0.00    -0.023 C 
ATOM     50  H   UNL     1     -50.466  25.514  23.968  1.00  0.00     0.032 H 
ATOM     51  H   UNL     1     -51.393  26.890  24.512  1.00  0.00     0.032 H 
BRANCH  49  52
ATOM     52  C   UNL     1     -49.692  26.421  25.731  1.00  0.00    -0.037 C 
ATOM     53  C   UNL     1     -49.528  25.085  26.409  1.00  0.00    -0.050 C 
ATOM     54  C   UNL     1     -48.326  25.794  25.848  1.00  0.00    -0.050 C 
ATOM     55  H   UNL     1     -49.900  27.278  26.361  1.00  0.00     0.031 H 
ATOM     56  H   UNL     1     -49.881  24.196  25.898  1.00  0.00     0.027 H 
ATOM     57  H   UNL     1     -49.643  25.048  27.487  1.00  0.00     0.027 H 
ATOM     58  H   UNL     1     -47.624  26.232  26.549  1.00  0.00     0.027 H 
ATOM     59  H   UNL     1     -47.864  25.380  24.960  1.00  0.00     0.027 H 
ENDBRANCH  49  52
ENDBRANCH  41  49
BRANCH  45  60
ATOM     60  N   UNL     1     -51.744  26.049  21.342  1.00  0.00    -0.383 N 
ATOM     61  H   UNL     1     -51.798  25.894  22.343  1.00  0.00     0.158 HD
ATOM     62  H   UNL     1     -52.626  26.181  20.869  1.00  0.00     0.158 HD
ENDBRANCH  45  60
ENDBRANCH  30  38
ENDBRANCH   1  26
TORSDOF 10
ENDMDL
MODEL 6
REMARK VINA RESULT:      -8.6      2.255      3.009
REMARK SMILES CNc1ccc2ccc(OC[C@H]3O[C@@H](n4cc(CC5CC5)c5c(N)ncnc54)[C@@H](F)[C@@H]3O)cc2n1
REMARK SMILES IDX 11 1 10 4 9 5 3 6 4 7 35 8 5 9 34 11 6 12 33 14 7 15 8 17
REMARK SMILES IDX 2 20 1 22 12 26 13 27 31 28 14 30 29 31 30 34 32 36 15 38
REMARK SMILES IDX 16 39 28 40 17 41 22 43 27 44 23 45 26 46 25 47 18 49 19 52
REMARK SMILES IDX 20 53 21 54 24 60
REMARK H PARENT 11 2 11 3 4 10 5 13 33 16 7 18 8 19 2 21 1 23 1 24 1 25 12 29
REMARK H PARENT 31 32 14 33 29 35 32 37 16 42 26 48 18 50 18 51 19 55 20 56
REMARK H PARENT 20 57 21 58 21 59 24 61 24 62
REMARK Flexibility Score: inf
ROOT
ATOM      1  C   UNL     1     -46.540  34.950  26.649  1.00  0.00     0.117 C 
ATOM      2  H   UNL     1     -45.808  34.510  25.961  1.00  0.00     0.073 H 
ATOM      3  H   UNL     1     -46.972  35.780  26.078  1.00  0.00     0.073 H 
ENDROOT
BRANCH   1   4
ATOM      4  O   UNL     1     -47.610  34.054  26.946  1.00  0.00    -0.491 OA
BRANCH   4   5
ATOM      5  C   UNL     1     -48.011  33.160  25.994  1.00  0.00     0.121 A 
ATOM      6  C   UNL     1     -46.368  30.302  22.559  1.00  0.00     0.126 A 
ATOM      7  C   UNL     1     -47.645  29.881  22.222  1.00  0.00    -0.019 A 
ATOM      8  N   UNL     1     -46.140  31.198  23.538  1.00  0.00    -0.231 NA
ATOM      9  C   UNL     1     -48.730  30.384  22.931  1.00  0.00    -0.049 A 
ATOM     10  H   UNL     1     -47.803  29.185  21.406  1.00  0.00     0.066 H 
ATOM     11  C   UNL     1     -47.186  31.688  24.229  1.00  0.00     0.076 A 
ATOM     12  C   UNL     1     -48.513  31.306  23.959  1.00  0.00     0.001 A 
ATOM     13  H   UNL     1     -49.734  30.061  22.672  1.00  0.00     0.063 H 
ATOM     14  C   UNL     1     -46.964  32.607  25.245  1.00  0.00     0.007 A 
ATOM     15  C   UNL     1     -49.571  31.849  24.706  1.00  0.00    -0.049 A 
ATOM     16  H   UNL     1     -45.940  32.904  25.461  1.00  0.00     0.069 H 
ATOM     17  C   UNL     1     -49.319  32.774  25.721  1.00  0.00    -0.019 A 
ATOM     18  H   UNL     1     -50.598  31.553  24.502  1.00  0.00     0.063 H 
ATOM     19  H   UNL     1     -50.168  33.162  26.274  1.00  0.00     0.066 H 
BRANCH   6  20
ATOM     20  N   UNL     1     -45.234  29.853  21.880  1.00  0.00    -0.373 N 
ATOM     21  H   UNL     1     -44.582  30.636  21.956  1.00  0.00     0.161 HD
BRANCH  20  22
ATOM     22  C   UNL     1     -44.659  28.636  22.427  1.00  0.00     0.005 C 
ATOM     23  H   UNL     1     -43.883  28.902  23.152  1.00  0.00     0.045 H 
ATOM     24  H   UNL     1     -44.182  28.029  21.650  1.00  0.00     0.045 H 
ATOM     25  H   UNL     1     -45.411  28.033  22.947  1.00  0.00     0.045 H 
ENDBRANCH  20  22
ENDBRANCH   6  20
ENDBRANCH   4   5
ENDBRANCH   1   4
BRANCH   1  26
ATOM     26  C   UNL     1     -45.882  35.486  27.926  1.00  0.00     0.123 C 
ATOM     27  O   UNL     1     -45.473  36.852  27.699  1.00  0.00    -0.345 OA
ATOM     28  C   UNL     1     -46.824  35.483  29.136  1.00  0.00     0.119 C 
ATOM     29  H   UNL     1     -44.978  34.912  28.153  1.00  0.00     0.067 H 
ATOM     30  C   UNL     1     -46.249  37.695  28.588  1.00  0.00     0.169 C 
ATOM     31  C   UNL     1     -47.425  36.867  29.084  1.00  0.00     0.173 C 
ATOM     32  H   UNL     1     -47.579  34.692  29.101  1.00  0.00     0.066 H 
ATOM     33  H   UNL     1     -45.577  37.968  29.412  1.00  0.00     0.088 H 
ATOM     34  F   UNL     1     -48.437  36.858  28.170  1.00  0.00    -0.239 F 
ATOM     35  H   UNL     1     -47.824  37.226  30.037  1.00  0.00     0.074 H 
BRANCH  28  36
ATOM     36  O   UNL     1     -46.083  35.337  30.354  1.00  0.00    -0.387 OA
ATOM     37  H   UNL     1     -45.173  35.640  30.178  1.00  0.00     0.211 HD
ENDBRANCH  28  36
BRANCH  30  38
ATOM     38  N   UNL     1     -46.635  38.921  27.912  1.00  0.00    -0.303 N 
ATOM     39  C   UNL     1     -47.903  39.416  27.745  1.00  0.00     0.012 A 
ATOM     40  C   UNL     1     -45.730  39.779  27.339  1.00  0.00     0.147 A 
ATOM     41  C   UNL     1     -47.821  40.615  27.054  1.00  0.00    -0.017 A 
ATOM     42  H   UNL     1     -48.764  38.885  28.130  1.00  0.00     0.082 H 
ATOM     43  C   UNL     1     -46.430  40.844  26.784  1.00  0.00     0.064 A 
ATOM     44  N   UNL     1     -44.398  39.599  27.333  1.00  0.00    -0.218 NA
ATOM     45  C   UNL     1     -45.654  41.826  26.142  1.00  0.00     0.136 A 
ATOM     46  C   UNL     1     -43.770  40.604  26.700  1.00  0.00     0.120 A 
ATOM     47  N   UNL     1     -44.314  41.683  26.109  1.00  0.00    -0.219 NA
ATOM     48  H   UNL     1     -42.688  40.536  26.656  1.00  0.00     0.106 H 
BRANCH  41  49
ATOM     49  C   UNL     1     -48.981  41.484  26.681  1.00  0.00    -0.023 C 
ATOM     50  H   UNL     1     -49.315  41.241  25.666  1.00  0.00     0.032 H 
ATOM     51  H   UNL     1     -48.639  42.527  26.634  1.00  0.00     0.032 H 
BRANCH  49  52
ATOM     52  C   UNL     1     -50.151  41.368  27.619  1.00  0.00    -0.037 C 
ATOM     53  C   UNL     1     -51.346  42.275  27.471  1.00  0.00    -0.050 C 
ATOM     54  C   UNL     1     -51.464  40.816  27.128  1.00  0.00    -0.050 C 
ATOM     55  H   UNL     1     -49.847  41.104  28.626  1.00  0.00     0.031 H 
ATOM     56  H   UNL     1     -51.355  42.994  26.659  1.00  0.00     0.027 H 
ATOM     57  H   UNL     1     -51.827  42.628  28.377  1.00  0.00     0.027 H 
ATOM     58  H   UNL     1     -52.033  40.182  27.799  1.00  0.00     0.027 H 
ATOM     59  H   UNL     1     -51.560  40.549  26.081  1.00  0.00     0.027 H 
ENDBRANCH  49  52
ENDBRANCH  41  49
BRANCH  45  60
ATOM     60  N   UNL     1     -46.172  42.946  25.506  1.00  0.00    -0.383 N 
ATOM     61  H   UNL     1     -47.105  42.748  25.164  1.00  0.00     0.158 HD
ATOM     62  H   UNL     1     -46.067  43.807  26.024  1.00  0.00     0.158 HD
ENDBRANCH  45  60
ENDBRANCH  30  38
ENDBRANCH   1  26
TORSDOF 10
ENDMDL
MODEL 7
REMARK VINA RESULT:      -8.5      2.734      3.490
REMARK SMILES CNc1ccc2ccc(OC[C@H]3O[C@@H](n4cc(CC5CC5)c5c(N)ncnc54)[C@@H](F)[C@@H]3O)cc2n1
REMARK SMILES IDX 11 1 10 4 9 5 3 6 4 7 35 8 5 9 34 11 6 12 33 14 7 15 8 17
REMARK SMILES IDX 2 20 1 22 12 26 13 27 31 28 14 30 29 31 30 34 32 36 15 38
REMARK SMILES IDX 16 39 28 40 17 41 22 43 27 44 23 45 26 46 25 47 18 49 19 52
REMARK SMILES IDX 20 53 21 54 24 60
REMARK H PARENT 11 2 11 3 4 10 5 13 33 16 7 18 8 19 2 21 1 23 1 24 1 25 12 29
REMARK H PARENT 31 32 14 33 29 35 32 37 16 42 26 48 18 50 18 51 19 55 20 56
REMARK H PARENT 20 57 21 58 21 59 24 61 24 62
REMARK Flexibility Score: inf
ROOT
ATOM      1  C   UNL     1     -46.798  35.100  26.215  1.00  0.00     0.117 C 
ATOM      2  H   UNL     1     -46.089  34.983  25.386  1.00  0.00     0.073 H 
ATOM      3  H   UNL     1     -47.469  35.899  25.878  1.00  0.00     0.073 H 
ENDROOT
BRANCH   1   4
ATOM      4  O   UNL     1     -47.605  33.938  26.404  1.00  0.00    -0.491 OA
BRANCH   4   5
ATOM      5  C   UNL     1     -47.407  32.854  25.595  1.00  0.00     0.121 A 
ATOM      6  C   UNL     1     -48.981  28.447  24.721  1.00  0.00     0.126 A 
ATOM      7  C   UNL     1     -48.054  28.257  23.707  1.00  0.00    -0.019 A 
ATOM      8  N   UNL     1     -49.049  29.590  25.430  1.00  0.00    -0.231 NA
ATOM      9  C   UNL     1     -47.175  29.289  23.396  1.00  0.00    -0.049 A 
ATOM     10  H   UNL     1     -47.998  27.314  23.176  1.00  0.00     0.066 H 
ATOM     11  C   UNL     1     -48.202  30.592  25.133  1.00  0.00     0.076 A 
ATOM     12  C   UNL     1     -47.239  30.488  24.113  1.00  0.00     0.001 A 
ATOM     13  H   UNL     1     -46.445  29.148  22.604  1.00  0.00     0.063 H 
ATOM     14  C   UNL     1     -48.266  31.778  25.851  1.00  0.00     0.007 A 
ATOM     15  C   UNL     1     -46.375  31.561  23.842  1.00  0.00    -0.049 A 
ATOM     16  H   UNL     1     -49.011  31.867  26.638  1.00  0.00     0.069 H 
ATOM     17  C   UNL     1     -46.460  32.742  24.583  1.00  0.00    -0.019 A 
ATOM     18  H   UNL     1     -45.631  31.484  23.052  1.00  0.00     0.063 H 
ATOM     19  H   UNL     1     -45.774  33.545  24.334  1.00  0.00     0.066 H 
BRANCH   6  20
ATOM     20  N   UNL     1     -49.883  27.451  25.100  1.00  0.00    -0.373 N 
ATOM     21  H   UNL     1     -50.441  27.299  24.259  1.00  0.00     0.161 HD
BRANCH  20  22
ATOM     22  C   UNL     1     -49.253  26.219  25.544  1.00  0.00     0.005 C 
ATOM     23  H   UNL     1     -48.167  26.319  25.449  1.00  0.00     0.045 H 
ATOM     24  H   UNL     1     -49.556  25.365  24.930  1.00  0.00     0.045 H 
ATOM     25  H   UNL     1     -49.478  26.008  26.595  1.00  0.00     0.045 H 
ENDBRANCH  20  22
ENDBRANCH   6  20
ENDBRANCH   4   5
ENDBRANCH   1   4
BRANCH   1  26
ATOM     26  C   UNL     1     -46.102  35.520  27.515  1.00  0.00     0.123 C 
ATOM     27  O   UNL     1     -45.679  36.895  27.391  1.00  0.00    -0.345 OA
ATOM     28  C   UNL     1     -47.015  35.428  28.744  1.00  0.00     0.119 C 
ATOM     29  H   UNL     1     -45.201  34.917  27.671  1.00  0.00     0.067 H 
ATOM     30  C   UNL     1     -46.421  37.670  28.366  1.00  0.00     0.169 C 
ATOM     31  C   UNL     1     -47.597  36.819  28.821  1.00  0.00     0.173 C 
ATOM     32  H   UNL     1     -47.782  34.652  28.663  1.00  0.00     0.066 H 
ATOM     33  H   UNL     1     -45.726  37.866  29.193  1.00  0.00     0.088 H 
ATOM     34  F   UNL     1     -48.630  36.898  27.936  1.00  0.00    -0.239 F 
ATOM     35  H   UNL     1     -47.967  37.103  29.810  1.00  0.00     0.074 H 
BRANCH  28  36
ATOM     36  O   UNL     1     -46.247  35.173  29.927  1.00  0.00    -0.387 OA
ATOM     37  H   UNL     1     -46.764  35.501  30.685  1.00  0.00     0.211 HD
ENDBRANCH  28  36
BRANCH  30  38
ATOM     38  N   UNL     1     -46.805  38.953  27.803  1.00  0.00    -0.303 N 
ATOM     39  C   UNL     1     -48.068  39.483  27.725  1.00  0.00     0.012 A 
ATOM     40  C   UNL     1     -45.905  39.836  27.263  1.00  0.00     0.147 A 
ATOM     41  C   UNL     1     -47.986  40.731  27.127  1.00  0.00    -0.017 A 
ATOM     42  H   UNL     1     -48.925  38.940  28.102  1.00  0.00     0.082 H 
ATOM     43  C   UNL     1     -46.602  40.955  26.821  1.00  0.00     0.064 A 
ATOM     44  N   UNL     1     -44.578  39.632  27.190  1.00  0.00    -0.218 NA
ATOM     45  C   UNL     1     -45.829  41.969  26.228  1.00  0.00     0.136 A 
ATOM     46  C   UNL     1     -43.953  40.671  26.613  1.00  0.00     0.120 A 
ATOM     47  N   UNL     1     -44.495  41.804  26.131  1.00  0.00    -0.219 NA
ATOM     48  H   UNL     1     -42.875  40.587  26.522  1.00  0.00     0.106 H 
BRANCH  41  49
ATOM     49  C   UNL     1     -49.140  41.649  26.870  1.00  0.00    -0.023 C 
ATOM     50  H   UNL     1     -50.044  41.061  26.673  1.00  0.00     0.032 H 
ATOM     51  H   UNL     1     -48.947  42.207  25.943  1.00  0.00     0.032 H 
BRANCH  49  52
ATOM     52  C   UNL     1     -49.417  42.605  27.998  1.00  0.00    -0.037 C 
ATOM     53  C   UNL     1     -50.602  43.534  27.942  1.00  0.00    -0.050 C 
ATOM     54  C   UNL     1     -50.598  42.381  28.907  1.00  0.00    -0.050 C 
ATOM     55  H   UNL     1     -48.507  42.983  28.450  1.00  0.00     0.031 H 
ATOM     56  H   UNL     1     -51.264  43.481  27.084  1.00  0.00     0.027 H 
ATOM     57  H   UNL     1     -50.478  44.535  28.340  1.00  0.00     0.027 H 
ATOM     58  H   UNL     1     -50.478  42.603  29.961  1.00  0.00     0.027 H 
ATOM     59  H   UNL     1     -51.264  41.550  28.704  1.00  0.00     0.027 H 
ENDBRANCH  49  52
ENDBRANCH  41  49
BRANCH  45  60
ATOM     60  N   UNL     1     -46.346  43.146  25.702  1.00  0.00    -0.383 N 
ATOM     61  H   UNL     1     -47.064  42.932  25.019  1.00  0.00     0.158 HD
ATOM     62  H   UNL     1     -46.589  43.841  26.393  1.00  0.00     0.158 HD
ENDBRANCH  45  60
ENDBRANCH  30  38
ENDBRANCH   1  26
TORSDOF 10
ENDMDL
