MODEL 1
REMARK VINA RESULT:     -10.9      0.000      0.000
REMARK SMILES CNc1ccc2ccc(OCc3cncc(-c4cn(C5CCCC5)c5c(N)ncnc45)c3)cc2n1
REMARK SMILES IDX 11 1 10 4 9 5 3 6 4 7 35 8 5 9 34 11 6 12 33 14 7 15 8 17
REMARK SMILES IDX 2 20 1 22 12 26 13 27 32 28 14 29 16 31 15 33 17 35 18 36
REMARK SMILES IDX 31 37 19 38 25 40 30 41 26 42 29 43 28 44 20 46 21 47 24 48
REMARK SMILES IDX 22 50 23 53 27 60
REMARK H PARENT 11 2 11 3 4 10 5 13 33 16 7 18 8 19 2 21 1 23 1 24 1 25 13 30
REMARK H PARENT 32 32 15 34 18 39 29 45 20 49 21 51 21 52 24 54 24 55 22 56
REMARK H PARENT 22 57 23 58 23 59 27 61 27 62
REMARK Flexibility Score: inf
ROOT
ATOM      1  C   UNL     1     -46.727  36.696  26.741  1.00  0.00     0.115 C 
ATOM      2  H   UNL     1     -47.586  37.061  26.166  1.00  0.00     0.076 H 
ATOM      3  H   UNL     1     -45.794  36.980  26.240  1.00  0.00     0.076 H 
ENDROOT
BRANCH   1   4
ATOM      4  O   UNL     1     -46.776  37.240  28.061  1.00  0.00    -0.489 OA
BRANCH   4   5
ATOM      5  C   UNL     1     -45.732  38.035  28.448  1.00  0.00     0.122 A 
ATOM      6  C   UNL     1     -42.682  41.658  27.978  1.00  0.00     0.126 A 
ATOM      7  C   UNL     1     -42.049  41.342  29.175  1.00  0.00    -0.019 A 
ATOM      8  N   UNL     1     -43.716  40.928  27.512  1.00  0.00    -0.231 NA
ATOM      9  C   UNL     1     -42.501  40.261  29.923  1.00  0.00    -0.049 A 
ATOM     10  H   UNL     1     -41.200  41.924  29.518  1.00  0.00     0.066 H 
ATOM     11  C   UNL     1     -44.158  39.878  28.229  1.00  0.00     0.076 A 
ATOM     12  C   UNL     1     -43.578  39.505  29.455  1.00  0.00     0.001 A 
ATOM     13  H   UNL     1     -42.007  40.013  30.858  1.00  0.00     0.063 H 
ATOM     14  C   UNL     1     -45.229  39.133  27.747  1.00  0.00     0.007 A 
ATOM     15  C   UNL     1     -44.076  38.404  30.168  1.00  0.00    -0.049 A 
ATOM     16  H   UNL     1     -45.653  39.446  26.798  1.00  0.00     0.069 H 
ATOM     17  C   UNL     1     -45.151  37.675  29.662  1.00  0.00    -0.019 A 
ATOM     18  H   UNL     1     -43.633  38.108  31.116  1.00  0.00     0.063 H 
ATOM     19  H   UNL     1     -45.535  36.823  30.217  1.00  0.00     0.066 H 
BRANCH   6  20
ATOM     20  N   UNL     1     -42.180  42.743  27.236  1.00  0.00    -0.373 N 
ATOM     21  H   UNL     1     -42.009  43.520  27.865  1.00  0.00     0.161 HD
BRANCH  20  22
ATOM     22  C   UNL     1     -43.012  43.131  26.109  1.00  0.00     0.005 C 
ATOM     23  H   UNL     1     -43.861  43.714  26.479  1.00  0.00     0.045 H 
ATOM     24  H   UNL     1     -43.415  42.257  25.584  1.00  0.00     0.045 H 
ATOM     25  H   UNL     1     -42.464  43.765  25.403  1.00  0.00     0.045 H 
ENDBRANCH  20  22
ENDBRANCH   6  20
ENDBRANCH   4   5
ENDBRANCH   1   4
BRANCH   1  26
ATOM     26  C   UNL     1     -46.777  35.194  26.825  1.00  0.00     0.008 A 
ATOM     27  C   UNL     1     -46.247  34.514  27.916  1.00  0.00     0.033 A 
ATOM     28  C   UNL     1     -47.306  34.425  25.780  1.00  0.00    -0.045 A 
ATOM     29  N   UNL     1     -46.223  33.167  28.031  1.00  0.00    -0.264 NA
ATOM     30  H   UNL     1     -45.812  35.050  28.756  1.00  0.00     0.084 H 
ATOM     31  C   UNL     1     -47.308  33.029  25.857  1.00  0.00     0.004 A 
ATOM     32  H   UNL     1     -47.723  34.921  24.906  1.00  0.00     0.063 H 
ATOM     33  C   UNL     1     -46.752  32.462  27.001  1.00  0.00     0.035 A 
ATOM     34  H   UNL     1     -46.697  31.385  27.131  1.00  0.00     0.085 H 
BRANCH  31  35
ATOM     35  C   UNL     1     -47.858  32.215  24.784  1.00  0.00     0.028 A 
ATOM     36  C   UNL     1     -49.213  32.048  24.569  1.00  0.00     0.015 A 
ATOM     37  C   UNL     1     -47.197  31.473  23.763  1.00  0.00     0.102 A 
ATOM     38  N   UNL     1     -49.396  31.257  23.456  1.00  0.00    -0.339 N 
ATOM     39  H   UNL     1     -50.057  32.458  25.106  1.00  0.00     0.083 H 
ATOM     40  C   UNL     1     -48.164  30.848  22.976  1.00  0.00     0.111 A 
ATOM     41  N   UNL     1     -45.869  31.333  23.543  1.00  0.00    -0.234 NA
ATOM     42  C   UNL     1     -47.753  30.018  21.936  1.00  0.00     0.151 A 
ATOM     43  C   UNL     1     -45.581  30.546  22.505  1.00  0.00     0.118 A 
ATOM     44  N   UNL     1     -46.437  29.888  21.707  1.00  0.00    -0.218 NA
ATOM     45  H   UNL     1     -44.527  30.414  22.282  1.00  0.00     0.106 H 
BRANCH  38  46
ATOM     46  C   UNL     1     -50.686  30.929  22.852  1.00  0.00     0.034 C 
ATOM     47  C   UNL     1     -51.850  31.149  23.821  1.00  0.00    -0.032 C 
ATOM     48  C   UNL     1     -51.084  31.761  21.624  1.00  0.00    -0.032 C 
ATOM     49  H   UNL     1     -50.621  29.882  22.541  1.00  0.00     0.053 H 
ATOM     50  C   UNL     1     -52.240  32.605  23.612  1.00  0.00    -0.051 C 
ATOM     51  H   UNL     1     -52.691  30.502  23.540  1.00  0.00     0.029 H 
ATOM     52  H   UNL     1     -51.601  30.943  24.866  1.00  0.00     0.029 H 
ATOM     53  C   UNL     1     -52.015  32.866  22.127  1.00  0.00    -0.051 C 
ATOM     54  H   UNL     1     -50.232  32.159  21.063  1.00  0.00     0.029 H 
ATOM     55  H   UNL     1     -51.649  31.126  20.927  1.00  0.00     0.029 H 
ATOM     56  H   UNL     1     -51.595  33.259  24.210  1.00  0.00     0.027 H 
ATOM     57  H   UNL     1     -53.274  32.801  23.912  1.00  0.00     0.027 H 
ATOM     58  H   UNL     1     -52.965  32.833  21.581  1.00  0.00     0.027 H 
ATOM     59  H   UNL     1     -51.584  33.860  21.966  1.00  0.00     0.027 H 
ENDBRANCH  38  46
BRANCH  42  60
ATOM     60  N   UNL     1     -48.596  29.274  21.120  1.00  0.00    -0.382 N 
ATOM     61  H   UNL     1     -48.167  28.423  20.785  1.00  0.00     0.158 HD
ATOM     62  H   UNL     1     -48.914  29.880  20.368  1.00  0.00     0.158 HD
ENDBRANCH  42  60
ENDBRANCH  31  35
ENDBRANCH   1  26
TORSDOF 8
ENDMDL
MODEL 2
REMARK VINA RESULT:      -9.9      2.093     10.719
REMARK SMILES CNc1ccc2ccc(OCc3cncc(-c4cn(C5CCCC5)c5c(N)ncnc45)c3)cc2n1
REMARK SMILES IDX 11 1 10 4 9 5 3 6 4 7 35 8 5 9 34 11 6 12 33 14 7 15 8 17
REMARK SMILES IDX 2 20 1 22 12 26 13 27 32 28 14 29 16 31 15 33 17 35 18 36
REMARK SMILES IDX 31 37 19 38 25 40 30 41 26 42 29 43 28 44 20 46 21 47 24 48
REMARK SMILES IDX 22 50 23 53 27 60
REMARK H PARENT 11 2 11 3 4 10 5 13 33 16 7 18 8 19 2 21 1 23 1 24 1 25 13 30
REMARK H PARENT 32 32 15 34 18 39 29 45 20 49 21 51 21 52 24 54 24 55 22 56
REMARK H PARENT 22 57 23 58 23 59 27 61 27 62
REMARK Flexibility Score: inf
ROOT
ATOM      1  C   UNL     1     -46.253  34.419  27.221  1.00  0.00     0.115 C 
ATOM      2  H   UNL     1     -45.596  34.110  28.044  1.00  0.00     0.076 H 
ATOM      3  H   UNL     1     -45.712  34.351  26.269  1.00  0.00     0.076 H 
ENDROOT
BRANCH   1   4
ATOM      4  O   UNL     1     -47.412  33.585  27.202  1.00  0.00    -0.489 OA
BRANCH   4   5
ATOM      5  C   UNL     1     -47.603  32.806  26.095  1.00  0.00     0.122 A 
ATOM      6  C   UNL     1     -46.500  31.116  21.784  1.00  0.00     0.126 A 
ATOM      7  C   UNL     1     -47.627  30.299  21.765  1.00  0.00    -0.019 A 
ATOM      8  N   UNL     1     -46.233  31.924  22.831  1.00  0.00    -0.231 NA
ATOM      9  C   UNL     1     -48.488  30.296  22.856  1.00  0.00    -0.049 A 
ATOM     10  H   UNL     1     -47.840  29.678  20.901  1.00  0.00     0.066 H 
ATOM     11  C   UNL     1     -47.063  31.929  23.889  1.00  0.00     0.076 A 
ATOM     12  C   UNL     1     -48.214  31.121  23.949  1.00  0.00     0.001 A 
ATOM     13  H   UNL     1     -49.368  29.659  22.841  1.00  0.00     0.063 H 
ATOM     14  C   UNL     1     -46.779  32.760  24.968  1.00  0.00     0.007 A 
ATOM     15  C   UNL     1     -49.049  31.159  25.076  1.00  0.00    -0.049 A 
ATOM     16  H   UNL     1     -45.885  33.370  24.891  1.00  0.00     0.069 H 
ATOM     17  C   UNL     1     -48.739  32.000  26.143  1.00  0.00    -0.019 A 
ATOM     18  H   UNL     1     -49.940  30.539  25.130  1.00  0.00     0.063 H 
ATOM     19  H   UNL     1     -49.386  32.027  27.016  1.00  0.00     0.066 H 
BRANCH   6  20
ATOM     20  N   UNL     1     -45.667  31.111  20.651  1.00  0.00    -0.373 N 
ATOM     21  H   UNL     1     -44.733  31.395  20.930  1.00  0.00     0.161 HD
BRANCH  20  22
ATOM     22  C   UNL     1     -46.165  31.904  19.540  1.00  0.00     0.005 C 
ATOM     23  H   UNL     1     -46.531  31.230  18.759  1.00  0.00     0.045 H 
ATOM     24  H   UNL     1     -45.375  32.523  19.099  1.00  0.00     0.045 H 
ATOM     25  H   UNL     1     -47.006  32.539  19.843  1.00  0.00     0.045 H 
ENDBRANCH  20  22
ENDBRANCH   6  20
ENDBRANCH   4   5
ENDBRANCH   1   4
BRANCH   1  26
ATOM     26  C   UNL     1     -46.676  35.848  27.422  1.00  0.00     0.008 A 
ATOM     27  C   UNL     1     -48.016  36.193  27.553  1.00  0.00     0.033 A 
ATOM     28  C   UNL     1     -45.739  36.891  27.425  1.00  0.00    -0.045 A 
ATOM     29  N   UNL     1     -48.464  37.461  27.692  1.00  0.00    -0.264 NA
ATOM     30  H   UNL     1     -48.796  35.434  27.547  1.00  0.00     0.084 H 
ATOM     31  C   UNL     1     -46.154  38.217  27.573  1.00  0.00     0.004 A 
ATOM     32  H   UNL     1     -44.681  36.661  27.318  1.00  0.00     0.063 H 
ATOM     33  C   UNL     1     -47.523  38.437  27.698  1.00  0.00     0.035 A 
ATOM     34  H   UNL     1     -47.930  39.439  27.798  1.00  0.00     0.085 H 
BRANCH  31  35
ATOM     35  C   UNL     1     -45.194  39.311  27.584  1.00  0.00     0.028 A 
ATOM     36  C   UNL     1     -45.139  40.288  26.609  1.00  0.00     0.015 A 
ATOM     37  C   UNL     1     -44.180  39.633  28.531  1.00  0.00     0.102 A 
ATOM     38  N   UNL     1     -44.153  41.193  26.936  1.00  0.00    -0.339 N 
ATOM     39  H   UNL     1     -45.749  40.424  25.726  1.00  0.00     0.083 H 
ATOM     40  C   UNL     1     -43.513  40.776  28.090  1.00  0.00     0.111 A 
ATOM     41  N   UNL     1     -43.846  38.982  29.669  1.00  0.00    -0.234 NA
ATOM     42  C   UNL     1     -42.437  41.257  28.832  1.00  0.00     0.151 A 
ATOM     43  C   UNL     1     -42.826  39.540  30.323  1.00  0.00     0.118 A 
ATOM     44  N   UNL     1     -42.113  40.621  29.969  1.00  0.00    -0.218 NA
ATOM     45  H   UNL     1     -42.530  39.059  31.250  1.00  0.00     0.106 H 
BRANCH  38  46
ATOM     46  C   UNL     1     -43.850  42.420  26.201  1.00  0.00     0.034 C 
ATOM     47  C   UNL     1     -44.599  42.495  24.870  1.00  0.00    -0.032 C 
ATOM     48  C   UNL     1     -44.233  43.733  26.900  1.00  0.00    -0.032 C 
ATOM     49  H   UNL     1     -42.767  42.425  26.048  1.00  0.00     0.053 H 
ATOM     50  C   UNL     1     -45.923  43.157  25.223  1.00  0.00    -0.051 C 
ATOM     51  H   UNL     1     -44.047  43.137  24.171  1.00  0.00     0.029 H 
ATOM     52  H   UNL     1     -44.749  41.524  24.389  1.00  0.00     0.029 H 
ATOM     53  C   UNL     1     -45.586  44.157  26.323  1.00  0.00    -0.051 C 
ATOM     54  H   UNL     1     -44.251  43.665  27.992  1.00  0.00     0.029 H 
ATOM     55  H   UNL     1     -43.494  44.505  26.646  1.00  0.00     0.029 H 
ATOM     56  H   UNL     1     -46.632  42.410  25.599  1.00  0.00     0.027 H 
ATOM     57  H   UNL     1     -46.387  43.640  24.357  1.00  0.00     0.027 H 
ATOM     58  H   UNL     1     -45.517  45.172  25.915  1.00  0.00     0.027 H 
ATOM     59  H   UNL     1     -46.366  44.170  27.092  1.00  0.00     0.027 H 
ENDBRANCH  38  46
BRANCH  42  60
ATOM     60  N   UNL     1     -41.635  42.335  28.479  1.00  0.00    -0.382 N 
ATOM     61  H   UNL     1     -41.094  42.164  27.642  1.00  0.00     0.158 HD
ATOM     62  H   UNL     1     -41.057  42.568  29.283  1.00  0.00     0.158 HD
ENDBRANCH  42  60
ENDBRANCH  31  35
ENDBRANCH   1  26
TORSDOF 8
ENDMDL
MODEL 3
REMARK VINA RESULT:      -9.8      2.571      3.801
REMARK SMILES CNc1ccc2ccc(OCc3cncc(-c4cn(C5CCCC5)c5c(N)ncnc45)c3)cc2n1
REMARK SMILES IDX 11 1 10 4 9 5 3 6 4 7 35 8 5 9 34 11 6 12 33 14 7 15 8 17
REMARK SMILES IDX 2 20 1 22 12 26 13 27 32 28 14 29 16 31 15 33 17 35 18 36
REMARK SMILES IDX 31 37 19 38 25 40 30 41 26 42 29 43 28 44 20 46 21 47 24 48
REMARK SMILES IDX 22 50 23 53 27 60
REMARK H PARENT 11 2 11 3 4 10 5 13 33 16 7 18 8 19 2 21 1 23 1 24 1 25 13 30
REMARK H PARENT 32 32 15 34 18 39 29 45 20 49 21 51 21 52 24 54 24 55 22 56
REMARK H PARENT 22 57 23 58 23 59 27 61 27 62
REMARK Flexibility Score: inf
ROOT
ATOM      1  C   UNL     1     -48.684  35.562  27.258  1.00  0.00     0.115 C 
ATOM      2  H   UNL     1     -49.686  35.246  27.575  1.00  0.00     0.076 H 
ATOM      3  H   UNL     1     -48.759  36.447  26.615  1.00  0.00     0.076 H 
ENDROOT
BRANCH   1   4
ATOM      4  O   UNL     1     -47.891  35.843  28.412  1.00  0.00    -0.489 OA
BRANCH   4   5
ATOM      5  C   UNL     1     -46.996  36.873  28.319  1.00  0.00     0.122 A 
ATOM      6  C   UNL     1     -45.224  40.872  26.442  1.00  0.00     0.126 A 
ATOM      7  C   UNL     1     -44.170  40.887  27.351  1.00  0.00    -0.019 A 
ATOM      8  N   UNL     1     -46.151  39.893  26.453  1.00  0.00    -0.231 NA
ATOM      9  C   UNL     1     -44.079  39.884  28.308  1.00  0.00    -0.049 A 
ATOM     10  H   UNL     1     -43.419  41.668  27.307  1.00  0.00     0.066 H 
ATOM     11  C   UNL     1     -46.067  38.916  27.374  1.00  0.00     0.076 A 
ATOM     12  C   UNL     1     -45.040  38.871  28.335  1.00  0.00     0.001 A 
ATOM     13  H   UNL     1     -43.256  39.894  29.018  1.00  0.00     0.063 H 
ATOM     14  C   UNL     1     -47.030  37.911  27.385  1.00  0.00     0.007 A 
ATOM     15  C   UNL     1     -44.996  37.832  29.278  1.00  0.00    -0.049 A 
ATOM     16  H   UNL     1     -47.808  37.975  26.631  1.00  0.00     0.069 H 
ATOM     17  C   UNL     1     -45.974  36.840  29.265  1.00  0.00    -0.019 A 
ATOM     18  H   UNL     1     -44.205  37.790  30.022  1.00  0.00     0.063 H 
ATOM     19  H   UNL     1     -45.939  36.037  29.998  1.00  0.00     0.066 H 
BRANCH   6  20
ATOM     20  N   UNL     1     -45.269  41.890  25.473  1.00  0.00    -0.373 N 
ATOM     21  H   UNL     1     -45.666  41.513  24.619  1.00  0.00     0.161 HD
BRANCH  20  22
ATOM     22  C   UNL     1     -43.992  42.543  25.233  1.00  0.00     0.005 C 
ATOM     23  H   UNL     1     -43.962  42.894  24.197  1.00  0.00     0.045 H 
ATOM     24  H   UNL     1     -43.153  41.852  25.373  1.00  0.00     0.045 H 
ATOM     25  H   UNL     1     -43.860  43.419  25.879  1.00  0.00     0.045 H 
ENDBRANCH  20  22
ENDBRANCH   6  20
ENDBRANCH   4   5
ENDBRANCH   1   4
BRANCH   1  26
ATOM     26  C   UNL     1     -48.033  34.459  26.468  1.00  0.00     0.008 A 
ATOM     27  C   UNL     1     -46.745  34.597  25.962  1.00  0.00     0.033 A 
ATOM     28  C   UNL     1     -48.722  33.278  26.163  1.00  0.00    -0.045 A 
ATOM     29  N   UNL     1     -46.121  33.663  25.211  1.00  0.00    -0.264 NA
ATOM     30  H   UNL     1     -46.159  35.494  26.153  1.00  0.00     0.084 H 
ATOM     31  C   UNL     1     -48.115  32.280  25.395  1.00  0.00     0.004 A 
ATOM     32  H   UNL     1     -49.735  33.136  26.535  1.00  0.00     0.063 H 
ATOM     33  C   UNL     1     -46.821  32.533  24.947  1.00  0.00     0.035 A 
ATOM     34  H   UNL     1     -46.286  31.818  24.328  1.00  0.00     0.085 H 
BRANCH  31  35
ATOM     35  C   UNL     1     -48.814  31.045  25.073  1.00  0.00     0.028 A 
ATOM     36  C   UNL     1     -48.500  29.822  25.633  1.00  0.00     0.015 A 
ATOM     37  C   UNL     1     -49.914  30.814  24.198  1.00  0.00     0.102 A 
ATOM     38  N   UNL     1     -49.372  28.870  25.151  1.00  0.00    -0.339 N 
ATOM     39  H   UNL     1     -47.742  29.565  26.362  1.00  0.00     0.083 H 
ATOM     40  C   UNL     1     -50.217  29.453  24.223  1.00  0.00     0.111 A 
ATOM     41  N   UNL     1     -50.585  31.701  23.428  1.00  0.00    -0.234 NA
ATOM     42  C   UNL     1     -51.234  28.973  23.400  1.00  0.00     0.151 A 
ATOM     43  C   UNL     1     -51.560  31.148  22.703  1.00  0.00     0.118 A 
ATOM     44  N   UNL     1     -51.910  29.854  22.646  1.00  0.00    -0.218 NA
ATOM     45  H   UNL     1     -52.135  31.825  22.079  1.00  0.00     0.106 H 
BRANCH  38  46
ATOM     46  C   UNL     1     -49.422  27.473  25.577  1.00  0.00     0.034 C 
ATOM     47  C   UNL     1     -48.673  26.549  24.614  1.00  0.00    -0.032 C 
ATOM     48  C   UNL     1     -48.782  27.162  26.938  1.00  0.00    -0.032 C 
ATOM     49  H   UNL     1     -50.482  27.209  25.637  1.00  0.00     0.053 H 
ATOM     50  C   UNL     1     -47.243  26.548  25.134  1.00  0.00    -0.051 C 
ATOM     51  H   UNL     1     -49.086  25.535  24.682  1.00  0.00     0.029 H 
ATOM     52  H   UNL     1     -48.723  26.865  23.568  1.00  0.00     0.029 H 
ATOM     53  C   UNL     1     -47.372  26.642  26.650  1.00  0.00    -0.051 C 
ATOM     54  H   UNL     1     -48.777  28.011  27.630  1.00  0.00     0.029 H 
ATOM     55  H   UNL     1     -49.351  26.361  27.429  1.00  0.00     0.029 H 
ATOM     56  H   UNL     1     -46.699  27.419  24.749  1.00  0.00     0.027 H 
ATOM     57  H   UNL     1     -46.692  25.654  24.823  1.00  0.00     0.027 H 
ATOM     58  H   UNL     1     -47.235  25.657  27.111  1.00  0.00     0.027 H 
ATOM     59  H   UNL     1     -46.605  27.304  27.067  1.00  0.00     0.027 H 
ENDBRANCH  38  46
BRANCH  42  60
ATOM     60  N   UNL     1     -51.596  27.639  23.263  1.00  0.00    -0.382 N 
ATOM     61  H   UNL     1     -51.506  27.304  22.314  1.00  0.00     0.158 HD
ATOM     62  H   UNL     1     -52.537  27.534  23.633  1.00  0.00     0.158 HD
ENDBRANCH  42  60
ENDBRANCH  31  35
ENDBRANCH   1  26
TORSDOF 8
ENDMDL
MODEL 4
REMARK VINA RESULT:      -9.7      2.544     11.257
REMARK SMILES CNc1ccc2ccc(OCc3cncc(-c4cn(C5CCCC5)c5c(N)ncnc45)c3)cc2n1
REMARK SMILES IDX 11 1 10 4 9 5 3 6 4 7 35 8 5 9 34 11 6 12 33 14 7 15 8 17
REMARK SMILES IDX 2 20 1 22 12 26 13 27 32 28 14 29 16 31 15 33 17 35 18 36
REMARK SMILES IDX 31 37 19 38 25 40 30 41 26 42 29 43 28 44 20 46 21 47 24 48
REMARK SMILES IDX 22 50 23 53 27 60
REMARK H PARENT 11 2 11 3 4 10 5 13 33 16 7 18 8 19 2 21 1 23 1 24 1 25 13 30
REMARK H PARENT 32 32 15 34 18 39 29 45 20 49 21 51 21 52 24 54 24 55 22 56
REMARK H PARENT 22 57 23 58 23 59 27 61 27 62
REMARK Flexibility Score: inf
ROOT
ATOM      1  C   UNL     1     -46.718  34.604  26.969  1.00  0.00     0.115 C 
ATOM      2  H   UNL     1     -46.330  34.112  27.869  1.00  0.00     0.076 H 
ATOM      3  H   UNL     1     -45.961  34.581  26.176  1.00  0.00     0.076 H 
ENDROOT
BRANCH   1   4
ATOM      4  O   UNL     1     -47.911  33.943  26.547  1.00  0.00    -0.489 OA
BRANCH   4   5
ATOM      5  C   UNL     1     -47.765  32.817  25.784  1.00  0.00     0.122 A 
ATOM      6  C   UNL     1     -48.931  28.447  24.301  1.00  0.00     0.126 A 
ATOM      7  C   UNL     1     -47.872  28.420  23.399  1.00  0.00    -0.019 A 
ATOM      8  N   UNL     1     -49.150  29.512  25.100  1.00  0.00    -0.231 NA
ATOM      9  C   UNL     1     -47.031  29.522  23.300  1.00  0.00    -0.049 A 
ATOM     10  H   UNL     1     -47.695  27.543  22.787  1.00  0.00     0.066 H 
ATOM     11  C   UNL     1     -48.338  30.581  25.012  1.00  0.00     0.076 A 
ATOM     12  C   UNL     1     -47.256  30.633  24.114  1.00  0.00     0.001 A 
ATOM     13  H   UNL     1     -46.204  29.501  22.596  1.00  0.00     0.063 H 
ATOM     14  C   UNL     1     -48.573  31.679  25.833  1.00  0.00     0.007 A 
ATOM     15  C   UNL     1     -46.438  31.772  24.057  1.00  0.00    -0.049 A 
ATOM     16  H   UNL     1     -49.415  31.607  26.514  1.00  0.00     0.069 H 
ATOM     17  C   UNL     1     -46.697  32.858  24.891  1.00  0.00    -0.019 A 
ATOM     18  H   UNL     1     -45.599  31.820  23.367  1.00  0.00     0.063 H 
ATOM     19  H   UNL     1     -46.063  33.739  24.843  1.00  0.00     0.066 H 
BRANCH   6  20
ATOM     20  N   UNL     1     -49.746  27.304  24.392  1.00  0.00    -0.373 N 
ATOM     21  H   UNL     1     -49.424  26.617  23.718  1.00  0.00     0.161 HD
BRANCH  20  22
ATOM     22  C   UNL     1     -51.168  27.572  24.255  1.00  0.00     0.005 C 
ATOM     23  H   UNL     1     -51.423  28.450  24.858  1.00  0.00     0.045 H 
ATOM     24  H   UNL     1     -51.774  26.734  24.619  1.00  0.00     0.045 H 
ATOM     25  H   UNL     1     -51.437  27.800  23.217  1.00  0.00     0.045 H 
ENDBRANCH  20  22
ENDBRANCH   6  20
ENDBRANCH   4   5
ENDBRANCH   1   4
BRANCH   1  26
ATOM     26  C   UNL     1     -47.034  36.043  27.276  1.00  0.00     0.008 A 
ATOM     27  C   UNL     1     -48.340  36.465  27.495  1.00  0.00     0.033 A 
ATOM     28  C   UNL     1     -46.029  37.020  27.295  1.00  0.00    -0.045 A 
ATOM     29  N   UNL     1     -48.693  37.749  27.733  1.00  0.00    -0.264 NA
ATOM     30  H   UNL     1     -49.169  35.760  27.483  1.00  0.00     0.084 H 
ATOM     31  C   UNL     1     -46.345  38.359  27.543  1.00  0.00     0.004 A 
ATOM     32  H   UNL     1     -44.995  36.730  27.121  1.00  0.00     0.063 H 
ATOM     33  C   UNL     1     -47.689  38.659  27.750  1.00  0.00     0.035 A 
ATOM     34  H   UNL     1     -48.021  39.677  27.930  1.00  0.00     0.085 H 
BRANCH  31  35
ATOM     35  C   UNL     1     -45.314  39.385  27.571  1.00  0.00     0.028 A 
ATOM     36  C   UNL     1     -45.192  40.371  26.611  1.00  0.00     0.015 A 
ATOM     37  C   UNL     1     -44.281  39.623  28.523  1.00  0.00     0.102 A 
ATOM     38  N   UNL     1     -44.147  41.202  26.952  1.00  0.00    -0.339 N 
ATOM     39  H   UNL     1     -45.789  40.561  25.730  1.00  0.00     0.083 H 
ATOM     40  C   UNL     1     -43.538  40.725  28.100  1.00  0.00     0.111 A 
ATOM     41  N   UNL     1     -43.994  38.933  29.650  1.00  0.00    -0.234 NA
ATOM     42  C   UNL     1     -42.433  41.121  28.850  1.00  0.00     0.151 A 
ATOM     43  C   UNL     1     -42.939  39.411  30.314  1.00  0.00     0.118 A 
ATOM     44  N   UNL     1     -42.154  40.446  29.977  1.00  0.00    -0.218 NA
ATOM     45  H   UNL     1     -42.678  38.897  31.233  1.00  0.00     0.106 H 
BRANCH  38  46
ATOM     46  C   UNL     1     -43.761  42.416  26.236  1.00  0.00     0.034 C 
ATOM     47  C   UNL     1     -44.471  42.542  24.887  1.00  0.00    -0.032 C 
ATOM     48  C   UNL     1     -44.092  43.743  26.937  1.00  0.00    -0.032 C 
ATOM     49  H   UNL     1     -42.676  42.366  26.111  1.00  0.00     0.053 H 
ATOM     50  C   UNL     1     -45.767  43.270  25.212  1.00  0.00    -0.051 C 
ATOM     51  H   UNL     1     -43.867  43.159  24.209  1.00  0.00     0.029 H 
ATOM     52  H   UNL     1     -44.659  41.583  24.394  1.00  0.00     0.029 H 
ATOM     53  C   UNL     1     -45.406  44.242  26.330  1.00  0.00    -0.051 C 
ATOM     54  H   UNL     1     -44.142  43.667  28.028  1.00  0.00     0.029 H 
ATOM     55  H   UNL     1     -43.307  44.476  26.709  1.00  0.00     0.029 H 
ATOM     56  H   UNL     1     -46.523  42.559  25.564  1.00  0.00     0.027 H 
ATOM     57  H   UNL     1     -46.182  43.784  24.339  1.00  0.00     0.027 H 
ATOM     58  H   UNL     1     -45.273  45.255  25.933  1.00  0.00     0.027 H 
ATOM     59  H   UNL     1     -46.203  44.290  27.079  1.00  0.00     0.027 H 
ENDBRANCH  38  46
BRANCH  42  60
ATOM     60  N   UNL     1     -41.559  42.147  28.513  1.00  0.00    -0.382 N 
ATOM     61  H   UNL     1     -40.683  41.810  28.140  1.00  0.00     0.158 HD
ATOM     62  H   UNL     1     -41.439  42.734  29.335  1.00  0.00     0.158 HD
ENDBRANCH  42  60
ENDBRANCH  31  35
ENDBRANCH   1  26
TORSDOF 8
ENDMDL
MODEL 5
REMARK VINA RESULT:      -9.6      2.725     10.734
REMARK SMILES CNc1ccc2ccc(OCc3cncc(-c4cn(C5CCCC5)c5c(N)ncnc45)c3)cc2n1
REMARK SMILES IDX 11 1 10 4 9 5 3 6 4 7 35 8 5 9 34 11 6 12 33 14 7 15 8 17
REMARK SMILES IDX 2 20 1 22 12 26 13 27 32 28 14 29 16 31 15 33 17 35 18 36
REMARK SMILES IDX 31 37 19 38 25 40 30 41 26 42 29 43 28 44 20 46 21 47 24 48
REMARK SMILES IDX 22 50 23 53 27 60
REMARK H PARENT 11 2 11 3 4 10 5 13 33 16 7 18 8 19 2 21 1 23 1 24 1 25 13 30
REMARK H PARENT 32 32 15 34 18 39 29 45 20 49 21 51 21 52 24 54 24 55 22 56
REMARK H PARENT 22 57 23 58 23 59 27 61 27 62
REMARK Flexibility Score: inf
ROOT
ATOM      1  C   UNL     1     -47.927  35.062  26.725  1.00  0.00     0.115 C 
ATOM      2  H   UNL     1     -48.078  35.142  25.641  1.00  0.00     0.076 H 
ATOM      3  H   UNL     1     -48.882  35.198  27.245  1.00  0.00     0.076 H 
ENDROOT
BRANCH   1   4
ATOM      4  O   UNL     1     -47.365  33.785  27.030  1.00  0.00    -0.489 OA
BRANCH   4   5
ATOM      5  C   UNL     1     -47.456  32.816  26.069  1.00  0.00     0.122 A 
ATOM      6  C   UNL     1     -46.415  30.795  21.888  1.00  0.00     0.126 A 
ATOM      7  C   UNL     1     -47.270  29.726  22.138  1.00  0.00    -0.019 A 
ATOM      8  N   UNL     1     -46.265  31.801  22.774  1.00  0.00    -0.231 NA
ATOM      9  C   UNL     1     -47.972  29.679  23.337  1.00  0.00    -0.049 A 
ATOM     10  H   UNL     1     -47.399  28.942  21.401  1.00  0.00     0.066 H 
ATOM     11  C   UNL     1     -46.944  31.764  23.935  1.00  0.00     0.076 A 
ATOM     12  C   UNL     1     -47.815  30.710  24.266  1.00  0.00     0.001 A 
ATOM     13  H   UNL     1     -48.640  28.846  23.533  1.00  0.00     0.063 H 
ATOM     14  C   UNL     1     -46.780  32.801  24.848  1.00  0.00     0.007 A 
ATOM     15  C   UNL     1     -48.500  30.715  25.491  1.00  0.00    -0.049 A 
ATOM     16  H   UNL     1     -46.101  33.599  24.562  1.00  0.00     0.069 H 
ATOM     17  C   UNL     1     -48.316  31.766  26.386  1.00  0.00    -0.019 A 
ATOM     18  H   UNL     1     -49.176  29.905  25.753  1.00  0.00     0.063 H 
ATOM     19  H   UNL     1     -48.846  31.767  27.335  1.00  0.00     0.066 H 
BRANCH   6  20
ATOM     20  N   UNL     1     -45.741  30.821  20.653  1.00  0.00    -0.373 N 
ATOM     21  H   UNL     1     -44.741  30.822  20.825  1.00  0.00     0.161 HD
BRANCH  20  22
ATOM     22  C   UNL     1     -46.141  31.911  19.779  1.00  0.00     0.005 C 
ATOM     23  H   UNL     1     -46.630  32.686  20.378  1.00  0.00     0.045 H 
ATOM     24  H   UNL     1     -46.860  31.578  19.021  1.00  0.00     0.045 H 
ATOM     25  H   UNL     1     -45.277  32.374  19.290  1.00  0.00     0.045 H 
ENDBRANCH  20  22
ENDBRANCH   6  20
ENDBRANCH   4   5
ENDBRANCH   1   4
BRANCH   1  26
ATOM     26  C   UNL     1     -46.983  36.139  27.184  1.00  0.00     0.008 A 
ATOM     27  C   UNL     1     -45.916  35.853  28.029  1.00  0.00     0.033 A 
ATOM     28  C   UNL     1     -47.178  37.480  26.824  1.00  0.00    -0.045 A 
ATOM     29  N   UNL     1     -45.059  36.781  28.511  1.00  0.00    -0.264 NA
ATOM     30  H   UNL     1     -45.714  34.835  28.356  1.00  0.00     0.084 H 
ATOM     31  C   UNL     1     -46.314  38.474  27.292  1.00  0.00     0.004 A 
ATOM     32  H   UNL     1     -48.006  37.744  26.170  1.00  0.00     0.063 H 
ATOM     33  C   UNL     1     -45.281  38.064  28.131  1.00  0.00     0.035 A 
ATOM     34  H   UNL     1     -44.577  38.775  28.554  1.00  0.00     0.085 H 
BRANCH  31  35
ATOM     35  C   UNL     1     -46.499  39.869  26.925  1.00  0.00     0.028 A 
ATOM     36  C   UNL     1     -45.493  40.662  26.407  1.00  0.00     0.015 A 
ATOM     37  C   UNL     1     -47.665  40.686  26.979  1.00  0.00     0.102 A 
ATOM     38  N   UNL     1     -46.005  41.911  26.128  1.00  0.00    -0.339 N 
ATOM     39  H   UNL     1     -44.462  40.421  26.186  1.00  0.00     0.083 H 
ATOM     40  C   UNL     1     -47.330  41.962  26.526  1.00  0.00     0.111 A 
ATOM     41  N   UNL     1     -48.907  40.361  27.404  1.00  0.00    -0.234 NA
ATOM     42  C   UNL     1     -48.304  42.958  26.535  1.00  0.00     0.151 A 
ATOM     43  C   UNL     1     -49.774  41.374  27.343  1.00  0.00     0.118 A 
ATOM     44  N   UNL     1     -49.541  42.634  26.943  1.00  0.00    -0.218 NA
ATOM     45  H   UNL     1     -50.788  41.157  27.662  1.00  0.00     0.106 H 
BRANCH  38  46
ATOM     46  C   UNL     1     -45.276  43.001  25.484  1.00  0.00     0.034 C 
ATOM     47  C   UNL     1     -44.747  44.020  26.495  1.00  0.00    -0.032 C 
ATOM     48  C   UNL     1     -44.021  42.597  24.696  1.00  0.00    -0.032 C 
ATOM     49  H   UNL     1     -45.977  43.465  24.783  1.00  0.00     0.053 H 
ATOM     50  C   UNL     1     -43.381  43.479  26.890  1.00  0.00    -0.051 C 
ATOM     51  H   UNL     1     -44.625  44.995  26.007  1.00  0.00     0.029 H 
ATOM     52  H   UNL     1     -45.395  44.157  27.366  1.00  0.00     0.029 H 
ATOM     53  C   UNL     1     -42.827  42.837  25.624  1.00  0.00    -0.051 C 
ATOM     54  H   UNL     1     -44.049  41.572  24.313  1.00  0.00     0.029 H 
ATOM     55  H   UNL     1     -43.916  43.255  23.823  1.00  0.00     0.029 H 
ATOM     56  H   UNL     1     -43.486  42.724  27.678  1.00  0.00     0.027 H 
ATOM     57  H   UNL     1     -42.722  44.264  27.275  1.00  0.00     0.027 H 
ATOM     58  H   UNL     1     -42.104  43.502  25.138  1.00  0.00     0.027 H 
ATOM     59  H   UNL     1     -42.303  41.903  25.855  1.00  0.00     0.027 H 
ENDBRANCH  38  46
BRANCH  42  60
ATOM     60  N   UNL     1     -48.098  44.286  26.185  1.00  0.00    -0.382 N 
ATOM     61  H   UNL     1     -48.883  44.879  26.417  1.00  0.00     0.158 HD
ATOM     62  H   UNL     1     -47.860  44.313  25.197  1.00  0.00     0.158 HD
ENDBRANCH  42  60
ENDBRANCH  31  35
ENDBRANCH   1  26
TORSDOF 8
ENDMDL
MODEL 6
REMARK VINA RESULT:      -9.3      1.866      2.694
REMARK SMILES CNc1ccc2ccc(OCc3cncc(-c4cn(C5CCCC5)c5c(N)ncnc45)c3)cc2n1
REMARK SMILES IDX 11 1 10 4 9 5 3 6 4 7 35 8 5 9 34 11 6 12 33 14 7 15 8 17
REMARK SMILES IDX 2 20 1 22 12 26 13 27 32 28 14 29 16 31 15 33 17 35 18 36
REMARK SMILES IDX 31 37 19 38 25 40 30 41 26 42 29 43 28 44 20 46 21 47 24 48
REMARK SMILES IDX 22 50 23 53 27 60
REMARK H PARENT 11 2 11 3 4 10 5 13 33 16 7 18 8 19 2 21 1 23 1 24 1 25 13 30
REMARK H PARENT 32 32 15 34 18 39 29 45 20 49 21 51 21 52 24 54 24 55 22 56
REMARK H PARENT 22 57 23 58 23 59 27 61 27 62
REMARK Flexibility Score: inf
ROOT
ATOM      1  C   UNL     1     -45.986  35.898  26.974  1.00  0.00     0.115 C 
ATOM      2  H   UNL     1     -45.491  36.233  26.054  1.00  0.00     0.076 H 
ATOM      3  H   UNL     1     -45.285  35.315  27.583  1.00  0.00     0.076 H 
ENDROOT
BRANCH   1   4
ATOM      4  O   UNL     1     -46.458  37.035  27.698  1.00  0.00    -0.489 OA
BRANCH   4   5
ATOM      5  C   UNL     1     -45.516  37.892  28.198  1.00  0.00     0.122 A 
ATOM      6  C   UNL     1     -42.773  41.780  28.128  1.00  0.00     0.126 A 
ATOM      7  C   UNL     1     -42.195  41.452  29.351  1.00  0.00    -0.019 A 
ATOM      8  N   UNL     1     -43.705  40.992  27.554  1.00  0.00    -0.231 NA
ATOM      9  C   UNL     1     -42.600  40.297  30.010  1.00  0.00    -0.049 A 
ATOM     10  H   UNL     1     -41.426  42.083  29.782  1.00  0.00     0.066 H 
ATOM     11  C   UNL     1     -44.100  39.871  28.184  1.00  0.00     0.076 A 
ATOM     12  C   UNL     1     -43.573  39.480  29.429  1.00  0.00     0.001 A 
ATOM     13  H   UNL     1     -42.150  40.039  30.964  1.00  0.00     0.063 H 
ATOM     14  C   UNL     1     -45.066  39.066  27.590  1.00  0.00     0.007 A 
ATOM     15  C   UNL     1     -44.018  38.302  30.048  1.00  0.00    -0.049 A 
ATOM     16  H   UNL     1     -45.452  39.395  26.630  1.00  0.00     0.069 H 
ATOM     17  C   UNL     1     -44.988  37.516  29.431  1.00  0.00    -0.019 A 
ATOM     18  H   UNL     1     -43.615  37.993  31.009  1.00  0.00     0.063 H 
ATOM     19  H   UNL     1     -45.333  36.604  29.913  1.00  0.00     0.066 H 
BRANCH   6  20
ATOM     20  N   UNL     1     -42.319  42.943  27.480  1.00  0.00    -0.373 N 
ATOM     21  H   UNL     1     -42.948  43.708  27.699  1.00  0.00     0.161 HD
BRANCH  20  22
ATOM     22  C   UNL     1     -42.130  42.791  26.046  1.00  0.00     0.005 C 
ATOM     23  H   UNL     1     -42.697  41.919  25.704  1.00  0.00     0.045 H 
ATOM     24  H   UNL     1     -41.077  42.620  25.793  1.00  0.00     0.045 H 
ATOM     25  H   UNL     1     -42.506  43.661  25.496  1.00  0.00     0.045 H 
ENDBRANCH  20  22
ENDBRANCH   6  20
ENDBRANCH   4   5
ENDBRANCH   1   4
BRANCH   1  26
ATOM     26  C   UNL     1     -47.154  35.015  26.626  1.00  0.00     0.008 A 
ATOM     27  C   UNL     1     -48.426  35.269  27.127  1.00  0.00     0.033 A 
ATOM     28  C   UNL     1     -46.990  33.871  25.833  1.00  0.00    -0.045 A 
ATOM     29  N   UNL     1     -49.505  34.491  26.888  1.00  0.00    -0.264 NA
ATOM     30  H   UNL     1     -48.619  36.134  27.759  1.00  0.00     0.084 H 
ATOM     31  C   UNL     1     -48.078  33.040  25.553  1.00  0.00     0.004 A 
ATOM     32  H   UNL     1     -46.008  33.635  25.428  1.00  0.00     0.063 H 
ATOM     33  C   UNL     1     -49.303  33.400  26.110  1.00  0.00     0.035 A 
ATOM     34  H   UNL     1     -50.194  32.797  25.957  1.00  0.00     0.085 H 
BRANCH  31  35
ATOM     35  C   UNL     1     -47.927  31.852  24.727  1.00  0.00     0.028 A 
ATOM     36  C   UNL     1     -47.504  31.884  23.412  1.00  0.00     0.015 A 
ATOM     37  C   UNL     1     -48.136  30.480  25.046  1.00  0.00     0.102 A 
ATOM     38  N   UNL     1     -47.429  30.595  22.932  1.00  0.00    -0.339 N 
ATOM     39  H   UNL     1     -47.221  32.726  22.793  1.00  0.00     0.083 H 
ATOM     40  C   UNL     1     -47.868  29.717  23.909  1.00  0.00     0.111 A 
ATOM     41  N   UNL     1     -48.543  29.935  26.215  1.00  0.00    -0.234 NA
ATOM     42  C   UNL     1     -48.053  28.338  23.963  1.00  0.00     0.151 A 
ATOM     43  C   UNL     1     -48.658  28.606  26.172  1.00  0.00     0.118 A 
ATOM     44  N   UNL     1     -48.444  27.793  25.126  1.00  0.00    -0.218 NA
ATOM     45  H   UNL     1     -48.971  28.122  27.093  1.00  0.00     0.106 H 
BRANCH  38  46
ATOM     46  C   UNL     1     -46.933  30.208  21.613  1.00  0.00     0.034 C 
ATOM     47  C   UNL     1     -48.067  29.991  20.610  1.00  0.00    -0.032 C 
ATOM     48  C   UNL     1     -46.028  31.231  20.910  1.00  0.00    -0.032 C 
ATOM     49  H   UNL     1     -46.352  29.293  21.761  1.00  0.00     0.053 H 
ATOM     50  C   UNL     1     -48.300  31.367  20.004  1.00  0.00    -0.051 C 
ATOM     51  H   UNL     1     -47.738  29.299  19.825  1.00  0.00     0.029 H 
ATOM     52  H   UNL     1     -48.981  29.585  21.056  1.00  0.00     0.029 H 
ATOM     53  C   UNL     1     -46.920  32.011  19.941  1.00  0.00    -0.051 C 
ATOM     54  H   UNL     1     -45.486  31.890  21.596  1.00  0.00     0.029 H 
ATOM     55  H   UNL     1     -45.268  30.696  20.324  1.00  0.00     0.029 H 
ATOM     56  H   UNL     1     -48.960  31.958  20.650  1.00  0.00     0.027 H 
ATOM     57  H   UNL     1     -48.773  31.309  19.019  1.00  0.00     0.027 H 
ATOM     58  H   UNL     1     -46.512  31.950  18.925  1.00  0.00     0.027 H 
ATOM     59  H   UNL     1     -46.971  33.072  20.206  1.00  0.00     0.027 H 
ENDBRANCH  38  46
BRANCH  42  60
ATOM     60  N   UNL     1     -47.898  27.464  22.894  1.00  0.00    -0.382 N 
ATOM     61  H   UNL     1     -48.641  26.780  22.837  1.00  0.00     0.158 HD
ATOM     62  H   UNL     1     -46.976  27.042  22.969  1.00  0.00     0.158 HD
ENDBRANCH  42  60
ENDBRANCH  31  35
ENDBRANCH   1  26
TORSDOF 8
ENDMDL
MODEL 7
REMARK VINA RESULT:      -9.3      2.347      3.540
REMARK SMILES CNc1ccc2ccc(OCc3cncc(-c4cn(C5CCCC5)c5c(N)ncnc45)c3)cc2n1
REMARK SMILES IDX 11 1 10 4 9 5 3 6 4 7 35 8 5 9 34 11 6 12 33 14 7 15 8 17
REMARK SMILES IDX 2 20 1 22 12 26 13 27 32 28 14 29 16 31 15 33 17 35 18 36
REMARK SMILES IDX 31 37 19 38 25 40 30 41 26 42 29 43 28 44 20 46 21 47 24 48
REMARK SMILES IDX 22 50 23 53 27 60
REMARK H PARENT 11 2 11 3 4 10 5 13 33 16 7 18 8 19 2 21 1 23 1 24 1 25 13 30
REMARK H PARENT 32 32 15 34 18 39 29 45 20 49 21 51 21 52 24 54 24 55 22 56
REMARK H PARENT 22 57 23 58 23 59 27 61 27 62
REMARK Flexibility Score: inf
ROOT
ATOM      1  C   UNL     1     -46.184  34.727  26.927  1.00  0.00     0.115 C 
ATOM      2  H   UNL     1     -45.707  35.187  26.053  1.00  0.00     0.076 H 
ATOM      3  H   UNL     1     -45.553  33.917  27.312  1.00  0.00     0.076 H 
ENDROOT
BRANCH   1   4
ATOM      4  O   UNL     1     -46.393  35.723  27.930  1.00  0.00    -0.489 OA
BRANCH   4   5
ATOM      5  C   UNL     1     -46.051  37.009  27.614  1.00  0.00     0.122 A 
ATOM      6  C   UNL     1     -43.543  41.028  28.078  1.00  0.00     0.126 A 
ATOM      7  C   UNL     1     -44.257  41.646  27.056  1.00  0.00    -0.019 A 
ATOM      8  N   UNL     1     -43.815  39.764  28.462  1.00  0.00    -0.231 NA
ATOM      9  C   UNL     1     -45.260  40.942  26.400  1.00  0.00    -0.049 A 
ATOM     10  H   UNL     1     -44.044  42.673  26.781  1.00  0.00     0.066 H 
ATOM     11  C   UNL     1     -44.786  39.076  27.834  1.00  0.00     0.076 A 
ATOM     12  C   UNL     1     -45.541  39.629  26.783  1.00  0.00     0.001 A 
ATOM     13  H   UNL     1     -45.819  41.424  25.603  1.00  0.00     0.063 H 
ATOM     14  C   UNL     1     -45.057  37.771  28.231  1.00  0.00     0.007 A 
ATOM     15  C   UNL     1     -46.543  38.872  26.157  1.00  0.00    -0.049 A 
ATOM     16  H   UNL     1     -44.457  37.375  29.044  1.00  0.00     0.069 H 
ATOM     17  C   UNL     1     -46.792  37.566  26.574  1.00  0.00    -0.019 A 
ATOM     18  H   UNL     1     -47.132  39.292  25.345  1.00  0.00     0.063 H 
ATOM     19  H   UNL     1     -47.567  36.981  26.086  1.00  0.00     0.066 H 
BRANCH   6  20
ATOM     20  N   UNL     1     -42.554  41.780  28.736  1.00  0.00    -0.373 N 
ATOM     21  H   UNL     1     -41.947  42.203  28.041  1.00  0.00     0.161 HD
BRANCH  20  22
ATOM     22  C   UNL     1     -41.801  41.035  29.731  1.00  0.00     0.005 C 
ATOM     23  H   UNL     1     -42.422  40.905  30.622  1.00  0.00     0.045 H 
ATOM     24  H   UNL     1     -40.894  41.570  30.035  1.00  0.00     0.045 H 
ATOM     25  H   UNL     1     -41.536  40.034  29.370  1.00  0.00     0.045 H 
ENDBRANCH  20  22
ENDBRANCH   6  20
ENDBRANCH   4   5
ENDBRANCH   1   4
BRANCH   1  26
ATOM     26  C   UNL     1     -47.511  34.141  26.529  1.00  0.00     0.008 A 
ATOM     27  C   UNL     1     -48.708  34.716  26.942  1.00  0.00     0.033 A 
ATOM     28  C   UNL     1     -47.589  32.962  25.776  1.00  0.00    -0.045 A 
ATOM     29  N   UNL     1     -49.930  34.215  26.654  1.00  0.00    -0.264 NA
ATOM     30  H   UNL     1     -48.718  35.627  27.538  1.00  0.00     0.084 H 
ATOM     31  C   UNL     1     -48.830  32.410  25.448  1.00  0.00     0.004 A 
ATOM     32  H   UNL     1     -46.674  32.478  25.440  1.00  0.00     0.063 H 
ATOM     33  C   UNL     1     -49.959  33.078  25.917  1.00  0.00     0.035 A 
ATOM     34  H   UNL     1     -50.960  32.705  25.723  1.00  0.00     0.085 H 
BRANCH  31  35
ATOM     35  C   UNL     1     -48.930  31.188  24.663  1.00  0.00     0.028 A 
ATOM     36  C   UNL     1     -48.572  29.942  25.141  1.00  0.00     0.015 A 
ATOM     37  C   UNL     1     -49.401  30.987  23.335  1.00  0.00     0.102 A 
ATOM     38  N   UNL     1     -48.826  28.999  24.169  1.00  0.00    -0.339 N 
ATOM     39  H   UNL     1     -48.187  29.654  26.110  1.00  0.00     0.083 H 
ATOM     40  C   UNL     1     -49.286  29.632  23.027  1.00  0.00     0.111 A 
ATOM     41  N   UNL     1     -49.872  31.901  22.456  1.00  0.00    -0.234 NA
ATOM     42  C   UNL     1     -49.642  29.197  21.752  1.00  0.00     0.151 A 
ATOM     43  C   UNL     1     -50.215  31.380  21.276  1.00  0.00     0.118 A 
ATOM     44  N   UNL     1     -50.122  30.100  20.883  1.00  0.00    -0.218 NA
ATOM     45  H   UNL     1     -50.610  32.075  20.542  1.00  0.00     0.106 H 
BRANCH  38  46
ATOM     46  C   UNL     1     -48.667  27.555  24.327  1.00  0.00     0.034 C 
ATOM     47  C   UNL     1     -47.786  27.198  25.525  1.00  0.00    -0.032 C 
ATOM     48  C   UNL     1     -49.957  26.762  24.586  1.00  0.00    -0.032 C 
ATOM     49  H   UNL     1     -48.233  27.191  23.391  1.00  0.00     0.053 H 
ATOM     50  C   UNL     1     -48.757  27.114  26.693  1.00  0.00    -0.051 C 
ATOM     51  H   UNL     1     -47.325  26.215  25.364  1.00  0.00     0.029 H 
ATOM     52  H   UNL     1     -46.985  27.919  25.716  1.00  0.00     0.029 H 
ATOM     53  C   UNL     1     -50.042  26.548  26.100  1.00  0.00    -0.051 C 
ATOM     54  H   UNL     1     -50.858  27.237  24.183  1.00  0.00     0.029 H 
ATOM     55  H   UNL     1     -49.879  25.779  24.104  1.00  0.00     0.029 H 
ATOM     56  H   UNL     1     -48.942  28.113  27.104  1.00  0.00     0.027 H 
ATOM     57  H   UNL     1     -48.371  26.492  27.507  1.00  0.00     0.027 H 
ATOM     58  H   UNL     1     -50.132  25.479  26.322  1.00  0.00     0.027 H 
ATOM     59  H   UNL     1     -50.921  27.043  26.528  1.00  0.00     0.027 H 
ENDBRANCH  38  46
BRANCH  42  60
ATOM     60  N   UNL     1     -49.511  27.896  21.281  1.00  0.00    -0.382 N 
ATOM     61  H   UNL     1     -50.267  27.624  20.668  1.00  0.00     0.158 HD
ATOM     62  H   UNL     1     -49.414  27.283  22.087  1.00  0.00     0.158 HD
ENDBRANCH  42  60
ENDBRANCH  31  35
ENDBRANCH   1  26
TORSDOF 8
ENDMDL
