MODEL 1
REMARK VINA RESULT:      -9.7      0.000      0.000
REMARK SMILES Nc1ncnc2c1ncn2[C@@H]1O[C@H](C(=O)NCCCNC(=O)c2ccccn2)[C@@H](O)[C@H]1O
REMARK SMILES IDX 17 1 16 4 14 5 15 6 13 8 11 9 12 10 31 11 29 13 10 17 2 18
REMARK SMILES IDX 3 19 7 20 4 21 6 22 8 23 5 24 9 26 1 28 32 31 30 33 18 35
REMARK SMILES IDX 19 38 20 41 21 42 22 44 23 45 24 46 28 47 25 48 27 50 26 51
REMARK H PARENT 17 2 17 3 16 7 11 12 31 14 13 15 29 16 4 25 9 27 1 29 1 30
REMARK H PARENT 32 32 30 34 18 36 18 37 19 39 19 40 20 43 24 49 25 52 27 53
REMARK H PARENT 26 54
REMARK Flexibility Score: inf
ROOT
ATOM      1  C   UNL     1     -46.420  33.580  25.253  1.00  0.00     0.019 C 
ATOM      2  H   UNL     1     -46.891  34.402  24.706  1.00  0.00     0.049 H 
ATOM      3  H   UNL     1     -45.577  33.209  24.658  1.00  0.00     0.049 H 
ENDROOT
BRANCH   1   4
ATOM      4  N   UNL     1     -45.909  34.138  26.486  1.00  0.00    -0.354 N 
ATOM      5  C   UNL     1     -46.226  35.406  26.910  1.00  0.00     0.252 C 
ATOM      6  O   UNL     1     -47.004  36.143  26.308  1.00  0.00    -0.272 OA
ATOM      7  H   UNL     1     -45.126  33.673  26.944  1.00  0.00     0.163 HD
BRANCH   5   8
ATOM      8  C   UNL     1     -45.505  35.847  28.190  1.00  0.00     0.167 C 
ATOM      9  C   UNL     1     -44.974  38.021  28.813  1.00  0.00     0.166 C 
ATOM     10  O   UNL     1     -44.566  36.925  27.973  1.00  0.00    -0.339 OA
ATOM     11  C   UNL     1     -46.473  37.841  29.050  1.00  0.00     0.128 C 
ATOM     12  H   UNL     1     -44.419  37.946  29.757  1.00  0.00     0.088 H 
ATOM     13  C   UNL     1     -46.531  36.331  29.215  1.00  0.00     0.120 C 
ATOM     14  H   UNL     1     -47.066  38.158  28.185  1.00  0.00     0.068 H 
ATOM     15  H   UNL     1     -44.932  34.987  28.554  1.00  0.00     0.074 H 
ATOM     16  H   UNL     1     -47.542  35.931  29.086  1.00  0.00     0.066 H 
BRANCH   9  17
ATOM     17  N   UNL     1     -44.595  39.273  28.195  1.00  0.00    -0.285 N 
ATOM     18  C   UNL     1     -42.796  42.258  27.876  1.00  0.00     0.155 A 
ATOM     19  N   UNL     1     -41.970  42.225  28.945  1.00  0.00    -0.217 NA
ATOM     20  C   UNL     1     -43.680  41.185  27.678  1.00  0.00     0.150 A 
ATOM     21  C   UNL     1     -42.055  41.176  29.790  1.00  0.00     0.120 A 
ATOM     22  C   UNL     1     -43.660  40.173  28.627  1.00  0.00     0.167 A 
ATOM     23  N   UNL     1     -44.591  40.908  26.680  1.00  0.00    -0.231 NA
ATOM     24  N   UNL     1     -42.878  40.102  29.719  1.00  0.00    -0.216 NA
ATOM     25  H   UNL     1     -41.370  41.200  30.634  1.00  0.00     0.106 H 
ATOM     26  C   UNL     1     -45.125  39.757  27.026  1.00  0.00     0.099 A 
ATOM     27  H   UNL     1     -45.892  39.231  26.470  1.00  0.00     0.104 H 
BRANCH  18  28
ATOM     28  N   UNL     1     -42.709  43.341  27.012  1.00  0.00    -0.382 N 
ATOM     29  H   UNL     1     -42.969  43.094  26.066  1.00  0.00     0.158 HD
ATOM     30  H   UNL     1     -43.082  44.199  27.400  1.00  0.00     0.158 HD
ENDBRANCH  18  28
ENDBRANCH   9  17
BRANCH  11  31
ATOM     31  O   UNL     1     -46.948  38.502  30.221  1.00  0.00    -0.386 OA
ATOM     32  H   UNL     1     -47.647  37.940  30.607  1.00  0.00     0.211 HD
ENDBRANCH  11  31
BRANCH  13  33
ATOM     33  O   UNL     1     -46.105  35.982  30.543  1.00  0.00    -0.387 OA
ATOM     34  H   UNL     1     -46.459  36.674  31.137  1.00  0.00     0.211 HD
ENDBRANCH  13  33
ENDBRANCH   5   8
ENDBRANCH   1   4
BRANCH   1  35
ATOM     35  C   UNL     1     -47.419  32.456  25.510  1.00  0.00    -0.018 C 
ATOM     36  H   UNL     1     -48.398  32.884  25.751  1.00  0.00     0.030 H 
ATOM     37  H   UNL     1     -47.123  31.874  26.391  1.00  0.00     0.030 H 
BRANCH  35  38
ATOM     38  C   UNL     1     -47.530  31.536  24.299  1.00  0.00     0.019 C 
ATOM     39  H   UNL     1     -46.766  31.782  23.554  1.00  0.00     0.049 H 
ATOM     40  H   UNL     1     -48.514  31.639  23.830  1.00  0.00     0.049 H 
BRANCH  38  41
ATOM     41  N   UNL     1     -47.351  30.151  24.664  1.00  0.00    -0.351 N 
ATOM     42  C   UNL     1     -48.408  29.282  24.837  1.00  0.00     0.269 C 
ATOM     43  H   UNL     1     -46.426  29.782  24.877  1.00  0.00     0.163 HD
ATOM     44  O   UNL     1     -49.583  29.599  24.682  1.00  0.00    -0.268 OA
BRANCH  42  45
ATOM     45  C   UNL     1     -48.010  27.899  25.255  1.00  0.00     0.128 A 
ATOM     46  C   UNL     1     -48.749  27.227  26.221  1.00  0.00    -0.031 A 
ATOM     47  N   UNL     1     -46.910  27.377  24.638  1.00  0.00    -0.251 NA
ATOM     48  C   UNL     1     -48.346  25.945  26.580  1.00  0.00    -0.058 A 
ATOM     49  H   UNL     1     -49.617  27.691  26.679  1.00  0.00     0.065 H 
ATOM     50  C   UNL     1     -46.551  26.130  25.014  1.00  0.00     0.028 A 
ATOM     51  C   UNL     1     -47.228  25.385  25.968  1.00  0.00    -0.044 A 
ATOM     52  H   UNL     1     -48.899  25.388  27.330  1.00  0.00     0.062 H 
ATOM     53  H   UNL     1     -45.674  25.728  24.512  1.00  0.00     0.084 H 
ATOM     54  H   UNL     1     -46.893  24.387  26.228  1.00  0.00     0.064 H 
ENDBRANCH  42  45
ENDBRANCH  38  41
ENDBRANCH  35  38
ENDBRANCH   1  35
TORSDOF 10
ENDMDL
MODEL 2
REMARK VINA RESULT:      -9.1      2.816      4.190
REMARK SMILES Nc1ncnc2c1ncn2[C@@H]1O[C@H](C(=O)NCCCNC(=O)c2ccccn2)[C@@H](O)[C@H]1O
REMARK SMILES IDX 17 1 16 4 14 5 15 6 13 8 11 9 12 10 31 11 29 13 10 17 2 18
REMARK SMILES IDX 3 19 7 20 4 21 6 22 8 23 5 24 9 26 1 28 32 31 30 33 18 35
REMARK SMILES IDX 19 38 20 41 21 42 22 44 23 45 24 46 28 47 25 48 27 50 26 51
REMARK H PARENT 17 2 17 3 16 7 11 12 31 14 13 15 29 16 4 25 9 27 1 29 1 30
REMARK H PARENT 32 32 30 34 18 36 18 37 19 39 19 40 20 43 24 49 25 52 27 53
REMARK H PARENT 26 54
REMARK Flexibility Score: inf
ROOT
ATOM      1  C   UNL     1     -49.126  32.032  25.106  1.00  0.00     0.019 C 
ATOM      2  H   UNL     1     -49.292  31.278  25.881  1.00  0.00     0.049 H 
ATOM      3  H   UNL     1     -50.006  32.685  25.066  1.00  0.00     0.049 H 
ENDROOT
BRANCH   1   4
ATOM      4  N   UNL     1     -47.984  32.816  25.524  1.00  0.00    -0.354 N 
ATOM      5  C   UNL     1     -48.108  33.945  26.298  1.00  0.00     0.252 C 
ATOM      6  O   UNL     1     -49.183  34.348  26.736  1.00  0.00    -0.272 OA
ATOM      7  H   UNL     1     -47.090  32.661  25.060  1.00  0.00     0.163 HD
BRANCH   5   8
ATOM      8  C   UNL     1     -46.790  34.689  26.550  1.00  0.00     0.167 C 
ATOM      9  C   UNL     1     -46.521  36.713  27.659  1.00  0.00     0.166 C 
ATOM     10  O   UNL     1     -46.907  36.123  26.403  1.00  0.00    -0.339 OA
ATOM     11  C   UNL     1     -46.776  35.650  28.725  1.00  0.00     0.128 C 
ATOM     12  H   UNL     1     -45.453  36.959  27.601  1.00  0.00     0.088 H 
ATOM     13  C   UNL     1     -46.310  34.411  27.976  1.00  0.00     0.120 C 
ATOM     14  H   UNL     1     -47.838  35.569  28.980  1.00  0.00     0.068 H 
ATOM     15  H   UNL     1     -46.071  34.344  25.799  1.00  0.00     0.074 H 
ATOM     16  H   UNL     1     -46.684  33.484  28.420  1.00  0.00     0.066 H 
BRANCH   9  17
ATOM     17  N   UNL     1     -47.234  37.958  27.848  1.00  0.00    -0.285 N 
ATOM     18  C   UNL     1     -50.046  39.981  28.344  1.00  0.00     0.155 A 
ATOM     19  N   UNL     1     -51.055  39.084  28.395  1.00  0.00    -0.217 NA
ATOM     20  C   UNL     1     -48.737  39.509  28.157  1.00  0.00     0.150 A 
ATOM     21  C   UNL     1     -50.760  37.776  28.234  1.00  0.00     0.120 A 
ATOM     22  C   UNL     1     -48.580  38.139  28.006  1.00  0.00     0.167 A 
ATOM     23  N   UNL     1     -47.518  40.153  28.112  1.00  0.00    -0.231 NA
ATOM     24  N   UNL     1     -49.549  37.206  28.024  1.00  0.00    -0.216 NA
ATOM     25  H   UNL     1     -51.608  37.097  28.281  1.00  0.00     0.106 H 
ATOM     26  C   UNL     1     -46.640  39.193  27.919  1.00  0.00     0.099 A 
ATOM     27  H   UNL     1     -45.570  39.334  27.826  1.00  0.00     0.104 H 
BRANCH  18  28
ATOM     28  N   UNL     1     -50.354  41.325  28.506  1.00  0.00    -0.382 N 
ATOM     29  H   UNL     1     -50.578  41.772  27.626  1.00  0.00     0.158 HD
ATOM     30  H   UNL     1     -50.955  41.510  29.301  1.00  0.00     0.158 HD
ENDBRANCH  18  28
ENDBRANCH   9  17
BRANCH  11  31
ATOM     31  O   UNL     1     -46.014  35.842  29.916  1.00  0.00    -0.386 OA
ATOM     32  H   UNL     1     -46.485  36.505  30.457  1.00  0.00     0.211 HD
ENDBRANCH  11  31
BRANCH  13  33
ATOM     33  O   UNL     1     -44.875  34.349  28.010  1.00  0.00    -0.387 OA
ATOM     34  H   UNL     1     -44.587  34.122  27.102  1.00  0.00     0.211 HD
ENDBRANCH  13  33
ENDBRANCH   5   8
ENDBRANCH   1   4
BRANCH   1  35
ATOM     35  C   UNL     1     -48.895  31.375  23.749  1.00  0.00    -0.018 C 
ATOM     36  H   UNL     1     -48.977  32.128  22.957  1.00  0.00     0.030 H 
ATOM     37  H   UNL     1     -49.681  30.638  23.541  1.00  0.00     0.030 H 
BRANCH  35  38
ATOM     38  C   UNL     1     -47.530  30.699  23.693  1.00  0.00     0.019 C 
ATOM     39  H   UNL     1     -46.761  31.342  24.135  1.00  0.00     0.049 H 
ATOM     40  H   UNL     1     -47.248  30.490  22.655  1.00  0.00     0.049 H 
BRANCH  38  41
ATOM     41  N   UNL     1     -47.522  29.451  24.419  1.00  0.00    -0.351 N 
ATOM     42  C   UNL     1     -48.061  28.288  23.910  1.00  0.00     0.269 C 
ATOM     43  H   UNL     1     -47.176  29.406  25.375  1.00  0.00     0.163 HD
ATOM     44  O   UNL     1     -48.574  28.204  22.799  1.00  0.00    -0.268 OA
BRANCH  42  45
ATOM     45  C   UNL     1     -47.988  27.114  24.839  1.00  0.00     0.128 A 
ATOM     46  C   UNL     1     -46.753  26.665  25.291  1.00  0.00    -0.031 A 
ATOM     47  N   UNL     1     -49.179  26.546  25.185  1.00  0.00    -0.251 NA
ATOM     48  C   UNL     1     -46.729  25.572  26.151  1.00  0.00    -0.058 A 
ATOM     49  H   UNL     1     -45.836  27.156  24.983  1.00  0.00     0.065 H 
ATOM     50  C   UNL     1     -49.114  25.487  26.022  1.00  0.00     0.028 A 
ATOM     51  C   UNL     1     -47.929  24.971  26.524  1.00  0.00    -0.044 A 
ATOM     52  H   UNL     1     -45.784  25.193  26.528  1.00  0.00     0.062 H 
ATOM     53  H   UNL     1     -50.071  25.047  26.290  1.00  0.00     0.084 H 
ATOM     54  H   UNL     1     -47.939  24.118  27.195  1.00  0.00     0.064 H 
ENDBRANCH  42  45
ENDBRANCH  38  41
ENDBRANCH  35  38
ENDBRANCH   1  35
TORSDOF 10
ENDMDL
MODEL 3
REMARK VINA RESULT:      -8.5      2.388      3.093
REMARK SMILES Nc1ncnc2c1ncn2[C@@H]1O[C@H](C(=O)NCCCNC(=O)c2ccccn2)[C@@H](O)[C@H]1O
REMARK SMILES IDX 17 1 16 4 14 5 15 6 13 8 11 9 12 10 31 11 29 13 10 17 2 18
REMARK SMILES IDX 3 19 7 20 4 21 6 22 8 23 5 24 9 26 1 28 32 31 30 33 18 35
REMARK SMILES IDX 19 38 20 41 21 42 22 44 23 45 24 46 28 47 25 48 27 50 26 51
REMARK H PARENT 17 2 17 3 16 7 11 12 31 14 13 15 29 16 4 25 9 27 1 29 1 30
REMARK H PARENT 32 32 30 34 18 36 18 37 19 39 19 40 20 43 24 49 25 52 27 53
REMARK H PARENT 26 54
REMARK Flexibility Score: inf
ROOT
ATOM      1  C   UNL     1     -48.293  33.967  26.265  1.00  0.00     0.019 C 
ATOM      2  H   UNL     1     -49.100  33.444  26.788  1.00  0.00     0.049 H 
ATOM      3  H   UNL     1     -48.718  34.847  25.768  1.00  0.00     0.049 H 
ENDROOT
BRANCH   1   4
ATOM      4  N   UNL     1     -47.360  34.411  27.278  1.00  0.00    -0.354 N 
ATOM      5  C   UNL     1     -46.898  35.704  27.340  1.00  0.00     0.252 C 
ATOM      6  O   UNL     1     -47.275  36.592  26.580  1.00  0.00    -0.272 OA
ATOM      7  H   UNL     1     -46.863  33.709  27.824  1.00  0.00     0.163 HD
BRANCH   5   8
ATOM      8  C   UNL     1     -45.840  35.949  28.425  1.00  0.00     0.167 C 
ATOM      9  C   UNL     1     -44.889  37.985  29.011  1.00  0.00     0.166 C 
ATOM     10  O   UNL     1     -44.843  36.923  28.039  1.00  0.00    -0.339 OA
ATOM     11  C   UNL     1     -46.299  37.964  29.599  1.00  0.00     0.128 C 
ATOM     12  H   UNL     1     -44.141  37.767  29.784  1.00  0.00     0.088 H 
ATOM     13  C   UNL     1     -46.519  36.463  29.695  1.00  0.00     0.120 C 
ATOM     14  H   UNL     1     -47.032  38.420  28.925  1.00  0.00     0.068 H 
ATOM     15  H   UNL     1     -45.318  35.000  28.591  1.00  0.00     0.074 H 
ATOM     16  H   UNL     1     -47.576  36.198  29.798  1.00  0.00     0.066 H 
BRANCH   9  17
ATOM     17  N   UNL     1     -44.502  39.231  28.384  1.00  0.00    -0.285 N 
ATOM     18  C   UNL     1     -42.664  42.187  28.028  1.00  0.00     0.155 A 
ATOM     19  N   UNL     1     -41.818  42.143  29.080  1.00  0.00    -0.217 NA
ATOM     20  C   UNL     1     -43.568  41.128  27.848  1.00  0.00     0.150 A 
ATOM     21  C   UNL     1     -41.903  41.094  29.927  1.00  0.00     0.120 A 
ATOM     22  C   UNL     1     -43.545  40.116  28.797  1.00  0.00     0.167 A 
ATOM     23  N   UNL     1     -44.502  40.865  26.868  1.00  0.00    -0.231 NA
ATOM     24  N   UNL     1     -42.744  40.034  29.873  1.00  0.00    -0.216 NA
ATOM     25  H   UNL     1     -41.201  41.108  30.758  1.00  0.00     0.106 H 
ATOM     26  C   UNL     1     -45.048  39.723  27.225  1.00  0.00     0.099 A 
ATOM     27  H   UNL     1     -45.834  39.209  26.685  1.00  0.00     0.104 H 
BRANCH  18  28
ATOM     28  N   UNL     1     -42.577  43.269  27.161  1.00  0.00    -0.382 N 
ATOM     29  H   UNL     1     -43.451  43.443  26.682  1.00  0.00     0.158 HD
ATOM     30  H   UNL     1     -42.081  44.061  27.552  1.00  0.00     0.158 HD
ENDBRANCH  18  28
ENDBRANCH   9  17
BRANCH  11  31
ATOM     31  O   UNL     1     -46.389  38.577  30.884  1.00  0.00    -0.386 OA
ATOM     32  H   UNL     1     -46.375  39.543  30.747  1.00  0.00     0.211 HD
ENDBRANCH  11  31
BRANCH  13  33
ATOM     33  O   UNL     1     -45.840  35.957  30.856  1.00  0.00    -0.387 OA
ATOM     34  H   UNL     1     -46.257  36.390  31.630  1.00  0.00     0.211 HD
ENDBRANCH  13  33
ENDBRANCH   5   8
ENDBRANCH   1   4
BRANCH   1  35
ATOM     35  C   UNL     1     -47.627  33.054  25.242  1.00  0.00    -0.018 C 
ATOM     36  H   UNL     1     -46.550  33.009  25.436  1.00  0.00     0.030 H 
ATOM     37  H   UNL     1     -47.730  33.469  24.232  1.00  0.00     0.030 H 
BRANCH  35  38
ATOM     38  C   UNL     1     -48.228  31.654  25.285  1.00  0.00     0.019 C 
ATOM     39  H   UNL     1     -49.157  31.649  25.866  1.00  0.00     0.049 H 
ATOM     40  H   UNL     1     -47.528  30.951  25.751  1.00  0.00     0.049 H 
BRANCH  38  41
ATOM     41  N   UNL     1     -48.540  31.165  23.963  1.00  0.00    -0.351 N 
ATOM     42  C   UNL     1     -49.771  31.351  23.369  1.00  0.00     0.269 C 
ATOM     43  H   UNL     1     -47.873  30.595  23.447  1.00  0.00     0.163 HD
ATOM     44  O   UNL     1     -50.697  31.959  23.897  1.00  0.00    -0.268 OA
BRANCH  42  45
ATOM     45  C   UNL     1     -49.903  30.730  22.012  1.00  0.00     0.128 A 
ATOM     46  C   UNL     1     -49.154  29.606  21.688  1.00  0.00    -0.031 A 
ATOM     47  N   UNL     1     -50.778  31.335  21.157  1.00  0.00    -0.251 NA
ATOM     48  C   UNL     1     -49.306  29.061  20.417  1.00  0.00    -0.058 A 
ATOM     49  H   UNL     1     -48.473  29.166  22.409  1.00  0.00     0.065 H 
ATOM     50  C   UNL     1     -50.898  30.776  19.933  1.00  0.00     0.028 A 
ATOM     51  C   UNL     1     -50.193  29.655  19.522  1.00  0.00    -0.044 A 
ATOM     52  H   UNL     1     -48.740  28.181  20.128  1.00  0.00     0.062 H 
ATOM     53  H   UNL     1     -51.600  31.268  19.264  1.00  0.00     0.084 H 
ATOM     54  H   UNL     1     -50.332  29.250  18.525  1.00  0.00     0.064 H 
ENDBRANCH  42  45
ENDBRANCH  38  41
ENDBRANCH  35  38
ENDBRANCH   1  35
TORSDOF 10
ENDMDL
MODEL 4
REMARK VINA RESULT:      -8.4      3.722      6.845
REMARK SMILES Nc1ncnc2c1ncn2[C@@H]1O[C@H](C(=O)NCCCNC(=O)c2ccccn2)[C@@H](O)[C@H]1O
REMARK SMILES IDX 17 1 16 4 14 5 15 6 13 8 11 9 12 10 31 11 29 13 10 17 2 18
REMARK SMILES IDX 3 19 7 20 4 21 6 22 8 23 5 24 9 26 1 28 32 31 30 33 18 35
REMARK SMILES IDX 19 38 20 41 21 42 22 44 23 45 24 46 28 47 25 48 27 50 26 51
REMARK H PARENT 17 2 17 3 16 7 11 12 31 14 13 15 29 16 4 25 9 27 1 29 1 30
REMARK H PARENT 32 32 30 34 18 36 18 37 19 39 19 40 20 43 24 49 25 52 27 53
REMARK H PARENT 26 54
REMARK Flexibility Score: inf
ROOT
ATOM      1  C   UNL     1     -44.842  38.952  28.922  1.00  0.00     0.019 C 
ATOM      2  H   UNL     1     -44.157  38.100  28.968  1.00  0.00     0.049 H 
ATOM      3  H   UNL     1     -44.729  39.535  29.843  1.00  0.00     0.049 H 
ENDROOT
BRANCH   1   4
ATOM      4  N   UNL     1     -44.420  39.765  27.802  1.00  0.00    -0.354 N 
ATOM      5  C   UNL     1     -43.459  40.740  27.918  1.00  0.00     0.252 C 
ATOM      6  O   UNL     1     -42.848  40.965  28.961  1.00  0.00    -0.272 OA
ATOM      7  H   UNL     1     -44.995  39.771  26.960  1.00  0.00     0.163 HD
BRANCH   5   8
ATOM      8  C   UNL     1     -43.225  41.558  26.641  1.00  0.00     0.167 C 
ATOM      9  C   UNL     1     -44.613  43.201  25.764  1.00  0.00     0.166 C 
ATOM     10  O   UNL     1     -44.433  41.777  25.875  1.00  0.00    -0.339 OA
ATOM     11  C   UNL     1     -43.893  43.817  26.962  1.00  0.00     0.128 C 
ATOM     12  H   UNL     1     -44.152  43.526  24.822  1.00  0.00     0.088 H 
ATOM     13  C   UNL     1     -42.659  42.930  27.009  1.00  0.00     0.120 C 
ATOM     14  H   UNL     1     -44.473  43.719  27.885  1.00  0.00     0.068 H 
ATOM     15  H   UNL     1     -42.540  40.984  26.008  1.00  0.00     0.074 H 
ATOM     16  H   UNL     1     -42.141  42.977  27.972  1.00  0.00     0.066 H 
BRANCH   9  17
ATOM     17  N   UNL     1     -46.025  43.504  25.672  1.00  0.00    -0.285 N 
ATOM     18  C   UNL     1     -49.443  42.981  26.213  1.00  0.00     0.155 A 
ATOM     19  N   UNL     1     -49.461  41.834  26.926  1.00  0.00    -0.217 NA
ATOM     20  C   UNL     1     -48.202  43.506  25.817  1.00  0.00     0.150 A 
ATOM     21  C   UNL     1     -48.284  41.230  27.200  1.00  0.00     0.120 A 
ATOM     22  C   UNL     1     -47.073  42.779  26.168  1.00  0.00     0.167 A 
ATOM     23  N   UNL     1     -47.858  44.657  25.139  1.00  0.00    -0.231 NA
ATOM     24  N   UNL     1     -47.035  41.623  26.853  1.00  0.00    -0.216 NA
ATOM     25  H   UNL     1     -48.355  40.309  27.775  1.00  0.00     0.106 H 
ATOM     26  C   UNL     1     -46.545  44.620  25.065  1.00  0.00     0.099 A 
ATOM     27  H   UNL     1     -45.924  45.370  24.589  1.00  0.00     0.104 H 
BRANCH  18  28
ATOM     28  N   UNL     1     -50.655  43.597  25.930  1.00  0.00    -0.382 N 
ATOM     29  H   UNL     1     -51.435  42.960  26.021  1.00  0.00     0.158 HD
ATOM     30  H   UNL     1     -50.743  44.521  26.337  1.00  0.00     0.158 HD
ENDBRANCH  18  28
ENDBRANCH   9  17
BRANCH  11  31
ATOM     31  O   UNL     1     -43.532  45.184  26.769  1.00  0.00    -0.386 OA
ATOM     32  H   UNL     1     -44.100  45.536  26.058  1.00  0.00     0.211 HD
ENDBRANCH  11  31
BRANCH  13  33
ATOM     33  O   UNL     1     -41.725  43.363  26.005  1.00  0.00    -0.387 OA
ATOM     34  H   UNL     1     -41.571  44.316  26.164  1.00  0.00     0.211 HD
ENDBRANCH  13  33
ENDBRANCH   5   8
ENDBRANCH   1   4
BRANCH   1  35
ATOM     35  C   UNL     1     -46.285  38.481  28.769  1.00  0.00    -0.018 C 
ATOM     36  H   UNL     1     -46.558  38.474  27.708  1.00  0.00     0.030 H 
ATOM     37  H   UNL     1     -46.972  39.188  29.248  1.00  0.00     0.030 H 
BRANCH  35  38
ATOM     38  C   UNL     1     -46.473  37.093  29.371  1.00  0.00     0.019 C 
ATOM     39  H   UNL     1     -47.392  37.051  29.966  1.00  0.00     0.049 H 
ATOM     40  H   UNL     1     -45.630  36.841  30.023  1.00  0.00     0.049 H 
BRANCH  38  41
ATOM     41  N   UNL     1     -46.569  36.077  28.350  1.00  0.00    -0.351 N 
ATOM     42  C   UNL     1     -47.774  35.656  27.827  1.00  0.00     0.269 C 
ATOM     43  H   UNL     1     -45.741  35.580  28.030  1.00  0.00     0.163 HD
ATOM     44  O   UNL     1     -48.861  36.115  28.163  1.00  0.00    -0.268 OA
BRANCH  42  45
ATOM     45  C   UNL     1     -47.658  34.563  26.808  1.00  0.00     0.128 A 
ATOM     46  C   UNL     1     -46.534  34.492  25.994  1.00  0.00    -0.031 A 
ATOM     47  N   UNL     1     -48.700  33.685  26.746  1.00  0.00    -0.251 NA
ATOM     48  C   UNL     1     -46.466  33.463  25.060  1.00  0.00    -0.058 A 
ATOM     49  H   UNL     1     -45.734  35.218  26.086  1.00  0.00     0.065 H 
ATOM     50  C   UNL     1     -48.596  32.699  25.828  1.00  0.00     0.028 A 
ATOM     51  C   UNL     1     -47.514  32.549  24.974  1.00  0.00    -0.044 A 
ATOM     52  H   UNL     1     -45.603  33.373  24.407  1.00  0.00     0.062 H 
ATOM     53  H   UNL     1     -49.434  32.007  25.792  1.00  0.00     0.084 H 
ATOM     54  H   UNL     1     -47.486  31.736  24.256  1.00  0.00     0.064 H 
ENDBRANCH  42  45
ENDBRANCH  38  41
ENDBRANCH  35  38
ENDBRANCH   1  35
TORSDOF 10
ENDMDL
MODEL 5
REMARK VINA RESULT:      -8.3      1.511      2.216
REMARK SMILES Nc1ncnc2c1ncn2[C@@H]1O[C@H](C(=O)NCCCNC(=O)c2ccccn2)[C@@H](O)[C@H]1O
REMARK SMILES IDX 17 1 16 4 14 5 15 6 13 8 11 9 12 10 31 11 29 13 10 17 2 18
REMARK SMILES IDX 3 19 7 20 4 21 6 22 8 23 5 24 9 26 1 28 32 31 30 33 18 35
REMARK SMILES IDX 19 38 20 41 21 42 22 44 23 45 24 46 28 47 25 48 27 50 26 51
REMARK H PARENT 17 2 17 3 16 7 11 12 31 14 13 15 29 16 4 25 9 27 1 29 1 30
REMARK H PARENT 32 32 30 34 18 36 18 37 19 39 19 40 20 43 24 49 25 52 27 53
REMARK H PARENT 26 54
REMARK Flexibility Score: inf
ROOT
ATOM      1  C   UNL     1     -46.636  33.830  25.445  1.00  0.00     0.019 C 
ATOM      2  H   UNL     1     -46.630  34.291  24.453  1.00  0.00     0.049 H 
ATOM      3  H   UNL     1     -45.611  33.530  25.693  1.00  0.00     0.049 H 
ENDROOT
BRANCH   1   4
ATOM      4  N   UNL     1     -47.059  34.853  26.377  1.00  0.00    -0.354 N 
ATOM      5  C   UNL     1     -46.381  35.116  27.543  1.00  0.00     0.252 C 
ATOM      6  O   UNL     1     -45.342  34.544  27.863  1.00  0.00    -0.272 OA
ATOM      7  H   UNL     1     -47.997  35.241  26.282  1.00  0.00     0.163 HD
BRANCH   5   8
ATOM      8  C   UNL     1     -47.046  36.168  28.441  1.00  0.00     0.167 C 
ATOM      9  C   UNL     1     -46.296  38.329  28.847  1.00  0.00     0.166 C 
ATOM     10  O   UNL     1     -46.097  36.948  29.204  1.00  0.00    -0.339 OA
ATOM     11  C   UNL     1     -46.905  38.323  27.446  1.00  0.00     0.128 C 
ATOM     12  H   UNL     1     -46.992  38.767  29.574  1.00  0.00     0.088 H 
ATOM     13  C   UNL     1     -47.851  37.141  27.578  1.00  0.00     0.120 C 
ATOM     14  H   UNL     1     -46.154  38.132  26.673  1.00  0.00     0.068 H 
ATOM     15  H   UNL     1     -47.677  35.633  29.158  1.00  0.00     0.074 H 
ATOM     16  H   UNL     1     -48.173  36.748  26.609  1.00  0.00     0.066 H 
BRANCH   9  17
ATOM     17  N   UNL     1     -45.045  39.046  28.972  1.00  0.00    -0.285 N 
ATOM     18  C   UNL     1     -42.581  41.349  28.039  1.00  0.00     0.155 A 
ATOM     19  N   UNL     1     -43.090  41.892  26.912  1.00  0.00    -0.217 NA
ATOM     20  C   UNL     1     -43.327  40.365  28.706  1.00  0.00     0.150 A 
ATOM     21  C   UNL     1     -44.281  41.440  26.463  1.00  0.00     0.120 A 
ATOM     22  C   UNL     1     -44.535  39.997  28.131  1.00  0.00     0.167 A 
ATOM     23  N   UNL     1     -43.107  39.672  29.878  1.00  0.00    -0.231 NA
ATOM     24  N   UNL     1     -45.076  40.486  27.001  1.00  0.00    -0.216 NA
ATOM     25  H   UNL     1     -44.644  41.909  25.551  1.00  0.00     0.106 H 
ATOM     26  C   UNL     1     -44.154  38.886  30.003  1.00  0.00     0.099 A 
ATOM     27  H   UNL     1     -44.319  38.187  30.815  1.00  0.00     0.104 H 
BRANCH  18  28
ATOM     28  N   UNL     1     -41.354  41.813  28.495  1.00  0.00    -0.382 N 
ATOM     29  H   UNL     1     -41.071  41.358  29.353  1.00  0.00     0.158 HD
ATOM     30  H   UNL     1     -40.663  41.918  27.761  1.00  0.00     0.158 HD
ENDBRANCH  18  28
ENDBRANCH   9  17
BRANCH  11  31
ATOM     31  O   UNL     1     -47.619  39.517  27.131  1.00  0.00    -0.386 OA
ATOM     32  H   UNL     1     -48.147  39.336  26.329  1.00  0.00     0.211 HD
ENDBRANCH  11  31
BRANCH  13  33
ATOM     33  O   UNL     1     -49.035  37.557  28.279  1.00  0.00    -0.387 OA
ATOM     34  H   UNL     1     -49.459  38.243  27.723  1.00  0.00     0.211 HD
ENDBRANCH  13  33
ENDBRANCH   5   8
ENDBRANCH   1   4
BRANCH   1  35
ATOM     35  C   UNL     1     -47.562  32.618  25.476  1.00  0.00    -0.018 C 
ATOM     36  H   UNL     1     -48.597  32.943  25.321  1.00  0.00     0.030 H 
ATOM     37  H   UNL     1     -47.543  32.146  26.465  1.00  0.00     0.030 H 
BRANCH  35  38
ATOM     38  C   UNL     1     -47.165  31.601  24.412  1.00  0.00     0.019 C 
ATOM     39  H   UNL     1     -46.077  31.576  24.286  1.00  0.00     0.049 H 
ATOM     40  H   UNL     1     -47.617  31.859  23.448  1.00  0.00     0.049 H 
BRANCH  38  41
ATOM     41  N   UNL     1     -47.592  30.267  24.764  1.00  0.00    -0.351 N 
ATOM     42  C   UNL     1     -48.882  29.820  24.569  1.00  0.00     0.269 C 
ATOM     43  H   UNL     1     -46.961  29.626  25.241  1.00  0.00     0.163 HD
ATOM     44  O   UNL     1     -49.770  30.501  24.066  1.00  0.00    -0.268 OA
BRANCH  42  45
ATOM     45  C   UNL     1     -49.129  28.419  25.039  1.00  0.00     0.128 A 
ATOM     46  C   UNL     1     -48.521  27.961  26.201  1.00  0.00    -0.031 A 
ATOM     47  N   UNL     1     -49.961  27.663  24.265  1.00  0.00    -0.251 NA
ATOM     48  C   UNL     1     -48.777  26.654  26.603  1.00  0.00    -0.058 A 
ATOM     49  H   UNL     1     -47.868  28.607  26.779  1.00  0.00     0.065 H 
ATOM     50  C   UNL     1     -50.184  26.399  24.689  1.00  0.00     0.028 A 
ATOM     51  C   UNL     1     -49.622  25.857  25.835  1.00  0.00    -0.044 A 
ATOM     52  H   UNL     1     -48.322  26.260  27.507  1.00  0.00     0.062 H 
ATOM     53  H   UNL     1     -50.850  25.810  24.062  1.00  0.00     0.084 H 
ATOM     54  H   UNL     1     -49.840  24.835  26.126  1.00  0.00     0.064 H 
ENDBRANCH  42  45
ENDBRANCH  38  41
ENDBRANCH  35  38
ENDBRANCH   1  35
TORSDOF 10
ENDMDL
MODEL 6
REMARK VINA RESULT:      -8.3      2.755      3.361
REMARK SMILES Nc1ncnc2c1ncn2[C@@H]1O[C@H](C(=O)NCCCNC(=O)c2ccccn2)[C@@H](O)[C@H]1O
REMARK SMILES IDX 17 1 16 4 14 5 15 6 13 8 11 9 12 10 31 11 29 13 10 17 2 18
REMARK SMILES IDX 3 19 7 20 4 21 6 22 8 23 5 24 9 26 1 28 32 31 30 33 18 35
REMARK SMILES IDX 19 38 20 41 21 42 22 44 23 45 24 46 28 47 25 48 27 50 26 51
REMARK H PARENT 17 2 17 3 16 7 11 12 31 14 13 15 29 16 4 25 9 27 1 29 1 30
REMARK H PARENT 32 32 30 34 18 36 18 37 19 39 19 40 20 43 24 49 25 52 27 53
REMARK H PARENT 26 54
REMARK Flexibility Score: inf
ROOT
ATOM      1  C   UNL     1     -47.169  34.415  27.329  1.00  0.00     0.019 C 
ATOM      2  H   UNL     1     -46.403  33.925  27.938  1.00  0.00     0.049 H 
ATOM      3  H   UNL     1     -48.122  33.899  27.494  1.00  0.00     0.049 H 
ENDROOT
BRANCH   1   4
ATOM      4  N   UNL     1     -47.284  35.772  27.817  1.00  0.00    -0.354 N 
ATOM      5  C   UNL     1     -46.200  36.494  28.255  1.00  0.00     0.252 C 
ATOM      6  O   UNL     1     -45.048  36.068  28.221  1.00  0.00    -0.272 OA
ATOM      7  H   UNL     1     -48.210  36.130  28.049  1.00  0.00     0.163 HD
BRANCH   5   8
ATOM      8  C   UNL     1     -46.545  37.876  28.826  1.00  0.00     0.167 C 
ATOM      9  C   UNL     1     -45.827  39.935  28.024  1.00  0.00     0.166 C 
ATOM     10  O   UNL     1     -45.429  38.795  28.809  1.00  0.00    -0.339 OA
ATOM     11  C   UNL     1     -46.911  39.437  27.070  1.00  0.00     0.128 C 
ATOM     12  H   UNL     1     -46.229  40.692  28.710  1.00  0.00     0.088 H 
ATOM     13  C   UNL     1     -47.669  38.503  28.000  1.00  0.00     0.120 C 
ATOM     14  H   UNL     1     -46.491  38.881  26.225  1.00  0.00     0.068 H 
ATOM     15  H   UNL     1     -46.833  37.734  29.873  1.00  0.00     0.074 H 
ATOM     16  H   UNL     1     -48.303  37.793  27.461  1.00  0.00     0.066 H 
BRANCH   9  17
ATOM     17  N   UNL     1     -44.665  40.514  27.387  1.00  0.00    -0.285 N 
ATOM     18  C   UNL     1     -41.377  41.702  27.219  1.00  0.00     0.155 A 
ATOM     19  N   UNL     1     -40.922  41.500  28.475  1.00  0.00    -0.217 NA
ATOM     20  C   UNL     1     -42.695  41.324  26.914  1.00  0.00     0.150 A 
ATOM     21  C   UNL     1     -41.766  40.971  29.387  1.00  0.00     0.120 A 
ATOM     22  C   UNL     1     -43.450  40.793  27.950  1.00  0.00     0.167 A 
ATOM     23  N   UNL     1     -43.419  41.356  25.741  1.00  0.00    -0.231 NA
ATOM     24  N   UNL     1     -43.056  40.593  29.220  1.00  0.00    -0.216 NA
ATOM     25  H   UNL     1     -41.350  40.831  30.381  1.00  0.00     0.106 H 
ATOM     26  C   UNL     1     -44.597  40.868  26.062  1.00  0.00     0.099 A 
ATOM     27  H   UNL     1     -45.431  40.747  25.382  1.00  0.00     0.104 H 
BRANCH  18  28
ATOM     28  N   UNL     1     -40.507  42.250  26.286  1.00  0.00    -0.382 N 
ATOM     29  H   UNL     1     -40.575  43.259  26.250  1.00  0.00     0.158 HD
ATOM     30  H   UNL     1     -39.584  41.834  26.300  1.00  0.00     0.158 HD
ENDBRANCH  18  28
ENDBRANCH   9  17
BRANCH  11  31
ATOM     31  O   UNL     1     -47.761  40.473  26.582  1.00  0.00    -0.386 OA
ATOM     32  H   UNL     1     -48.164  40.907  27.358  1.00  0.00     0.211 HD
ENDBRANCH  11  31
BRANCH  13  33
ATOM     33  O   UNL     1     -48.531  39.279  28.850  1.00  0.00    -0.387 OA
ATOM     34  H   UNL     1     -49.406  39.301  28.410  1.00  0.00     0.211 HD
ENDBRANCH  13  33
ENDBRANCH   5   8
ENDBRANCH   1   4
BRANCH   1  35
ATOM     35  C   UNL     1     -46.796  34.373  25.851  1.00  0.00    -0.018 C 
ATOM     36  H   UNL     1     -45.971  35.068  25.661  1.00  0.00     0.030 H 
ATOM     37  H   UNL     1     -47.631  34.728  25.235  1.00  0.00     0.030 H 
BRANCH  35  38
ATOM     38  C   UNL     1     -46.406  32.963  25.425  1.00  0.00     0.019 C 
ATOM     39  H   UNL     1     -46.569  32.252  26.242  1.00  0.00     0.049 H 
ATOM     40  H   UNL     1     -45.347  32.927  25.144  1.00  0.00     0.049 H 
BRANCH  38  41
ATOM     41  N   UNL     1     -47.183  32.511  24.295  1.00  0.00    -0.351 N 
ATOM     42  C   UNL     1     -48.304  31.719  24.430  1.00  0.00     0.269 C 
ATOM     43  H   UNL     1     -46.882  32.708  23.343  1.00  0.00     0.163 HD
ATOM     44  O   UNL     1     -48.749  31.346  25.510  1.00  0.00    -0.268 OA
BRANCH  42  45
ATOM     45  C   UNL     1     -48.943  31.326  23.132  1.00  0.00     0.128 A 
ATOM     46  C   UNL     1     -50.327  31.328  23.013  1.00  0.00    -0.031 A 
ATOM     47  N   UNL     1     -48.092  30.979  22.123  1.00  0.00    -0.251 NA
ATOM     48  C   UNL     1     -50.880  30.956  21.792  1.00  0.00    -0.058 A 
ATOM     49  H   UNL     1     -50.957  31.615  23.849  1.00  0.00     0.065 H 
ATOM     50  C   UNL     1     -48.668  30.625  20.953  1.00  0.00     0.028 A 
ATOM     51  C   UNL     1     -50.038  30.598  20.743  1.00  0.00    -0.044 A 
ATOM     52  H   UNL     1     -51.958  30.948  21.660  1.00  0.00     0.062 H 
ATOM     53  H   UNL     1     -47.977  30.352  20.160  1.00  0.00     0.084 H 
ATOM     54  H   UNL     1     -50.443  30.305  19.779  1.00  0.00     0.064 H 
ENDBRANCH  42  45
ENDBRANCH  38  41
ENDBRANCH  35  38
ENDBRANCH   1  35
TORSDOF 10
ENDMDL
MODEL 7
REMARK VINA RESULT:      -8.3      2.193     12.023
REMARK SMILES Nc1ncnc2c1ncn2[C@@H]1O[C@H](C(=O)NCCCNC(=O)c2ccccn2)[C@@H](O)[C@H]1O
REMARK SMILES IDX 17 1 16 4 14 5 15 6 13 8 11 9 12 10 31 11 29 13 10 17 2 18
REMARK SMILES IDX 3 19 7 20 4 21 6 22 8 23 5 24 9 26 1 28 32 31 30 33 18 35
REMARK SMILES IDX 19 38 20 41 21 42 22 44 23 45 24 46 28 47 25 48 27 50 26 51
REMARK H PARENT 17 2 17 3 16 7 11 12 31 14 13 15 29 16 4 25 9 27 1 29 1 30
REMARK H PARENT 32 32 30 34 18 36 18 37 19 39 19 40 20 43 24 49 25 52 27 53
REMARK H PARENT 26 54
REMARK Flexibility Score: inf
ROOT
ATOM      1  C   UNL     1     -46.393  32.985  27.176  1.00  0.00     0.019 C 
ATOM      2  H   UNL     1     -47.428  33.028  27.527  1.00  0.00     0.049 H 
ATOM      3  H   UNL     1     -45.830  32.322  27.843  1.00  0.00     0.049 H 
ENDROOT
BRANCH   1   4
ATOM      4  N   UNL     1     -46.426  32.396  25.855  1.00  0.00    -0.354 N 
ATOM      5  C   UNL     1     -47.571  32.346  25.097  1.00  0.00     0.252 C 
ATOM      6  O   UNL     1     -48.639  32.838  25.455  1.00  0.00    -0.272 OA
ATOM      7  H   UNL     1     -45.644  31.810  25.562  1.00  0.00     0.163 HD
BRANCH   5   8
ATOM      8  C   UNL     1     -47.421  31.593  23.768  1.00  0.00     0.167 C 
ATOM      9  C   UNL     1     -47.567  29.297  23.442  1.00  0.00     0.166 C 
ATOM     10  O   UNL     1     -46.695  30.349  23.896  1.00  0.00    -0.339 OA
ATOM     11  C   UNL     1     -48.992  29.813  23.636  1.00  0.00     0.128 C 
ATOM     12  H   UNL     1     -47.357  29.122  22.379  1.00  0.00     0.088 H 
ATOM     13  C   UNL     1     -48.806  31.261  23.210  1.00  0.00     0.120 C 
ATOM     14  H   UNL     1     -49.311  29.756  24.682  1.00  0.00     0.068 H 
ATOM     15  H   UNL     1     -46.847  32.236  23.092  1.00  0.00     0.074 H 
ATOM     16  H   UNL     1     -49.616  31.910  23.557  1.00  0.00     0.066 H 
BRANCH   9  17
ATOM     17  N   UNL     1     -47.255  28.072  24.145  1.00  0.00    -0.285 N 
ATOM     18  C   UNL     1     -47.871  25.384  26.300  1.00  0.00     0.155 A 
ATOM     19  N   UNL     1     -49.135  25.616  26.715  1.00  0.00    -0.217 NA
ATOM     20  C   UNL     1     -47.285  26.284  25.396  1.00  0.00     0.150 A 
ATOM     21  C   UNL     1     -49.766  26.722  26.262  1.00  0.00     0.120 A 
ATOM     22  C   UNL     1     -48.050  27.378  25.015  1.00  0.00     0.167 A 
ATOM     23  N   UNL     1     -46.059  26.296  24.764  1.00  0.00    -0.231 NA
ATOM     24  N   UNL     1     -49.300  27.669  25.415  1.00  0.00    -0.216 NA
ATOM     25  H   UNL     1     -50.780  26.862  26.628  1.00  0.00     0.106 H 
ATOM     26  C   UNL     1     -46.073  27.385  24.027  1.00  0.00     0.099 A 
ATOM     27  H   UNL     1     -45.262  27.721  23.392  1.00  0.00     0.104 H 
BRANCH  18  28
ATOM     28  N   UNL     1     -47.224  24.249  26.771  1.00  0.00    -0.382 N 
ATOM     29  H   UNL     1     -47.856  23.623  27.251  1.00  0.00     0.158 HD
ATOM     30  H   UNL     1     -46.571  23.851  26.105  1.00  0.00     0.158 HD
ENDBRANCH  18  28
ENDBRANCH   9  17
BRANCH  11  31
ATOM     31  O   UNL     1     -49.953  29.157  22.810  1.00  0.00    -0.386 OA
ATOM     32  H   UNL     1     -49.477  28.807  22.032  1.00  0.00     0.211 HD
ENDBRANCH  11  31
BRANCH  13  33
ATOM     33  O   UNL     1     -48.790  31.334  21.775  1.00  0.00    -0.387 OA
ATOM     34  H   UNL     1     -48.334  30.527  21.462  1.00  0.00     0.211 HD
ENDBRANCH  13  33
ENDBRANCH   5   8
ENDBRANCH   1   4
BRANCH   1  35
ATOM     35  C   UNL     1     -45.766  34.375  27.162  1.00  0.00    -0.018 C 
ATOM     36  H   UNL     1     -45.456  34.627  26.142  1.00  0.00     0.030 H 
ATOM     37  H   UNL     1     -44.849  34.388  27.763  1.00  0.00     0.030 H 
BRANCH  35  38
ATOM     38  C   UNL     1     -46.742  35.420  27.689  1.00  0.00     0.019 C 
ATOM     39  H   UNL     1     -46.831  35.353  28.779  1.00  0.00     0.049 H 
ATOM     40  H   UNL     1     -47.736  35.270  27.253  1.00  0.00     0.049 H 
BRANCH  38  41
ATOM     41  N   UNL     1     -46.312  36.761  27.370  1.00  0.00    -0.351 N 
ATOM     42  C   UNL     1     -45.494  37.499  28.199  1.00  0.00     0.269 C 
ATOM     43  H   UNL     1     -46.664  37.239  26.543  1.00  0.00     0.163 HD
ATOM     44  O   UNL     1     -45.045  37.082  29.262  1.00  0.00    -0.268 OA
BRANCH  42  45
ATOM     45  C   UNL     1     -45.198  38.883  27.705  1.00  0.00     0.128 A 
ATOM     46  C   UNL     1     -44.128  39.593  28.233  1.00  0.00    -0.031 A 
ATOM     47  N   UNL     1     -46.032  39.367  26.739  1.00  0.00    -0.251 NA
ATOM     48  C   UNL     1     -43.889  40.875  27.748  1.00  0.00    -0.058 A 
ATOM     49  H   UNL     1     -43.496  39.158  29.001  1.00  0.00     0.065 H 
ATOM     50  C   UNL     1     -45.766  40.615  26.293  1.00  0.00     0.028 A 
ATOM     51  C   UNL     1     -44.721  41.397  26.761  1.00  0.00    -0.044 A 
ATOM     52  H   UNL     1     -43.060  41.460  28.134  1.00  0.00     0.062 H 
ATOM     53  H   UNL     1     -46.438  40.986  25.523  1.00  0.00     0.084 H 
ATOM     54  H   UNL     1     -44.556  42.393  26.363  1.00  0.00     0.064 H 
ENDBRANCH  42  45
ENDBRANCH  38  41
ENDBRANCH  35  38
ENDBRANCH   1  35
TORSDOF 10
ENDMDL
