MODEL 1
REMARK VINA RESULT:     -10.7      0.000      0.000
REMARK SMILES Nc1ncnc2c1ccn2[C@@H]1C[C@H](CCc2ccc3scnc3c2)[C@@H](O)[C@H]1O
REMARK SMILES IDX 11 1 12 2 13 3 25 4 27 5 10 12 2 13 3 14 7 15 4 16 6 17 8 18
REMARK SMILES IDX 5 19 9 21 1 24 28 27 14 29 15 32 16 35 17 36 24 37 18 38
REMARK SMILES IDX 23 40 19 42 22 44 20 45 21 46 26 48
REMARK H PARENT 11 6 12 7 12 8 13 9 25 10 27 11 4 20 8 22 9 23 1 25 1 26 28 28
REMARK H PARENT 14 30 14 31 15 33 15 34 17 39 24 41 18 43 21 47 26 49
REMARK Flexibility Score: inf
ROOT
ATOM      1  C   UNL     1     -45.070  37.869  28.781  1.00  0.00     0.064 C 
ATOM      2  C   UNL     1     -45.348  36.793  27.719  1.00  0.00    -0.024 C 
ATOM      3  C   UNL     1     -46.247  35.726  28.365  1.00  0.00    -0.010 C 
ATOM      4  C   UNL     1     -46.729  36.368  29.675  1.00  0.00     0.085 C 
ATOM      5  C   UNL     1     -46.396  37.863  29.556  1.00  0.00     0.101 C 
ATOM      6  H   UNL     1     -44.238  37.577  29.436  1.00  0.00     0.056 H 
ATOM      7  H   UNL     1     -45.845  37.259  26.860  1.00  0.00     0.029 H 
ATOM      8  H   UNL     1     -44.421  36.334  27.364  1.00  0.00     0.029 H 
ATOM      9  H   UNL     1     -45.640  34.840  28.590  1.00  0.00     0.033 H 
ATOM     10  H   UNL     1     -47.787  36.206  29.900  1.00  0.00     0.063 H 
ATOM     11  H   UNL     1     -47.185  38.384  29.002  1.00  0.00     0.065 H 
ENDROOT
BRANCH   1  12
ATOM     12  N   UNL     1     -44.680  39.146  28.191  1.00  0.00    -0.327 N 
ATOM     13  C   UNL     1     -42.584  42.008  28.207  1.00  0.00     0.136 A 
ATOM     14  N   UNL     1     -41.844  41.809  29.315  1.00  0.00    -0.219 NA
ATOM     15  C   UNL     1     -43.565  41.065  27.863  1.00  0.00     0.061 A 
ATOM     16  C   UNL     1     -42.089  40.708  30.051  1.00  0.00     0.120 A 
ATOM     17  C   UNL     1     -43.709  39.977  28.711  1.00  0.00     0.145 A 
ATOM     18  C   UNL     1     -44.519  40.904  26.825  1.00  0.00    -0.031 A 
ATOM     19  N   UNL     1     -43.007  39.754  29.835  1.00  0.00    -0.218 NA
ATOM     20  H   UNL     1     -41.465  40.574  30.930  1.00  0.00     0.106 H 
ATOM     21  C   UNL     1     -45.203  39.729  27.061  1.00  0.00     0.007 A 
ATOM     22  H   UNL     1     -44.692  41.574  25.993  1.00  0.00     0.065 H 
ATOM     23  H   UNL     1     -46.014  39.271  26.510  1.00  0.00     0.082 H 
BRANCH  13  24
ATOM     24  N   UNL     1     -42.335  43.160  27.471  1.00  0.00    -0.383 N 
ATOM     25  H   UNL     1     -41.401  43.215  27.091  1.00  0.00     0.158 HD
ATOM     26  H   UNL     1     -43.095  43.330  26.823  1.00  0.00     0.158 HD
ENDBRANCH  13  24
ENDBRANCH   1  12
BRANCH   5  27
ATOM     27  O   UNL     1     -46.284  38.440  30.855  1.00  0.00    -0.388 OA
ATOM     28  H   UNL     1     -46.347  37.683  31.476  1.00  0.00     0.211 HD
ENDBRANCH   5  27
BRANCH   3  29
ATOM     29  C   UNL     1     -47.421  35.293  27.466  1.00  0.00    -0.044 C 
ATOM     30  H   UNL     1     -47.839  34.371  27.892  1.00  0.00     0.027 H 
ATOM     31  H   UNL     1     -48.223  36.040  27.507  1.00  0.00     0.027 H 
BRANCH  29  32
ATOM     32  C   UNL     1     -47.036  34.980  26.008  1.00  0.00    -0.027 C 
ATOM     33  H   UNL     1     -45.961  35.163  25.882  1.00  0.00     0.032 H 
ATOM     34  H   UNL     1     -47.536  35.687  25.334  1.00  0.00     0.032 H 
BRANCH  32  35
ATOM     35  C   UNL     1     -47.306  33.559  25.573  1.00  0.00    -0.046 A 
ATOM     36  C   UNL     1     -48.438  32.880  26.037  1.00  0.00    -0.057 A 
ATOM     37  C   UNL     1     -46.440  32.915  24.673  1.00  0.00    -0.032 A 
ATOM     38  C   UNL     1     -48.742  31.587  25.597  1.00  0.00    -0.042 A 
ATOM     39  H   UNL     1     -49.111  33.362  26.744  1.00  0.00     0.063 H 
ATOM     40  C   UNL     1     -46.732  31.617  24.201  1.00  0.00     0.081 A 
ATOM     41  H   UNL     1     -45.552  33.413  24.293  1.00  0.00     0.065 H 
ATOM     42  C   UNL     1     -47.882  30.979  24.671  1.00  0.00     0.054 A 
ATOM     43  H   UNL     1     -49.631  31.074  25.953  1.00  0.00     0.064 H 
ATOM     44  N   UNL     1     -45.979  30.894  23.288  1.00  0.00    -0.245 NA
ATOM     45  S   UNL     1     -48.004  29.428  23.932  1.00  0.00    -0.122 S 
ATOM     46  C   UNL     1     -46.557  29.734  23.072  1.00  0.00     0.080 A 
ATOM     47  H   UNL     1     -46.146  29.004  22.387  1.00  0.00     0.096 H 
ENDBRANCH  32  35
ENDBRANCH  29  32
ENDBRANCH   3  29
BRANCH   4  48
ATOM     48  O   UNL     1     -45.970  35.837  30.772  1.00  0.00    -0.390 OA
ATOM     49  H   UNL     1     -45.734  36.586  31.349  1.00  0.00     0.211 HD
ENDBRANCH   4  48
TORSDOF 7
ENDMDL
MODEL 2
REMARK VINA RESULT:      -9.8      1.240      2.176
REMARK SMILES Nc1ncnc2c1ccn2[C@@H]1C[C@H](CCc2ccc3scnc3c2)[C@@H](O)[C@H]1O
REMARK SMILES IDX 11 1 12 2 13 3 25 4 27 5 10 12 2 13 3 14 7 15 4 16 6 17 8 18
REMARK SMILES IDX 5 19 9 21 1 24 28 27 14 29 15 32 16 35 17 36 24 37 18 38
REMARK SMILES IDX 23 40 19 42 22 44 20 45 21 46 26 48
REMARK H PARENT 11 6 12 7 12 8 13 9 25 10 27 11 4 20 8 22 9 23 1 25 1 26 28 28
REMARK H PARENT 14 30 14 31 15 33 15 34 17 39 24 41 18 43 21 47 26 49
REMARK Flexibility Score: inf
ROOT
ATOM      1  C   UNL     1     -44.625  37.883  29.368  1.00  0.00     0.064 C 
ATOM      2  C   UNL     1     -44.994  37.232  28.024  1.00  0.00    -0.024 C 
ATOM      3  C   UNL     1     -46.190  36.300  28.274  1.00  0.00    -0.010 C 
ATOM      4  C   UNL     1     -46.688  36.677  29.678  1.00  0.00     0.085 C 
ATOM      5  C   UNL     1     -46.011  38.013  30.018  1.00  0.00     0.101 C 
ATOM      6  H   UNL     1     -43.979  37.226  29.965  1.00  0.00     0.056 H 
ATOM      7  H   UNL     1     -45.250  38.018  27.306  1.00  0.00     0.029 H 
ATOM      8  H   UNL     1     -44.156  36.661  27.616  1.00  0.00     0.029 H 
ATOM      9  H   UNL     1     -45.837  35.261  28.274  1.00  0.00     0.033 H 
ATOM     10  H   UNL     1     -47.776  36.737  29.775  1.00  0.00     0.063 H 
ATOM     11  H   UNL     1     -46.579  38.846  29.586  1.00  0.00     0.065 H 
ENDROOT
BRANCH   1  12
ATOM     12  N   UNL     1     -43.879  39.125  29.198  1.00  0.00    -0.327 N 
ATOM     13  C   UNL     1     -43.350  42.158  27.436  1.00  0.00     0.136 A 
ATOM     14  N   UNL     1     -44.249  42.064  26.437  1.00  0.00    -0.219 NA
ATOM     15  C   UNL     1     -43.247  41.109  28.362  1.00  0.00     0.061 A 
ATOM     16  C   UNL     1     -45.008  40.953  26.370  1.00  0.00     0.120 A 
ATOM     17  C   UNL     1     -44.092  40.025  28.174  1.00  0.00     0.145 A 
ATOM     18  C   UNL     1     -42.465  40.824  29.512  1.00  0.00    -0.031 A 
ATOM     19  N   UNL     1     -44.985  39.884  27.180  1.00  0.00    -0.218 NA
ATOM     20  H   UNL     1     -45.730  40.917  25.559  1.00  0.00     0.106 H 
ATOM     21  C   UNL     1     -42.858  39.592  29.993  1.00  0.00     0.007 A 
ATOM     22  H   UNL     1     -41.694  41.449  29.943  1.00  0.00     0.065 H 
ATOM     23  H   UNL     1     -42.490  39.023  30.837  1.00  0.00     0.082 H 
BRANCH  13  24
ATOM     24  N   UNL     1     -42.559  43.300  27.477  1.00  0.00    -0.383 N 
ATOM     25  H   UNL     1     -42.538  43.757  28.377  1.00  0.00     0.158 HD
ATOM     26  H   UNL     1     -41.662  43.117  27.044  1.00  0.00     0.158 HD
ENDBRANCH  13  24
ENDBRANCH   1  12
BRANCH   5  27
ATOM     27  O   UNL     1     -45.949  38.179  31.433  1.00  0.00    -0.388 OA
ATOM     28  H   UNL     1     -46.032  39.146  31.579  1.00  0.00     0.211 HD
ENDBRANCH   5  27
BRANCH   3  29
ATOM     29  C   UNL     1     -47.299  36.434  27.213  1.00  0.00    -0.044 C 
ATOM     30  H   UNL     1     -47.867  37.345  27.441  1.00  0.00     0.027 H 
ATOM     31  H   UNL     1     -46.855  36.590  26.221  1.00  0.00     0.027 H 
BRANCH  29  32
ATOM     32  C   UNL     1     -48.308  35.271  27.184  1.00  0.00    -0.027 C 
ATOM     33  H   UNL     1     -49.283  35.660  26.861  1.00  0.00     0.032 H 
ATOM     34  H   UNL     1     -48.465  34.892  28.201  1.00  0.00     0.032 H 
BRANCH  32  35
ATOM     35  C   UNL     1     -47.944  34.139  26.253  1.00  0.00    -0.046 A 
ATOM     36  C   UNL     1     -46.712  34.138  25.589  1.00  0.00    -0.057 A 
ATOM     37  C   UNL     1     -48.825  33.060  26.067  1.00  0.00    -0.032 A 
ATOM     38  C   UNL     1     -46.326  33.068  24.773  1.00  0.00    -0.042 A 
ATOM     39  H   UNL     1     -46.024  34.972  25.714  1.00  0.00     0.063 H 
ATOM     40  C   UNL     1     -48.455  31.962  25.260  1.00  0.00     0.081 A 
ATOM     41  H   UNL     1     -49.790  33.030  26.566  1.00  0.00     0.065 H 
ATOM     42  C   UNL     1     -47.208  31.986  24.631  1.00  0.00     0.054 A 
ATOM     43  H   UNL     1     -45.362  33.070  24.273  1.00  0.00     0.064 H 
ATOM     44  N   UNL     1     -49.218  30.827  25.029  1.00  0.00    -0.245 NA
ATOM     45  S   UNL     1     -47.007  30.532  23.730  1.00  0.00    -0.122 S 
ATOM     46  C   UNL     1     -48.553  30.010  24.244  1.00  0.00     0.080 A 
ATOM     47  H   UNL     1     -48.955  29.055  23.934  1.00  0.00     0.096 H 
ENDBRANCH  32  35
ENDBRANCH  29  32
ENDBRANCH   3  29
BRANCH   4  48
ATOM     48  O   UNL     1     -46.226  35.700  30.624  1.00  0.00    -0.390 OA
ATOM     49  H   UNL     1     -46.614  34.843  30.367  1.00  0.00     0.211 HD
ENDBRANCH   4  48
TORSDOF 7
ENDMDL
MODEL 3
REMARK VINA RESULT:      -9.1      3.255      9.515
REMARK SMILES Nc1ncnc2c1ccn2[C@@H]1C[C@H](CCc2ccc3scnc3c2)[C@@H](O)[C@H]1O
REMARK SMILES IDX 11 1 12 2 13 3 25 4 27 5 10 12 2 13 3 14 7 15 4 16 6 17 8 18
REMARK SMILES IDX 5 19 9 21 1 24 28 27 14 29 15 32 16 35 17 36 24 37 18 38
REMARK SMILES IDX 23 40 19 42 22 44 20 45 21 46 26 48
REMARK H PARENT 11 6 12 7 12 8 13 9 25 10 27 11 4 20 8 22 9 23 1 25 1 26 28 28
REMARK H PARENT 14 30 14 31 15 33 15 34 17 39 24 41 18 43 21 47 26 49
REMARK Flexibility Score: inf
ROOT
ATOM      1  C   UNL     1     -47.969  33.533  26.766  1.00  0.00     0.064 C 
ATOM      2  C   UNL     1     -48.213  35.036  26.554  1.00  0.00    -0.024 C 
ATOM      3  C   UNL     1     -47.182  35.797  27.403  1.00  0.00    -0.010 C 
ATOM      4  C   UNL     1     -46.167  34.727  27.830  1.00  0.00     0.085 C 
ATOM      5  C   UNL     1     -46.442  33.508  26.938  1.00  0.00     0.101 C 
ATOM      6  H   UNL     1     -48.466  33.174  27.678  1.00  0.00     0.056 H 
ATOM      7  H   UNL     1     -48.096  35.270  25.490  1.00  0.00     0.029 H 
ATOM      8  H   UNL     1     -49.226  35.321  26.853  1.00  0.00     0.029 H 
ATOM      9  H   UNL     1     -47.684  36.204  28.290  1.00  0.00     0.033 H 
ATOM     10  H   UNL     1     -45.121  35.042  27.773  1.00  0.00     0.063 H 
ATOM     11  H   UNL     1     -45.930  33.619  25.975  1.00  0.00     0.065 H 
ENDROOT
BRANCH   1  12
ATOM     12  N   UNL     1     -48.504  32.723  25.677  1.00  0.00    -0.327 N 
ATOM     13  C   UNL     1     -47.952  30.661  22.844  1.00  0.00     0.136 A 
ATOM     14  N   UNL     1     -46.611  30.705  22.721  1.00  0.00    -0.219 NA
ATOM     15  C   UNL     1     -48.566  31.388  23.875  1.00  0.00     0.061 A 
ATOM     16  C   UNL     1     -45.918  31.457  23.597  1.00  0.00     0.120 A 
ATOM     17  C   UNL     1     -47.730  32.118  24.707  1.00  0.00     0.145 A 
ATOM     18  C   UNL     1     -49.892  31.603  24.334  1.00  0.00    -0.031 A 
ATOM     19  N   UNL     1     -46.394  32.205  24.604  1.00  0.00    -0.218 NA
ATOM     20  H   UNL     1     -44.839  31.458  23.475  1.00  0.00     0.106 H 
ATOM     21  C   UNL     1     -49.827  32.442  25.428  1.00  0.00     0.007 A 
ATOM     22  H   UNL     1     -50.799  31.193  23.911  1.00  0.00     0.065 H 
ATOM     23  H   UNL     1     -50.619  32.852  26.041  1.00  0.00     0.082 H 
BRANCH  13  24
ATOM     24  N   UNL     1     -48.653  29.900  21.917  1.00  0.00    -0.383 N 
ATOM     25  H   UNL     1     -49.184  29.141  22.321  1.00  0.00     0.158 HD
ATOM     26  H   UNL     1     -49.151  30.505  21.275  1.00  0.00     0.158 HD
ENDBRANCH  13  24
ENDBRANCH   1  12
BRANCH   5  27
ATOM     27  O   UNL     1     -45.973  32.323  27.577  1.00  0.00    -0.388 OA
ATOM     28  H   UNL     1     -46.570  31.611  27.262  1.00  0.00     0.211 HD
ENDBRANCH   5  27
BRANCH   3  29
ATOM     29  C   UNL     1     -46.513  36.962  26.650  1.00  0.00    -0.044 C 
ATOM     30  H   UNL     1     -45.427  36.810  26.703  1.00  0.00     0.027 H 
ATOM     31  H   UNL     1     -46.776  36.923  25.584  1.00  0.00     0.027 H 
BRANCH  29  32
ATOM     32  C   UNL     1     -46.800  38.358  27.234  1.00  0.00    -0.027 C 
ATOM     33  H   UNL     1     -47.277  38.237  28.215  1.00  0.00     0.032 H 
ATOM     34  H   UNL     1     -47.539  38.875  26.610  1.00  0.00     0.032 H 
BRANCH  32  35
ATOM     35  C   UNL     1     -45.579  39.225  27.430  1.00  0.00    -0.046 A 
ATOM     36  C   UNL     1     -45.225  40.176  26.467  1.00  0.00    -0.057 A 
ATOM     37  C   UNL     1     -44.803  39.107  28.596  1.00  0.00    -0.032 A 
ATOM     38  C   UNL     1     -44.136  41.035  26.657  1.00  0.00    -0.042 A 
ATOM     39  H   UNL     1     -45.809  40.271  25.553  1.00  0.00     0.063 H 
ATOM     40  C   UNL     1     -43.709  39.971  28.820  1.00  0.00     0.081 A 
ATOM     41  H   UNL     1     -45.050  38.379  29.364  1.00  0.00     0.065 H 
ATOM     42  C   UNL     1     -43.399  40.922  27.846  1.00  0.00     0.054 A 
ATOM     43  H   UNL     1     -43.878  41.779  25.910  1.00  0.00     0.064 H 
ATOM     44  N   UNL     1     -42.893  39.978  29.942  1.00  0.00    -0.245 NA
ATOM     45  S   UNL     1     -42.042  41.843  28.373  1.00  0.00    -0.122 S 
ATOM     46  C   UNL     1     -41.990  40.922  29.815  1.00  0.00     0.080 A 
ATOM     47  H   UNL     1     -41.247  41.115  30.577  1.00  0.00     0.096 H 
ENDBRANCH  32  35
ENDBRANCH  29  32
ENDBRANCH   3  29
BRANCH   4  48
ATOM     48  O   UNL     1     -46.426  34.342  29.189  1.00  0.00    -0.390 OA
ATOM     49  H   UNL     1     -46.344  35.144  29.737  1.00  0.00     0.211 HD
ENDBRANCH   4  48
TORSDOF 7
ENDMDL
MODEL 4
REMARK VINA RESULT:      -8.9      1.840      2.391
REMARK SMILES Nc1ncnc2c1ccn2[C@@H]1C[C@H](CCc2ccc3scnc3c2)[C@@H](O)[C@H]1O
REMARK SMILES IDX 11 1 12 2 13 3 25 4 27 5 10 12 2 13 3 14 7 15 4 16 6 17 8 18
REMARK SMILES IDX 5 19 9 21 1 24 28 27 14 29 15 32 16 35 17 36 24 37 18 38
REMARK SMILES IDX 23 40 19 42 22 44 20 45 21 46 26 48
REMARK H PARENT 11 6 12 7 12 8 13 9 25 10 27 11 4 20 8 22 9 23 1 25 1 26 28 28
REMARK H PARENT 14 30 14 31 15 33 15 34 17 39 24 41 18 43 21 47 26 49
REMARK Flexibility Score: inf
ROOT
ATOM      1  C   UNL     1     -45.885  39.792  27.806  1.00  0.00     0.064 C 
ATOM      2  C   UNL     1     -45.814  38.258  27.716  1.00  0.00    -0.024 C 
ATOM      3  C   UNL     1     -47.252  37.722  27.804  1.00  0.00    -0.010 C 
ATOM      4  C   UNL     1     -48.139  38.962  27.618  1.00  0.00     0.085 C 
ATOM      5  C   UNL     1     -47.213  40.064  27.083  1.00  0.00     0.101 C 
ATOM      6  H   UNL     1     -45.938  40.127  28.851  1.00  0.00     0.056 H 
ATOM      7  H   UNL     1     -45.347  37.978  26.766  1.00  0.00     0.029 H 
ATOM      8  H   UNL     1     -45.210  37.840  28.526  1.00  0.00     0.029 H 
ATOM      9  H   UNL     1     -47.413  37.300  28.805  1.00  0.00     0.033 H 
ATOM     10  H   UNL     1     -49.005  38.810  26.967  1.00  0.00     0.063 H 
ATOM     11  H   UNL     1     -47.102  39.972  25.996  1.00  0.00     0.065 H 
ENDROOT
BRANCH   1  12
ATOM     12  N   UNL     1     -44.704  40.437  27.242  1.00  0.00    -0.327 N 
ATOM     13  C   UNL     1     -41.352  41.537  27.607  1.00  0.00     0.136 A 
ATOM     14  N   UNL     1     -41.097  41.241  28.896  1.00  0.00    -0.219 NA
ATOM     15  C   UNL     1     -42.620  41.253  27.080  1.00  0.00     0.061 A 
ATOM     16  C   UNL     1     -42.085  40.689  29.627  1.00  0.00     0.120 A 
ATOM     17  C   UNL     1     -43.542  40.682  27.945  1.00  0.00     0.145 A 
ATOM     18  C   UNL     1     -43.271  41.401  25.827  1.00  0.00    -0.031 A 
ATOM     19  N   UNL     1     -43.335  40.393  29.241  1.00  0.00    -0.218 NA
ATOM     20  H   UNL     1     -41.840  40.453  30.658  1.00  0.00     0.106 H 
ATOM     21  C   UNL     1     -44.555  40.912  25.960  1.00  0.00     0.007 A 
ATOM     22  H   UNL     1     -42.850  41.822  24.924  1.00  0.00     0.065 H 
ATOM     23  H   UNL     1     -45.362  40.865  25.240  1.00  0.00     0.082 H 
BRANCH  13  24
ATOM     24  N   UNL     1     -40.329  42.127  26.874  1.00  0.00    -0.383 N 
ATOM     25  H   UNL     1     -39.603  42.545  27.437  1.00  0.00     0.158 HD
ATOM     26  H   UNL     1     -40.023  41.501  26.138  1.00  0.00     0.158 HD
ENDBRANCH  13  24
ENDBRANCH   1  12
BRANCH   5  27
ATOM     27  O   UNL     1     -47.758  41.346  27.386  1.00  0.00    -0.388 OA
ATOM     28  H   UNL     1     -48.712  41.274  27.169  1.00  0.00     0.211 HD
ENDBRANCH   5  27
BRANCH   3  29
ATOM     29  C   UNL     1     -47.559  36.629  26.763  1.00  0.00    -0.044 C 
ATOM     30  H   UNL     1     -48.461  36.937  26.218  1.00  0.00     0.027 H 
ATOM     31  H   UNL     1     -46.754  36.579  26.019  1.00  0.00     0.027 H 
BRANCH  29  32
ATOM     32  C   UNL     1     -47.846  35.237  27.355  1.00  0.00    -0.027 C 
ATOM     33  H   UNL     1     -48.891  35.206  27.690  1.00  0.00     0.032 H 
ATOM     34  H   UNL     1     -47.243  35.087  28.259  1.00  0.00     0.032 H 
BRANCH  32  35
ATOM     35  C   UNL     1     -47.647  34.087  26.396  1.00  0.00    -0.046 A 
ATOM     36  C   UNL     1     -46.381  33.824  25.861  1.00  0.00    -0.057 A 
ATOM     37  C   UNL     1     -48.724  33.252  26.054  1.00  0.00    -0.032 A 
ATOM     38  C   UNL     1     -46.160  32.726  25.021  1.00  0.00    -0.042 A 
ATOM     39  H   UNL     1     -45.540  34.469  26.107  1.00  0.00     0.063 H 
ATOM     40  C   UNL     1     -48.525  32.129  25.221  1.00  0.00     0.081 A 
ATOM     41  H   UNL     1     -49.720  33.429  26.451  1.00  0.00     0.065 H 
ATOM     42  C   UNL     1     -47.243  31.886  24.723  1.00  0.00     0.054 A 
ATOM     43  H   UNL     1     -45.171  32.522  24.622  1.00  0.00     0.064 H 
ATOM     44  N   UNL     1     -49.496  31.214  24.843  1.00  0.00    -0.245 NA
ATOM     45  S   UNL     1     -47.278  30.461  23.756  1.00  0.00    -0.122 S 
ATOM     46  C   UNL     1     -48.951  30.295  24.079  1.00  0.00     0.080 A 
ATOM     47  H   UNL     1     -49.522  29.472  23.670  1.00  0.00     0.096 H 
ENDBRANCH  32  35
ENDBRANCH  29  32
ENDBRANCH   3  29
BRANCH   4  48
ATOM     48  O   UNL     1     -48.633  39.389  28.897  1.00  0.00    -0.390 OA
ATOM     49  H   UNL     1     -48.854  40.336  28.820  1.00  0.00     0.211 HD
ENDBRANCH   4  48
TORSDOF 7
ENDMDL
MODEL 5
REMARK VINA RESULT:      -8.8      3.709      9.389
REMARK SMILES Nc1ncnc2c1ccn2[C@@H]1C[C@H](CCc2ccc3scnc3c2)[C@@H](O)[C@H]1O
REMARK SMILES IDX 11 1 12 2 13 3 25 4 27 5 10 12 2 13 3 14 7 15 4 16 6 17 8 18
REMARK SMILES IDX 5 19 9 21 1 24 28 27 14 29 15 32 16 35 17 36 24 37 18 38
REMARK SMILES IDX 23 40 19 42 22 44 20 45 21 46 26 48
REMARK H PARENT 11 6 12 7 12 8 13 9 25 10 27 11 4 20 8 22 9 23 1 25 1 26 28 28
REMARK H PARENT 14 30 14 31 15 33 15 34 17 39 24 41 18 43 21 47 26 49
REMARK Flexibility Score: inf
ROOT
ATOM      1  C   UNL     1     -47.363  34.756  27.138  1.00  0.00     0.064 C 
ATOM      2  C   UNL     1     -47.588  36.114  26.452  1.00  0.00    -0.024 C 
ATOM      3  C   UNL     1     -47.303  37.210  27.491  1.00  0.00    -0.010 C 
ATOM      4  C   UNL     1     -46.613  36.475  28.650  1.00  0.00     0.085 C 
ATOM      5  C   UNL     1     -46.212  35.101  28.095  1.00  0.00     0.101 C 
ATOM      6  H   UNL     1     -48.252  34.442  27.701  1.00  0.00     0.056 H 
ATOM      7  H   UNL     1     -46.910  36.197  25.596  1.00  0.00     0.029 H 
ATOM      8  H   UNL     1     -48.612  36.208  26.082  1.00  0.00     0.029 H 
ATOM      9  H   UNL     1     -48.257  37.629  27.836  1.00  0.00     0.033 H 
ATOM     10  H   UNL     1     -45.757  37.003  29.080  1.00  0.00     0.063 H 
ATOM     11  H   UNL     1     -45.256  35.171  27.562  1.00  0.00     0.065 H 
ENDROOT
BRANCH   1  12
ATOM     12  N   UNL     1     -47.102  33.685  26.181  1.00  0.00    -0.327 N 
ATOM     13  C   UNL     1     -48.323  31.212  23.952  1.00  0.00     0.136 A 
ATOM     14  N   UNL     1     -49.655  31.304  24.131  1.00  0.00    -0.219 NA
ATOM     15  C   UNL     1     -47.476  32.047  24.694  1.00  0.00     0.061 A 
ATOM     16  C   UNL     1     -50.114  32.198  25.028  1.00  0.00     0.120 A 
ATOM     17  C   UNL     1     -48.084  32.923  25.582  1.00  0.00     0.145 A 
ATOM     18  C   UNL     1     -46.077  32.260  24.802  1.00  0.00    -0.031 A 
ATOM     19  N   UNL     1     -49.404  33.029  25.806  1.00  0.00    -0.218 NA
ATOM     20  H   UNL     1     -51.193  32.253  25.137  1.00  0.00     0.106 H 
ATOM     21  C   UNL     1     -45.873  33.255  25.737  1.00  0.00     0.007 A 
ATOM     22  H   UNL     1     -45.298  31.741  24.260  1.00  0.00     0.065 H 
ATOM     23  H   UNL     1     -44.953  33.685  26.110  1.00  0.00     0.082 H 
BRANCH  13  24
ATOM     24  N   UNL     1     -47.866  30.269  23.039  1.00  0.00    -0.383 N 
ATOM     25  H   UNL     1     -47.048  30.556  22.522  1.00  0.00     0.158 HD
ATOM     26  H   UNL     1     -47.826  29.355  23.474  1.00  0.00     0.158 HD
ENDBRANCH  13  24
ENDBRANCH   1  12
BRANCH   5  27
ATOM     27  O   UNL     1     -46.078  34.166  29.163  1.00  0.00    -0.388 OA
ATOM     28  H   UNL     1     -45.126  33.927  29.174  1.00  0.00     0.211 HD
ENDBRANCH   5  27
BRANCH   3  29
ATOM     29  C   UNL     1     -46.441  38.362  26.941  1.00  0.00    -0.044 C 
ATOM     30  H   UNL     1     -45.930  37.992  26.043  1.00  0.00     0.027 H 
ATOM     31  H   UNL     1     -47.082  39.189  26.610  1.00  0.00     0.027 H 
BRANCH  29  32
ATOM     32  C   UNL     1     -45.349  38.867  27.902  1.00  0.00    -0.027 C 
ATOM     33  H   UNL     1     -44.626  38.057  28.069  1.00  0.00     0.032 H 
ATOM     34  H   UNL     1     -45.789  39.075  28.885  1.00  0.00     0.032 H 
BRANCH  32  35
ATOM     35  C   UNL     1     -44.575  40.066  27.408  1.00  0.00    -0.046 A 
ATOM     36  C   UNL     1     -43.529  40.596  28.171  1.00  0.00    -0.057 A 
ATOM     37  C   UNL     1     -44.878  40.643  26.163  1.00  0.00    -0.032 A 
ATOM     38  C   UNL     1     -42.757  41.666  27.703  1.00  0.00    -0.042 A 
ATOM     39  H   UNL     1     -43.291  40.167  29.142  1.00  0.00     0.063 H 
ATOM     40  C   UNL     1     -44.106  41.713  25.661  1.00  0.00     0.081 A 
ATOM     41  H   UNL     1     -45.685  40.257  25.546  1.00  0.00     0.065 H 
ATOM     42  C   UNL     1     -43.056  42.202  26.441  1.00  0.00     0.054 A 
ATOM     43  H   UNL     1     -41.938  42.061  28.297  1.00  0.00     0.064 H 
ATOM     44  N   UNL     1     -44.281  42.340  24.436  1.00  0.00    -0.245 NA
ATOM     45  S   UNL     1     -42.277  43.484  25.595  1.00  0.00    -0.122 S 
ATOM     46  C   UNL     1     -43.374  43.280  24.297  1.00  0.00     0.080 A 
ATOM     47  H   UNL     1     -43.317  43.899  23.411  1.00  0.00     0.096 H 
ENDBRANCH  32  35
ENDBRANCH  29  32
ENDBRANCH   3  29
BRANCH   4  48
ATOM     48  O   UNL     1     -47.560  36.260  29.708  1.00  0.00    -0.390 OA
ATOM     49  H   UNL     1     -47.459  36.995  30.340  1.00  0.00     0.211 HD
ENDBRANCH   4  48
TORSDOF 7
ENDMDL
MODEL 6
REMARK VINA RESULT:      -8.8      1.610      2.523
REMARK SMILES Nc1ncnc2c1ccn2[C@@H]1C[C@H](CCc2ccc3scnc3c2)[C@@H](O)[C@H]1O
REMARK SMILES IDX 11 1 12 2 13 3 25 4 27 5 10 12 2 13 3 14 7 15 4 16 6 17 8 18
REMARK SMILES IDX 5 19 9 21 1 24 28 27 14 29 15 32 16 35 17 36 24 37 18 38
REMARK SMILES IDX 23 40 19 42 22 44 20 45 21 46 26 48
REMARK H PARENT 11 6 12 7 12 8 13 9 25 10 27 11 4 20 8 22 9 23 1 25 1 26 28 28
REMARK H PARENT 14 30 14 31 15 33 15 34 17 39 24 41 18 43 21 47 26 49
REMARK Flexibility Score: inf
ROOT
ATOM      1  C   UNL     1     -45.329  38.025  28.440  1.00  0.00     0.064 C 
ATOM      2  C   UNL     1     -45.526  36.845  27.474  1.00  0.00    -0.024 C 
ATOM      3  C   UNL     1     -46.212  35.714  28.258  1.00  0.00    -0.010 C 
ATOM      4  C   UNL     1     -46.685  36.377  29.560  1.00  0.00     0.085 C 
ATOM      5  C   UNL     1     -46.581  37.891  29.322  1.00  0.00     0.101 C 
ATOM      6  H   UNL     1     -44.418  37.899  29.041  1.00  0.00     0.056 H 
ATOM      7  H   UNL     1     -46.146  37.172  26.633  1.00  0.00     0.029 H 
ATOM      8  H   UNL     1     -44.571  36.494  27.074  1.00  0.00     0.029 H 
ATOM      9  H   UNL     1     -45.469  34.939  28.487  1.00  0.00     0.033 H 
ATOM     10  H   UNL     1     -47.689  36.086  29.882  1.00  0.00     0.063 H 
ATOM     11  H   UNL     1     -47.475  38.255  28.803  1.00  0.00     0.065 H 
ENDROOT
BRANCH   1  12
ATOM     12  N   UNL     1     -45.171  39.296  27.741  1.00  0.00    -0.327 N 
ATOM     13  C   UNL     1     -46.628  42.152  26.224  1.00  0.00     0.136 A 
ATOM     14  N   UNL     1     -47.944  41.880  26.317  1.00  0.00    -0.219 NA
ATOM     15  C   UNL     1     -45.703  41.221  26.718  1.00  0.00     0.061 A 
ATOM     16  C   UNL     1     -48.312  40.713  26.880  1.00  0.00     0.120 A 
ATOM     17  C   UNL     1     -46.221  40.060  27.274  1.00  0.00     0.145 A 
ATOM     18  C   UNL     1     -44.290  41.124  26.812  1.00  0.00    -0.031 A 
ATOM     19  N   UNL     1     -47.523  39.743  27.366  1.00  0.00    -0.218 NA
ATOM     20  H   UNL     1     -49.381  40.533  26.950  1.00  0.00     0.106 H 
ATOM     21  C   UNL     1     -43.990  39.924  27.424  1.00  0.00     0.007 A 
ATOM     22  H   UNL     1     -43.566  41.850  26.466  1.00  0.00     0.065 H 
ATOM     23  H   UNL     1     -43.031  39.480  27.657  1.00  0.00     0.082 H 
BRANCH  13  24
ATOM     24  N   UNL     1     -46.265  43.350  25.621  1.00  0.00    -0.383 N 
ATOM     25  H   UNL     1     -47.039  43.973  25.438  1.00  0.00     0.158 HD
ATOM     26  H   UNL     1     -45.467  43.752  26.097  1.00  0.00     0.158 HD
ENDBRANCH  13  24
ENDBRANCH   1  12
BRANCH   5  27
ATOM     27  O   UNL     1     -46.458  38.572  30.568  1.00  0.00    -0.388 OA
ATOM     28  H   UNL     1     -46.447  39.525  30.337  1.00  0.00     0.211 HD
ENDBRANCH   5  27
BRANCH   3  29
ATOM     29  C   UNL     1     -47.373  35.057  27.488  1.00  0.00    -0.044 C 
ATOM     30  H   UNL     1     -47.553  34.072  27.940  1.00  0.00     0.027 H 
ATOM     31  H   UNL     1     -48.296  35.633  27.633  1.00  0.00     0.027 H 
BRANCH  29  32
ATOM     32  C   UNL     1     -47.104  34.821  25.990  1.00  0.00    -0.027 C 
ATOM     33  H   UNL     1     -46.054  35.066  25.780  1.00  0.00     0.032 H 
ATOM     34  H   UNL     1     -47.695  35.526  25.393  1.00  0.00     0.032 H 
BRANCH  32  35
ATOM     35  C   UNL     1     -47.339  33.406  25.519  1.00  0.00    -0.046 A 
ATOM     36  C   UNL     1     -48.465  32.695  25.951  1.00  0.00    -0.057 A 
ATOM     37  C   UNL     1     -46.447  32.798  24.619  1.00  0.00    -0.032 A 
ATOM     38  C   UNL     1     -48.738  31.407  25.478  1.00  0.00    -0.042 A 
ATOM     39  H   UNL     1     -49.158  33.148  26.657  1.00  0.00     0.063 H 
ATOM     40  C   UNL     1     -46.707  31.506  24.114  1.00  0.00     0.081 A 
ATOM     41  H   UNL     1     -45.563  33.322  24.264  1.00  0.00     0.065 H 
ATOM     42  C   UNL     1     -47.852  30.836  24.551  1.00  0.00     0.054 A 
ATOM     43  H   UNL     1     -49.621  30.869  25.808  1.00  0.00     0.064 H 
ATOM     44  N   UNL     1     -45.926  30.817  23.197  1.00  0.00    -0.245 NA
ATOM     45  S   UNL     1     -47.933  29.299  23.776  1.00  0.00    -0.122 S 
ATOM     46  C   UNL     1     -46.478  29.652  22.946  1.00  0.00     0.080 A 
ATOM     47  H   UNL     1     -46.043  28.946  22.252  1.00  0.00     0.096 H 
ENDBRANCH  32  35
ENDBRANCH  29  32
ENDBRANCH   3  29
BRANCH   4  48
ATOM     48  O   UNL     1     -45.779  36.039  30.622  1.00  0.00    -0.390 OA
ATOM     49  H   UNL     1     -46.100  35.210  31.022  1.00  0.00     0.211 HD
ENDBRANCH   4  48
TORSDOF 7
ENDMDL
MODEL 7
REMARK VINA RESULT:      -8.6      3.558     10.226
REMARK SMILES Nc1ncnc2c1ccn2[C@@H]1C[C@H](CCc2ccc3scnc3c2)[C@@H](O)[C@H]1O
REMARK SMILES IDX 11 1 12 2 13 3 25 4 27 5 10 12 2 13 3 14 7 15 4 16 6 17 8 18
REMARK SMILES IDX 5 19 9 21 1 24 28 27 14 29 15 32 16 35 17 36 24 37 18 38
REMARK SMILES IDX 23 40 19 42 22 44 20 45 21 46 26 48
REMARK H PARENT 11 6 12 7 12 8 13 9 25 10 27 11 4 20 8 22 9 23 1 25 1 26 28 28
REMARK H PARENT 14 30 14 31 15 33 15 34 17 39 24 41 18 43 21 47 26 49
REMARK Flexibility Score: inf
ROOT
ATOM      1  C   UNL     1     -48.073  32.194  25.636  1.00  0.00     0.064 C 
ATOM      2  C   UNL     1     -48.755  33.421  26.264  1.00  0.00    -0.024 C 
ATOM      3  C   UNL     1     -47.656  34.289  26.897  1.00  0.00    -0.010 C 
ATOM      4  C   UNL     1     -46.343  33.715  26.344  1.00  0.00     0.085 C 
ATOM      5  C   UNL     1     -46.743  32.808  25.172  1.00  0.00     0.101 C 
ATOM      6  H   UNL     1     -47.895  31.410  26.385  1.00  0.00     0.056 H 
ATOM      7  H   UNL     1     -49.290  33.971  25.482  1.00  0.00     0.029 H 
ATOM      8  H   UNL     1     -49.482  33.125  27.026  1.00  0.00     0.029 H 
ATOM      9  H   UNL     1     -47.685  34.160  27.987  1.00  0.00     0.033 H 
ATOM     10  H   UNL     1     -45.608  34.467  26.043  1.00  0.00     0.063 H 
ATOM     11  H   UNL     1     -46.874  33.403  24.260  1.00  0.00     0.065 H 
ENDROOT
BRANCH   1  12
ATOM     12  N   UNL     1     -48.888  31.574  24.598  1.00  0.00    -0.327 N 
ATOM     13  C   UNL     1     -49.540  28.820  22.459  1.00  0.00     0.136 A 
ATOM     14  N   UNL     1     -48.504  28.002  22.730  1.00  0.00    -0.219 NA
ATOM     15  C   UNL     1     -49.624  30.054  23.120  1.00  0.00     0.061 A 
ATOM     16  C   UNL     1     -47.587  28.415  23.625  1.00  0.00     0.120 A 
ATOM     17  C   UNL     1     -48.611  30.352  24.020  1.00  0.00     0.145 A 
ATOM     18  C   UNL     1     -50.514  31.160  23.124  1.00  0.00    -0.031 A 
ATOM     19  N   UNL     1     -47.552  29.574  24.300  1.00  0.00    -0.218 NA
ATOM     20  H   UNL     1     -46.773  27.725  23.828  1.00  0.00     0.106 H 
ATOM     21  C   UNL     1     -50.028  32.087  24.023  1.00  0.00     0.007 A 
ATOM     22  H   UNL     1     -51.412  31.272  22.532  1.00  0.00     0.065 H 
ATOM     23  H   UNL     1     -50.409  33.063  24.295  1.00  0.00     0.082 H 
BRANCH  13  24
ATOM     24  N   UNL     1     -50.464  28.388  21.516  1.00  0.00    -0.383 N 
ATOM     25  H   UNL     1     -51.028  27.606  21.817  1.00  0.00     0.158 HD
ATOM     26  H   UNL     1     -50.963  29.180  21.130  1.00  0.00     0.158 HD
ENDBRANCH  13  24
ENDBRANCH   1  12
BRANCH   5  27
ATOM     27  O   UNL     1     -45.728  31.832  24.945  1.00  0.00    -0.388 OA
ATOM     28  H   UNL     1     -44.951  32.152  25.450  1.00  0.00     0.211 HD
ENDBRANCH   5  27
BRANCH   3  29
ATOM     29  C   UNL     1     -47.809  35.789  26.584  1.00  0.00    -0.044 C 
ATOM     30  H   UNL     1     -47.003  36.066  25.892  1.00  0.00     0.027 H 
ATOM     31  H   UNL     1     -48.749  35.969  26.047  1.00  0.00     0.027 H 
BRANCH  29  32
ATOM     32  C   UNL     1     -47.690  36.719  27.806  1.00  0.00    -0.027 C 
ATOM     33  H   UNL     1     -47.413  36.116  28.680  1.00  0.00     0.032 H 
ATOM     34  H   UNL     1     -48.673  37.146  28.043  1.00  0.00     0.032 H 
BRANCH  32  35
ATOM     35  C   UNL     1     -46.660  37.815  27.670  1.00  0.00    -0.046 A 
ATOM     36  C   UNL     1     -46.695  38.686  26.575  1.00  0.00    -0.057 A 
ATOM     37  C   UNL     1     -45.675  37.991  28.656  1.00  0.00    -0.032 A 
ATOM     38  C   UNL     1     -45.791  39.749  26.462  1.00  0.00    -0.042 A 
ATOM     39  H   UNL     1     -47.445  38.555  25.798  1.00  0.00     0.063 H 
ATOM     40  C   UNL     1     -44.761  39.064  28.574  1.00  0.00     0.081 A 
ATOM     41  H   UNL     1     -45.619  37.333  29.519  1.00  0.00     0.065 H 
ATOM     42  C   UNL     1     -44.840  39.926  27.477  1.00  0.00     0.054 A 
ATOM     43  H   UNL     1     -45.836  40.428  25.615  1.00  0.00     0.064 H 
ATOM     44  N   UNL     1     -43.771  39.364  29.498  1.00  0.00    -0.245 NA
ATOM     45  S   UNL     1     -43.629  41.141  27.631  1.00  0.00    -0.122 S 
ATOM     46  C   UNL     1     -43.121  40.436  29.105  1.00  0.00     0.080 A 
ATOM     47  H   UNL     1     -42.306  40.858  29.678  1.00  0.00     0.096 H 
ENDBRANCH  32  35
ENDBRANCH  29  32
ENDBRANCH   3  29
BRANCH   4  48
ATOM     48  O   UNL     1     -45.727  32.889  27.345  1.00  0.00    -0.390 OA
ATOM     49  H   UNL     1     -46.178  33.073  28.189  1.00  0.00     0.211 HD
ENDBRANCH   4  48
TORSDOF 7
ENDMDL
