MODEL 1
REMARK VINA RESULT:     -10.8      0.000      0.000
REMARK SMILES CCc1cc(N2CCOCC2)c2ncc(OCc3cncc(-n4cc(-c5ccn(C)n5)c5c(N)ncnc54)c3)cc2n1
REMARK SMILES IDX 17 1 16 4 15 5 3 6 4 7 42 8 5 9 41 11 12 12 40 13 13 14
REMARK SMILES IDX 14 16 2 18 1 21 6 25 7 26 11 27 8 28 10 31 9 34 18 39 19 40
REMARK SMILES IDX 39 41 20 42 22 44 21 46 23 48 24 49 38 50 25 51 32 53 37 54
REMARK SMILES IDX 33 55 36 56 35 57 26 59 27 60 31 61 28 62 29 64 30 66 34 70
REMARK H PARENT 17 2 17 3 4 10 40 15 14 17 2 19 2 20 1 22 1 23 1 24 7 29 7 30
REMARK H PARENT 11 32 11 33 8 35 8 36 10 37 10 38 19 43 39 45 21 47 24 52
REMARK H PARENT 36 58 27 63 28 65 30 67 30 68 30 69 34 71 34 72
REMARK Flexibility Score: inf
ROOT
ATOM      1  C   UNL     1     -47.852  35.565  27.779  1.00  0.00     0.115 C 
ATOM      2  H   UNL     1     -48.017  34.633  28.332  1.00  0.00     0.076 H 
ATOM      3  H   UNL     1     -48.828  36.065  27.724  1.00  0.00     0.076 H 
ENDROOT
BRANCH   1   4
ATOM      4  O   UNL     1     -47.486  35.297  26.422  1.00  0.00    -0.487 OA
BRANCH   4   5
ATOM      5  C   UNL     1     -47.548  34.017  25.958  1.00  0.00     0.140 A 
ATOM      6  C   UNL     1     -46.469  30.464  23.040  1.00  0.00     0.043 A 
ATOM      7  C   UNL     1     -47.412  29.626  23.614  1.00  0.00    -0.015 A 
ATOM      8  N   UNL     1     -46.270  31.717  23.484  1.00  0.00    -0.251 NA
ATOM      9  C   UNL     1     -48.195  30.057  24.705  1.00  0.00     0.067 A 
ATOM     10  H   UNL     1     -47.572  28.639  23.188  1.00  0.00     0.066 H 
ATOM     11  C   UNL     1     -47.025  32.156  24.503  1.00  0.00     0.095 A 
ATOM     12  C   UNL     1     -48.012  31.385  25.167  1.00  0.00     0.112 A 
ATOM     13  C   UNL     1     -46.815  33.464  24.918  1.00  0.00     0.010 A 
ATOM     14  N   UNL     1     -48.720  31.918  26.199  1.00  0.00    -0.249 NA
ATOM     15  H   UNL     1     -46.071  34.038  24.378  1.00  0.00     0.069 H 
ATOM     16  C   UNL     1     -48.478  33.197  26.565  1.00  0.00     0.070 A 
ATOM     17  H   UNL     1     -49.091  33.564  27.384  1.00  0.00     0.088 H 
BRANCH   6  18
ATOM     18  C   UNL     1     -45.656  30.015  21.856  1.00  0.00    -0.013 C 
ATOM     19  H   UNL     1     -46.052  29.070  21.466  1.00  0.00     0.033 H 
ATOM     20  H   UNL     1     -44.629  29.813  22.181  1.00  0.00     0.033 H 
BRANCH  18  21
ATOM     21  C   UNL     1     -45.640  31.068  20.758  1.00  0.00    -0.060 C 
ATOM     22  H   UNL     1     -45.060  30.712  19.901  1.00  0.00     0.023 H 
ATOM     23  H   UNL     1     -45.189  32.001  21.111  1.00  0.00     0.023 H 
ATOM     24  H   UNL     1     -46.654  31.296  20.411  1.00  0.00     0.023 H 
ENDBRANCH  18  21
ENDBRANCH   6  18
BRANCH   9  25
ATOM     25  N   UNL     1     -49.135  29.133  25.207  1.00  0.00    -0.365 N 
ATOM     26  C   UNL     1     -48.739  28.042  26.125  1.00  0.00     0.041 C 
ATOM     27  C   UNL     1     -50.220  28.715  24.288  1.00  0.00     0.041 C 
ATOM     28  C   UNL     1     -48.480  26.724  25.373  1.00  0.00     0.064 C 
ATOM     29  H   UNL     1     -47.908  28.319  26.780  1.00  0.00     0.052 H 
ATOM     30  H   UNL     1     -49.593  27.878  26.795  1.00  0.00     0.052 H 
ATOM     31  C   UNL     1     -49.866  27.390  23.593  1.00  0.00     0.064 C 
ATOM     32  H   UNL     1     -50.462  29.469  23.532  1.00  0.00     0.052 H 
ATOM     33  H   UNL     1     -51.124  28.569  24.893  1.00  0.00     0.052 H 
ATOM     34  O   UNL     1     -49.605  26.354  24.554  1.00  0.00    -0.378 OA
ATOM     35  H   UNL     1     -48.325  25.916  26.097  1.00  0.00     0.059 H 
ATOM     36  H   UNL     1     -47.593  26.767  24.735  1.00  0.00     0.059 H 
ATOM     37  H   UNL     1     -50.709  27.061  22.977  1.00  0.00     0.059 H 
ATOM     38  H   UNL     1     -48.995  27.504  22.938  1.00  0.00     0.059 H 
ENDBRANCH   9  25
ENDBRANCH   4   5
ENDBRANCH   1   4
BRANCH   1  39
ATOM     39  C   UNL     1     -46.918  36.489  28.526  1.00  0.00     0.010 A 
ATOM     40  C   UNL     1     -46.539  36.175  29.826  1.00  0.00     0.034 A 
ATOM     41  C   UNL     1     -46.393  37.666  27.979  1.00  0.00    -0.028 A 
ATOM     42  N   UNL     1     -45.702  36.925  30.575  1.00  0.00    -0.262 NA
ATOM     43  H   UNL     1     -46.909  35.281  30.323  1.00  0.00     0.084 H 
ATOM     44  C   UNL     1     -45.490  38.451  28.703  1.00  0.00     0.066 A 
ATOM     45  H   UNL     1     -46.715  37.968  26.989  1.00  0.00     0.065 H 
ATOM     46  C   UNL     1     -45.193  38.041  29.997  1.00  0.00     0.051 A 
ATOM     47  H   UNL     1     -44.495  38.570  30.639  1.00  0.00     0.086 H 
BRANCH  44  48
ATOM     48  N   UNL     1     -44.882  39.612  28.137  1.00  0.00    -0.299 N 
ATOM     49  C   UNL     1     -45.371  40.318  27.056  1.00  0.00     0.021 A 
ATOM     50  C   UNL     1     -43.722  40.261  28.568  1.00  0.00     0.150 A 
ATOM     51  C   UNL     1     -44.514  41.358  26.766  1.00  0.00     0.033 A 
ATOM     52  H   UNL     1     -46.262  40.014  26.525  1.00  0.00     0.083 H 
ATOM     53  C   UNL     1     -43.490  41.366  27.749  1.00  0.00     0.071 A 
ATOM     54  N   UNL     1     -42.970  39.917  29.634  1.00  0.00    -0.218 NA
ATOM     55  C   UNL     1     -42.390  42.175  28.087  1.00  0.00     0.137 A 
ATOM     56  C   UNL     1     -41.945  40.747  29.845  1.00  0.00     0.120 A 
ATOM     57  N   UNL     1     -41.619  41.840  29.138  1.00  0.00    -0.219 NA
ATOM     58  H   UNL     1     -41.305  40.514  30.691  1.00  0.00     0.106 H 
BRANCH  51  59
ATOM     59  C   UNL     1     -44.673  42.281  25.646  1.00  0.00     0.095 A 
ATOM     60  C   UNL     1     -43.920  42.262  24.454  1.00  0.00    -0.016 A 
ATOM     61  N   UNL     1     -45.626  43.219  25.621  1.00  0.00    -0.173 NA
ATOM     62  C   UNL     1     -44.446  43.277  23.689  1.00  0.00     0.025 A 
ATOM     63  H   UNL     1     -43.111  41.597  24.183  1.00  0.00     0.066 H 
ATOM     64  N   UNL     1     -45.459  43.814  24.426  1.00  0.00    -0.275 N 
ATOM     65  H   UNL     1     -44.195  43.641  22.701  1.00  0.00     0.084 H 
BRANCH  64  66
ATOM     66  C   UNL     1     -46.328  44.902  24.047  1.00  0.00     0.030 C 
ATOM     67  H   UNL     1     -46.960  45.152  24.903  1.00  0.00     0.048 H 
ATOM     68  H   UNL     1     -45.725  45.768  23.764  1.00  0.00     0.048 H 
ATOM     69  H   UNL     1     -46.937  44.578  23.200  1.00  0.00     0.048 H 
ENDBRANCH  64  66
ENDBRANCH  51  59
BRANCH  55  70
ATOM     70  N   UNL     1     -42.049  43.358  27.440  1.00  0.00    -0.383 N 
ATOM     71  H   UNL     1     -41.106  43.359  27.070  1.00  0.00     0.158 HD
ATOM     72  H   UNL     1     -42.771  43.592  26.768  1.00  0.00     0.158 HD
ENDBRANCH  55  70
ENDBRANCH  44  48
ENDBRANCH   1  39
TORSDOF 10
ENDMDL
MODEL 2
REMARK VINA RESULT:     -10.7      2.084      3.486
REMARK SMILES CCc1cc(N2CCOCC2)c2ncc(OCc3cncc(-n4cc(-c5ccn(C)n5)c5c(N)ncnc54)c3)cc2n1
REMARK SMILES IDX 17 1 16 4 15 5 3 6 4 7 42 8 5 9 41 11 12 12 40 13 13 14
REMARK SMILES IDX 14 16 2 18 1 21 6 25 7 26 11 27 8 28 10 31 9 34 18 39 19 40
REMARK SMILES IDX 39 41 20 42 22 44 21 46 23 48 24 49 38 50 25 51 32 53 37 54
REMARK SMILES IDX 33 55 36 56 35 57 26 59 27 60 31 61 28 62 29 64 30 66 34 70
REMARK H PARENT 17 2 17 3 4 10 40 15 14 17 2 19 2 20 1 22 1 23 1 24 7 29 7 30
REMARK H PARENT 11 32 11 33 8 35 8 36 10 37 10 38 19 43 39 45 21 47 24 52
REMARK H PARENT 36 58 27 63 28 65 30 67 30 68 30 69 34 71 34 72
REMARK Flexibility Score: inf
ROOT
ATOM      1  C   UNL     1     -47.361  33.997  25.857  1.00  0.00     0.115 C 
ATOM      2  H   UNL     1     -47.779  34.005  24.844  1.00  0.00     0.076 H 
ATOM      3  H   UNL     1     -46.274  33.909  25.740  1.00  0.00     0.076 H 
ENDROOT
BRANCH   1   4
ATOM      4  O   UNL     1     -47.763  32.820  26.567  1.00  0.00    -0.487 OA
BRANCH   4   5
ATOM      5  C   UNL     1     -48.243  31.754  25.866  1.00  0.00     0.140 A 
ATOM      6  C   UNL     1     -49.233  27.191  25.159  1.00  0.00     0.043 A 
ATOM      7  C   UNL     1     -49.615  27.415  23.846  1.00  0.00    -0.015 A 
ATOM      8  N   UNL     1     -48.828  28.192  25.961  1.00  0.00    -0.251 NA
ATOM      9  C   UNL     1     -49.606  28.715  23.301  1.00  0.00     0.067 A 
ATOM     10  H   UNL     1     -49.887  26.567  23.222  1.00  0.00     0.066 H 
ATOM     11  C   UNL     1     -48.785  29.433  25.451  1.00  0.00     0.095 A 
ATOM     12  C   UNL     1     -49.156  29.776  24.127  1.00  0.00     0.112 A 
ATOM     13  C   UNL     1     -48.333  30.438  26.296  1.00  0.00     0.010 A 
ATOM     14  N   UNL     1     -49.087  31.068  23.708  1.00  0.00    -0.249 NA
ATOM     15  H   UNL     1     -48.034  30.144  27.295  1.00  0.00     0.069 H 
ATOM     16  C   UNL     1     -48.640  32.011  24.568  1.00  0.00     0.070 A 
ATOM     17  H   UNL     1     -48.593  33.018  24.163  1.00  0.00     0.088 H 
BRANCH   6  18
ATOM     18  C   UNL     1     -49.213  25.799  25.731  1.00  0.00    -0.013 C 
ATOM     19  H   UNL     1     -49.555  25.080  24.978  1.00  0.00     0.033 H 
ATOM     20  H   UNL     1     -49.925  25.742  26.563  1.00  0.00     0.033 H 
BRANCH  18  21
ATOM     21  C   UNL     1     -47.826  25.419  26.226  1.00  0.00    -0.060 C 
ATOM     22  H   UNL     1     -47.501  26.109  27.010  1.00  0.00     0.023 H 
ATOM     23  H   UNL     1     -47.092  25.455  25.413  1.00  0.00     0.023 H 
ATOM     24  H   UNL     1     -47.816  24.405  26.642  1.00  0.00     0.023 H 
ENDBRANCH  18  21
ENDBRANCH   6  18
BRANCH   9  25
ATOM     25  N   UNL     1     -49.999  28.833  21.952  1.00  0.00    -0.365 N 
ATOM     26  C   UNL     1     -49.027  29.159  20.885  1.00  0.00     0.041 C 
ATOM     27  C   UNL     1     -51.328  29.437  21.691  1.00  0.00     0.041 C 
ATOM     28  C   UNL     1     -49.004  30.665  20.568  1.00  0.00     0.064 C 
ATOM     29  H   UNL     1     -48.029  28.758  21.083  1.00  0.00     0.052 H 
ATOM     30  H   UNL     1     -49.373  28.636  19.983  1.00  0.00     0.052 H 
ATOM     31  C   UNL     1     -51.194  30.937  21.382  1.00  0.00     0.064 C 
ATOM     32  H   UNL     1     -52.037  29.297  22.514  1.00  0.00     0.052 H 
ATOM     33  H   UNL     1     -51.752  28.930  20.816  1.00  0.00     0.052 H 
ATOM     34  O   UNL     1     -50.321  31.160  20.263  1.00  0.00    -0.378 OA
ATOM     35  H   UNL     1     -48.377  30.842  19.687  1.00  0.00     0.059 H 
ATOM     36  H   UNL     1     -48.596  31.264  21.386  1.00  0.00     0.059 H 
ATOM     37  H   UNL     1     -52.175  31.348  21.121  1.00  0.00     0.059 H 
ATOM     38  H   UNL     1     -50.818  31.491  22.250  1.00  0.00     0.059 H 
ENDBRANCH   9  25
ENDBRANCH   4   5
ENDBRANCH   1   4
BRANCH   1  39
ATOM     39  C   UNL     1     -47.629  35.300  26.573  1.00  0.00     0.010 A 
ATOM     40  C   UNL     1     -48.824  35.469  27.264  1.00  0.00     0.034 A 
ATOM     41  C   UNL     1     -46.730  36.373  26.591  1.00  0.00    -0.028 A 
ATOM     42  N   UNL     1     -49.156  36.588  27.944  1.00  0.00    -0.262 NA
ATOM     43  H   UNL     1     -49.576  34.685  27.293  1.00  0.00     0.084 H 
ATOM     44  C   UNL     1     -47.014  37.534  27.317  1.00  0.00     0.066 A 
ATOM     45  H   UNL     1     -45.815  36.294  26.014  1.00  0.00     0.065 H 
ATOM     46  C   UNL     1     -48.244  37.591  27.961  1.00  0.00     0.051 A 
ATOM     47  H   UNL     1     -48.557  38.440  28.562  1.00  0.00     0.086 H 
BRANCH  44  48
ATOM     48  N   UNL     1     -46.078  38.608  27.413  1.00  0.00    -0.299 N 
ATOM     49  C   UNL     1     -46.019  39.688  26.555  1.00  0.00     0.021 A 
ATOM     50  C   UNL     1     -45.085  38.788  28.379  1.00  0.00     0.150 A 
ATOM     51  C   UNL     1     -44.975  40.509  26.929  1.00  0.00     0.033 A 
ATOM     52  H   UNL     1     -46.678  39.786  25.704  1.00  0.00     0.083 H 
ATOM     53  C   UNL     1     -44.406  39.977  28.115  1.00  0.00     0.071 A 
ATOM     54  N   UNL     1     -44.846  37.978  29.431  1.00  0.00    -0.218 NA
ATOM     55  C   UNL     1     -43.410  40.347  29.037  1.00  0.00     0.137 A 
ATOM     56  C   UNL     1     -43.868  38.422  30.225  1.00  0.00     0.120 A 
ATOM     57  N   UNL     1     -43.147  39.545  30.085  1.00  0.00    -0.219 NA
ATOM     58  H   UNL     1     -43.633  37.805  31.088  1.00  0.00     0.106 H 
BRANCH  51  59
ATOM     59  C   UNL     1     -44.569  41.716  26.214  1.00  0.00     0.095 A 
ATOM     60  C   UNL     1     -44.207  41.780  24.852  1.00  0.00    -0.016 A 
ATOM     61  N   UNL     1     -44.566  42.923  26.791  1.00  0.00    -0.173 NA
ATOM     62  C   UNL     1     -43.945  43.110  24.620  1.00  0.00     0.025 A 
ATOM     63  H   UNL     1     -44.152  40.972  24.135  1.00  0.00     0.066 H 
ATOM     64  N   UNL     1     -44.175  43.749  25.803  1.00  0.00    -0.275 N 
ATOM     65  H   UNL     1     -43.634  43.640  23.730  1.00  0.00     0.084 H 
BRANCH  64  66
ATOM     66  C   UNL     1     -44.051  45.162  26.067  1.00  0.00     0.030 C 
ATOM     67  H   UNL     1     -44.988  45.514  26.504  1.00  0.00     0.048 H 
ATOM     68  H   UNL     1     -43.227  45.331  26.765  1.00  0.00     0.048 H 
ATOM     69  H   UNL     1     -43.850  45.672  25.122  1.00  0.00     0.048 H 
ENDBRANCH  64  66
ENDBRANCH  51  59
BRANCH  55  70
ATOM     70  N   UNL     1     -42.685  41.533  28.987  1.00  0.00    -0.383 N 
ATOM     71  H   UNL     1     -42.803  42.115  29.807  1.00  0.00     0.158 HD
ATOM     72  H   UNL     1     -41.721  41.325  28.746  1.00  0.00     0.158 HD
ENDBRANCH  55  70
ENDBRANCH  44  48
ENDBRANCH   1  39
TORSDOF 10
ENDMDL
MODEL 3
REMARK VINA RESULT:     -10.5      2.113      2.982
REMARK SMILES CCc1cc(N2CCOCC2)c2ncc(OCc3cncc(-n4cc(-c5ccn(C)n5)c5c(N)ncnc54)c3)cc2n1
REMARK SMILES IDX 17 1 16 4 15 5 3 6 4 7 42 8 5 9 41 11 12 12 40 13 13 14
REMARK SMILES IDX 14 16 2 18 1 21 6 25 7 26 11 27 8 28 10 31 9 34 18 39 19 40
REMARK SMILES IDX 39 41 20 42 22 44 21 46 23 48 24 49 38 50 25 51 32 53 37 54
REMARK SMILES IDX 33 55 36 56 35 57 26 59 27 60 31 61 28 62 29 64 30 66 34 70
REMARK H PARENT 17 2 17 3 4 10 40 15 14 17 2 19 2 20 1 22 1 23 1 24 7 29 7 30
REMARK H PARENT 11 32 11 33 8 35 8 36 10 37 10 38 19 43 39 45 21 47 24 52
REMARK H PARENT 36 58 27 63 28 65 30 67 30 68 30 69 34 71 34 72
REMARK Flexibility Score: inf
ROOT
ATOM      1  C   UNL     1     -47.862  35.118  26.754  1.00  0.00     0.115 C 
ATOM      2  H   UNL     1     -48.907  35.275  27.047  1.00  0.00     0.076 H 
ATOM      3  H   UNL     1     -47.830  35.226  25.663  1.00  0.00     0.076 H 
ENDROOT
BRANCH   1   4
ATOM      4  O   UNL     1     -47.456  33.770  27.014  1.00  0.00    -0.487 OA
BRANCH   4   5
ATOM      5  C   UNL     1     -47.577  32.838  26.027  1.00  0.00     0.140 A 
ATOM      6  C   UNL     1     -46.591  30.879  21.845  1.00  0.00     0.043 A 
ATOM      7  C   UNL     1     -47.610  29.948  21.972  1.00  0.00    -0.015 A 
ATOM      8  N   UNL     1     -46.333  31.785  22.804  1.00  0.00    -0.251 NA
ATOM      9  C   UNL     1     -48.413  29.908  23.130  1.00  0.00     0.067 A 
ATOM     10  H   UNL     1     -47.811  29.269  21.148  1.00  0.00     0.066 H 
ATOM     11  C   UNL     1     -47.106  31.782  23.902  1.00  0.00     0.095 A 
ATOM     12  C   UNL     1     -48.169  30.875  24.139  1.00  0.00     0.112 A 
ATOM     13  C   UNL     1     -46.833  32.750  24.859  1.00  0.00     0.010 A 
ATOM     14  N   UNL     1     -48.888  30.947  25.291  1.00  0.00    -0.249 NA
ATOM     15  H   UNL     1     -46.031  33.445  24.642  1.00  0.00     0.069 H 
ATOM     16  C   UNL     1     -48.584  31.908  26.192  1.00  0.00     0.070 A 
ATOM     17  H   UNL     1     -49.209  31.919  27.081  1.00  0.00     0.088 H 
BRANCH   6  18
ATOM     18  C   UNL     1     -45.754  30.942  20.595  1.00  0.00    -0.013 C 
ATOM     19  H   UNL     1     -45.731  29.959  20.110  1.00  0.00     0.033 H 
ATOM     20  H   UNL     1     -44.719  31.180  20.868  1.00  0.00     0.033 H 
BRANCH  18  21
ATOM     21  C   UNL     1     -46.275  31.992  19.626  1.00  0.00    -0.060 C 
ATOM     22  H   UNL     1     -46.941  32.689  20.144  1.00  0.00     0.023 H 
ATOM     23  H   UNL     1     -46.837  31.529  18.807  1.00  0.00     0.023 H 
ATOM     24  H   UNL     1     -45.455  32.570  19.186  1.00  0.00     0.023 H 
ENDBRANCH  18  21
ENDBRANCH   6  18
BRANCH   9  25
ATOM     25  N   UNL     1     -49.431  28.933  23.155  1.00  0.00    -0.365 N 
ATOM     26  C   UNL     1     -49.236  27.591  22.563  1.00  0.00     0.041 C 
ATOM     27  C   UNL     1     -50.824  29.413  22.989  1.00  0.00     0.041 C 
ATOM     28  C   UNL     1     -49.781  27.511  21.126  1.00  0.00     0.064 C 
ATOM     29  H   UNL     1     -48.203  27.240  22.638  1.00  0.00     0.052 H 
ATOM     30  H   UNL     1     -49.822  26.895  23.179  1.00  0.00     0.052 H 
ATOM     31  C   UNL     1     -51.272  29.288  21.524  1.00  0.00     0.064 C 
ATOM     32  H   UNL     1     -50.970  30.444  23.327  1.00  0.00     0.052 H 
ATOM     33  H   UNL     1     -51.466  28.779  23.613  1.00  0.00     0.052 H 
ATOM     34  O   UNL     1     -51.157  27.933  21.060  1.00  0.00    -0.378 OA
ATOM     35  H   UNL     1     -49.742  26.474  20.778  1.00  0.00     0.059 H 
ATOM     36  H   UNL     1     -49.206  28.116  20.420  1.00  0.00     0.059 H 
ATOM     37  H   UNL     1     -52.324  29.577  21.434  1.00  0.00     0.059 H 
ATOM     38  H   UNL     1     -50.686  29.945  20.870  1.00  0.00     0.059 H 
ENDBRANCH   9  25
ENDBRANCH   4   5
ENDBRANCH   1   4
BRANCH   1  39
ATOM     39  C   UNL     1     -46.962  36.183  27.336  1.00  0.00     0.010 A 
ATOM     40  C   UNL     1     -46.143  35.872  28.415  1.00  0.00     0.034 A 
ATOM     41  C   UNL     1     -46.893  37.492  26.844  1.00  0.00    -0.028 A 
ATOM     42  N   UNL     1     -45.295  36.745  29.002  1.00  0.00    -0.262 NA
ATOM     43  H   UNL     1     -46.143  34.879  28.858  1.00  0.00     0.084 H 
ATOM     44  C   UNL     1     -45.999  38.417  27.393  1.00  0.00     0.066 A 
ATOM     45  H   UNL     1     -47.561  37.781  26.041  1.00  0.00     0.065 H 
ATOM     46  C   UNL     1     -45.237  37.994  28.475  1.00  0.00     0.051 A 
ATOM     47  H   UNL     1     -44.505  38.628  28.966  1.00  0.00     0.086 H 
BRANCH  44  48
ATOM     48  N   UNL     1     -45.857  39.733  26.857  1.00  0.00    -0.299 N 
ATOM     49  C   UNL     1     -44.703  40.241  26.295  1.00  0.00     0.021 A 
ATOM     50  C   UNL     1     -46.834  40.728  26.776  1.00  0.00     0.150 A 
ATOM     51  C   UNL     1     -44.919  41.549  25.915  1.00  0.00     0.033 A 
ATOM     52  H   UNL     1     -43.786  39.670  26.244  1.00  0.00     0.083 H 
ATOM     53  C   UNL     1     -46.282  41.856  26.167  1.00  0.00     0.071 A 
ATOM     54  N   UNL     1     -48.119  40.612  27.168  1.00  0.00    -0.218 NA
ATOM     55  C   UNL     1     -47.155  42.936  25.944  1.00  0.00     0.137 A 
ATOM     56  C   UNL     1     -48.844  41.706  26.923  1.00  0.00     0.120 A 
ATOM     57  N   UNL     1     -48.437  42.845  26.342  1.00  0.00    -0.219 NA
ATOM     58  H   UNL     1     -49.888  41.667  27.222  1.00  0.00     0.106 H 
BRANCH  51  59
ATOM     59  C   UNL     1     -43.905  42.428  25.340  1.00  0.00     0.095 A 
ATOM     60  C   UNL     1     -42.709  42.824  25.975  1.00  0.00    -0.016 A 
ATOM     61  N   UNL     1     -43.990  42.900  24.092  1.00  0.00    -0.173 NA
ATOM     62  C   UNL     1     -42.061  43.607  25.047  1.00  0.00     0.025 A 
ATOM     63  H   UNL     1     -42.362  42.571  26.967  1.00  0.00     0.066 H 
ATOM     64  N   UNL     1     -42.862  43.619  23.943  1.00  0.00    -0.275 N 
ATOM     65  H   UNL     1     -41.116  44.130  25.079  1.00  0.00     0.084 H 
BRANCH  64  66
ATOM     66  C   UNL     1     -42.610  44.293  22.694  1.00  0.00     0.030 C 
ATOM     67  H   UNL     1     -43.566  44.624  22.281  1.00  0.00     0.048 H 
ATOM     68  H   UNL     1     -41.962  45.156  22.869  1.00  0.00     0.048 H 
ATOM     69  H   UNL     1     -42.120  43.590  22.016  1.00  0.00     0.048 H 
ENDBRANCH  64  66
ENDBRANCH  51  59
BRANCH  55  70
ATOM     70  N   UNL     1     -46.810  44.109  25.280  1.00  0.00    -0.383 N 
ATOM     71  H   UNL     1     -46.796  44.015  24.272  1.00  0.00     0.158 HD
ATOM     72  H   UNL     1     -47.381  44.871  25.630  1.00  0.00     0.158 HD
ENDBRANCH  55  70
ENDBRANCH  44  48
ENDBRANCH   1  39
TORSDOF 10
ENDMDL
MODEL 4
REMARK VINA RESULT:     -10.2      1.623      2.029
REMARK SMILES CCc1cc(N2CCOCC2)c2ncc(OCc3cncc(-n4cc(-c5ccn(C)n5)c5c(N)ncnc54)c3)cc2n1
REMARK SMILES IDX 17 1 16 4 15 5 3 6 4 7 42 8 5 9 41 11 12 12 40 13 13 14
REMARK SMILES IDX 14 16 2 18 1 21 6 25 7 26 11 27 8 28 10 31 9 34 18 39 19 40
REMARK SMILES IDX 39 41 20 42 22 44 21 46 23 48 24 49 38 50 25 51 32 53 37 54
REMARK SMILES IDX 33 55 36 56 35 57 26 59 27 60 31 61 28 62 29 64 30 66 34 70
REMARK H PARENT 17 2 17 3 4 10 40 15 14 17 2 19 2 20 1 22 1 23 1 24 7 29 7 30
REMARK H PARENT 11 32 11 33 8 35 8 36 10 37 10 38 19 43 39 45 21 47 24 52
REMARK H PARENT 36 58 27 63 28 65 30 67 30 68 30 69 34 71 34 72
REMARK Flexibility Score: inf
ROOT
ATOM      1  C   UNL     1     -46.552  34.466  27.216  1.00  0.00     0.115 C 
ATOM      2  H   UNL     1     -45.894  34.325  26.351  1.00  0.00     0.076 H 
ATOM      3  H   UNL     1     -45.970  34.167  28.096  1.00  0.00     0.076 H 
ENDROOT
BRANCH   1   4
ATOM      4  O   UNL     1     -47.661  33.562  27.168  1.00  0.00    -0.487 OA
BRANCH   4   5
ATOM      5  C   UNL     1     -47.843  32.793  26.057  1.00  0.00     0.140 A 
ATOM      6  C   UNL     1     -46.728  31.103  21.791  1.00  0.00     0.043 A 
ATOM      7  C   UNL     1     -47.935  30.431  21.675  1.00  0.00    -0.015 A 
ATOM      8  N   UNL     1     -46.416  31.817  22.886  1.00  0.00    -0.251 NA
ATOM      9  C   UNL     1     -48.884  30.462  22.717  1.00  0.00     0.067 A 
ATOM     10  H   UNL     1     -48.162  29.908  20.750  1.00  0.00     0.066 H 
ATOM     11  C   UNL     1     -47.319  31.883  23.878  1.00  0.00     0.095 A 
ATOM     12  C   UNL     1     -48.579  31.233  23.867  1.00  0.00     0.112 A 
ATOM     13  C   UNL     1     -46.979  32.654  24.981  1.00  0.00     0.010 A 
ATOM     14  N   UNL     1     -49.421  31.354  24.928  1.00  0.00    -0.249 NA
ATOM     15  H   UNL     1     -46.020  33.158  24.953  1.00  0.00     0.069 H 
ATOM     16  C   UNL     1     -49.044  32.116  25.979  1.00  0.00     0.070 A 
ATOM     17  H   UNL     1     -49.772  32.182  26.784  1.00  0.00     0.088 H 
BRANCH   6  18
ATOM     18  C   UNL     1     -45.728  31.096  20.666  1.00  0.00    -0.013 C 
ATOM     19  H   UNL     1     -45.562  30.069  20.319  1.00  0.00     0.033 H 
ATOM     20  H   UNL     1     -44.764  31.458  21.040  1.00  0.00     0.033 H 
BRANCH  18  21
ATOM     21  C   UNL     1     -46.184  31.971  19.509  1.00  0.00    -0.060 C 
ATOM     22  H   UNL     1     -46.342  32.998  19.851  1.00  0.00     0.023 H 
ATOM     23  H   UNL     1     -47.124  31.605  19.082  1.00  0.00     0.023 H 
ATOM     24  H   UNL     1     -45.437  31.992  18.707  1.00  0.00     0.023 H 
ENDBRANCH  18  21
ENDBRANCH   6  18
BRANCH   9  25
ATOM     25  N   UNL     1     -50.085  29.758  22.494  1.00  0.00    -0.365 N 
ATOM     26  C   UNL     1     -50.977  29.370  23.609  1.00  0.00     0.041 C 
ATOM     27  C   UNL     1     -50.076  28.742  21.414  1.00  0.00     0.041 C 
ATOM     28  C   UNL     1     -50.716  27.928  24.079  1.00  0.00     0.064 C 
ATOM     29  H   UNL     1     -50.962  30.087  24.434  1.00  0.00     0.052 H 
ATOM     30  H   UNL     1     -52.000  29.408  23.212  1.00  0.00     0.052 H 
ATOM     31  C   UNL     1     -49.812  27.340  21.987  1.00  0.00     0.064 C 
ATOM     32  H   UNL     1     -49.348  28.956  20.624  1.00  0.00     0.052 H 
ATOM     33  H   UNL     1     -51.067  28.754  20.945  1.00  0.00     0.052 H 
ATOM     34  O   UNL     1     -50.788  26.995  22.983  1.00  0.00    -0.378 OA
ATOM     35  H   UNL     1     -51.482  27.637  24.805  1.00  0.00     0.059 H 
ATOM     36  H   UNL     1     -49.743  27.809  24.563  1.00  0.00     0.059 H 
ATOM     37  H   UNL     1     -49.882  26.597  21.187  1.00  0.00     0.059 H 
ATOM     38  H   UNL     1     -48.809  27.271  22.424  1.00  0.00     0.059 H 
ENDBRANCH   9  25
ENDBRANCH   4   5
ENDBRANCH   1   4
BRANCH   1  39
ATOM     39  C   UNL     1     -46.918  35.921  27.395  1.00  0.00     0.010 A 
ATOM     40  C   UNL     1     -48.237  36.267  27.663  1.00  0.00     0.034 A 
ATOM     41  C   UNL     1     -45.992  36.969  27.312  1.00  0.00    -0.028 A 
ATOM     42  N   UNL     1     -48.667  37.534  27.851  1.00  0.00    -0.262 NA
ATOM     43  H   UNL     1     -49.016  35.513  27.737  1.00  0.00     0.084 H 
ATOM     44  C   UNL     1     -46.385  38.291  27.542  1.00  0.00     0.066 A 
ATOM     45  H   UNL     1     -44.967  36.736  27.047  1.00  0.00     0.065 H 
ATOM     46  C   UNL     1     -47.733  38.516  27.792  1.00  0.00     0.051 A 
ATOM     47  H   UNL     1     -48.139  39.502  27.996  1.00  0.00     0.086 H 
BRANCH  44  48
ATOM     48  N   UNL     1     -45.444  39.365  27.539  1.00  0.00    -0.299 N 
ATOM     49  C   UNL     1     -45.443  40.418  26.646  1.00  0.00     0.021 A 
ATOM     50  C   UNL     1     -44.386  39.572  28.429  1.00  0.00     0.150 A 
ATOM     51  C   UNL     1     -44.376  41.247  26.921  1.00  0.00     0.033 A 
ATOM     52  H   UNL     1     -46.159  40.490  25.840  1.00  0.00     0.083 H 
ATOM     53  C   UNL     1     -43.726  40.750  28.081  1.00  0.00     0.071 A 
ATOM     54  N   UNL     1     -44.076  38.795  29.487  1.00  0.00    -0.218 NA
ATOM     55  C   UNL     1     -42.669  41.146  28.921  1.00  0.00     0.137 A 
ATOM     56  C   UNL     1     -43.045  39.260  30.197  1.00  0.00     0.120 A 
ATOM     57  N   UNL     1     -42.335  40.376  29.972  1.00  0.00    -0.219 NA
ATOM     58  H   UNL     1     -42.752  38.670  31.060  1.00  0.00     0.106 H 
BRANCH  51  59
ATOM     59  C   UNL     1     -44.018  42.429  26.143  1.00  0.00     0.095 A 
ATOM     60  C   UNL     1     -44.059  43.760  26.608  1.00  0.00    -0.016 A 
ATOM     61  N   UNL     1     -43.540  42.349  24.896  1.00  0.00    -0.173 NA
ATOM     62  C   UNL     1     -43.603  44.516  25.553  1.00  0.00     0.025 A 
ATOM     63  H   UNL     1     -44.371  44.121  27.579  1.00  0.00     0.066 H 
ATOM     64  N   UNL     1     -43.305  43.631  24.560  1.00  0.00    -0.275 N 
ATOM     65  H   UNL     1     -43.458  45.582  25.438  1.00  0.00     0.084 H 
BRANCH  64  66
ATOM     66  C   UNL     1     -42.776  43.936  23.253  1.00  0.00     0.030 C 
ATOM     67  H   UNL     1     -41.804  44.418  23.378  1.00  0.00     0.048 H 
ATOM     68  H   UNL     1     -42.662  43.011  22.681  1.00  0.00     0.048 H 
ATOM     69  H   UNL     1     -43.476  44.604  22.746  1.00  0.00     0.048 H 
ENDBRANCH  64  66
ENDBRANCH  51  59
BRANCH  55  70
ATOM     70  N   UNL     1     -41.948  42.327  28.783  1.00  0.00    -0.383 N 
ATOM     71  H   UNL     1     -41.613  42.490  27.841  1.00  0.00     0.158 HD
ATOM     72  H   UNL     1     -42.479  43.092  29.185  1.00  0.00     0.158 HD
ENDBRANCH  55  70
ENDBRANCH  44  48
ENDBRANCH   1  39
TORSDOF 10
ENDMDL
MODEL 5
REMARK VINA RESULT:     -10.1      2.399     12.806
REMARK SMILES CCc1cc(N2CCOCC2)c2ncc(OCc3cncc(-n4cc(-c5ccn(C)n5)c5c(N)ncnc54)c3)cc2n1
REMARK SMILES IDX 17 1 16 4 15 5 3 6 4 7 42 8 5 9 41 11 12 12 40 13 13 14
REMARK SMILES IDX 14 16 2 18 1 21 6 25 7 26 11 27 8 28 10 31 9 34 18 39 19 40
REMARK SMILES IDX 39 41 20 42 22 44 21 46 23 48 24 49 38 50 25 51 32 53 37 54
REMARK SMILES IDX 33 55 36 56 35 57 26 59 27 60 31 61 28 62 29 64 30 66 34 70
REMARK H PARENT 17 2 17 3 4 10 40 15 14 17 2 19 2 20 1 22 1 23 1 24 7 29 7 30
REMARK H PARENT 11 32 11 33 8 35 8 36 10 37 10 38 19 43 39 45 21 47 24 52
REMARK H PARENT 36 58 27 63 28 65 30 67 30 68 30 69 34 71 34 72
REMARK Flexibility Score: inf
ROOT
ATOM      1  C   UNL     1     -46.330  35.651  27.058  1.00  0.00     0.115 C 
ATOM      2  H   UNL     1     -45.489  35.114  27.511  1.00  0.00     0.076 H 
ATOM      3  H   UNL     1     -45.962  36.050  26.104  1.00  0.00     0.076 H 
ENDROOT
BRANCH   1   4
ATOM      4  O   UNL     1     -46.684  36.798  27.838  1.00  0.00    -0.487 OA
BRANCH   4   5
ATOM      5  C   UNL     1     -46.136  38.007  27.527  1.00  0.00     0.140 A 
ATOM      6  C   UNL     1     -43.108  41.593  28.042  1.00  0.00     0.043 A 
ATOM      7  C   UNL     1     -43.764  42.364  27.095  1.00  0.00    -0.015 A 
ATOM      8  N   UNL     1     -43.518  40.353  28.357  1.00  0.00    -0.251 NA
ATOM      9  C   UNL     1     -44.889  41.862  26.408  1.00  0.00     0.067 A 
ATOM     10  H   UNL     1     -43.425  43.379  26.911  1.00  0.00     0.066 H 
ATOM     11  C   UNL     1     -44.606  39.869  27.735  1.00  0.00     0.095 A 
ATOM     12  C   UNL     1     -45.348  40.565  26.748  1.00  0.00     0.112 A 
ATOM     13  C   UNL     1     -45.021  38.596  28.104  1.00  0.00     0.010 A 
ATOM     14  N   UNL     1     -46.432  39.982  26.168  1.00  0.00    -0.249 NA
ATOM     15  H   UNL     1     -44.449  38.097  28.877  1.00  0.00     0.069 H 
ATOM     16  C   UNL     1     -46.796  38.741  26.562  1.00  0.00     0.070 A 
ATOM     17  H   UNL     1     -47.680  38.344  26.070  1.00  0.00     0.088 H 
BRANCH   6  18
ATOM     18  C   UNL     1     -41.926  42.140  28.798  1.00  0.00    -0.013 C 
ATOM     19  H   UNL     1     -42.176  43.117  29.227  1.00  0.00     0.033 H 
ATOM     20  H   UNL     1     -41.099  42.309  28.098  1.00  0.00     0.033 H 
BRANCH  18  21
ATOM     21  C   UNL     1     -41.474  41.187  29.894  1.00  0.00    -0.060 C 
ATOM     22  H   UNL     1     -40.407  41.320  30.094  1.00  0.00     0.023 H 
ATOM     23  H   UNL     1     -41.640  40.144  29.604  1.00  0.00     0.023 H 
ATOM     24  H   UNL     1     -42.020  41.366  30.827  1.00  0.00     0.023 H 
ENDBRANCH  18  21
ENDBRANCH   6  18
BRANCH   9  25
ATOM     25  N   UNL     1     -45.492  42.730  25.474  1.00  0.00    -0.365 N 
ATOM     26  C   UNL     1     -44.717  43.353  24.379  1.00  0.00     0.041 C 
ATOM     27  C   UNL     1     -46.552  43.633  25.985  1.00  0.00     0.041 C 
ATOM     28  C   UNL     1     -44.239  44.770  24.746  1.00  0.00     0.064 C 
ATOM     29  H   UNL     1     -43.903  42.718  24.020  1.00  0.00     0.052 H 
ATOM     30  H   UNL     1     -45.406  43.447  23.529  1.00  0.00     0.052 H 
ATOM     31  C   UNL     1     -45.974  45.018  26.317  1.00  0.00     0.064 C 
ATOM     32  H   UNL     1     -47.074  43.236  26.862  1.00  0.00     0.052 H 
ATOM     33  H   UNL     1     -47.301  43.741  25.191  1.00  0.00     0.052 H 
ATOM     34  O   UNL     1     -45.335  45.602  25.171  1.00  0.00    -0.378 OA
ATOM     35  H   UNL     1     -43.792  45.243  23.866  1.00  0.00     0.059 H 
ATOM     36  H   UNL     1     -43.485  44.771  25.538  1.00  0.00     0.059 H 
ATOM     37  H   UNL     1     -46.781  45.690  26.622  1.00  0.00     0.059 H 
ATOM     38  H   UNL     1     -45.253  44.962  27.142  1.00  0.00     0.059 H 
ENDBRANCH   9  25
ENDBRANCH   4   5
ENDBRANCH   1   4
BRANCH   1  39
ATOM     39  C   UNL     1     -47.472  34.715  26.740  1.00  0.00     0.010 A 
ATOM     40  C   UNL     1     -48.782  35.157  26.888  1.00  0.00     0.034 A 
ATOM     41  C   UNL     1     -47.294  33.400  26.291  1.00  0.00    -0.028 A 
ATOM     42  N   UNL     1     -49.872  34.405  26.621  1.00  0.00    -0.262 NA
ATOM     43  H   UNL     1     -49.004  36.162  27.238  1.00  0.00     0.084 H 
ATOM     44  C   UNL     1     -48.393  32.601  25.962  1.00  0.00     0.066 A 
ATOM     45  H   UNL     1     -46.286  33.007  26.221  1.00  0.00     0.065 H 
ATOM     46  C   UNL     1     -49.655  33.149  26.159  1.00  0.00     0.051 A 
ATOM     47  H   UNL     1     -50.573  32.618  25.924  1.00  0.00     0.086 H 
BRANCH  44  48
ATOM     48  N   UNL     1     -48.233  31.286  25.429  1.00  0.00    -0.299 N 
ATOM     49  C   UNL     1     -48.677  30.125  26.030  1.00  0.00     0.021 A 
ATOM     50  C   UNL     1     -47.636  30.926  24.218  1.00  0.00     0.150 A 
ATOM     51  C   UNL     1     -48.323  29.044  25.251  1.00  0.00     0.033 A 
ATOM     52  H   UNL     1     -49.168  30.127  26.993  1.00  0.00     0.083 H 
ATOM     53  C   UNL     1     -47.706  29.540  24.072  1.00  0.00     0.071 A 
ATOM     54  N   UNL     1     -47.121  31.774  23.304  1.00  0.00    -0.218 NA
ATOM     55  C   UNL     1     -47.207  29.012  22.868  1.00  0.00     0.137 A 
ATOM     56  C   UNL     1     -46.661  31.157  22.213  1.00  0.00     0.120 A 
ATOM     57  N   UNL     1     -46.676  29.841  21.951  1.00  0.00    -0.219 NA
ATOM     58  H   UNL     1     -46.233  31.794  21.445  1.00  0.00     0.106 H 
BRANCH  51  59
ATOM     59  C   UNL     1     -48.570  27.649  25.601  1.00  0.00     0.095 A 
ATOM     60  C   UNL     1     -49.799  26.972  25.454  1.00  0.00    -0.016 A 
ATOM     61  N   UNL     1     -47.603  26.840  26.047  1.00  0.00    -0.173 NA
ATOM     62  C   UNL     1     -49.544  25.686  25.870  1.00  0.00     0.025 A 
ATOM     63  H   UNL     1     -50.739  27.363  25.090  1.00  0.00     0.066 H 
ATOM     64  N   UNL     1     -48.224  25.657  26.210  1.00  0.00    -0.275 N 
ATOM     65  H   UNL     1     -50.176  24.810  25.937  1.00  0.00     0.084 H 
BRANCH  64  66
ATOM     66  C   UNL     1     -47.475  24.523  26.694  1.00  0.00     0.030 C 
ATOM     67  H   UNL     1     -46.439  24.627  26.361  1.00  0.00     0.048 H 
ATOM     68  H   UNL     1     -47.514  24.500  27.786  1.00  0.00     0.048 H 
ATOM     69  H   UNL     1     -47.922  23.615  26.284  1.00  0.00     0.048 H 
ENDBRANCH  64  66
ENDBRANCH  51  59
BRANCH  55  70
ATOM     70  N   UNL     1     -47.264  27.669  22.508  1.00  0.00    -0.383 N 
ATOM     71  H   UNL     1     -48.206  27.331  22.352  1.00  0.00     0.158 HD
ATOM     72  H   UNL     1     -46.617  27.500  21.746  1.00  0.00     0.158 HD
ENDBRANCH  55  70
ENDBRANCH  44  48
ENDBRANCH   1  39
TORSDOF 10
ENDMDL
