MODEL 1
REMARK VINA RESULT:     -10.1      0.000      0.000
REMARK SMILES CCc1cc(N(C)CC2CC2)c2ccc(OC[C@H]3O[C@@H](n4cc(-c5ccn(C)n5)c5c(N)ncnc54)[C@@H](F)[C@@H]3O)cc2n1
REMARK SMILES IDX 17 1 16 4 15 5 3 6 4 7 43 8 5 9 42 11 12 12 41 13 13 14
REMARK SMILES IDX 14 16 2 19 1 22 6 26 7 27 8 31 9 34 10 35 11 36 18 42 19 43
REMARK SMILES IDX 39 44 20 46 37 47 38 50 40 52 21 54 22 55 36 56 23 57 30 59
REMARK SMILES IDX 35 60 31 61 34 62 33 63 24 65 25 66 29 67 26 68 27 70 28 72
REMARK SMILES IDX 32 76
REMARK H PARENT 17 2 17 3 4 10 41 15 13 17 14 18 2 20 2 21 1 23 1 24 1 25 7 28
REMARK H PARENT 7 29 7 30 8 32 8 33 9 37 10 38 10 39 11 40 11 41 18 45 39 48
REMARK H PARENT 20 49 37 51 40 53 22 58 34 64 25 69 26 71 28 73 28 74 28 75
REMARK H PARENT 32 77 32 78
REMARK Flexibility Score: inf
ROOT
ATOM      1  C   UNL     1     -45.971  35.340  27.085  1.00  0.00     0.117 C 
ATOM      2  H   UNL     1     -45.090  35.923  26.795  1.00  0.00     0.073 H 
ATOM      3  H   UNL     1     -45.633  34.311  27.252  1.00  0.00     0.073 H 
ENDROOT
BRANCH   1   4
ATOM      4  O   UNL     1     -46.934  35.254  26.020  1.00  0.00    -0.491 OA
BRANCH   4   5
ATOM      5  C   UNL     1     -47.213  33.973  25.633  1.00  0.00     0.121 A 
ATOM      6  C   UNL     1     -46.220  30.101  23.077  1.00  0.00     0.043 A 
ATOM      7  C   UNL     1     -47.274  29.381  23.620  1.00  0.00    -0.016 A 
ATOM      8  N   UNL     1     -45.950  31.379  23.428  1.00  0.00    -0.253 NA
ATOM      9  C   UNL     1     -48.097  29.985  24.576  1.00  0.00     0.048 A 
ATOM     10  H   UNL     1     -47.439  28.355  23.311  1.00  0.00     0.066 H 
ATOM     11  C   UNL     1     -46.727  31.971  24.348  1.00  0.00     0.076 A 
ATOM     12  C   UNL     1     -47.820  31.322  24.962  1.00  0.00     0.024 A 
ATOM     13  C   UNL     1     -46.437  33.281  24.705  1.00  0.00     0.007 A 
ATOM     14  C   UNL     1     -48.584  32.025  25.921  1.00  0.00    -0.047 A 
ATOM     15  H   UNL     1     -45.570  33.756  24.255  1.00  0.00     0.069 H 
ATOM     16  C   UNL     1     -48.275  33.339  26.262  1.00  0.00    -0.019 A 
ATOM     17  H   UNL     1     -49.430  31.539  26.402  1.00  0.00     0.063 H 
ATOM     18  H   UNL     1     -48.866  33.866  27.005  1.00  0.00     0.066 H 
BRANCH   6  19
ATOM     19  C   UNL     1     -45.328  29.482  22.033  1.00  0.00    -0.013 C 
ATOM     20  H   UNL     1     -45.943  29.139  21.191  1.00  0.00     0.033 H 
ATOM     21  H   UNL     1     -44.643  30.238  21.631  1.00  0.00     0.033 H 
BRANCH  19  22
ATOM     22  C   UNL     1     -44.542  28.308  22.595  1.00  0.00    -0.060 C 
ATOM     23  H   UNL     1     -43.486  28.578  22.706  1.00  0.00     0.023 H 
ATOM     24  H   UNL     1     -44.920  28.011  23.578  1.00  0.00     0.023 H 
ATOM     25  H   UNL     1     -44.603  27.437  21.934  1.00  0.00     0.023 H 
ENDBRANCH  19  22
ENDBRANCH   6  19
BRANCH   9  26
ATOM     26  N   UNL     1     -49.171  29.280  25.189  1.00  0.00    -0.374 N 
BRANCH  26  27
ATOM     27  C   UNL     1     -50.132  28.724  24.233  1.00  0.00     0.006 C 
ATOM     28  H   UNL     1     -51.129  29.162  24.347  1.00  0.00     0.046 H 
ATOM     29  H   UNL     1     -49.794  28.916  23.210  1.00  0.00     0.046 H 
ATOM     30  H   UNL     1     -50.206  27.635  24.336  1.00  0.00     0.046 H 
ENDBRANCH  26  27
BRANCH  26  31
ATOM     31  C   UNL     1     -48.655  28.329  26.190  1.00  0.00     0.020 C 
ATOM     32  H   UNL     1     -47.654  28.629  26.528  1.00  0.00     0.050 H 
ATOM     33  H   UNL     1     -49.305  28.308  27.075  1.00  0.00     0.050 H 
BRANCH  31  34
ATOM     34  C   UNL     1     -48.642  26.940  25.618  1.00  0.00    -0.024 C 
ATOM     35  C   UNL     1     -47.368  26.134  25.542  1.00  0.00    -0.048 C 
ATOM     36  C   UNL     1     -48.437  25.754  26.528  1.00  0.00    -0.048 C 
ATOM     37  H   UNL     1     -49.371  26.827  24.823  1.00  0.00     0.032 H 
ATOM     38  H   UNL     1     -47.227  25.499  24.675  1.00  0.00     0.027 H 
ATOM     39  H   UNL     1     -46.453  26.565  25.928  1.00  0.00     0.027 H 
ATOM     40  H   UNL     1     -49.018  24.860  26.330  1.00  0.00     0.027 H 
ATOM     41  H   UNL     1     -48.244  25.930  27.580  1.00  0.00     0.027 H 
ENDBRANCH  31  34
ENDBRANCH  26  31
ENDBRANCH   9  26
ENDBRANCH   4   5
ENDBRANCH   1   4
BRANCH   1  42
ATOM     42  C   UNL     1     -46.614  35.902  28.366  1.00  0.00     0.123 C 
ATOM     43  O   UNL     1     -45.784  36.979  28.867  1.00  0.00    -0.345 OA
ATOM     44  C   UNL     1     -48.002  36.496  28.107  1.00  0.00     0.119 C 
ATOM     45  H   UNL     1     -46.647  35.138  29.149  1.00  0.00     0.067 H 
ATOM     46  C   UNL     1     -46.499  38.220  28.672  1.00  0.00     0.169 C 
ATOM     47  C   UNL     1     -47.684  37.931  27.760  1.00  0.00     0.173 C 
ATOM     48  H   UNL     1     -48.538  35.963  27.317  1.00  0.00     0.066 H 
ATOM     49  H   UNL     1     -46.834  38.538  29.668  1.00  0.00     0.088 H 
ATOM     50  F   UNL     1     -47.327  37.973  26.446  1.00  0.00    -0.239 F 
ATOM     51  H   UNL     1     -48.514  38.626  27.913  1.00  0.00     0.074 H 
BRANCH  44  52
ATOM     52  O   UNL     1     -48.797  36.443  29.296  1.00  0.00    -0.387 OA
ATOM     53  H   UNL     1     -49.553  35.852  29.125  1.00  0.00     0.211 HD
ENDBRANCH  44  52
BRANCH  46  54
ATOM     54  N   UNL     1     -45.604  39.245  28.164  1.00  0.00    -0.302 N 
ATOM     55  C   UNL     1     -45.790  40.037  27.060  1.00  0.00     0.019 A 
ATOM     56  C   UNL     1     -44.413  39.568  28.764  1.00  0.00     0.148 A 
ATOM     57  C   UNL     1     -44.702  40.884  26.951  1.00  0.00     0.033 A 
ATOM     58  H   UNL     1     -46.684  39.943  26.455  1.00  0.00     0.083 H 
ATOM     59  C   UNL     1     -43.805  40.575  28.023  1.00  0.00     0.071 A 
ATOM     60  N   UNL     1     -43.942  38.989  29.884  1.00  0.00    -0.218 NA
ATOM     61  C   UNL     1     -42.550  41.006  28.488  1.00  0.00     0.137 A 
ATOM     62  C   UNL     1     -42.753  39.505  30.237  1.00  0.00     0.120 A 
ATOM     63  N   UNL     1     -42.048  40.467  29.619  1.00  0.00    -0.219 NA
ATOM     64  H   UNL     1     -42.303  39.094  31.136  1.00  0.00     0.106 H 
BRANCH  57  65
ATOM     65  C   UNL     1     -44.517  41.920  25.928  1.00  0.00     0.095 A 
ATOM     66  C   UNL     1     -45.554  42.742  25.429  1.00  0.00    -0.016 A 
ATOM     67  N   UNL     1     -43.335  42.223  25.371  1.00  0.00    -0.173 NA
ATOM     68  C   UNL     1     -44.946  43.568  24.513  1.00  0.00     0.025 A 
ATOM     69  H   UNL     1     -46.601  42.732  25.695  1.00  0.00     0.066 H 
ATOM     70  N   UNL     1     -43.629  43.219  24.514  1.00  0.00    -0.275 N 
ATOM     71  H   UNL     1     -45.335  44.355  23.881  1.00  0.00     0.084 H 
BRANCH  70  72
ATOM     72  C   UNL     1     -42.578  43.798  23.713  1.00  0.00     0.030 C 
ATOM     73  H   UNL     1     -43.008  44.114  22.758  1.00  0.00     0.048 H 
ATOM     74  H   UNL     1     -41.808  43.041  23.555  1.00  0.00     0.048 H 
ATOM     75  H   UNL     1     -42.155  44.660  24.235  1.00  0.00     0.048 H 
ENDBRANCH  70  72
ENDBRANCH  57  65
BRANCH  61  76
ATOM     76  N   UNL     1     -41.773  41.967  27.857  1.00  0.00    -0.383 N 
ATOM     77  H   UNL     1     -40.862  41.601  27.565  1.00  0.00     0.158 HD
ATOM     78  H   UNL     1     -42.301  42.484  27.170  1.00  0.00     0.158 HD
ENDBRANCH  61  76
ENDBRANCH  46  54
ENDBRANCH   1  42
TORSDOF 14
ENDMDL
MODEL 2
REMARK VINA RESULT:      -8.5      1.693      2.599
REMARK SMILES CCc1cc(N(C)CC2CC2)c2ccc(OC[C@H]3O[C@@H](n4cc(-c5ccn(C)n5)c5c(N)ncnc54)[C@@H](F)[C@@H]3O)cc2n1
REMARK SMILES IDX 17 1 16 4 15 5 3 6 4 7 43 8 5 9 42 11 12 12 41 13 13 14
REMARK SMILES IDX 14 16 2 19 1 22 6 26 7 27 8 31 9 34 10 35 11 36 18 42 19 43
REMARK SMILES IDX 39 44 20 46 37 47 38 50 40 52 21 54 22 55 36 56 23 57 30 59
REMARK SMILES IDX 35 60 31 61 34 62 33 63 24 65 25 66 29 67 26 68 27 70 28 72
REMARK SMILES IDX 32 76
REMARK H PARENT 17 2 17 3 4 10 41 15 13 17 14 18 2 20 2 21 1 23 1 24 1 25 7 28
REMARK H PARENT 7 29 7 30 8 32 8 33 9 37 10 38 10 39 11 40 11 41 18 45 39 48
REMARK H PARENT 20 49 37 51 40 53 22 58 34 64 25 69 26 71 28 73 28 74 28 75
REMARK H PARENT 32 77 32 78
REMARK Flexibility Score: inf
ROOT
ATOM      1  C   UNL     1     -46.122  35.119  26.747  1.00  0.00     0.117 C 
ATOM      2  H   UNL     1     -46.107  35.998  26.095  1.00  0.00     0.073 H 
ATOM      3  H   UNL     1     -45.479  34.363  26.281  1.00  0.00     0.073 H 
ENDROOT
BRANCH   1   4
ATOM      4  O   UNL     1     -47.428  34.518  26.809  1.00  0.00    -0.491 OA
BRANCH   4   5
ATOM      5  C   UNL     1     -47.564  33.415  26.012  1.00  0.00     0.121 A 
ATOM      6  C   UNL     1     -46.323  30.869  22.205  1.00  0.00     0.043 A 
ATOM      7  C   UNL     1     -47.198  29.838  22.517  1.00  0.00    -0.016 A 
ATOM      8  N   UNL     1     -46.199  31.979  22.968  1.00  0.00    -0.253 NA
ATOM      9  C   UNL     1     -47.987  29.933  23.668  1.00  0.00     0.048 A 
ATOM     10  H   UNL     1     -47.249  28.966  21.875  1.00  0.00     0.066 H 
ATOM     11  C   UNL     1     -46.945  32.082  24.079  1.00  0.00     0.076 A 
ATOM     12  C   UNL     1     -47.861  31.086  24.484  1.00  0.00     0.024 A 
ATOM     13  C   UNL     1     -46.806  33.223  24.858  1.00  0.00     0.007 A 
ATOM     14  C   UNL     1     -48.605  31.282  25.669  1.00  0.00    -0.047 A 
ATOM     15  H   UNL     1     -46.070  33.963  24.557  1.00  0.00     0.069 H 
ATOM     16  C   UNL     1     -48.449  32.434  26.434  1.00  0.00    -0.019 A 
ATOM     17  H   UNL     1     -49.316  30.524  25.994  1.00  0.00     0.063 H 
ATOM     18  H   UNL     1     -49.023  32.569  27.347  1.00  0.00     0.066 H 
BRANCH   6  19
ATOM     19  C   UNL     1     -45.474  30.803  20.962  1.00  0.00    -0.013 C 
ATOM     20  H   UNL     1     -44.440  31.062  21.219  1.00  0.00     0.033 H 
ATOM     21  H   UNL     1     -45.453  29.776  20.579  1.00  0.00     0.033 H 
BRANCH  19  22
ATOM     22  C   UNL     1     -45.982  31.753  19.889  1.00  0.00    -0.060 C 
ATOM     23  H   UNL     1     -46.144  32.750  20.311  1.00  0.00     0.023 H 
ATOM     24  H   UNL     1     -45.264  31.846  19.068  1.00  0.00     0.023 H 
ATOM     25  H   UNL     1     -46.930  31.403  19.467  1.00  0.00     0.023 H 
ENDBRANCH  19  22
ENDBRANCH   6  19
BRANCH   9  26
ATOM     26  N   UNL     1     -48.876  28.889  24.051  1.00  0.00    -0.374 N 
BRANCH  26  27
ATOM     27  C   UNL     1     -50.204  28.994  23.442  1.00  0.00     0.006 C 
ATOM     28  H   UNL     1     -50.584  28.022  23.109  1.00  0.00     0.046 H 
ATOM     29  H   UNL     1     -50.915  29.403  24.166  1.00  0.00     0.046 H 
ATOM     30  H   UNL     1     -50.195  29.685  22.591  1.00  0.00     0.046 H 
ENDBRANCH  26  27
BRANCH  26  31
ATOM     31  C   UNL     1     -48.218  27.578  23.907  1.00  0.00     0.020 C 
ATOM     32  H   UNL     1     -48.951  26.805  23.641  1.00  0.00     0.050 H 
ATOM     33  H   UNL     1     -47.469  27.607  23.105  1.00  0.00     0.050 H 
BRANCH  31  34
ATOM     34  C   UNL     1     -47.494  27.226  25.176  1.00  0.00    -0.024 C 
ATOM     35  C   UNL     1     -47.542  25.829  25.747  1.00  0.00    -0.048 C 
ATOM     36  C   UNL     1     -46.273  26.341  25.125  1.00  0.00    -0.048 C 
ATOM     37  H   UNL     1     -47.463  28.063  25.865  1.00  0.00     0.032 H 
ATOM     38  H   UNL     1     -47.576  25.729  26.826  1.00  0.00     0.027 H 
ATOM     39  H   UNL     1     -48.096  25.066  25.214  1.00  0.00     0.027 H 
ATOM     40  H   UNL     1     -45.446  26.583  25.782  1.00  0.00     0.027 H 
ATOM     41  H   UNL     1     -45.971  25.923  24.171  1.00  0.00     0.027 H 
ENDBRANCH  31  34
ENDBRANCH  26  31
ENDBRANCH   9  26
ENDBRANCH   4   5
ENDBRANCH   1   4
BRANCH   1  42
ATOM     42  C   UNL     1     -45.605  35.461  28.156  1.00  0.00     0.123 C 
ATOM     43  O   UNL     1     -44.906  36.729  28.097  1.00  0.00    -0.345 OA
ATOM     44  C   UNL     1     -46.743  35.629  29.168  1.00  0.00     0.119 C 
ATOM     45  H   UNL     1     -44.879  34.715  28.493  1.00  0.00     0.067 H 
ATOM     46  C   UNL     1     -45.703  37.710  28.796  1.00  0.00     0.169 C 
ATOM     47  C   UNL     1     -47.075  37.097  29.045  1.00  0.00     0.173 C 
ATOM     48  H   UNL     1     -47.588  34.970  28.952  1.00  0.00     0.066 H 
ATOM     49  H   UNL     1     -45.182  37.910  29.741  1.00  0.00     0.088 H 
ATOM     50  F   UNL     1     -47.896  37.251  27.968  1.00  0.00    -0.239 F 
ATOM     51  H   UNL     1     -47.574  37.521  29.921  1.00  0.00     0.074 H 
BRANCH  44  52
ATOM     52  O   UNL     1     -46.281  35.339  30.491  1.00  0.00    -0.387 OA
ATOM     53  H   UNL     1     -45.955  34.421  30.501  1.00  0.00     0.211 HD
ENDBRANCH  44  52
BRANCH  46  54
ATOM     54  N   UNL     1     -45.744  38.955  28.048  1.00  0.00    -0.302 N 
ATOM     55  C   UNL     1     -44.700  39.578  27.415  1.00  0.00     0.019 A 
ATOM     56  C   UNL     1     -46.892  39.684  27.866  1.00  0.00     0.148 A 
ATOM     57  C   UNL     1     -45.185  40.726  26.814  1.00  0.00     0.033 A 
ATOM     58  H   UNL     1     -43.705  39.148  27.431  1.00  0.00     0.083 H 
ATOM     59  C   UNL     1     -46.582  40.815  27.117  1.00  0.00     0.071 A 
ATOM     60  N   UNL     1     -48.101  39.336  28.343  1.00  0.00    -0.218 NA
ATOM     61  C   UNL     1     -47.649  41.694  26.864  1.00  0.00     0.137 A 
ATOM     62  C   UNL     1     -49.036  40.241  28.011  1.00  0.00     0.120 A 
ATOM     63  N   UNL     1     -48.883  41.374  27.306  1.00  0.00    -0.219 NA
ATOM     64  H   UNL     1     -50.045  40.033  28.356  1.00  0.00     0.106 H 
BRANCH  57  65
ATOM     65  C   UNL     1     -44.406  41.668  26.002  1.00  0.00     0.095 A 
ATOM     66  C   UNL     1     -43.097  42.099  26.318  1.00  0.00    -0.016 A 
ATOM     67  N   UNL     1     -44.839  42.203  24.851  1.00  0.00    -0.173 NA
ATOM     68  C   UNL     1     -42.746  42.951  25.297  1.00  0.00     0.025 A 
ATOM     69  H   UNL     1     -42.493  41.832  27.173  1.00  0.00     0.066 H 
ATOM     70  N   UNL     1     -43.814  42.981  24.453  1.00  0.00    -0.275 N 
ATOM     71  H   UNL     1     -41.845  43.521  25.111  1.00  0.00     0.084 H 
BRANCH  70  72
ATOM     72  C   UNL     1     -43.932  43.738  23.231  1.00  0.00     0.030 C 
ATOM     73  H   UNL     1     -43.995  44.800  23.488  1.00  0.00     0.048 H 
ATOM     74  H   UNL     1     -44.837  43.415  22.711  1.00  0.00     0.048 H 
ATOM     75  H   UNL     1     -43.056  43.559  22.604  1.00  0.00     0.048 H 
ENDBRANCH  70  72
ENDBRANCH  57  65
BRANCH  61  76
ATOM     76  N   UNL     1     -47.525  42.892  26.174  1.00  0.00    -0.383 N 
ATOM     77  H   UNL     1     -48.428  43.248  25.848  1.00  0.00     0.158 HD
ATOM     78  H   UNL     1     -46.922  43.541  26.656  1.00  0.00     0.158 HD
ENDBRANCH  61  76
ENDBRANCH  46  54
ENDBRANCH   1  42
TORSDOF 14
ENDMDL
MODEL 3
REMARK VINA RESULT:      -8.3      2.514      3.482
REMARK SMILES CCc1cc(N(C)CC2CC2)c2ccc(OC[C@H]3O[C@@H](n4cc(-c5ccn(C)n5)c5c(N)ncnc54)[C@@H](F)[C@@H]3O)cc2n1
REMARK SMILES IDX 17 1 16 4 15 5 3 6 4 7 43 8 5 9 42 11 12 12 41 13 13 14
REMARK SMILES IDX 14 16 2 19 1 22 6 26 7 27 8 31 9 34 10 35 11 36 18 42 19 43
REMARK SMILES IDX 39 44 20 46 37 47 38 50 40 52 21 54 22 55 36 56 23 57 30 59
REMARK SMILES IDX 35 60 31 61 34 62 33 63 24 65 25 66 29 67 26 68 27 70 28 72
REMARK SMILES IDX 32 76
REMARK H PARENT 17 2 17 3 4 10 41 15 13 17 14 18 2 20 2 21 1 23 1 24 1 25 7 28
REMARK H PARENT 7 29 7 30 8 32 8 33 9 37 10 38 10 39 11 40 11 41 18 45 39 48
REMARK H PARENT 20 49 37 51 40 53 22 58 34 64 25 69 26 71 28 73 28 74 28 75
REMARK H PARENT 32 77 32 78
REMARK Flexibility Score: inf
ROOT
ATOM      1  C   UNL     1     -46.457  35.278  26.686  1.00  0.00     0.117 C 
ATOM      2  H   UNL     1     -46.615  36.144  26.034  1.00  0.00     0.073 H 
ATOM      3  H   UNL     1     -45.801  34.586  26.145  1.00  0.00     0.073 H 
ENDROOT
BRANCH   1   4
ATOM      4  O   UNL     1     -47.674  34.546  26.912  1.00  0.00    -0.491 OA
BRANCH   4   5
ATOM      5  C   UNL     1     -47.899  33.556  25.997  1.00  0.00     0.121 A 
ATOM      6  C   UNL     1     -46.325  30.455  22.769  1.00  0.00     0.043 A 
ATOM      7  C   UNL     1     -47.590  29.927  22.550  1.00  0.00    -0.016 A 
ATOM      8  N   UNL     1     -46.093  31.455  23.649  1.00  0.00    -0.253 NA
ATOM      9  C   UNL     1     -48.678  30.435  23.266  1.00  0.00     0.048 A 
ATOM     10  H   UNL     1     -47.717  29.118  21.840  1.00  0.00     0.066 H 
ATOM     11  C   UNL     1     -47.126  31.950  24.348  1.00  0.00     0.076 A 
ATOM     12  C   UNL     1     -48.448  31.478  24.200  1.00  0.00     0.024 A 
ATOM     13  C   UNL     1     -46.875  32.972  25.253  1.00  0.00     0.007 A 
ATOM     14  C   UNL     1     -49.474  32.060  24.979  1.00  0.00    -0.047 A 
ATOM     15  H   UNL     1     -45.847  33.299  25.386  1.00  0.00     0.069 H 
ATOM     16  C   UNL     1     -49.199  33.085  25.880  1.00  0.00    -0.019 A 
ATOM     17  H   UNL     1     -50.499  31.708  24.876  1.00  0.00     0.063 H 
ATOM     18  H   UNL     1     -49.995  33.519  26.477  1.00  0.00     0.066 H 
BRANCH   6  19
ATOM     19  C   UNL     1     -45.137  29.939  21.999  1.00  0.00    -0.013 C 
ATOM     20  H   UNL     1     -45.407  29.846  20.940  1.00  0.00     0.033 H 
ATOM     21  H   UNL     1     -44.317  30.665  22.049  1.00  0.00     0.033 H 
BRANCH  19  22
ATOM     22  C   UNL     1     -44.675  28.590  22.525  1.00  0.00    -0.060 C 
ATOM     23  H   UNL     1     -44.254  28.699  23.530  1.00  0.00     0.023 H 
ATOM     24  H   UNL     1     -45.506  27.879  22.581  1.00  0.00     0.023 H 
ATOM     25  H   UNL     1     -43.905  28.155  21.878  1.00  0.00     0.023 H 
ENDBRANCH  19  22
ENDBRANCH   6  19
BRANCH   9  26
ATOM     26  N   UNL     1     -49.990  29.907  23.104  1.00  0.00    -0.374 N 
BRANCH  26  27
ATOM     27  C   UNL     1     -50.826  30.679  22.181  1.00  0.00     0.006 C 
ATOM     28  H   UNL     1     -50.349  30.812  21.204  1.00  0.00     0.046 H 
ATOM     29  H   UNL     1     -51.780  30.166  22.024  1.00  0.00     0.046 H 
ATOM     30  H   UNL     1     -51.068  31.664  22.597  1.00  0.00     0.046 H 
ENDBRANCH  26  27
BRANCH  26  31
ATOM     31  C   UNL     1     -49.930  28.459  22.839  1.00  0.00     0.020 C 
ATOM     32  H   UNL     1     -48.887  28.115  22.806  1.00  0.00     0.050 H 
ATOM     33  H   UNL     1     -50.433  27.898  23.638  1.00  0.00     0.050 H 
BRANCH  31  34
ATOM     34  C   UNL     1     -50.647  28.142  21.557  1.00  0.00    -0.024 C 
ATOM     35  C   UNL     1     -50.120  27.100  20.599  1.00  0.00    -0.048 C 
ATOM     36  C   UNL     1     -51.361  26.822  21.401  1.00  0.00    -0.048 C 
ATOM     37  H   UNL     1     -51.138  29.017  21.147  1.00  0.00     0.032 H 
ATOM     38  H   UNL     1     -50.232  27.292  19.538  1.00  0.00     0.027 H 
ATOM     39  H   UNL     1     -49.217  26.560  20.859  1.00  0.00     0.027 H 
ATOM     40  H   UNL     1     -52.313  26.822  20.882  1.00  0.00     0.027 H 
ATOM     41  H   UNL     1     -51.296  26.095  22.203  1.00  0.00     0.027 H 
ENDBRANCH  31  34
ENDBRANCH  26  31
ENDBRANCH   9  26
ENDBRANCH   4   5
ENDBRANCH   1   4
BRANCH   1  42
ATOM     42  C   UNL     1     -45.807  35.695  28.018  1.00  0.00     0.123 C 
ATOM     43  O   UNL     1     -45.408  37.084  27.924  1.00  0.00    -0.345 OA
ATOM     44  C   UNL     1     -46.782  35.593  29.196  1.00  0.00     0.119 C 
ATOM     45  H   UNL     1     -44.898  35.116  28.203  1.00  0.00     0.067 H 
ATOM     46  C   UNL     1     -46.273  37.857  28.785  1.00  0.00     0.169 C 
ATOM     47  C   UNL     1     -47.430  36.957  29.203  1.00  0.00     0.173 C 
ATOM     48  H   UNL     1     -47.494  34.772  29.074  1.00  0.00     0.066 H 
ATOM     49  H   UNL     1     -45.664  38.145  29.651  1.00  0.00     0.088 H 
ATOM     50  F   UNL     1     -48.423  36.953  28.271  1.00  0.00    -0.239 F 
ATOM     51  H   UNL     1     -47.862  37.246  30.165  1.00  0.00     0.074 H 
BRANCH  44  52
ATOM     52  O   UNL     1     -46.068  35.383  30.418  1.00  0.00    -0.387 OA
ATOM     53  H   UNL     1     -45.559  34.557  30.330  1.00  0.00     0.211 HD
ENDBRANCH  44  52
BRANCH  46  54
ATOM     54  N   UNL     1     -46.691  39.078  28.119  1.00  0.00    -0.302 N 
ATOM     55  C   UNL     1     -47.950  39.621  28.093  1.00  0.00     0.019 A 
ATOM     56  C   UNL     1     -45.832  39.880  27.412  1.00  0.00     0.148 A 
ATOM     57  C   UNL     1     -47.898  40.792  27.359  1.00  0.00     0.033 A 
ATOM     58  H   UNL     1     -48.772  39.139  28.609  1.00  0.00     0.083 H 
ATOM     59  C   UNL     1     -46.552  40.954  26.899  1.00  0.00     0.071 A 
ATOM     60  N   UNL     1     -44.516  39.641  27.260  1.00  0.00    -0.218 NA
ATOM     61  C   UNL     1     -45.820  41.865  26.116  1.00  0.00     0.137 A 
ATOM     62  C   UNL     1     -43.929  40.594  26.517  1.00  0.00     0.120 A 
ATOM     63  N   UNL     1     -44.494  41.675  25.954  1.00  0.00    -0.219 NA
ATOM     64  H   UNL     1     -42.862  40.478  26.349  1.00  0.00     0.106 H 
BRANCH  57  65
ATOM     65  C   UNL     1     -49.020  41.706  27.114  1.00  0.00     0.095 A 
ATOM     66  C   UNL     1     -49.952  42.105  28.100  1.00  0.00    -0.016 A 
ATOM     67  N   UNL     1     -49.270  42.288  25.933  1.00  0.00    -0.173 NA
ATOM     68  C   UNL     1     -50.811  42.963  27.453  1.00  0.00     0.025 A 
ATOM     69  H   UNL     1     -49.998  41.806  29.137  1.00  0.00     0.066 H 
ATOM     70  N   UNL     1     -50.365  43.037  26.168  1.00  0.00    -0.275 N 
ATOM     71  H   UNL     1     -51.677  43.511  27.797  1.00  0.00     0.084 H 
BRANCH  70  72
ATOM     72  C   UNL     1     -50.938  43.812  25.095  1.00  0.00     0.030 C 
ATOM     73  H   UNL     1     -51.965  43.469  24.934  1.00  0.00     0.048 H 
ATOM     74  H   UNL     1     -50.336  43.656  24.197  1.00  0.00     0.048 H 
ATOM     75  H   UNL     1     -50.937  44.869  25.368  1.00  0.00     0.048 H 
ENDBRANCH  70  72
ENDBRANCH  57  65
BRANCH  61  76
ATOM     76  N   UNL     1     -46.374  42.970  25.486  1.00  0.00    -0.383 N 
ATOM     77  H   UNL     1     -45.676  43.693  25.286  1.00  0.00     0.158 HD
ATOM     78  H   UNL     1     -46.988  42.703  24.731  1.00  0.00     0.158 HD
ENDBRANCH  61  76
ENDBRANCH  46  54
ENDBRANCH   1  42
TORSDOF 14
ENDMDL
MODEL 4
REMARK VINA RESULT:      -8.3      1.785      3.224
REMARK SMILES CCc1cc(N(C)CC2CC2)c2ccc(OC[C@H]3O[C@@H](n4cc(-c5ccn(C)n5)c5c(N)ncnc54)[C@@H](F)[C@@H]3O)cc2n1
REMARK SMILES IDX 17 1 16 4 15 5 3 6 4 7 43 8 5 9 42 11 12 12 41 13 13 14
REMARK SMILES IDX 14 16 2 19 1 22 6 26 7 27 8 31 9 34 10 35 11 36 18 42 19 43
REMARK SMILES IDX 39 44 20 46 37 47 38 50 40 52 21 54 22 55 36 56 23 57 30 59
REMARK SMILES IDX 35 60 31 61 34 62 33 63 24 65 25 66 29 67 26 68 27 70 28 72
REMARK SMILES IDX 32 76
REMARK H PARENT 17 2 17 3 4 10 41 15 13 17 14 18 2 20 2 21 1 23 1 24 1 25 7 28
REMARK H PARENT 7 29 7 30 8 32 8 33 9 37 10 38 10 39 11 40 11 41 18 45 39 48
REMARK H PARENT 20 49 37 51 40 53 22 58 34 64 25 69 26 71 28 73 28 74 28 75
REMARK H PARENT 32 77 32 78
REMARK Flexibility Score: inf
ROOT
ATOM      1  C   UNL     1     -46.297  34.772  27.534  1.00  0.00     0.117 C 
ATOM      2  H   UNL     1     -46.311  35.008  26.464  1.00  0.00     0.073 H 
ATOM      3  H   UNL     1     -45.329  35.107  27.923  1.00  0.00     0.073 H 
ENDROOT
BRANCH   1   4
ATOM      4  O   UNL     1     -46.330  33.354  27.772  1.00  0.00    -0.491 OA
BRANCH   4   5
ATOM      5  C   UNL     1     -46.699  32.621  26.677  1.00  0.00     0.121 A 
ATOM      6  C   UNL     1     -49.069  29.015  24.706  1.00  0.00     0.043 A 
ATOM      7  C   UNL     1     -48.679  29.363  23.421  1.00  0.00    -0.016 A 
ATOM      8  N   UNL     1     -48.688  29.712  25.800  1.00  0.00    -0.253 NA
ATOM      9  C   UNL     1     -47.862  30.482  23.232  1.00  0.00     0.048 A 
ATOM     10  H   UNL     1     -49.023  28.774  22.578  1.00  0.00     0.066 H 
ATOM     11  C   UNL     1     -47.909  30.793  25.635  1.00  0.00     0.076 A 
ATOM     12  C   UNL     1     -47.462  31.230  24.369  1.00  0.00     0.024 A 
ATOM     13  C   UNL     1     -47.528  31.504  26.765  1.00  0.00     0.007 A 
ATOM     14  C   UNL     1     -46.643  32.379  24.292  1.00  0.00    -0.047 A 
ATOM     15  H   UNL     1     -47.911  31.181  27.728  1.00  0.00     0.069 H 
ATOM     16  C   UNL     1     -46.273  33.076  25.438  1.00  0.00    -0.019 A 
ATOM     17  H   UNL     1     -46.289  32.728  23.323  1.00  0.00     0.063 H 
ATOM     18  H   UNL     1     -45.648  33.962  25.364  1.00  0.00     0.066 H 
BRANCH   6  19
ATOM     19  C   UNL     1     -49.934  27.804  24.942  1.00  0.00    -0.013 C 
ATOM     20  H   UNL     1     -50.986  28.113  24.975  1.00  0.00     0.033 H 
ATOM     21  H   UNL     1     -49.841  27.109  24.099  1.00  0.00     0.033 H 
BRANCH  19  22
ATOM     22  C   UNL     1     -49.571  27.103  26.241  1.00  0.00    -0.060 C 
ATOM     23  H   UNL     1     -48.720  27.603  26.715  1.00  0.00     0.023 H 
ATOM     24  H   UNL     1     -50.407  27.115  26.947  1.00  0.00     0.023 H 
ATOM     25  H   UNL     1     -49.296  26.057  26.064  1.00  0.00     0.023 H 
ENDBRANCH  19  22
ENDBRANCH   6  19
BRANCH   9  26
ATOM     26  N   UNL     1     -47.460  30.902  21.932  1.00  0.00    -0.374 N 
BRANCH  26  27
ATOM     27  C   UNL     1     -46.025  30.749  21.682  1.00  0.00     0.006 C 
ATOM     28  H   UNL     1     -45.417  31.257  22.437  1.00  0.00     0.046 H 
ATOM     29  H   UNL     1     -45.755  29.688  21.690  1.00  0.00     0.046 H 
ATOM     30  H   UNL     1     -45.754  31.130  20.690  1.00  0.00     0.046 H 
ENDBRANCH  26  27
BRANCH  26  31
ATOM     31  C   UNL     1     -48.345  30.316  20.909  1.00  0.00     0.020 C 
ATOM     32  H   UNL     1     -47.774  30.056  20.008  1.00  0.00     0.050 H 
ATOM     33  H   UNL     1     -48.806  29.392  21.281  1.00  0.00     0.050 H 
BRANCH  31  34
ATOM     34  C   UNL     1     -49.460  31.270  20.589  1.00  0.00    -0.024 C 
ATOM     35  C   UNL     1     -50.440  30.987  19.476  1.00  0.00    -0.048 C 
ATOM     36  C   UNL     1     -50.886  30.894  20.908  1.00  0.00    -0.048 C 
ATOM     37  H   UNL     1     -49.172  32.299  20.772  1.00  0.00     0.032 H 
ATOM     38  H   UNL     1     -50.789  31.829  18.888  1.00  0.00     0.027 H 
ATOM     39  H   UNL     1     -50.343  30.065  18.915  1.00  0.00     0.027 H 
ATOM     40  H   UNL     1     -51.539  31.671  21.290  1.00  0.00     0.027 H 
ATOM     41  H   UNL     1     -51.088  29.909  21.315  1.00  0.00     0.027 H 
ENDBRANCH  31  34
ENDBRANCH  26  31
ENDBRANCH   9  26
ENDBRANCH   4   5
ENDBRANCH   1   4
BRANCH   1  42
ATOM     42  C   UNL     1     -47.444  35.483  28.276  1.00  0.00     0.123 C 
ATOM     43  O   UNL     1     -46.904  36.640  28.961  1.00  0.00    -0.345 OA
ATOM     44  C   UNL     1     -48.524  35.999  27.319  1.00  0.00     0.119 C 
ATOM     45  H   UNL     1     -47.870  34.830  29.043  1.00  0.00     0.067 H 
ATOM     46  C   UNL     1     -47.395  37.823  28.293  1.00  0.00     0.169 C 
ATOM     47  C   UNL     1     -48.024  37.382  26.977  1.00  0.00     0.173 C 
ATOM     48  H   UNL     1     -48.646  35.351  26.446  1.00  0.00     0.066 H 
ATOM     49  H   UNL     1     -48.146  38.262  28.963  1.00  0.00     0.088 H 
ATOM     50  F   UNL     1     -47.090  37.258  25.993  1.00  0.00    -0.239 F 
ATOM     51  H   UNL     1     -48.800  38.069  26.630  1.00  0.00     0.074 H 
BRANCH  44  52
ATOM     52  O   UNL     1     -49.785  36.084  27.989  1.00  0.00    -0.387 OA
ATOM     53  H   UNL     1     -49.946  37.019  28.207  1.00  0.00     0.211 HD
ENDBRANCH  44  52
BRANCH  46  54
ATOM     54  N   UNL     1     -46.327  38.795  28.136  1.00  0.00    -0.302 N 
ATOM     55  C   UNL     1     -46.239  39.787  27.194  1.00  0.00     0.019 A 
ATOM     56  C   UNL     1     -45.232  38.847  28.961  1.00  0.00     0.148 A 
ATOM     57  C   UNL     1     -45.068  40.489  27.418  1.00  0.00     0.033 A 
ATOM     58  H   UNL     1     -47.019  39.920  26.454  1.00  0.00     0.083 H 
ATOM     59  C   UNL     1     -44.406  39.881  28.531  1.00  0.00     0.071 A 
ATOM     60  N   UNL     1     -45.022  38.023  30.004  1.00  0.00    -0.218 NA
ATOM     61  C   UNL     1     -43.213  40.054  29.256  1.00  0.00     0.137 A 
ATOM     62  C   UNL     1     -43.867  38.308  30.627  1.00  0.00     0.120 A 
ATOM     63  N   UNL     1     -42.971  39.263  30.322  1.00  0.00    -0.219 NA
ATOM     64  H   UNL     1     -43.622  37.689  31.485  1.00  0.00     0.106 H 
BRANCH  57  65
ATOM     65  C   UNL     1     -44.605  41.656  26.657  1.00  0.00     0.095 A 
ATOM     66  C   UNL     1     -43.487  41.651  25.791  1.00  0.00    -0.016 A 
ATOM     67  N   UNL     1     -45.210  42.852  26.675  1.00  0.00    -0.173 NA
ATOM     68  C   UNL     1     -43.424  42.926  25.281  1.00  0.00     0.025 A 
ATOM     69  H   UNL     1     -42.816  40.833  25.571  1.00  0.00     0.066 H 
ATOM     70  N   UNL     1     -44.467  43.602  25.839  1.00  0.00    -0.275 N 
ATOM     71  H   UNL     1     -42.739  43.392  24.586  1.00  0.00     0.084 H 
BRANCH  70  72
ATOM     72  C   UNL     1     -44.823  44.982  25.618  1.00  0.00     0.030 C 
ATOM     73  H   UNL     1     -45.834  45.014  25.203  1.00  0.00     0.048 H 
ATOM     74  H   UNL     1     -44.106  45.415  24.916  1.00  0.00     0.048 H 
ATOM     75  H   UNL     1     -44.792  45.523  26.566  1.00  0.00     0.048 H 
ENDBRANCH  70  72
ENDBRANCH  57  65
BRANCH  61  76
ATOM     76  N   UNL     1     -42.246  41.001  28.950  1.00  0.00    -0.383 N 
ATOM     77  H   UNL     1     -41.902  41.488  29.783  1.00  0.00     0.158 HD
ATOM     78  H   UNL     1     -41.554  40.638  28.312  1.00  0.00     0.158 HD
ENDBRANCH  61  76
ENDBRANCH  46  54
ENDBRANCH   1  42
TORSDOF 14
ENDMDL
MODEL 5
REMARK VINA RESULT:      -8.1      3.809      7.805
REMARK SMILES CCc1cc(N(C)CC2CC2)c2ccc(OC[C@H]3O[C@@H](n4cc(-c5ccn(C)n5)c5c(N)ncnc54)[C@@H](F)[C@@H]3O)cc2n1
REMARK SMILES IDX 17 1 16 4 15 5 3 6 4 7 43 8 5 9 42 11 12 12 41 13 13 14
REMARK SMILES IDX 14 16 2 19 1 22 6 26 7 27 8 31 9 34 10 35 11 36 18 42 19 43
REMARK SMILES IDX 39 44 20 46 37 47 38 50 40 52 21 54 22 55 36 56 23 57 30 59
REMARK SMILES IDX 35 60 31 61 34 62 33 63 24 65 25 66 29 67 26 68 27 70 28 72
REMARK SMILES IDX 32 76
REMARK H PARENT 17 2 17 3 4 10 41 15 13 17 14 18 2 20 2 21 1 23 1 24 1 25 7 28
REMARK H PARENT 7 29 7 30 8 32 8 33 9 37 10 38 10 39 11 40 11 41 18 45 39 48
REMARK H PARENT 20 49 37 51 40 53 22 58 34 64 25 69 26 71 28 73 28 74 28 75
REMARK H PARENT 32 77 32 78
REMARK Flexibility Score: inf
ROOT
ATOM      1  C   UNL     1     -43.703  41.428  27.481  1.00  0.00     0.117 C 
ATOM      2  H   UNL     1     -43.282  40.433  27.659  1.00  0.00     0.073 H 
ATOM      3  H   UNL     1     -43.442  42.047  28.347  1.00  0.00     0.073 H 
ENDROOT
BRANCH   1   4
ATOM      4  O   UNL     1     -45.141  41.406  27.451  1.00  0.00    -0.491 OA
BRANCH   4   5
ATOM      5  C   UNL     1     -45.672  40.146  27.465  1.00  0.00     0.121 A 
ATOM      6  C   UNL     1     -49.366  37.206  27.933  1.00  0.00     0.043 A 
ATOM      7  C   UNL     1     -48.601  36.081  27.661  1.00  0.00    -0.016 A 
ATOM      8  N   UNL     1     -48.849  38.455  27.952  1.00  0.00    -0.253 NA
ATOM      9  C   UNL     1     -47.237  36.229  27.388  1.00  0.00     0.048 A 
ATOM     10  H   UNL     1     -49.070  35.104  27.647  1.00  0.00     0.066 H 
ATOM     11  C   UNL     1     -47.542  38.614  27.687  1.00  0.00     0.076 A 
ATOM     12  C   UNL     1     -46.682  37.534  27.395  1.00  0.00     0.024 A 
ATOM     13  C   UNL     1     -47.023  39.902  27.704  1.00  0.00     0.007 A 
ATOM     14  C   UNL     1     -45.319  37.797  27.129  1.00  0.00    -0.047 A 
ATOM     15  H   UNL     1     -47.704  40.727  27.891  1.00  0.00     0.069 H 
ATOM     16  C   UNL     1     -44.820  39.096  27.153  1.00  0.00    -0.019 A 
ATOM     17  H   UNL     1     -44.642  36.975  26.903  1.00  0.00     0.063 H 
ATOM     18  H   UNL     1     -43.772  39.286  26.940  1.00  0.00     0.066 H 
BRANCH   6  19
ATOM     19  C   UNL     1     -50.834  37.075  28.248  1.00  0.00    -0.013 C 
ATOM     20  H   UNL     1     -50.950  36.631  29.244  1.00  0.00     0.033 H 
ATOM     21  H   UNL     1     -51.296  38.068  28.293  1.00  0.00     0.033 H 
BRANCH  19  22
ATOM     22  C   UNL     1     -51.549  36.210  27.222  1.00  0.00    -0.060 C 
ATOM     23  H   UNL     1     -50.842  35.522  26.747  1.00  0.00     0.023 H 
ATOM     24  H   UNL     1     -52.341  35.615  27.686  1.00  0.00     0.023 H 
ATOM     25  H   UNL     1     -52.007  36.823  26.437  1.00  0.00     0.023 H 
ENDBRANCH  19  22
ENDBRANCH   6  19
BRANCH   9  26
ATOM     26  N   UNL     1     -46.414  35.111  27.071  1.00  0.00    -0.374 N 
BRANCH  26  27
ATOM     27  C   UNL     1     -46.235  34.177  28.185  1.00  0.00     0.006 C 
ATOM     28  H   UNL     1     -46.729  33.217  28.003  1.00  0.00     0.046 H 
ATOM     29  H   UNL     1     -45.169  33.983  28.341  1.00  0.00     0.046 H 
ATOM     30  H   UNL     1     -46.614  34.602  29.122  1.00  0.00     0.046 H 
ENDBRANCH  26  27
BRANCH  26  31
ATOM     31  C   UNL     1     -46.845  34.502  25.800  1.00  0.00     0.020 C 
ATOM     32  H   UNL     1     -47.857  34.837  25.534  1.00  0.00     0.050 H 
ATOM     33  H   UNL     1     -46.177  34.801  24.981  1.00  0.00     0.050 H 
BRANCH  31  34
ATOM     34  C   UNL     1     -46.778  33.005  25.900  1.00  0.00    -0.024 C 
ATOM     35  C   UNL     1     -47.782  32.124  25.196  1.00  0.00    -0.048 C 
ATOM     36  C   UNL     1     -46.364  32.188  24.701  1.00  0.00    -0.048 C 
ATOM     37  H   UNL     1     -46.401  32.685  26.865  1.00  0.00     0.032 H 
ATOM     38  H   UNL     1     -48.104  31.223  25.704  1.00  0.00     0.027 H 
ATOM     39  H   UNL     1     -48.551  32.589  24.590  1.00  0.00     0.027 H 
ATOM     40  H   UNL     1     -45.726  31.328  24.872  1.00  0.00     0.027 H 
ATOM     41  H   UNL     1     -46.176  32.697  23.763  1.00  0.00     0.027 H 
ENDBRANCH  31  34
ENDBRANCH  26  31
ENDBRANCH   9  26
ENDBRANCH   4   5
ENDBRANCH   1   4
BRANCH   1  42
ATOM     42  C   UNL     1     -43.134  42.051  26.193  1.00  0.00     0.123 C 
ATOM     43  O   UNL     1     -44.219  42.238  25.251  1.00  0.00    -0.345 OA
ATOM     44  C   UNL     1     -42.517  43.432  26.438  1.00  0.00     0.119 C 
ATOM     45  H   UNL     1     -42.417  41.373  25.720  1.00  0.00     0.067 H 
ATOM     46  C   UNL     1     -44.460  43.657  25.125  1.00  0.00     0.169 C 
ATOM     47  C   UNL     1     -43.695  44.356  26.243  1.00  0.00     0.173 C 
ATOM     48  H   UNL     1     -42.060  43.510  27.429  1.00  0.00     0.066 H 
ATOM     49  H   UNL     1     -44.073  43.947  24.140  1.00  0.00     0.088 H 
ATOM     50  F   UNL     1     -44.409  44.374  27.403  1.00  0.00    -0.239 F 
ATOM     51  H   UNL     1     -43.424  45.384  25.989  1.00  0.00     0.074 H 
BRANCH  44  52
ATOM     52  O   UNL     1     -41.508  43.708  25.462  1.00  0.00    -0.387 OA
ATOM     53  H   UNL     1     -41.876  44.346  24.823  1.00  0.00     0.211 HD
ENDBRANCH  44  52
BRANCH  46  54
ATOM     54  N   UNL     1     -45.887  43.931  25.132  1.00  0.00    -0.302 N 
ATOM     55  C   UNL     1     -46.846  43.316  25.893  1.00  0.00     0.019 A 
ATOM     56  C   UNL     1     -46.471  44.892  24.346  1.00  0.00     0.148 A 
ATOM     57  C   UNL     1     -48.067  43.894  25.594  1.00  0.00     0.033 A 
ATOM     58  H   UNL     1     -46.581  42.533  26.593  1.00  0.00     0.083 H 
ATOM     59  C   UNL     1     -47.841  44.887  24.588  1.00  0.00     0.071 A 
ATOM     60  N   UNL     1     -45.802  45.691  23.494  1.00  0.00    -0.218 NA
ATOM     61  C   UNL     1     -48.600  45.800  23.835  1.00  0.00     0.137 A 
ATOM     62  C   UNL     1     -46.634  46.533  22.859  1.00  0.00     0.120 A 
ATOM     63  N   UNL     1     -47.968  46.635  22.984  1.00  0.00    -0.219 NA
ATOM     64  H   UNL     1     -46.173  47.218  22.153  1.00  0.00     0.106 H 
BRANCH  57  65
ATOM     65  C   UNL     1     -49.355  43.556  26.213  1.00  0.00     0.095 A 
ATOM     66  C   UNL     1     -50.033  44.378  27.143  1.00  0.00    -0.016 A 
ATOM     67  N   UNL     1     -50.047  42.439  25.943  1.00  0.00    -0.173 NA
ATOM     68  C   UNL     1     -51.187  43.695  27.447  1.00  0.00     0.025 A 
ATOM     69  H   UNL     1     -49.723  45.333  27.541  1.00  0.00     0.066 H 
ATOM     70  N   UNL     1     -51.147  42.550  26.712  1.00  0.00    -0.275 N 
ATOM     71  H   UNL     1     -52.009  43.929  28.110  1.00  0.00     0.084 H 
BRANCH  70  72
ATOM     72  C   UNL     1     -52.136  41.499  26.689  1.00  0.00     0.030 C 
ATOM     73  H   UNL     1     -53.106  41.935  26.947  1.00  0.00     0.048 H 
ATOM     74  H   UNL     1     -51.850  40.740  27.420  1.00  0.00     0.048 H 
ATOM     75  H   UNL     1     -52.178  41.060  25.689  1.00  0.00     0.048 H 
ENDBRANCH  70  72
ENDBRANCH  57  65
BRANCH  61  76
ATOM     76  N   UNL     1     -49.981  45.910  23.907  1.00  0.00    -0.383 N 
ATOM     77  H   UNL     1     -50.354  46.577  23.224  1.00  0.00     0.158 HD
ATOM     78  H   UNL     1     -50.427  45.006  23.956  1.00  0.00     0.158 HD
ENDBRANCH  61  76
ENDBRANCH  46  54
ENDBRANCH   1  42
TORSDOF 14
ENDMDL
MODEL 6
REMARK VINA RESULT:      -7.9      5.401     10.791
REMARK SMILES CCc1cc(N(C)CC2CC2)c2ccc(OC[C@H]3O[C@@H](n4cc(-c5ccn(C)n5)c5c(N)ncnc54)[C@@H](F)[C@@H]3O)cc2n1
REMARK SMILES IDX 17 1 16 4 15 5 3 6 4 7 43 8 5 9 42 11 12 12 41 13 13 14
REMARK SMILES IDX 14 16 2 19 1 22 6 26 7 27 8 31 9 34 10 35 11 36 18 42 19 43
REMARK SMILES IDX 39 44 20 46 37 47 38 50 40 52 21 54 22 55 36 56 23 57 30 59
REMARK SMILES IDX 35 60 31 61 34 62 33 63 24 65 25 66 29 67 26 68 27 70 28 72
REMARK SMILES IDX 32 76
REMARK H PARENT 17 2 17 3 4 10 41 15 13 17 14 18 2 20 2 21 1 23 1 24 1 25 7 28
REMARK H PARENT 7 29 7 30 8 32 8 33 9 37 10 38 10 39 11 40 11 41 18 45 39 48
REMARK H PARENT 20 49 37 51 40 53 22 58 34 64 25 69 26 71 28 73 28 74 28 75
REMARK H PARENT 32 77 32 78
REMARK Flexibility Score: inf
ROOT
ATOM      1  C   UNL     1     -45.774  44.535  24.596  1.00  0.00     0.117 C 
ATOM      2  H   UNL     1     -45.935  44.497  23.514  1.00  0.00     0.073 H 
ATOM      3  H   UNL     1     -46.150  43.593  25.010  1.00  0.00     0.073 H 
ENDROOT
BRANCH   1   4
ATOM      4  O   UNL     1     -46.562  45.564  25.221  1.00  0.00    -0.491 OA
BRANCH   4   5
ATOM      5  C   UNL     1     -47.483  45.086  26.112  1.00  0.00     0.121 A 
ATOM      6  C   UNL     1     -50.298  41.617  27.710  1.00  0.00     0.043 A 
ATOM      7  C   UNL     1     -50.737  42.369  28.790  1.00  0.00    -0.016 A 
ATOM      8  N   UNL     1     -49.411  42.087  26.804  1.00  0.00    -0.253 NA
ATOM      9  C   UNL     1     -50.245  43.666  28.967  1.00  0.00     0.048 A 
ATOM     10  H   UNL     1     -51.441  41.938  29.493  1.00  0.00     0.066 H 
ATOM     11  C   UNL     1     -48.926  43.329  26.963  1.00  0.00     0.076 A 
ATOM     12  C   UNL     1     -49.307  44.170  28.031  1.00  0.00     0.024 A 
ATOM     13  C   UNL     1     -48.011  43.799  26.030  1.00  0.00     0.007 A 
ATOM     14  C   UNL     1     -48.744  45.463  28.117  1.00  0.00    -0.047 A 
ATOM     15  H   UNL     1     -47.697  43.127  25.236  1.00  0.00     0.069 H 
ATOM     16  C   UNL     1     -47.830  45.914  27.170  1.00  0.00    -0.019 A 
ATOM     17  H   UNL     1     -49.028  46.125  28.934  1.00  0.00     0.063 H 
ATOM     18  H   UNL     1     -47.400  46.908  27.251  1.00  0.00     0.066 H 
BRANCH   6  19
ATOM     19  C   UNL     1     -50.823  40.223  27.484  1.00  0.00    -0.013 C 
ATOM     20  H   UNL     1     -51.642  40.260  26.755  1.00  0.00     0.033 H 
ATOM     21  H   UNL     1     -50.040  39.596  27.042  1.00  0.00     0.033 H 
BRANCH  19  22
ATOM     22  C   UNL     1     -51.325  39.600  28.777  1.00  0.00    -0.060 C 
ATOM     23  H   UNL     1     -51.886  40.338  29.360  1.00  0.00     0.023 H 
ATOM     24  H   UNL     1     -51.986  38.750  28.579  1.00  0.00     0.023 H 
ATOM     25  H   UNL     1     -50.493  39.241  29.393  1.00  0.00     0.023 H 
ENDBRANCH  19  22
ENDBRANCH   6  19
BRANCH   9  26
ATOM     26  N   UNL     1     -50.637  44.467  30.077  1.00  0.00    -0.374 N 
BRANCH  26  27
ATOM     27  C   UNL     1     -51.923  45.145  29.889  1.00  0.00     0.006 C 
ATOM     28  H   UNL     1     -51.908  45.830  29.035  1.00  0.00     0.046 H 
ATOM     29  H   UNL     1     -52.712  44.406  29.716  1.00  0.00     0.046 H 
ATOM     30  H   UNL     1     -52.211  45.702  30.789  1.00  0.00     0.046 H 
ENDBRANCH  26  27
BRANCH  26  31
ATOM     31  C   UNL     1     -50.503  43.706  31.332  1.00  0.00     0.020 C 
ATOM     32  H   UNL     1     -51.193  44.091  32.094  1.00  0.00     0.050 H 
ATOM     33  H   UNL     1     -50.753  42.649  31.170  1.00  0.00     0.050 H 
BRANCH  31  34
ATOM     34  C   UNL     1     -49.080  43.754  31.811  1.00  0.00    -0.024 C 
ATOM     35  C   UNL     1     -48.327  45.060  31.905  1.00  0.00    -0.048 C 
ATOM     36  C   UNL     1     -48.761  44.353  33.158  1.00  0.00    -0.048 C 
ATOM     37  H   UNL     1     -48.532  42.863  31.529  1.00  0.00     0.032 H 
ATOM     38  H   UNL     1     -47.273  45.050  31.654  1.00  0.00     0.027 H 
ATOM     39  H   UNL     1     -48.837  45.978  31.639  1.00  0.00     0.027 H 
ATOM     40  H   UNL     1     -47.999  43.868  33.758  1.00  0.00     0.027 H 
ATOM     41  H   UNL     1     -49.564  44.793  33.738  1.00  0.00     0.027 H 
ENDBRANCH  31  34
ENDBRANCH  26  31
ENDBRANCH   9  26
ENDBRANCH   4   5
ENDBRANCH   1   4
BRANCH   1  42
ATOM     42  C   UNL     1     -44.281  44.705  24.932  1.00  0.00     0.123 C 
ATOM     43  O   UNL     1     -44.019  44.078  26.212  1.00  0.00    -0.345 OA
ATOM     44  C   UNL     1     -43.373  44.016  23.907  1.00  0.00     0.119 C 
ATOM     45  H   UNL     1     -44.027  45.764  25.040  1.00  0.00     0.067 H 
ATOM     46  C   UNL     1     -43.224  42.895  25.974  1.00  0.00     0.169 C 
ATOM     47  C   UNL     1     -43.237  42.623  24.475  1.00  0.00     0.173 C 
ATOM     48  H   UNL     1     -43.797  44.038  22.900  1.00  0.00     0.066 H 
ATOM     49  H   UNL     1     -42.211  43.134  26.324  1.00  0.00     0.088 H 
ATOM     50  F   UNL     1     -44.338  41.912  24.105  1.00  0.00    -0.239 F 
ATOM     51  H   UNL     1     -42.349  42.083  24.137  1.00  0.00     0.074 H 
BRANCH  44  52
ATOM     52  O   UNL     1     -42.094  44.656  23.864  1.00  0.00    -0.387 OA
ATOM     53  H   UNL     1     -41.704  44.488  22.987  1.00  0.00     0.211 HD
ENDBRANCH  44  52
BRANCH  46  54
ATOM     54  N   UNL     1     -43.713  41.787  26.776  1.00  0.00    -0.302 N 
ATOM     55  C   UNL     1     -44.822  41.017  26.539  1.00  0.00     0.019 A 
ATOM     56  C   UNL     1     -43.085  41.349  27.915  1.00  0.00     0.148 A 
ATOM     57  C   UNL     1     -44.908  40.067  27.541  1.00  0.00     0.033 A 
ATOM     58  H   UNL     1     -45.448  41.198  25.674  1.00  0.00     0.083 H 
ATOM     59  C   UNL     1     -43.814  40.287  28.439  1.00  0.00     0.071 A 
ATOM     60  N   UNL     1     -41.954  41.879  28.414  1.00  0.00    -0.218 NA
ATOM     61  C   UNL     1     -43.321  39.735  29.635  1.00  0.00     0.137 A 
ATOM     62  C   UNL     1     -41.573  41.249  29.538  1.00  0.00     0.120 A 
ATOM     63  N   UNL     1     -42.177  40.222  30.159  1.00  0.00    -0.219 NA
ATOM     64  H   UNL     1     -40.663  41.614  30.005  1.00  0.00     0.106 H 
BRANCH  57  65
ATOM     65  C   UNL     1     -45.928  39.018  27.648  1.00  0.00     0.095 A 
ATOM     66  C   UNL     1     -47.315  39.265  27.779  1.00  0.00    -0.016 A 
ATOM     67  N   UNL     1     -45.662  37.704  27.603  1.00  0.00    -0.173 NA
ATOM     68  C   UNL     1     -47.896  38.019  27.829  1.00  0.00     0.025 A 
ATOM     69  H   UNL     1     -47.822  40.217  27.836  1.00  0.00     0.066 H 
ATOM     70  N   UNL     1     -46.873  37.127  27.723  1.00  0.00    -0.275 N 
ATOM     71  H   UNL     1     -48.927  37.709  27.928  1.00  0.00     0.084 H 
BRANCH  70  72
ATOM     72  C   UNL     1     -46.974  35.688  27.728  1.00  0.00     0.030 C 
ATOM     73  H   UNL     1     -46.377  35.304  28.560  1.00  0.00     0.048 H 
ATOM     74  H   UNL     1     -46.593  35.312  26.776  1.00  0.00     0.048 H 
ATOM     75  H   UNL     1     -48.020  35.396  27.854  1.00  0.00     0.048 H 
ENDBRANCH  70  72
ENDBRANCH  57  65
BRANCH  61  76
ATOM     76  N   UNL     1     -43.935  38.702  30.327  1.00  0.00    -0.383 N 
ATOM     77  H   UNL     1     -43.656  38.675  31.313  1.00  0.00     0.158 HD
ATOM     78  H   UNL     1     -44.922  38.652  30.128  1.00  0.00     0.158 HD
ENDBRANCH  61  76
ENDBRANCH  46  54
ENDBRANCH   1  42
TORSDOF 14
ENDMDL
