MODEL 1
REMARK VINA RESULT:      -9.7      0.000      0.000
REMARK SMILES CN(C)CCNC(=O)c1ccc(OCc2cncc(-n3ccc4c(N)ncnc43)c2)cc1N
REMARK SMILES IDX 9 1 10 2 11 3 12 4 31 5 32 6 7 10 6 11 8 13 5 14 4 17 2 20
REMARK SMILES IDX 1 21 3 25 33 29 13 32 14 33 15 36 16 37 30 38 17 39 19 41
REMARK SMILES IDX 18 43 20 45 21 46 29 47 22 48 23 50 28 51 24 53 27 54 26 55
REMARK SMILES IDX 25 57
REMARK H PARENT 10 7 11 8 31 9 6 12 5 15 5 16 4 18 4 19 1 22 1 23 1 24 3 26
REMARK H PARENT 3 27 3 28 33 30 33 31 14 34 14 35 16 40 30 42 18 44 21 49
REMARK H PARENT 22 52 27 56 25 58 25 59
REMARK Flexibility Score: inf
ROOT
ATOM      1  C   UNL     1     -47.845  31.199  24.844  1.00  0.00     0.063 A 
ATOM      2  C   UNL     1     -48.674  31.951  25.691  1.00  0.00    -0.044 A 
ATOM      3  C   UNL     1     -48.303  33.238  26.092  1.00  0.00    -0.019 A 
ATOM      4  C   UNL     1     -47.095  33.778  25.663  1.00  0.00     0.121 A 
ATOM      5  C   UNL     1     -46.298  33.053  24.771  1.00  0.00     0.004 A 
ATOM      6  C   UNL     1     -46.678  31.785  24.314  1.00  0.00     0.048 A 
ATOM      7  H   UNL     1     -49.617  31.546  26.052  1.00  0.00     0.063 H 
ATOM      8  H   UNL     1     -48.968  33.772  26.763  1.00  0.00     0.066 H 
ATOM      9  H   UNL     1     -45.360  33.484  24.427  1.00  0.00     0.068 H 
ENDROOT
BRANCH   1  10
ATOM     10  C   UNL     1     -48.194  29.783  24.518  1.00  0.00     0.253 C 
ATOM     11  N   UNL     1     -49.034  29.144  25.409  1.00  0.00    -0.351 N 
ATOM     12  H   UNL     1     -49.171  29.549  26.325  1.00  0.00     0.163 HD
ATOM     13  O   UNL     1     -47.695  29.222  23.548  1.00  0.00    -0.269 OA
BRANCH  11  14
ATOM     14  C   UNL     1     -49.239  27.709  25.340  1.00  0.00     0.030 C 
ATOM     15  H   UNL     1     -48.961  27.361  24.339  1.00  0.00     0.050 H 
ATOM     16  H   UNL     1     -50.313  27.534  25.469  1.00  0.00     0.050 H 
BRANCH  14  17
ATOM     17  C   UNL     1     -48.440  26.920  26.397  1.00  0.00     0.015 C 
ATOM     18  H   UNL     1     -47.755  27.644  26.856  1.00  0.00     0.045 H 
ATOM     19  H   UNL     1     -49.099  26.573  27.204  1.00  0.00     0.045 H 
BRANCH  17  20
ATOM     20  N   UNL     1     -47.674  25.799  25.803  1.00  0.00    -0.308 NA
BRANCH  20  21
ATOM     21  C   UNL     1     -46.446  26.299  25.176  1.00  0.00    -0.014 C 
ATOM     22  H   UNL     1     -46.678  27.064  24.426  1.00  0.00     0.039 H 
ATOM     23  H   UNL     1     -45.805  26.782  25.922  1.00  0.00     0.039 H 
ATOM     24  H   UNL     1     -45.874  25.500  24.691  1.00  0.00     0.039 H 
ENDBRANCH  20  21
BRANCH  20  25
ATOM     25  C   UNL     1     -47.310  24.803  26.820  1.00  0.00    -0.014 C 
ATOM     26  H   UNL     1     -46.283  24.456  26.661  1.00  0.00     0.039 H 
ATOM     27  H   UNL     1     -47.945  23.915  26.760  1.00  0.00     0.039 H 
ATOM     28  H   UNL     1     -47.381  25.206  27.837  1.00  0.00     0.039 H 
ENDBRANCH  20  25
ENDBRANCH  17  20
ENDBRANCH  14  17
ENDBRANCH  11  14
ENDBRANCH   1  10
BRANCH   6  29
ATOM     29  N   UNL     1     -45.765  31.080  23.494  1.00  0.00    -0.398 N 
ATOM     30  H   UNL     1     -46.198  30.902  22.575  1.00  0.00     0.156 HD
ATOM     31  H   UNL     1     -45.516  30.185  23.902  1.00  0.00     0.156 HD
ENDBRANCH   6  29
BRANCH   4  32
ATOM     32  O   UNL     1     -46.555  34.972  26.064  1.00  0.00    -0.489 OA
BRANCH  32  33
ATOM     33  C   UNL     1     -47.355  35.875  26.834  1.00  0.00     0.115 C 
ATOM     34  H   UNL     1     -47.708  36.638  26.131  1.00  0.00     0.076 H 
ATOM     35  H   UNL     1     -48.248  35.359  27.206  1.00  0.00     0.076 H 
BRANCH  33  36
ATOM     36  C   UNL     1     -46.630  36.593  27.949  1.00  0.00     0.010 A 
ATOM     37  C   UNL     1     -46.710  36.102  29.246  1.00  0.00     0.034 A 
ATOM     38  C   UNL     1     -45.871  37.756  27.750  1.00  0.00    -0.028 A 
ATOM     39  N   UNL     1     -46.082  36.658  30.303  1.00  0.00    -0.262 NA
ATOM     40  H   UNL     1     -47.295  35.217  29.482  1.00  0.00     0.084 H 
ATOM     41  C   UNL     1     -45.172  38.343  28.808  1.00  0.00     0.066 A 
ATOM     42  H   UNL     1     -45.845  38.180  26.752  1.00  0.00     0.065 H 
ATOM     43  C   UNL     1     -45.324  37.756  30.060  1.00  0.00     0.051 A 
ATOM     44  H   UNL     1     -44.822  38.118  30.951  1.00  0.00     0.086 H 
BRANCH  41  45
ATOM     45  N   UNL     1     -44.312  39.473  28.623  1.00  0.00    -0.300 N 
ATOM     46  C   UNL     1     -43.279  39.842  29.475  1.00  0.00     0.012 A 
ATOM     47  C   UNL     1     -44.314  40.387  27.564  1.00  0.00     0.150 A 
ATOM     48  C   UNL     1     -42.636  40.947  28.969  1.00  0.00    -0.031 A 
ATOM     49  H   UNL     1     -43.076  39.305  30.391  1.00  0.00     0.082 H 
ATOM     50  C   UNL     1     -43.280  41.299  27.761  1.00  0.00     0.061 A 
ATOM     51  N   UNL     1     -45.143  40.394  26.501  1.00  0.00    -0.218 NA
ATOM     52  H   UNL     1     -41.787  41.444  29.422  1.00  0.00     0.065 H 
ATOM     53  C   UNL     1     -43.104  42.292  26.787  1.00  0.00     0.136 A 
ATOM     54  C   UNL     1     -44.889  41.391  25.644  1.00  0.00     0.120 A 
ATOM     55  N   UNL     1     -43.929  42.324  25.726  1.00  0.00    -0.219 NA
ATOM     56  H   UNL     1     -45.539  41.451  24.777  1.00  0.00     0.106 H 
BRANCH  53  57
ATOM     57  N   UNL     1     -42.120  43.268  26.854  1.00  0.00    -0.383 N 
ATOM     58  H   UNL     1     -41.198  42.848  26.798  1.00  0.00     0.158 HD
ATOM     59  H   UNL     1     -42.278  44.074  26.266  1.00  0.00     0.158 HD
ENDBRANCH  53  57
ENDBRANCH  41  45
ENDBRANCH  33  36
ENDBRANCH  32  33
ENDBRANCH   4  32
TORSDOF 12
ENDMDL
MODEL 2
REMARK VINA RESULT:      -9.0      2.231      3.940
REMARK SMILES CN(C)CCNC(=O)c1ccc(OCc2cncc(-n3ccc4c(N)ncnc43)c2)cc1N
REMARK SMILES IDX 9 1 10 2 11 3 12 4 31 5 32 6 7 10 6 11 8 13 5 14 4 17 2 20
REMARK SMILES IDX 1 21 3 25 33 29 13 32 14 33 15 36 16 37 30 38 17 39 19 41
REMARK SMILES IDX 18 43 20 45 21 46 29 47 22 48 23 50 28 51 24 53 27 54 26 55
REMARK SMILES IDX 25 57
REMARK H PARENT 10 7 11 8 31 9 6 12 5 15 5 16 4 18 4 19 1 22 1 23 1 24 3 26
REMARK H PARENT 3 27 3 28 33 30 33 31 14 34 14 35 16 40 30 42 18 44 21 49
REMARK H PARENT 22 52 27 56 25 58 25 59
REMARK Flexibility Score: inf
ROOT
ATOM      1  C   UNL     1     -47.008  33.844  26.726  1.00  0.00     0.063 A 
ATOM      2  C   UNL     1     -47.552  35.045  26.244  1.00  0.00    -0.044 A 
ATOM      3  C   UNL     1     -47.344  36.246  26.928  1.00  0.00    -0.019 A 
ATOM      4  C   UNL     1     -46.603  36.256  28.107  1.00  0.00     0.121 A 
ATOM      5  C   UNL     1     -46.010  35.070  28.553  1.00  0.00     0.004 A 
ATOM      6  C   UNL     1     -46.161  33.867  27.852  1.00  0.00     0.048 A 
ATOM      7  H   UNL     1     -48.147  35.063  25.334  1.00  0.00     0.063 H 
ATOM      8  H   UNL     1     -47.802  37.145  26.527  1.00  0.00     0.066 H 
ATOM      9  H   UNL     1     -45.421  35.083  29.468  1.00  0.00     0.068 H 
ENDROOT
BRANCH   1  10
ATOM     10  C   UNL     1     -47.335  32.550  26.052  1.00  0.00     0.253 C 
ATOM     11  N   UNL     1     -47.161  32.517  24.683  1.00  0.00    -0.351 N 
ATOM     12  H   UNL     1     -47.066  33.391  24.183  1.00  0.00     0.163 HD
ATOM     13  O   UNL     1     -47.796  31.610  26.691  1.00  0.00    -0.269 OA
BRANCH  11  14
ATOM     14  C   UNL     1     -47.678  31.417  23.892  1.00  0.00     0.030 C 
ATOM     15  H   UNL     1     -48.263  31.824  23.060  1.00  0.00     0.050 H 
ATOM     16  H   UNL     1     -48.361  30.854  24.537  1.00  0.00     0.050 H 
BRANCH  14  17
ATOM     17  C   UNL     1     -46.581  30.486  23.338  1.00  0.00     0.015 C 
ATOM     18  H   UNL     1     -46.067  31.060  22.556  1.00  0.00     0.045 H 
ATOM     19  H   UNL     1     -45.825  30.275  24.105  1.00  0.00     0.045 H 
BRANCH  17  20
ATOM     20  N   UNL     1     -47.137  29.235  22.769  1.00  0.00    -0.308 NA
BRANCH  20  21
ATOM     21  C   UNL     1     -47.001  28.135  23.729  1.00  0.00    -0.014 C 
ATOM     22  H   UNL     1     -46.213  27.441  23.413  1.00  0.00     0.039 H 
ATOM     23  H   UNL     1     -46.700  28.518  24.710  1.00  0.00     0.039 H 
ATOM     24  H   UNL     1     -47.933  27.570  23.846  1.00  0.00     0.039 H 
ENDBRANCH  20  21
BRANCH  20  25
ATOM     25  C   UNL     1     -48.558  29.389  22.430  1.00  0.00    -0.014 C 
ATOM     26  H   UNL     1     -49.176  28.774  23.095  1.00  0.00     0.039 H 
ATOM     27  H   UNL     1     -48.770  29.046  21.414  1.00  0.00     0.039 H 
ATOM     28  H   UNL     1     -48.894  30.429  22.516  1.00  0.00     0.039 H 
ENDBRANCH  20  25
ENDBRANCH  17  20
ENDBRANCH  14  17
ENDBRANCH  11  14
ENDBRANCH   1  10
BRANCH   6  29
ATOM     29  N   UNL     1     -45.612  32.696  28.428  1.00  0.00    -0.398 N 
ATOM     30  H   UNL     1     -46.364  32.010  28.590  1.00  0.00     0.156 HD
ATOM     31  H   UNL     1     -45.173  32.895  29.321  1.00  0.00     0.156 HD
ENDBRANCH   6  29
BRANCH   4  32
ATOM     32  O   UNL     1     -46.415  37.330  28.935  1.00  0.00    -0.489 OA
BRANCH  32  33
ATOM     33  C   UNL     1     -45.165  37.475  29.616  1.00  0.00     0.115 C 
ATOM     34  H   UNL     1     -45.406  37.486  30.686  1.00  0.00     0.076 H 
ATOM     35  H   UNL     1     -44.542  36.588  29.448  1.00  0.00     0.076 H 
BRANCH  33  36
ATOM     36  C   UNL     1     -44.406  38.746  29.314  1.00  0.00     0.010 A 
ATOM     37  C   UNL     1     -43.348  39.122  30.132  1.00  0.00     0.034 A 
ATOM     38  C   UNL     1     -44.717  39.592  28.239  1.00  0.00    -0.028 A 
ATOM     39  N   UNL     1     -42.595  40.225  29.932  1.00  0.00    -0.262 NA
ATOM     40  H   UNL     1     -43.059  38.529  30.996  1.00  0.00     0.084 H 
ATOM     41  C   UNL     1     -43.941  40.723  27.971  1.00  0.00     0.066 A 
ATOM     42  H   UNL     1     -45.574  39.337  27.626  1.00  0.00     0.065 H 
ATOM     43  C   UNL     1     -42.902  40.992  28.857  1.00  0.00     0.051 A 
ATOM     44  H   UNL     1     -42.228  41.835  28.744  1.00  0.00     0.086 H 
BRANCH  41  45
ATOM     45  N   UNL     1     -44.170  41.554  26.828  1.00  0.00    -0.300 N 
ATOM     46  C   UNL     1     -45.413  41.824  26.271  1.00  0.00     0.012 A 
ATOM     47  C   UNL     1     -43.225  42.267  26.083  1.00  0.00     0.150 A 
ATOM     48  C   UNL     1     -45.266  42.691  25.213  1.00  0.00    -0.031 A 
ATOM     49  H   UNL     1     -46.319  41.375  26.652  1.00  0.00     0.082 H 
ATOM     50  C   UNL     1     -43.888  42.979  25.087  1.00  0.00     0.061 A 
ATOM     51  N   UNL     1     -41.893  42.304  26.288  1.00  0.00    -0.218 NA
ATOM     52  H   UNL     1     -46.070  43.080  24.601  1.00  0.00     0.065 H 
ATOM     53  C   UNL     1     -43.107  43.778  24.240  1.00  0.00     0.136 A 
ATOM     54  C   UNL     1     -41.250  43.089  25.415  1.00  0.00     0.120 A 
ATOM     55  N   UNL     1     -41.776  43.819  24.419  1.00  0.00    -0.219 NA
ATOM     56  H   UNL     1     -40.171  43.142  25.526  1.00  0.00     0.106 H 
BRANCH  53  57
ATOM     57  N   UNL     1     -43.630  44.538  23.203  1.00  0.00    -0.383 N 
ATOM     58  H   UNL     1     -42.906  45.108  22.780  1.00  0.00     0.158 HD
ATOM     59  H   UNL     1     -44.230  44.034  22.566  1.00  0.00     0.158 HD
ENDBRANCH  53  57
ENDBRANCH  41  45
ENDBRANCH  33  36
ENDBRANCH  32  33
ENDBRANCH   4  32
TORSDOF 12
ENDMDL
MODEL 3
REMARK VINA RESULT:      -8.7      1.552      2.372
REMARK SMILES CN(C)CCNC(=O)c1ccc(OCc2cncc(-n3ccc4c(N)ncnc43)c2)cc1N
REMARK SMILES IDX 9 1 10 2 11 3 12 4 31 5 32 6 7 10 6 11 8 13 5 14 4 17 2 20
REMARK SMILES IDX 1 21 3 25 33 29 13 32 14 33 15 36 16 37 30 38 17 39 19 41
REMARK SMILES IDX 18 43 20 45 21 46 29 47 22 48 23 50 28 51 24 53 27 54 26 55
REMARK SMILES IDX 25 57
REMARK H PARENT 10 7 11 8 31 9 6 12 5 15 5 16 4 18 4 19 1 22 1 23 1 24 3 26
REMARK H PARENT 3 27 3 28 33 30 33 31 14 34 14 35 16 40 30 42 18 44 21 49
REMARK H PARENT 22 52 27 56 25 58 25 59
REMARK Flexibility Score: inf
ROOT
ATOM      1  C   UNL     1     -47.978  32.393  25.294  1.00  0.00     0.063 A 
ATOM      2  C   UNL     1     -48.914  33.204  25.952  1.00  0.00    -0.044 A 
ATOM      3  C   UNL     1     -48.502  34.335  26.664  1.00  0.00    -0.019 A 
ATOM      4  C   UNL     1     -47.150  34.656  26.736  1.00  0.00     0.121 A 
ATOM      5  C   UNL     1     -46.223  33.882  26.029  1.00  0.00     0.004 A 
ATOM      6  C   UNL     1     -46.622  32.778  25.266  1.00  0.00     0.048 A 
ATOM      7  H   UNL     1     -49.975  32.968  25.923  1.00  0.00     0.063 H 
ATOM      8  H   UNL     1     -49.262  34.919  27.172  1.00  0.00     0.066 H 
ATOM      9  H   UNL     1     -45.168  34.143  26.077  1.00  0.00     0.068 H 
ENDROOT
BRANCH   1  10
ATOM     10  C   UNL     1     -48.416  31.124  24.637  1.00  0.00     0.253 C 
ATOM     11  N   UNL     1     -48.114  29.956  25.308  1.00  0.00    -0.351 N 
ATOM     12  H   UNL     1     -47.427  29.985  26.050  1.00  0.00     0.163 HD
ATOM     13  O   UNL     1     -48.948  31.142  23.531  1.00  0.00    -0.269 OA
BRANCH  11  14
ATOM     14  C   UNL     1     -48.257  28.666  24.661  1.00  0.00     0.030 C 
ATOM     15  H   UNL     1     -47.370  28.479  24.045  1.00  0.00     0.050 H 
ATOM     16  H   UNL     1     -49.120  28.739  23.991  1.00  0.00     0.050 H 
BRANCH  14  17
ATOM     17  C   UNL     1     -48.449  27.498  25.650  1.00  0.00     0.015 C 
ATOM     18  H   UNL     1     -48.367  27.937  26.652  1.00  0.00     0.045 H 
ATOM     19  H   UNL     1     -49.465  27.090  25.579  1.00  0.00     0.045 H 
BRANCH  17  20
ATOM     20  N   UNL     1     -47.428  26.438  25.474  1.00  0.00    -0.308 NA
BRANCH  20  21
ATOM     21  C   UNL     1     -46.404  26.872  24.518  1.00  0.00    -0.014 C 
ATOM     22  H   UNL     1     -45.900  26.007  24.071  1.00  0.00     0.039 H 
ATOM     23  H   UNL     1     -46.863  27.424  23.690  1.00  0.00     0.039 H 
ATOM     24  H   UNL     1     -45.646  27.512  24.985  1.00  0.00     0.039 H 
ENDBRANCH  20  21
BRANCH  20  25
ATOM     25  C   UNL     1     -46.772  26.111  26.747  1.00  0.00    -0.014 C 
ATOM     26  H   UNL     1     -45.828  26.660  26.840  1.00  0.00     0.039 H 
ATOM     27  H   UNL     1     -46.515  25.050  26.807  1.00  0.00     0.039 H 
ATOM     28  H   UNL     1     -47.400  26.360  27.611  1.00  0.00     0.039 H 
ENDBRANCH  20  25
ENDBRANCH  17  20
ENDBRANCH  14  17
ENDBRANCH  11  14
ENDBRANCH   1  10
BRANCH   6  29
ATOM     29  N   UNL     1     -45.609  31.992  24.667  1.00  0.00    -0.398 N 
ATOM     30  H   UNL     1     -45.872  30.996  24.719  1.00  0.00     0.156 HD
ATOM     31  H   UNL     1     -44.721  32.106  25.145  1.00  0.00     0.156 HD
ENDBRANCH   6  29
BRANCH   4  32
ATOM     32  O   UNL     1     -46.596  35.660  27.484  1.00  0.00    -0.489 OA
BRANCH  32  33
ATOM     33  C   UNL     1     -47.442  36.452  28.324  1.00  0.00     0.115 C 
ATOM     34  H   UNL     1     -48.450  36.032  28.218  1.00  0.00     0.076 H 
ATOM     35  H   UNL     1     -47.159  36.317  29.375  1.00  0.00     0.076 H 
BRANCH  33  36
ATOM     36  C   UNL     1     -47.528  37.917  27.961  1.00  0.00     0.010 A 
ATOM     37  C   UNL     1     -48.711  38.610  28.186  1.00  0.00     0.034 A 
ATOM     38  C   UNL     1     -46.465  38.632  27.389  1.00  0.00    -0.028 A 
ATOM     39  N   UNL     1     -48.879  39.923  27.917  1.00  0.00    -0.262 NA
ATOM     40  H   UNL     1     -49.584  38.120  28.607  1.00  0.00     0.084 H 
ATOM     41  C   UNL     1     -46.581  40.001  27.131  1.00  0.00     0.066 A 
ATOM     42  H   UNL     1     -45.555  38.089  27.159  1.00  0.00     0.065 H 
ATOM     43  C   UNL     1     -47.813  40.587  27.406  1.00  0.00     0.051 A 
ATOM     44  H   UNL     1     -48.016  41.641  27.256  1.00  0.00     0.086 H 
BRANCH  41  45
ATOM     45  N   UNL     1     -45.486  40.781  26.639  1.00  0.00    -0.300 N 
ATOM     46  C   UNL     1     -45.484  41.495  25.447  1.00  0.00     0.012 A 
ATOM     47  C   UNL     1     -44.249  41.005  27.252  1.00  0.00     0.150 A 
ATOM     48  C   UNL     1     -44.288  42.162  25.311  1.00  0.00    -0.031 A 
ATOM     49  H   UNL     1     -46.323  41.474  24.767  1.00  0.00     0.082 H 
ATOM     50  C   UNL     1     -43.501  41.860  26.447  1.00  0.00     0.061 A 
ATOM     51  N   UNL     1     -43.831  40.514  28.435  1.00  0.00    -0.218 NA
ATOM     52  H   UNL     1     -44.015  42.802  24.483  1.00  0.00     0.065 H 
ATOM     53  C   UNL     1     -42.226  42.223  26.904  1.00  0.00     0.136 A 
ATOM     54  C   UNL     1     -42.597  40.917  28.765  1.00  0.00     0.120 A 
ATOM     55  N   UNL     1     -41.786  41.734  28.076  1.00  0.00    -0.219 NA
ATOM     56  H   UNL     1     -42.207  40.537  29.704  1.00  0.00     0.106 H 
BRANCH  53  57
ATOM     57  N   UNL     1     -41.370  43.063  26.206  1.00  0.00    -0.383 N 
ATOM     58  H   UNL     1     -40.572  43.313  26.780  1.00  0.00     0.158 HD
ATOM     59  H   UNL     1     -41.165  42.773  25.260  1.00  0.00     0.158 HD
ENDBRANCH  53  57
ENDBRANCH  41  45
ENDBRANCH  33  36
ENDBRANCH  32  33
ENDBRANCH   4  32
TORSDOF 12
ENDMDL
MODEL 4
REMARK VINA RESULT:      -8.7      2.154     11.823
REMARK SMILES CN(C)CCNC(=O)c1ccc(OCc2cncc(-n3ccc4c(N)ncnc43)c2)cc1N
REMARK SMILES IDX 9 1 10 2 11 3 12 4 31 5 32 6 7 10 6 11 8 13 5 14 4 17 2 20
REMARK SMILES IDX 1 21 3 25 33 29 13 32 14 33 15 36 16 37 30 38 17 39 19 41
REMARK SMILES IDX 18 43 20 45 21 46 29 47 22 48 23 50 28 51 24 53 27 54 26 55
REMARK SMILES IDX 25 57
REMARK H PARENT 10 7 11 8 31 9 6 12 5 15 5 16 4 18 4 19 1 22 1 23 1 24 3 26
REMARK H PARENT 3 27 3 28 33 30 33 31 14 34 14 35 16 40 30 42 18 44 21 49
REMARK H PARENT 22 52 27 56 25 58 25 59
REMARK Flexibility Score: inf
ROOT
ATOM      1  C   UNL     1     -45.207  38.110  28.960  1.00  0.00     0.063 A 
ATOM      2  C   UNL     1     -45.345  37.724  27.619  1.00  0.00    -0.044 A 
ATOM      3  C   UNL     1     -46.177  36.656  27.266  1.00  0.00    -0.019 A 
ATOM      4  C   UNL     1     -46.865  35.956  28.254  1.00  0.00     0.121 A 
ATOM      5  C   UNL     1     -46.774  36.381  29.584  1.00  0.00     0.004 A 
ATOM      6  C   UNL     1     -45.990  37.482  29.949  1.00  0.00     0.048 A 
ATOM      7  H   UNL     1     -44.807  38.244  26.829  1.00  0.00     0.063 H 
ATOM      8  H   UNL     1     -46.235  36.382  26.218  1.00  0.00     0.066 H 
ATOM      9  H   UNL     1     -47.324  35.840  30.352  1.00  0.00     0.068 H 
ENDROOT
BRANCH   1  10
ATOM     10  C   UNL     1     -44.226  39.174  29.336  1.00  0.00     0.253 C 
ATOM     11  N   UNL     1     -44.071  40.204  28.430  1.00  0.00    -0.351 N 
ATOM     12  H   UNL     1     -44.417  40.080  27.488  1.00  0.00     0.163 HD
ATOM     13  O   UNL     1     -43.560  39.078  30.362  1.00  0.00    -0.269 OA
BRANCH  11  14
ATOM     14  C   UNL     1     -42.979  41.151  28.559  1.00  0.00     0.030 C 
ATOM     15  H   UNL     1     -42.232  40.736  29.245  1.00  0.00     0.050 H 
ATOM     16  H   UNL     1     -43.392  42.054  29.019  1.00  0.00     0.050 H 
BRANCH  14  17
ATOM     17  C   UNL     1     -42.303  41.499  27.217  1.00  0.00     0.015 C 
ATOM     18  H   UNL     1     -41.243  41.666  27.449  1.00  0.00     0.045 H 
ATOM     19  H   UNL     1     -42.331  40.641  26.532  1.00  0.00     0.045 H 
BRANCH  17  20
ATOM     20  N   UNL     1     -42.884  42.710  26.591  1.00  0.00    -0.308 NA
BRANCH  20  21
ATOM     21  C   UNL     1     -43.974  42.340  25.682  1.00  0.00    -0.014 C 
ATOM     22  H   UNL     1     -43.580  42.066  24.696  1.00  0.00     0.039 H 
ATOM     23  H   UNL     1     -44.504  41.458  26.059  1.00  0.00     0.039 H 
ATOM     24  H   UNL     1     -44.699  43.152  25.552  1.00  0.00     0.039 H 
ENDBRANCH  20  21
BRANCH  20  25
ATOM     25  C   UNL     1     -43.411  43.634  27.604  1.00  0.00    -0.014 C 
ATOM     26  H   UNL     1     -44.490  43.485  27.729  1.00  0.00     0.039 H 
ATOM     27  H   UNL     1     -43.280  44.678  27.305  1.00  0.00     0.039 H 
ATOM     28  H   UNL     1     -42.931  43.495  28.580  1.00  0.00     0.039 H 
ENDBRANCH  20  25
ENDBRANCH  17  20
ENDBRANCH  14  17
ENDBRANCH  11  14
ENDBRANCH   1  10
BRANCH   6  29
ATOM     29  N   UNL     1     -45.875  37.779  31.328  1.00  0.00    -0.398 N 
ATOM     30  H   UNL     1     -45.870  38.802  31.459  1.00  0.00     0.156 HD
ATOM     31  H   UNL     1     -45.013  37.410  31.716  1.00  0.00     0.156 HD
ENDBRANCH   6  29
BRANCH   4  32
ATOM     32  O   UNL     1     -47.619  34.829  28.068  1.00  0.00    -0.489 OA
BRANCH  32  33
ATOM     33  C   UNL     1     -48.373  34.685  26.861  1.00  0.00     0.115 C 
ATOM     34  H   UNL     1     -49.383  34.389  27.169  1.00  0.00     0.076 H 
ATOM     35  H   UNL     1     -48.474  35.658  26.364  1.00  0.00     0.076 H 
BRANCH  33  36
ATOM     36  C   UNL     1     -47.869  33.629  25.904  1.00  0.00     0.010 A 
ATOM     37  C   UNL     1     -46.665  33.826  25.239  1.00  0.00     0.034 A 
ATOM     38  C   UNL     1     -48.563  32.440  25.634  1.00  0.00    -0.028 A 
ATOM     39  N   UNL     1     -46.121  32.934  24.384  1.00  0.00    -0.262 NA
ATOM     40  H   UNL     1     -46.080  34.731  25.381  1.00  0.00     0.084 H 
ATOM     41  C   UNL     1     -48.019  31.471  24.786  1.00  0.00     0.066 A 
ATOM     42  H   UNL     1     -49.529  32.299  26.105  1.00  0.00     0.065 H 
ATOM     43  C   UNL     1     -46.802  31.779  24.185  1.00  0.00     0.051 A 
ATOM     44  H   UNL     1     -46.281  31.101  23.517  1.00  0.00     0.086 H 
BRANCH  41  45
ATOM     45  N   UNL     1     -48.652  30.207  24.564  1.00  0.00    -0.300 N 
ATOM     46  C   UNL     1     -48.814  29.213  25.522  1.00  0.00     0.012 A 
ATOM     47  C   UNL     1     -49.248  29.741  23.387  1.00  0.00     0.150 A 
ATOM     48  C   UNL     1     -49.502  28.154  24.975  1.00  0.00    -0.031 A 
ATOM     49  H   UNL     1     -48.421  29.315  26.523  1.00  0.00     0.082 H 
ATOM     50  C   UNL     1     -49.782  28.478  23.628  1.00  0.00     0.061 A 
ATOM     51  N   UNL     1     -49.334  30.393  22.211  1.00  0.00    -0.218 NA
ATOM     52  H   UNL     1     -49.777  27.245  25.496  1.00  0.00     0.065 H 
ATOM     53  C   UNL     1     -50.445  27.847  22.566  1.00  0.00     0.136 A 
ATOM     54  C   UNL     1     -49.976  29.692  21.268  1.00  0.00     0.120 A 
ATOM     55  N   UNL     1     -50.531  28.475  21.380  1.00  0.00    -0.219 NA
ATOM     56  H   UNL     1     -50.060  30.166  20.296  1.00  0.00     0.106 H 
BRANCH  53  57
ATOM     57  N   UNL     1     -51.022  26.588  22.659  1.00  0.00    -0.383 N 
ATOM     58  H   UNL     1     -51.428  26.451  23.578  1.00  0.00     0.158 HD
ATOM     59  H   UNL     1     -51.599  26.325  21.873  1.00  0.00     0.158 HD
ENDBRANCH  53  57
ENDBRANCH  41  45
ENDBRANCH  33  36
ENDBRANCH  32  33
ENDBRANCH   4  32
TORSDOF 12
ENDMDL
MODEL 5
REMARK VINA RESULT:      -8.6      2.374      3.764
REMARK SMILES CN(C)CCNC(=O)c1ccc(OCc2cncc(-n3ccc4c(N)ncnc43)c2)cc1N
REMARK SMILES IDX 9 1 10 2 11 3 12 4 31 5 32 6 7 10 6 11 8 13 5 14 4 17 2 20
REMARK SMILES IDX 1 21 3 25 33 29 13 32 14 33 15 36 16 37 30 38 17 39 19 41
REMARK SMILES IDX 18 43 20 45 21 46 29 47 22 48 23 50 28 51 24 53 27 54 26 55
REMARK SMILES IDX 25 57
REMARK H PARENT 10 7 11 8 31 9 6 12 5 15 5 16 4 18 4 19 1 22 1 23 1 24 3 26
REMARK H PARENT 3 27 3 28 33 30 33 31 14 34 14 35 16 40 30 42 18 44 21 49
REMARK H PARENT 22 52 27 56 25 58 25 59
REMARK Flexibility Score: inf
ROOT
ATOM      1  C   UNL     1     -47.591  31.306  23.850  1.00  0.00     0.063 A 
ATOM      2  C   UNL     1     -46.389  31.955  24.169  1.00  0.00    -0.044 A 
ATOM      3  C   UNL     1     -46.303  32.782  25.294  1.00  0.00    -0.019 A 
ATOM      4  C   UNL     1     -47.421  32.978  26.099  1.00  0.00     0.121 A 
ATOM      5  C   UNL     1     -48.601  32.282  25.815  1.00  0.00     0.004 A 
ATOM      6  C   UNL     1     -48.691  31.407  24.725  1.00  0.00     0.048 A 
ATOM      7  H   UNL     1     -45.505  31.831  23.549  1.00  0.00     0.063 H 
ATOM      8  H   UNL     1     -45.358  33.278  25.488  1.00  0.00     0.066 H 
ATOM      9  H   UNL     1     -49.470  32.428  26.454  1.00  0.00     0.068 H 
ENDROOT
BRANCH   1  10
ATOM     10  C   UNL     1     -47.704  30.520  22.583  1.00  0.00     0.253 C 
ATOM     11  N   UNL     1     -48.013  31.242  21.447  1.00  0.00    -0.351 N 
ATOM     12  H   UNL     1     -48.378  32.179  21.549  1.00  0.00     0.163 HD
ATOM     13  O   UNL     1     -47.594  29.299  22.591  1.00  0.00    -0.269 OA
BRANCH  11  14
ATOM     14  C   UNL     1     -48.396  30.570  20.219  1.00  0.00     0.030 C 
ATOM     15  H   UNL     1     -48.311  29.488  20.368  1.00  0.00     0.050 H 
ATOM     16  H   UNL     1     -47.668  30.861  19.455  1.00  0.00     0.050 H 
BRANCH  14  17
ATOM     17  C   UNL     1     -49.826  30.910  19.750  1.00  0.00     0.015 C 
ATOM     18  H   UNL     1     -49.979  31.969  19.999  1.00  0.00     0.045 H 
ATOM     19  H   UNL     1     -49.904  30.842  18.658  1.00  0.00     0.045 H 
BRANCH  17  20
ATOM     20  N   UNL     1     -50.852  30.076  20.420  1.00  0.00    -0.308 NA
BRANCH  20  21
ATOM     21  C   UNL     1     -51.894  30.926  21.004  1.00  0.00    -0.014 C 
ATOM     22  H   UNL     1     -52.812  30.879  20.407  1.00  0.00     0.039 H 
ATOM     23  H   UNL     1     -52.159  30.571  22.007  1.00  0.00     0.039 H 
ATOM     24  H   UNL     1     -51.581  31.974  21.078  1.00  0.00     0.039 H 
ENDBRANCH  20  21
BRANCH  20  25
ATOM     25  C   UNL     1     -51.481  29.144  19.475  1.00  0.00    -0.014 C 
ATOM     26  H   UNL     1     -52.381  28.703  19.919  1.00  0.00     0.039 H 
ATOM     27  H   UNL     1     -50.820  28.307  19.234  1.00  0.00     0.039 H 
ATOM     28  H   UNL     1     -51.767  29.635  18.538  1.00  0.00     0.039 H 
ENDBRANCH  20  25
ENDBRANCH  17  20
ENDBRANCH  14  17
ENDBRANCH  11  14
ENDBRANCH   1  10
BRANCH   6  29
ATOM     29  N   UNL     1     -49.951  30.824  24.452  1.00  0.00    -0.398 N 
ATOM     30  H   UNL     1     -49.816  29.953  23.916  1.00  0.00     0.156 HD
ATOM     31  H   UNL     1     -50.533  31.444  23.899  1.00  0.00     0.156 HD
ENDBRANCH   6  29
BRANCH   4  32
ATOM     32  O   UNL     1     -47.513  33.842  27.158  1.00  0.00    -0.489 OA
BRANCH  32  33
ATOM     33  C   UNL     1     -47.817  35.218  26.911  1.00  0.00     0.115 C 
ATOM     34  H   UNL     1     -47.543  35.404  25.866  1.00  0.00     0.076 H 
ATOM     35  H   UNL     1     -48.900  35.381  26.980  1.00  0.00     0.076 H 
BRANCH  33  36
ATOM     36  C   UNL     1     -47.056  36.212  27.758  1.00  0.00     0.010 A 
ATOM     37  C   UNL     1     -46.894  35.970  29.117  1.00  0.00     0.034 A 
ATOM     38  C   UNL     1     -46.501  37.394  27.247  1.00  0.00    -0.028 A 
ATOM     39  N   UNL     1     -46.213  36.784  29.952  1.00  0.00    -0.262 NA
ATOM     40  H   UNL     1     -47.313  35.087  29.590  1.00  0.00     0.084 H 
ATOM     41  C   UNL     1     -45.754  38.246  28.066  1.00  0.00     0.066 A 
ATOM     42  H   UNL     1     -46.667  37.620  26.200  1.00  0.00     0.065 H 
ATOM     43  C   UNL     1     -45.654  37.894  29.408  1.00  0.00     0.051 A 
ATOM     44  H   UNL     1     -45.093  38.472  30.134  1.00  0.00     0.086 H 
BRANCH  41  45
ATOM     45  N   UNL     1     -45.092  39.409  27.557  1.00  0.00    -0.300 N 
ATOM     46  C   UNL     1     -45.428  40.072  26.383  1.00  0.00     0.012 A 
ATOM     47  C   UNL     1     -44.029  40.112  28.134  1.00  0.00     0.150 A 
ATOM     48  C   UNL     1     -44.613  41.169  26.224  1.00  0.00    -0.031 A 
ATOM     49  H   UNL     1     -46.212  39.716  25.731  1.00  0.00     0.082 H 
ATOM     50  C   UNL     1     -43.728  41.205  27.326  1.00  0.00     0.061 A 
ATOM     51  N   UNL     1     -43.401  39.824  29.291  1.00  0.00    -0.218 NA
ATOM     52  H   UNL     1     -44.658  41.873  25.402  1.00  0.00     0.065 H 
ATOM     53  C   UNL     1     -42.693  42.052  27.749  1.00  0.00     0.136 A 
ATOM     54  C   UNL     1     -42.426  40.692  29.589  1.00  0.00     0.120 A 
ATOM     55  N   UNL     1     -42.046  41.775  28.894  1.00  0.00    -0.219 NA
ATOM     56  H   UNL     1     -41.878  40.496  30.505  1.00  0.00     0.106 H 
BRANCH  53  57
ATOM     57  N   UNL     1     -42.281  43.174  27.044  1.00  0.00    -0.383 N 
ATOM     58  H   UNL     1     -43.019  43.496  26.427  1.00  0.00     0.158 HD
ATOM     59  H   UNL     1     -41.825  43.883  27.601  1.00  0.00     0.158 HD
ENDBRANCH  53  57
ENDBRANCH  41  45
ENDBRANCH  33  36
ENDBRANCH  32  33
ENDBRANCH   4  32
TORSDOF 12
ENDMDL
MODEL 6
REMARK VINA RESULT:      -8.6      1.621      2.336
REMARK SMILES CN(C)CCNC(=O)c1ccc(OCc2cncc(-n3ccc4c(N)ncnc43)c2)cc1N
REMARK SMILES IDX 9 1 10 2 11 3 12 4 31 5 32 6 7 10 6 11 8 13 5 14 4 17 2 20
REMARK SMILES IDX 1 21 3 25 33 29 13 32 14 33 15 36 16 37 30 38 17 39 19 41
REMARK SMILES IDX 18 43 20 45 21 46 29 47 22 48 23 50 28 51 24 53 27 54 26 55
REMARK SMILES IDX 25 57
REMARK H PARENT 10 7 11 8 31 9 6 12 5 15 5 16 4 18 4 19 1 22 1 23 1 24 3 26
REMARK H PARENT 3 27 3 28 33 30 33 31 14 34 14 35 16 40 30 42 18 44 21 49
REMARK H PARENT 22 52 27 56 25 58 25 59
REMARK Flexibility Score: inf
ROOT
ATOM      1  C   UNL     1     -47.614  30.890  24.552  1.00  0.00     0.063 A 
ATOM      2  C   UNL     1     -48.294  31.464  25.637  1.00  0.00    -0.044 A 
ATOM      3  C   UNL     1     -47.899  32.703  26.150  1.00  0.00    -0.019 A 
ATOM      4  C   UNL     1     -46.812  33.372  25.593  1.00  0.00     0.121 A 
ATOM      5  C   UNL     1     -46.174  32.828  24.473  1.00  0.00     0.004 A 
ATOM      6  C   UNL     1     -46.589  31.615  23.911  1.00  0.00     0.048 A 
ATOM      7  H   UNL     1     -49.136  30.956  26.099  1.00  0.00     0.063 H 
ATOM      8  H   UNL     1     -48.443  33.097  27.002  1.00  0.00     0.066 H 
ATOM      9  H   UNL     1     -45.333  33.359  24.032  1.00  0.00     0.068 H 
ENDROOT
BRANCH   1  10
ATOM     10  C   UNL     1     -47.969  29.514  24.088  1.00  0.00     0.253 C 
ATOM     11  N   UNL     1     -49.311  29.275  23.868  1.00  0.00    -0.351 N 
ATOM     12  H   UNL     1     -49.990  29.923  24.247  1.00  0.00     0.163 HD
ATOM     13  O   UNL     1     -47.109  28.646  23.985  1.00  0.00    -0.269 OA
BRANCH  11  14
ATOM     14  C   UNL     1     -49.804  27.926  23.665  1.00  0.00     0.030 C 
ATOM     15  H   UNL     1     -50.686  27.774  24.297  1.00  0.00     0.050 H 
ATOM     16  H   UNL     1     -49.021  27.244  24.013  1.00  0.00     0.050 H 
BRANCH  14  17
ATOM     17  C   UNL     1     -50.166  27.616  22.198  1.00  0.00     0.015 C 
ATOM     18  H   UNL     1     -49.336  27.014  21.805  1.00  0.00     0.045 H 
ATOM     19  H   UNL     1     -51.057  26.977  22.144  1.00  0.00     0.045 H 
BRANCH  17  20
ATOM     20  N   UNL     1     -50.332  28.845  21.387  1.00  0.00    -0.308 NA
BRANCH  20  21
ATOM     21  C   UNL     1     -49.586  28.729  20.130  1.00  0.00    -0.014 C 
ATOM     22  H   UNL     1     -50.230  28.344  19.331  1.00  0.00     0.039 H 
ATOM     23  H   UNL     1     -49.237  29.713  19.799  1.00  0.00     0.039 H 
ATOM     24  H   UNL     1     -48.718  28.066  20.224  1.00  0.00     0.039 H 
ENDBRANCH  20  21
BRANCH  20  25
ATOM     25  C   UNL     1     -51.746  29.091  21.072  1.00  0.00    -0.014 C 
ATOM     26  H   UNL     1     -52.390  28.620  21.824  1.00  0.00     0.039 H 
ATOM     27  H   UNL     1     -52.027  28.652  20.111  1.00  0.00     0.039 H 
ATOM     28  H   UNL     1     -51.982  30.162  21.041  1.00  0.00     0.039 H 
ENDBRANCH  20  25
ENDBRANCH  17  20
ENDBRANCH  14  17
ENDBRANCH  11  14
ENDBRANCH   1  10
BRANCH   6  29
ATOM     29  N   UNL     1     -45.824  31.089  22.843  1.00  0.00    -0.398 N 
ATOM     30  H   UNL     1     -46.456  30.750  22.102  1.00  0.00     0.156 HD
ATOM     31  H   UNL     1     -45.252  30.307  23.148  1.00  0.00     0.156 HD
ENDBRANCH   6  29
BRANCH   4  32
ATOM     32  O   UNL     1     -46.248  34.529  26.061  1.00  0.00    -0.489 OA
BRANCH  32  33
ATOM     33  C   UNL     1     -47.096  35.556  26.585  1.00  0.00     0.115 C 
ATOM     34  H   UNL     1     -47.229  36.280  25.772  1.00  0.00     0.076 H 
ATOM     35  H   UNL     1     -48.091  35.146  26.800  1.00  0.00     0.076 H 
BRANCH  33  36
ATOM     36  C   UNL     1     -46.544  36.310  27.772  1.00  0.00     0.010 A 
ATOM     37  C   UNL     1     -46.787  35.840  29.056  1.00  0.00     0.034 A 
ATOM     38  C   UNL     1     -45.791  37.488  27.653  1.00  0.00    -0.028 A 
ATOM     39  N   UNL     1     -46.319  36.429  30.177  1.00  0.00    -0.262 NA
ATOM     40  H   UNL     1     -47.379  34.945  29.230  1.00  0.00     0.084 H 
ATOM     41  C   UNL     1     -45.253  38.110  28.784  1.00  0.00     0.066 A 
ATOM     42  H   UNL     1     -45.640  37.895  26.660  1.00  0.00     0.065 H 
ATOM     43  C   UNL     1     -45.560  37.540  30.015  1.00  0.00     0.051 A 
ATOM     44  H   UNL     1     -45.191  37.930  30.958  1.00  0.00     0.086 H 
BRANCH  41  45
ATOM     45  N   UNL     1     -44.401  39.257  28.692  1.00  0.00    -0.300 N 
ATOM     46  C   UNL     1     -43.396  39.582  29.595  1.00  0.00     0.012 A 
ATOM     47  C   UNL     1     -44.384  40.235  27.692  1.00  0.00     0.150 A 
ATOM     48  C   UNL     1     -42.751  40.723  29.176  1.00  0.00    -0.031 A 
ATOM     49  H   UNL     1     -43.212  38.991  30.481  1.00  0.00     0.082 H 
ATOM     50  C   UNL     1     -43.366  41.142  27.974  1.00  0.00     0.061 A 
ATOM     51  N   UNL     1     -45.183  40.300  26.609  1.00  0.00    -0.218 NA
ATOM     52  H   UNL     1     -41.921  41.198  29.683  1.00  0.00     0.065 H 
ATOM     53  C   UNL     1     -43.174  42.195  27.069  1.00  0.00     0.136 A 
ATOM     54  C   UNL     1     -44.917  41.350  25.823  1.00  0.00     0.120 A 
ATOM     55  N   UNL     1     -43.970  42.285  25.989  1.00  0.00    -0.219 NA
ATOM     56  H   UNL     1     -45.544  41.457  24.943  1.00  0.00     0.106 H 
BRANCH  53  57
ATOM     57  N   UNL     1     -42.203  43.174  27.223  1.00  0.00    -0.383 N 
ATOM     58  H   UNL     1     -42.449  43.803  27.980  1.00  0.00     0.158 HD
ATOM     59  H   UNL     1     -41.251  42.835  27.217  1.00  0.00     0.158 HD
ENDBRANCH  53  57
ENDBRANCH  41  45
ENDBRANCH  33  36
ENDBRANCH  32  33
ENDBRANCH   4  32
TORSDOF 12
ENDMDL
MODEL 7
REMARK VINA RESULT:      -8.6      2.054      2.787
REMARK SMILES CN(C)CCNC(=O)c1ccc(OCc2cncc(-n3ccc4c(N)ncnc43)c2)cc1N
REMARK SMILES IDX 9 1 10 2 11 3 12 4 31 5 32 6 7 10 6 11 8 13 5 14 4 17 2 20
REMARK SMILES IDX 1 21 3 25 33 29 13 32 14 33 15 36 16 37 30 38 17 39 19 41
REMARK SMILES IDX 18 43 20 45 21 46 29 47 22 48 23 50 28 51 24 53 27 54 26 55
REMARK SMILES IDX 25 57
REMARK H PARENT 10 7 11 8 31 9 6 12 5 15 5 16 4 18 4 19 1 22 1 23 1 24 3 26
REMARK H PARENT 3 27 3 28 33 30 33 31 14 34 14 35 16 40 30 42 18 44 21 49
REMARK H PARENT 22 52 27 56 25 58 25 59
REMARK Flexibility Score: inf
ROOT
ATOM      1  C   UNL     1     -47.550  32.537  25.667  1.00  0.00     0.063 A 
ATOM      2  C   UNL     1     -46.254  33.074  25.690  1.00  0.00    -0.044 A 
ATOM      3  C   UNL     1     -46.041  34.407  26.056  1.00  0.00    -0.019 A 
ATOM      4  C   UNL     1     -47.123  35.218  26.387  1.00  0.00     0.121 A 
ATOM      5  C   UNL     1     -48.408  34.665  26.423  1.00  0.00     0.004 A 
ATOM      6  C   UNL     1     -48.635  33.318  26.113  1.00  0.00     0.048 A 
ATOM      7  H   UNL     1     -45.393  32.466  25.422  1.00  0.00     0.063 H 
ATOM      8  H   UNL     1     -45.023  34.782  26.039  1.00  0.00     0.066 H 
ATOM      9  H   UNL     1     -49.251  35.298  26.694  1.00  0.00     0.068 H 
ENDROOT
BRANCH   1  10
ATOM     10  C   UNL     1     -47.777  31.149  25.162  1.00  0.00     0.253 C 
ATOM     11  N   UNL     1     -46.901  30.705  24.190  1.00  0.00    -0.351 N 
ATOM     12  H   UNL     1     -46.330  31.383  23.704  1.00  0.00     0.163 HD
ATOM     13  O   UNL     1     -48.734  30.488  25.553  1.00  0.00    -0.269 OA
BRANCH  11  14
ATOM     14  C   UNL     1     -47.168  29.488  23.447  1.00  0.00     0.030 C 
ATOM     15  H   UNL     1     -47.863  28.868  24.024  1.00  0.00     0.050 H 
ATOM     16  H   UNL     1     -46.219  28.945  23.372  1.00  0.00     0.050 H 
BRANCH  14  17
ATOM     17  C   UNL     1     -47.750  29.738  22.041  1.00  0.00     0.015 C 
ATOM     18  H   UNL     1     -47.669  30.820  21.871  1.00  0.00     0.045 H 
ATOM     19  H   UNL     1     -47.127  29.264  21.271  1.00  0.00     0.045 H 
BRANCH  17  20
ATOM     20  N   UNL     1     -49.164  29.310  21.932  1.00  0.00    -0.308 NA
BRANCH  20  21
ATOM     21  C   UNL     1     -49.428  28.193  22.845  1.00  0.00    -0.014 C 
ATOM     22  H   UNL     1     -49.853  27.341  22.302  1.00  0.00     0.039 H 
ATOM     23  H   UNL     1     -48.495  27.838  23.296  1.00  0.00     0.039 H 
ATOM     24  H   UNL     1     -50.120  28.470  23.649  1.00  0.00     0.039 H 
ENDBRANCH  20  21
BRANCH  20  25
ATOM     25  C   UNL     1     -50.082  30.410  22.259  1.00  0.00    -0.014 C 
ATOM     26  H   UNL     1     -50.433  30.897  21.342  1.00  0.00     0.039 H 
ATOM     27  H   UNL     1     -49.586  31.187  22.847  1.00  0.00     0.039 H 
ATOM     28  H   UNL     1     -50.958  30.064  22.820  1.00  0.00     0.039 H 
ENDBRANCH  20  25
ENDBRANCH  17  20
ENDBRANCH  14  17
ENDBRANCH  11  14
ENDBRANCH   1  10
BRANCH   6  29
ATOM     29  N   UNL     1     -49.976  32.869  26.076  1.00  0.00    -0.398 N 
ATOM     30  H   UNL     1     -49.993  31.838  26.112  1.00  0.00     0.156 HD
ATOM     31  H   UNL     1     -50.440  33.159  25.221  1.00  0.00     0.156 HD
ENDBRANCH   6  29
BRANCH   4  32
ATOM     32  O   UNL     1     -47.076  36.560  26.652  1.00  0.00    -0.489 OA
BRANCH  32  33
ATOM     33  C   UNL     1     -47.393  37.022  27.969  1.00  0.00     0.115 C 
ATOM     34  H   UNL     1     -48.160  37.795  27.841  1.00  0.00     0.076 H 
ATOM     35  H   UNL     1     -47.861  36.215  28.546  1.00  0.00     0.076 H 
BRANCH  33  36
ATOM     36  C   UNL     1     -46.247  37.648  28.730  1.00  0.00     0.010 A 
ATOM     37  C   UNL     1     -45.873  37.122  29.960  1.00  0.00     0.034 A 
ATOM     38  C   UNL     1     -45.528  38.759  28.263  1.00  0.00    -0.028 A 
ATOM     39  N   UNL     1     -44.850  37.595  30.704  1.00  0.00    -0.262 NA
ATOM     40  H   UNL     1     -46.395  36.275  30.398  1.00  0.00     0.084 H 
ATOM     41  C   UNL     1     -44.437  39.258  28.980  1.00  0.00     0.066 A 
ATOM     42  H   UNL     1     -45.845  39.211  27.330  1.00  0.00     0.065 H 
ATOM     43  C   UNL     1     -44.154  38.642  30.195  1.00  0.00     0.051 A 
ATOM     44  H   UNL     1     -43.327  38.937  30.832  1.00  0.00     0.086 H 
BRANCH  41  45
ATOM     45  N   UNL     1     -43.623  40.327  28.487  1.00  0.00    -0.300 N 
ATOM     46  C   UNL     1     -42.480  40.815  29.108  1.00  0.00     0.012 A 
ATOM     47  C   UNL     1     -43.786  41.053  27.303  1.00  0.00     0.150 A 
ATOM     48  C   UNL     1     -41.926  41.811  28.337  1.00  0.00    -0.031 A 
ATOM     49  H   UNL     1     -42.141  40.433  30.061  1.00  0.00     0.082 H 
ATOM     50  C   UNL     1     -42.742  41.968  27.194  1.00  0.00     0.061 A 
ATOM     51  N   UNL     1     -44.761  40.898  26.386  1.00  0.00    -0.218 NA
ATOM     52  H   UNL     1     -41.024  42.362  28.574  1.00  0.00     0.065 H 
ATOM     53  C   UNL     1     -42.718  42.783  26.053  1.00  0.00     0.136 A 
ATOM     54  C   UNL     1     -44.643  41.734  25.347  1.00  0.00     0.120 A 
ATOM     55  N   UNL     1     -43.688  42.652  25.132  1.00  0.00    -0.219 NA
ATOM     56  H   UNL     1     -45.413  41.660  24.585  1.00  0.00     0.106 H 
BRANCH  53  57
ATOM     57  N   UNL     1     -41.742  43.741  25.814  1.00  0.00    -0.383 N 
ATOM     58  H   UNL     1     -40.995  43.352  25.249  1.00  0.00     0.158 HD
ATOM     59  H   UNL     1     -42.093  44.644  25.529  1.00  0.00     0.158 HD
ENDBRANCH  53  57
ENDBRANCH  41  45
ENDBRANCH  33  36
ENDBRANCH  32  33
ENDBRANCH   4  32
TORSDOF 12
ENDMDL
