MODEL 1
REMARK VINA RESULT:      -9.2      0.000      0.000
REMARK SMILES COCCN(C)C(=O)c1ccc(OCc2cncc(-n3cc(-c4ccn(C)n4)c4c(N)ncnc43)c2)cc1N
REMARK SMILES IDX 9 1 10 2 11 3 12 4 37 5 38 6 7 10 8 11 5 12 4 13 3 16 2 19
REMARK SMILES IDX 1 20 6 24 39 28 13 31 14 32 15 35 16 36 36 37 17 38 19 40
REMARK SMILES IDX 18 42 20 44 21 45 35 46 22 47 29 49 34 50 30 51 33 52 32 53
REMARK SMILES IDX 23 55 24 56 28 57 25 58 26 60 27 62 31 66
REMARK H PARENT 10 7 11 8 37 9 4 14 4 15 3 17 3 18 1 21 1 22 1 23 6 25 6 26
REMARK H PARENT 6 27 39 29 39 30 14 33 14 34 16 39 36 41 18 43 21 48 33 54
REMARK H PARENT 24 59 25 61 27 63 27 64 27 65 31 67 31 68
REMARK Flexibility Score: inf
ROOT
ATOM      1  C   UNL     1     -47.577  31.662  24.110  1.00  0.00     0.063 A 
ATOM      2  C   UNL     1     -46.450  32.364  24.555  1.00  0.00    -0.044 A 
ATOM      3  C   UNL     1     -46.558  33.249  25.628  1.00  0.00    -0.019 A 
ATOM      4  C   UNL     1     -47.786  33.415  26.268  1.00  0.00     0.121 A 
ATOM      5  C   UNL     1     -48.901  32.690  25.824  1.00  0.00     0.004 A 
ATOM      6  C   UNL     1     -48.831  31.825  24.724  1.00  0.00     0.048 A 
ATOM      7  H   UNL     1     -45.490  32.211  24.067  1.00  0.00     0.063 H 
ATOM      8  H   UNL     1     -45.664  33.777  25.943  1.00  0.00     0.066 H 
ATOM      9  H   UNL     1     -49.839  32.796  26.366  1.00  0.00     0.068 H 
ENDROOT
BRANCH   1  10
ATOM     10  C   UNL     1     -47.395  30.744  22.967  1.00  0.00     0.255 C 
ATOM     11  O   UNL     1     -48.001  30.994  21.927  1.00  0.00    -0.269 OA
BRANCH  10  12
ATOM     12  N   UNL     1     -46.550  29.643  23.131  1.00  0.00    -0.339 N 
BRANCH  12  13
ATOM     13  C   UNL     1     -47.056  28.501  23.896  1.00  0.00     0.044 C 
ATOM     14  H   UNL     1     -47.204  28.793  24.940  1.00  0.00     0.052 H 
ATOM     15  H   UNL     1     -46.290  27.718  23.889  1.00  0.00     0.052 H 
BRANCH  13  16
ATOM     16  C   UNL     1     -48.376  27.948  23.333  1.00  0.00     0.064 C 
ATOM     17  H   UNL     1     -48.978  28.780  22.951  1.00  0.00     0.059 H 
ATOM     18  H   UNL     1     -48.188  27.280  22.485  1.00  0.00     0.059 H 
BRANCH  16  19
ATOM     19  O   UNL     1     -49.181  27.290  24.318  1.00  0.00    -0.383 OA
BRANCH  19  20
ATOM     20  C   UNL     1     -48.404  26.565  25.267  1.00  0.00     0.036 C 
ATOM     21  H   UNL     1     -48.133  27.188  26.121  1.00  0.00     0.053 H 
ATOM     22  H   UNL     1     -49.004  25.725  25.627  1.00  0.00     0.053 H 
ATOM     23  H   UNL     1     -47.502  26.167  24.793  1.00  0.00     0.053 H 
ENDBRANCH  19  20
ENDBRANCH  16  19
ENDBRANCH  13  16
ENDBRANCH  12  13
BRANCH  12  24
ATOM     24  C   UNL     1     -45.315  29.451  22.382  1.00  0.00     0.010 C 
ATOM     25  H   UNL     1     -44.466  29.744  23.005  1.00  0.00     0.046 H 
ATOM     26  H   UNL     1     -45.195  28.410  22.075  1.00  0.00     0.046 H 
ATOM     27  H   UNL     1     -45.341  30.073  21.483  1.00  0.00     0.046 H 
ENDBRANCH  12  24
ENDBRANCH  10  12
ENDBRANCH   1  10
BRANCH   6  28
ATOM     28  N   UNL     1     -49.937  31.014  24.435  1.00  0.00    -0.398 N 
ATOM     29  H   UNL     1     -49.733  30.071  24.089  1.00  0.00     0.156 HD
ATOM     30  H   UNL     1     -50.695  31.460  23.934  1.00  0.00     0.156 HD
ENDBRANCH   6  28
BRANCH   4  31
ATOM     31  O   UNL     1     -48.031  34.233  27.337  1.00  0.00    -0.489 OA
BRANCH  31  32
ATOM     32  C   UNL     1     -48.174  35.628  27.073  1.00  0.00     0.115 C 
ATOM     33  H   UNL     1     -47.968  35.820  26.013  1.00  0.00     0.076 H 
ATOM     34  H   UNL     1     -49.185  35.968  27.326  1.00  0.00     0.076 H 
BRANCH  32  35
ATOM     35  C   UNL     1     -47.199  36.397  27.927  1.00  0.00     0.010 A 
ATOM     36  C   UNL     1     -46.809  35.911  29.167  1.00  0.00     0.034 A 
ATOM     37  C   UNL     1     -46.602  37.587  27.484  1.00  0.00    -0.028 A 
ATOM     38  N   UNL     1     -45.909  36.520  29.964  1.00  0.00    -0.262 NA
ATOM     39  H   UNL     1     -47.217  34.988  29.572  1.00  0.00     0.084 H 
ATOM     40  C   UNL     1     -45.665  38.258  28.283  1.00  0.00     0.066 A 
ATOM     41  H   UNL     1     -46.885  37.952  26.501  1.00  0.00     0.065 H 
ATOM     42  C   UNL     1     -45.362  37.677  29.509  1.00  0.00     0.051 A 
ATOM     43  H   UNL     1     -44.669  38.110  30.221  1.00  0.00     0.086 H 
BRANCH  40  44
ATOM     44  N   UNL     1     -45.062  39.483  27.849  1.00  0.00    -0.299 N 
ATOM     45  C   UNL     1     -45.485  40.232  26.767  1.00  0.00     0.021 A 
ATOM     46  C   UNL     1     -43.964  40.149  28.402  1.00  0.00     0.150 A 
ATOM     47  C   UNL     1     -44.703  41.360  26.650  1.00  0.00     0.033 A 
ATOM     48  H   UNL     1     -46.335  39.948  26.163  1.00  0.00     0.083 H 
ATOM     49  C   UNL     1     -43.704  41.300  27.655  1.00  0.00     0.071 A 
ATOM     50  N   UNL     1     -43.242  39.744  29.466  1.00  0.00    -0.218 NA
ATOM     51  C   UNL     1     -42.585  42.060  28.037  1.00  0.00     0.137 A 
ATOM     52  C   UNL     1     -42.226  40.563  29.754  1.00  0.00     0.120 A 
ATOM     53  N   UNL     1     -41.861  41.677  29.103  1.00  0.00    -0.219 NA
ATOM     54  H   UNL     1     -41.619  40.293  30.613  1.00  0.00     0.106 H 
BRANCH  47  55
ATOM     55  C   UNL     1     -44.893  42.409  25.652  1.00  0.00     0.095 A 
ATOM     56  C   UNL     1     -46.055  43.195  25.503  1.00  0.00    -0.016 A 
ATOM     57  N   UNL     1     -43.977  42.687  24.719  1.00  0.00    -0.173 NA
ATOM     58  C   UNL     1     -45.793  44.009  24.427  1.00  0.00     0.025 A 
ATOM     59  H   UNL     1     -46.961  43.169  26.093  1.00  0.00     0.066 H 
ATOM     60  N   UNL     1     -44.545  43.667  23.994  1.00  0.00    -0.275 N 
ATOM     61  H   UNL     1     -46.381  44.775  23.941  1.00  0.00     0.084 H 
BRANCH  60  62
ATOM     62  C   UNL     1     -43.828  44.231  22.877  1.00  0.00     0.030 C 
ATOM     63  H   UNL     1     -43.324  43.420  22.345  1.00  0.00     0.048 H 
ATOM     64  H   UNL     1     -43.100  44.950  23.262  1.00  0.00     0.048 H 
ATOM     65  H   UNL     1     -44.531  44.735  22.210  1.00  0.00     0.048 H 
ENDBRANCH  60  62
ENDBRANCH  47  55
BRANCH  51  66
ATOM     66  N   UNL     1     -42.123  43.184  27.364  1.00  0.00    -0.383 N 
ATOM     67  H   UNL     1     -42.035  43.053  26.363  1.00  0.00     0.158 HD
ATOM     68  H   UNL     1     -41.293  43.539  27.826  1.00  0.00     0.158 HD
ENDBRANCH  51  66
ENDBRANCH  40  44
ENDBRANCH  32  35
ENDBRANCH  31  32
ENDBRANCH   4  31
TORSDOF 15
ENDMDL
MODEL 2
REMARK VINA RESULT:      -8.9      1.535      2.114
REMARK SMILES COCCN(C)C(=O)c1ccc(OCc2cncc(-n3cc(-c4ccn(C)n4)c4c(N)ncnc43)c2)cc1N
REMARK SMILES IDX 9 1 10 2 11 3 12 4 37 5 38 6 7 10 8 11 5 12 4 13 3 16 2 19
REMARK SMILES IDX 1 20 6 24 39 28 13 31 14 32 15 35 16 36 36 37 17 38 19 40
REMARK SMILES IDX 18 42 20 44 21 45 35 46 22 47 29 49 34 50 30 51 33 52 32 53
REMARK SMILES IDX 23 55 24 56 28 57 25 58 26 60 27 62 31 66
REMARK H PARENT 10 7 11 8 37 9 4 14 4 15 3 17 3 18 1 21 1 22 1 23 6 25 6 26
REMARK H PARENT 6 27 39 29 39 30 14 33 14 34 16 39 36 41 18 43 21 48 33 54
REMARK H PARENT 24 59 25 61 27 63 27 64 27 65 31 67 31 68
REMARK Flexibility Score: inf
ROOT
ATOM      1  C   UNL     1     -47.601  30.573  24.266  1.00  0.00     0.063 A 
ATOM      2  C   UNL     1     -48.552  31.153  25.116  1.00  0.00    -0.044 A 
ATOM      3  C   UNL     1     -48.339  32.432  25.631  1.00  0.00    -0.019 A 
ATOM      4  C   UNL     1     -47.188  33.138  25.279  1.00  0.00     0.121 A 
ATOM      5  C   UNL     1     -46.255  32.551  24.410  1.00  0.00     0.004 A 
ATOM      6  C   UNL     1     -46.424  31.254  23.910  1.00  0.00     0.048 A 
ATOM      7  H   UNL     1     -49.458  30.607  25.366  1.00  0.00     0.063 H 
ATOM      8  H   UNL     1     -49.094  32.848  26.288  1.00  0.00     0.066 H 
ATOM      9  H   UNL     1     -45.388  33.136  24.109  1.00  0.00     0.068 H 
ENDROOT
BRANCH   1  10
ATOM     10  C   UNL     1     -47.887  29.215  23.759  1.00  0.00     0.255 C 
ATOM     11  O   UNL     1     -47.857  29.038  22.543  1.00  0.00    -0.269 OA
BRANCH  10  12
ATOM     12  N   UNL     1     -48.178  28.211  24.686  1.00  0.00    -0.339 N 
BRANCH  12  13
ATOM     13  C   UNL     1     -49.576  28.035  25.086  1.00  0.00     0.044 C 
ATOM     14  H   UNL     1     -50.092  28.999  25.059  1.00  0.00     0.052 H 
ATOM     15  H   UNL     1     -49.593  27.694  26.127  1.00  0.00     0.052 H 
BRANCH  13  16
ATOM     16  C   UNL     1     -50.327  27.033  24.193  1.00  0.00     0.064 C 
ATOM     17  H   UNL     1     -51.331  27.420  23.988  1.00  0.00     0.059 H 
ATOM     18  H   UNL     1     -49.826  26.924  23.224  1.00  0.00     0.059 H 
BRANCH  16  19
ATOM     19  O   UNL     1     -50.509  25.752  24.808  1.00  0.00    -0.383 OA
BRANCH  19  20
ATOM     20  C   UNL     1     -50.597  25.831  26.227  1.00  0.00     0.036 C 
ATOM     21  H   UNL     1     -51.060  26.767  26.547  1.00  0.00     0.053 H 
ATOM     22  H   UNL     1     -51.217  25.001  26.576  1.00  0.00     0.053 H 
ATOM     23  H   UNL     1     -49.604  25.733  26.674  1.00  0.00     0.053 H 
ENDBRANCH  19  20
ENDBRANCH  16  19
ENDBRANCH  13  16
ENDBRANCH  12  13
BRANCH  12  24
ATOM     24  C   UNL     1     -47.235  27.171  25.077  1.00  0.00     0.010 C 
ATOM     25  H   UNL     1     -46.743  26.776  24.185  1.00  0.00     0.046 H 
ATOM     26  H   UNL     1     -46.479  27.560  25.764  1.00  0.00     0.046 H 
ATOM     27  H   UNL     1     -47.777  26.368  25.583  1.00  0.00     0.046 H 
ENDBRANCH  12  24
ENDBRANCH  10  12
ENDBRANCH   1  10
BRANCH   6  28
ATOM     28  N   UNL     1     -45.541  30.792  22.925  1.00  0.00    -0.398 N 
ATOM     29  H   UNL     1     -45.778  29.900  22.481  1.00  0.00     0.156 HD
ATOM     30  H   UNL     1     -44.555  30.874  23.140  1.00  0.00     0.156 HD
ENDBRANCH   6  28
BRANCH   4  31
ATOM     31  O   UNL     1     -46.860  34.399  25.695  1.00  0.00    -0.489 OA
BRANCH  31  32
ATOM     32  C   UNL     1     -46.858  34.644  27.101  1.00  0.00     0.115 C 
ATOM     33  H   UNL     1     -47.624  34.021  27.578  1.00  0.00     0.076 H 
ATOM     34  H   UNL     1     -45.874  34.424  27.531  1.00  0.00     0.076 H 
BRANCH  32  35
ATOM     35  C   UNL     1     -47.160  36.099  27.351  1.00  0.00     0.010 A 
ATOM     36  C   UNL     1     -48.448  36.511  27.662  1.00  0.00     0.034 A 
ATOM     37  C   UNL     1     -46.154  37.077  27.346  1.00  0.00    -0.028 A 
ATOM     38  N   UNL     1     -48.783  37.786  27.942  1.00  0.00    -0.262 NA
ATOM     39  H   UNL     1     -49.278  35.809  27.699  1.00  0.00     0.084 H 
ATOM     40  C   UNL     1     -46.457  38.418  27.626  1.00  0.00     0.066 A 
ATOM     41  H   UNL     1     -45.140  36.750  27.132  1.00  0.00     0.065 H 
ATOM     42  C   UNL     1     -47.786  38.709  27.914  1.00  0.00     0.051 A 
ATOM     43  H   UNL     1     -48.147  39.708  28.127  1.00  0.00     0.086 H 
BRANCH  40  44
ATOM     44  N   UNL     1     -45.441  39.428  27.606  1.00  0.00    -0.299 N 
ATOM     45  C   UNL     1     -45.324  40.412  26.643  1.00  0.00     0.021 A 
ATOM     46  C   UNL     1     -44.398  39.621  28.516  1.00  0.00     0.150 A 
ATOM     47  C   UNL     1     -44.258  41.231  26.945  1.00  0.00     0.033 A 
ATOM     48  H   UNL     1     -46.019  40.504  25.821  1.00  0.00     0.083 H 
ATOM     49  C   UNL     1     -43.633  40.716  28.108  1.00  0.00     0.071 A 
ATOM     50  N   UNL     1     -44.140  38.865  29.602  1.00  0.00    -0.218 NA
ATOM     51  C   UNL     1     -42.496  41.013  28.881  1.00  0.00     0.137 A 
ATOM     52  C   UNL     1     -43.056  39.263  30.275  1.00  0.00     0.120 A 
ATOM     53  N   UNL     1     -42.230  40.276  29.973  1.00  0.00    -0.219 NA
ATOM     54  H   UNL     1     -42.809  38.698  31.168  1.00  0.00     0.106 H 
BRANCH  47  55
ATOM     55  C   UNL     1     -43.866  42.410  26.178  1.00  0.00     0.095 A 
ATOM     56  C   UNL     1     -43.814  43.729  26.674  1.00  0.00    -0.016 A 
ATOM     57  N   UNL     1     -43.572  42.353  24.874  1.00  0.00    -0.173 NA
ATOM     58  C   UNL     1     -43.435  44.495  25.597  1.00  0.00     0.025 A 
ATOM     59  H   UNL     1     -44.027  44.076  27.676  1.00  0.00     0.066 H 
ATOM     60  N   UNL     1     -43.306  43.631  24.549  1.00  0.00    -0.275 N 
ATOM     61  H   UNL     1     -43.264  45.557  25.492  1.00  0.00     0.084 H 
BRANCH  60  62
ATOM     62  C   UNL     1     -42.939  43.957  23.194  1.00  0.00     0.030 C 
ATOM     63  H   UNL     1     -43.845  43.967  22.583  1.00  0.00     0.048 H 
ATOM     64  H   UNL     1     -42.240  43.198  22.834  1.00  0.00     0.048 H 
ATOM     65  H   UNL     1     -42.463  44.941  23.172  1.00  0.00     0.048 H 
ENDBRANCH  60  62
ENDBRANCH  47  55
BRANCH  51  66
ATOM     66  N   UNL     1     -41.573  42.007  28.582  1.00  0.00    -0.383 N 
ATOM     67  H   UNL     1     -41.525  42.742  29.277  1.00  0.00     0.158 HD
ATOM     68  H   UNL     1     -41.715  42.326  27.629  1.00  0.00     0.158 HD
ENDBRANCH  51  66
ENDBRANCH  40  44
ENDBRANCH  32  35
ENDBRANCH  31  32
ENDBRANCH   4  31
TORSDOF 15
ENDMDL
MODEL 3
REMARK VINA RESULT:      -8.7      1.942      3.302
REMARK SMILES COCCN(C)C(=O)c1ccc(OCc2cncc(-n3cc(-c4ccn(C)n4)c4c(N)ncnc43)c2)cc1N
REMARK SMILES IDX 9 1 10 2 11 3 12 4 37 5 38 6 7 10 8 11 5 12 4 13 3 16 2 19
REMARK SMILES IDX 1 20 6 24 39 28 13 31 14 32 15 35 16 36 36 37 17 38 19 40
REMARK SMILES IDX 18 42 20 44 21 45 35 46 22 47 29 49 34 50 30 51 33 52 32 53
REMARK SMILES IDX 23 55 24 56 28 57 25 58 26 60 27 62 31 66
REMARK H PARENT 10 7 11 8 37 9 4 14 4 15 3 17 3 18 1 21 1 22 1 23 6 25 6 26
REMARK H PARENT 6 27 39 29 39 30 14 33 14 34 16 39 36 41 18 43 21 48 33 54
REMARK H PARENT 24 59 25 61 27 63 27 64 27 65 31 67 31 68
REMARK Flexibility Score: inf
ROOT
ATOM      1  C   UNL     1     -47.765  31.236  24.403  1.00  0.00     0.063 A 
ATOM      2  C   UNL     1     -48.633  31.660  25.418  1.00  0.00    -0.044 A 
ATOM      3  C   UNL     1     -48.347  32.819  26.141  1.00  0.00    -0.019 A 
ATOM      4  C   UNL     1     -47.209  33.564  25.833  1.00  0.00     0.121 A 
ATOM      5  C   UNL     1     -46.361  33.137  24.801  1.00  0.00     0.004 A 
ATOM      6  C   UNL     1     -46.601  31.957  24.086  1.00  0.00     0.048 A 
ATOM      7  H   UNL     1     -49.532  31.088  25.636  1.00  0.00     0.063 H 
ATOM      8  H   UNL     1     -49.040  33.115  26.922  1.00  0.00     0.066 H 
ATOM      9  H   UNL     1     -45.504  33.757  24.544  1.00  0.00     0.068 H 
ENDROOT
BRANCH   1  10
ATOM     10  C   UNL     1     -48.124  29.999  23.680  1.00  0.00     0.255 C 
ATOM     11  O   UNL     1     -47.304  29.084  23.664  1.00  0.00    -0.269 OA
BRANCH  10  12
ATOM     12  N   UNL     1     -49.371  29.938  23.051  1.00  0.00    -0.339 N 
BRANCH  12  13
ATOM     13  C   UNL     1     -49.612  30.840  21.923  1.00  0.00     0.044 C 
ATOM     14  H   UNL     1     -49.578  31.879  22.267  1.00  0.00     0.052 H 
ATOM     15  H   UNL     1     -50.627  30.661  21.552  1.00  0.00     0.052 H 
BRANCH  13  16
ATOM     16  C   UNL     1     -48.596  30.650  20.784  1.00  0.00     0.064 C 
ATOM     17  H   UNL     1     -48.850  31.328  19.962  1.00  0.00     0.059 H 
ATOM     18  H   UNL     1     -47.586  30.919  21.115  1.00  0.00     0.059 H 
BRANCH  16  19
ATOM     19  O   UNL     1     -48.605  29.329  20.231  1.00  0.00    -0.383 OA
BRANCH  19  20
ATOM     20  C   UNL     1     -49.782  29.058  19.476  1.00  0.00     0.036 C 
ATOM     21  H   UNL     1     -50.269  29.979  19.150  1.00  0.00     0.053 H 
ATOM     22  H   UNL     1     -49.493  28.486  18.589  1.00  0.00     0.053 H 
ATOM     23  H   UNL     1     -50.479  28.454  20.064  1.00  0.00     0.053 H 
ENDBRANCH  19  20
ENDBRANCH  16  19
ENDBRANCH  13  16
ENDBRANCH  12  13
BRANCH  12  24
ATOM     24  C   UNL     1     -50.339  28.872  23.273  1.00  0.00     0.010 C 
ATOM     25  H   UNL     1     -49.901  28.118  23.932  1.00  0.00     0.046 H 
ATOM     26  H   UNL     1     -51.257  29.256  23.723  1.00  0.00     0.046 H 
ATOM     27  H   UNL     1     -50.594  28.414  22.312  1.00  0.00     0.046 H 
ENDBRANCH  12  24
ENDBRANCH  10  12
ENDBRANCH   1  10
BRANCH   6  28
ATOM     28  N   UNL     1     -45.808  31.675  22.966  1.00  0.00    -0.398 N 
ATOM     29  H   UNL     1     -45.737  30.691  22.692  1.00  0.00     0.156 HD
ATOM     30  H   UNL     1     -44.921  32.161  22.918  1.00  0.00     0.156 HD
ENDBRANCH   6  28
BRANCH   4  31
ATOM     31  O   UNL     1     -46.817  34.722  26.447  1.00  0.00    -0.489 OA
BRANCH  31  32
ATOM     32  C   UNL     1     -46.089  34.602  27.668  1.00  0.00     0.115 C 
ATOM     33  H   UNL     1     -46.586  33.870  28.316  1.00  0.00     0.076 H 
ATOM     34  H   UNL     1     -45.056  34.290  27.473  1.00  0.00     0.076 H 
BRANCH  32  35
ATOM     35  C   UNL     1     -46.047  35.942  28.355  1.00  0.00     0.010 A 
ATOM     36  C   UNL     1     -46.069  36.028  29.740  1.00  0.00     0.034 A 
ATOM     37  C   UNL     1     -45.919  37.141  27.637  1.00  0.00    -0.028 A 
ATOM     38  N   UNL     1     -45.990  37.187  30.423  1.00  0.00    -0.262 NA
ATOM     39  H   UNL     1     -46.152  35.142  30.365  1.00  0.00     0.084 H 
ATOM     40  C   UNL     1     -45.839  38.371  28.306  1.00  0.00     0.066 A 
ATOM     41  H   UNL     1     -45.872  37.071  26.554  1.00  0.00     0.065 H 
ATOM     42  C   UNL     1     -45.881  38.329  29.695  1.00  0.00     0.051 A 
ATOM     43  H   UNL     1     -45.846  39.212  30.322  1.00  0.00     0.086 H 
BRANCH  40  44
ATOM     44  N   UNL     1     -45.726  39.603  27.583  1.00  0.00    -0.299 N 
ATOM     45  C   UNL     1     -44.537  40.156  27.146  1.00  0.00     0.021 A 
ATOM     46  C   UNL     1     -46.749  40.468  27.186  1.00  0.00     0.150 A 
ATOM     47  C   UNL     1     -44.793  41.323  26.462  1.00  0.00     0.033 A 
ATOM     48  H   UNL     1     -43.582  39.678  27.309  1.00  0.00     0.083 H 
ATOM     49  C   UNL     1     -46.190  41.559  26.516  1.00  0.00     0.071 A 
ATOM     50  N   UNL     1     -48.065  40.307  27.428  1.00  0.00    -0.218 NA
ATOM     51  C   UNL     1     -47.079  42.567  26.101  1.00  0.00     0.137 A 
ATOM     52  C   UNL     1     -48.813  41.311  26.958  1.00  0.00     0.120 A 
ATOM     53  N   UNL     1     -48.396  42.417  26.324  1.00  0.00    -0.219 NA
ATOM     54  H   UNL     1     -49.884  41.226  27.112  1.00  0.00     0.106 H 
BRANCH  47  55
ATOM     55  C   UNL     1     -43.780  42.151  25.812  1.00  0.00     0.095 A 
ATOM     56  C   UNL     1     -42.597  42.623  26.419  1.00  0.00    -0.016 A 
ATOM     57  N   UNL     1     -43.917  42.604  24.562  1.00  0.00    -0.173 NA
ATOM     58  C   UNL     1     -41.983  43.380  25.450  1.00  0.00     0.025 A 
ATOM     59  H   UNL     1     -42.242  42.441  27.424  1.00  0.00     0.066 H 
ATOM     60  N   UNL     1     -42.808  43.340  24.364  1.00  0.00    -0.275 N 
ATOM     61  H   UNL     1     -41.057  43.938  25.449  1.00  0.00     0.084 H 
BRANCH  60  62
ATOM     62  C   UNL     1     -42.607  43.994  23.095  1.00  0.00     0.030 C 
ATOM     63  H   UNL     1     -41.623  44.468  23.103  1.00  0.00     0.048 H 
ATOM     64  H   UNL     1     -43.394  44.742  22.964  1.00  0.00     0.048 H 
ATOM     65  H   UNL     1     -42.660  43.255  22.292  1.00  0.00     0.048 H 
ENDBRANCH  60  62
ENDBRANCH  47  55
BRANCH  51  66
ATOM     66  N   UNL     1     -46.699  43.759  25.498  1.00  0.00    -0.383 N 
ATOM     67  H   UNL     1     -46.870  43.785  24.500  1.00  0.00     0.158 HD
ATOM     68  H   UNL     1     -45.751  43.993  25.777  1.00  0.00     0.158 HD
ENDBRANCH  51  66
ENDBRANCH  40  44
ENDBRANCH  32  35
ENDBRANCH  31  32
ENDBRANCH   4  31
TORSDOF 15
ENDMDL
MODEL 4
REMARK VINA RESULT:      -8.6      2.017      3.156
REMARK SMILES COCCN(C)C(=O)c1ccc(OCc2cncc(-n3cc(-c4ccn(C)n4)c4c(N)ncnc43)c2)cc1N
REMARK SMILES IDX 9 1 10 2 11 3 12 4 37 5 38 6 7 10 8 11 5 12 4 13 3 16 2 19
REMARK SMILES IDX 1 20 6 24 39 28 13 31 14 32 15 35 16 36 36 37 17 38 19 40
REMARK SMILES IDX 18 42 20 44 21 45 35 46 22 47 29 49 34 50 30 51 33 52 32 53
REMARK SMILES IDX 23 55 24 56 28 57 25 58 26 60 27 62 31 66
REMARK H PARENT 10 7 11 8 37 9 4 14 4 15 3 17 3 18 1 21 1 22 1 23 6 25 6 26
REMARK H PARENT 6 27 39 29 39 30 14 33 14 34 16 39 36 41 18 43 21 48 33 54
REMARK H PARENT 24 59 25 61 27 63 27 64 27 65 31 67 31 68
REMARK Flexibility Score: inf
ROOT
ATOM      1  C   UNL     1     -47.820  30.257  24.102  1.00  0.00     0.063 A 
ATOM      2  C   UNL     1     -48.877  30.605  24.953  1.00  0.00    -0.044 A 
ATOM      3  C   UNL     1     -48.759  31.710  25.797  1.00  0.00    -0.019 A 
ATOM      4  C   UNL     1     -47.595  32.478  25.774  1.00  0.00     0.121 A 
ATOM      5  C   UNL     1     -46.553  32.129  24.902  1.00  0.00     0.004 A 
ATOM      6  C   UNL     1     -46.628  31.002  24.073  1.00  0.00     0.048 A 
ATOM      7  H   UNL     1     -49.792  30.017  24.948  1.00  0.00     0.063 H 
ATOM      8  H   UNL     1     -49.596  31.947  26.444  1.00  0.00     0.066 H 
ATOM      9  H   UNL     1     -45.672  32.767  24.863  1.00  0.00     0.068 H 
ENDROOT
BRANCH   1  10
ATOM     10  C   UNL     1     -48.009  29.075  23.238  1.00  0.00     0.255 C 
ATOM     11  O   UNL     1     -47.937  29.235  22.021  1.00  0.00    -0.269 OA
BRANCH  10  12
ATOM     12  N   UNL     1     -48.262  27.843  23.848  1.00  0.00    -0.339 N 
BRANCH  12  13
ATOM     13  C   UNL     1     -47.266  27.330  24.791  1.00  0.00     0.044 C 
ATOM     14  H   UNL     1     -46.469  28.068  24.924  1.00  0.00     0.052 H 
ATOM     15  H   UNL     1     -46.805  26.439  24.351  1.00  0.00     0.052 H 
BRANCH  13  16
ATOM     16  C   UNL     1     -47.871  26.985  26.163  1.00  0.00     0.064 C 
ATOM     17  H   UNL     1     -47.943  27.900  26.762  1.00  0.00     0.059 H 
ATOM     18  H   UNL     1     -48.890  26.599  26.052  1.00  0.00     0.059 H 
BRANCH  16  19
ATOM     19  O   UNL     1     -47.070  26.072  26.921  1.00  0.00    -0.383 OA
BRANCH  19  20
ATOM     20  C   UNL     1     -47.439  24.712  26.712  1.00  0.00     0.036 C 
ATOM     21  H   UNL     1     -48.519  24.605  26.591  1.00  0.00     0.053 H 
ATOM     22  H   UNL     1     -46.952  24.365  25.796  1.00  0.00     0.053 H 
ATOM     23  H   UNL     1     -47.092  24.093  27.544  1.00  0.00     0.053 H 
ENDBRANCH  19  20
ENDBRANCH  16  19
ENDBRANCH  13  16
ENDBRANCH  12  13
BRANCH  12  24
ATOM     24  C   UNL     1     -49.553  27.170  23.807  1.00  0.00     0.010 C 
ATOM     25  H   UNL     1     -50.025  27.351  22.838  1.00  0.00     0.046 H 
ATOM     26  H   UNL     1     -49.445  26.093  23.960  1.00  0.00     0.046 H 
ATOM     27  H   UNL     1     -50.190  27.566  24.604  1.00  0.00     0.046 H 
ENDBRANCH  12  24
ENDBRANCH  10  12
ENDBRANCH   1  10
BRANCH   6  28
ATOM     28  N   UNL     1     -45.625  30.804  23.115  1.00  0.00    -0.398 N 
ATOM     29  H   UNL     1     -44.850  30.191  23.385  1.00  0.00     0.156 HD
ATOM     30  H   UNL     1     -45.317  31.631  22.619  1.00  0.00     0.156 HD
ENDBRANCH   6  28
BRANCH   4  31
ATOM     31  O   UNL     1     -47.350  33.590  26.532  1.00  0.00    -0.489 OA
BRANCH  31  32
ATOM     32  C   UNL     1     -46.889  34.757  25.853  1.00  0.00     0.115 C 
ATOM     33  H   UNL     1     -45.865  34.589  25.498  1.00  0.00     0.076 H 
ATOM     34  H   UNL     1     -47.544  34.996  25.007  1.00  0.00     0.076 H 
BRANCH  32  35
ATOM     35  C   UNL     1     -46.912  35.926  26.802  1.00  0.00     0.010 A 
ATOM     36  C   UNL     1     -47.176  35.736  28.152  1.00  0.00     0.034 A 
ATOM     37  C   UNL     1     -46.608  37.230  26.383  1.00  0.00    -0.028 A 
ATOM     38  N   UNL     1     -47.169  36.726  29.066  1.00  0.00    -0.262 NA
ATOM     39  H   UNL     1     -47.406  34.753  28.555  1.00  0.00     0.084 H 
ATOM     40  C   UNL     1     -46.595  38.293  27.299  1.00  0.00     0.066 A 
ATOM     41  H   UNL     1     -46.373  37.374  25.332  1.00  0.00     0.065 H 
ATOM     42  C   UNL     1     -46.884  37.978  28.622  1.00  0.00     0.051 A 
ATOM     43  H   UNL     1     -46.923  38.713  29.416  1.00  0.00     0.086 H 
BRANCH  40  44
ATOM     44  N   UNL     1     -46.303  39.631  26.878  1.00  0.00    -0.299 N 
ATOM     45  C   UNL     1     -45.057  40.081  26.485  1.00  0.00     0.021 A 
ATOM     46  C   UNL     1     -47.178  40.717  26.784  1.00  0.00     0.150 A 
ATOM     47  C   UNL     1     -45.138  41.406  26.118  1.00  0.00     0.033 A 
ATOM     48  H   UNL     1     -44.192  39.434  26.449  1.00  0.00     0.083 H 
ATOM     49  C   UNL     1     -46.469  41.837  26.344  1.00  0.00     0.071 A 
ATOM     50  N   UNL     1     -48.490  40.710  27.092  1.00  0.00    -0.218 NA
ATOM     51  C   UNL     1     -47.188  43.043  26.255  1.00  0.00     0.137 A 
ATOM     52  C   UNL     1     -49.073  41.902  26.937  1.00  0.00     0.120 A 
ATOM     53  N   UNL     1     -48.500  43.051  26.547  1.00  0.00    -0.219 NA
ATOM     54  H   UNL     1     -50.135  41.951  27.157  1.00  0.00     0.106 H 
BRANCH  47  55
ATOM     55  C   UNL     1     -44.027  42.198  25.598  1.00  0.00     0.095 A 
ATOM     56  C   UNL     1     -42.893  42.600  26.335  1.00  0.00    -0.016 A 
ATOM     57  N   UNL     1     -44.013  42.684  24.352  1.00  0.00    -0.173 NA
ATOM     58  C   UNL     1     -42.148  43.348  25.454  1.00  0.00     0.025 A 
ATOM     59  H   UNL     1     -42.652  42.380  27.366  1.00  0.00     0.066 H 
ATOM     60  N   UNL     1     -42.858  43.371  24.289  1.00  0.00    -0.275 N 
ATOM     61  H   UNL     1     -41.203  43.862  25.563  1.00  0.00     0.084 H 
BRANCH  60  62
ATOM     62  C   UNL     1     -42.497  44.042  23.065  1.00  0.00     0.030 C 
ATOM     63  H   UNL     1     -43.235  44.825  22.870  1.00  0.00     0.048 H 
ATOM     64  H   UNL     1     -42.493  43.307  22.256  1.00  0.00     0.048 H 
ATOM     65  H   UNL     1     -41.503  44.484  23.171  1.00  0.00     0.048 H 
ENDBRANCH  60  62
ENDBRANCH  47  55
BRANCH  51  66
ATOM     66  N   UNL     1     -46.634  44.271  25.919  1.00  0.00    -0.383 N 
ATOM     67  H   UNL     1     -45.697  44.207  25.540  1.00  0.00     0.158 HD
ATOM     68  H   UNL     1     -46.741  44.914  26.697  1.00  0.00     0.158 HD
ENDBRANCH  51  66
ENDBRANCH  40  44
ENDBRANCH  32  35
ENDBRANCH  31  32
ENDBRANCH   4  31
TORSDOF 15
ENDMDL
MODEL 5
REMARK VINA RESULT:      -8.4      1.845      2.517
REMARK SMILES COCCN(C)C(=O)c1ccc(OCc2cncc(-n3cc(-c4ccn(C)n4)c4c(N)ncnc43)c2)cc1N
REMARK SMILES IDX 9 1 10 2 11 3 12 4 37 5 38 6 7 10 8 11 5 12 4 13 3 16 2 19
REMARK SMILES IDX 1 20 6 24 39 28 13 31 14 32 15 35 16 36 36 37 17 38 19 40
REMARK SMILES IDX 18 42 20 44 21 45 35 46 22 47 29 49 34 50 30 51 33 52 32 53
REMARK SMILES IDX 23 55 24 56 28 57 25 58 26 60 27 62 31 66
REMARK H PARENT 10 7 11 8 37 9 4 14 4 15 3 17 3 18 1 21 1 22 1 23 6 25 6 26
REMARK H PARENT 6 27 39 29 39 30 14 33 14 34 16 39 36 41 18 43 21 48 33 54
REMARK H PARENT 24 59 25 61 27 63 27 64 27 65 31 67 31 68
REMARK Flexibility Score: inf
ROOT
ATOM      1  C   UNL     1     -47.331  30.463  24.063  1.00  0.00     0.063 A 
ATOM      2  C   UNL     1     -46.458  31.267  23.319  1.00  0.00    -0.044 A 
ATOM      3  C   UNL     1     -46.101  32.531  23.791  1.00  0.00    -0.019 A 
ATOM      4  C   UNL     1     -46.599  32.980  25.014  1.00  0.00     0.121 A 
ATOM      5  C   UNL     1     -47.457  32.155  25.757  1.00  0.00     0.004 A 
ATOM      6  C   UNL     1     -47.863  30.898  25.289  1.00  0.00     0.048 A 
ATOM      7  H   UNL     1     -46.053  30.901  22.379  1.00  0.00     0.063 H 
ATOM      8  H   UNL     1     -45.425  33.127  23.187  1.00  0.00     0.066 H 
ATOM      9  H   UNL     1     -47.797  32.503  26.730  1.00  0.00     0.068 H 
ENDROOT
BRANCH   1  10
ATOM     10  C   UNL     1     -47.670  29.138  23.505  1.00  0.00     0.255 C 
ATOM     11  O   UNL     1     -46.882  28.215  23.696  1.00  0.00    -0.269 OA
BRANCH  10  12
ATOM     12  N   UNL     1     -48.864  29.008  22.790  1.00  0.00    -0.339 N 
BRANCH  12  13
ATOM     13  C   UNL     1     -48.888  29.489  21.407  1.00  0.00     0.044 C 
ATOM     14  H   UNL     1     -48.088  29.009  20.836  1.00  0.00     0.052 H 
ATOM     15  H   UNL     1     -48.675  30.563  21.415  1.00  0.00     0.052 H 
BRANCH  13  16
ATOM     16  C   UNL     1     -50.235  29.226  20.711  1.00  0.00     0.064 C 
ATOM     17  H   UNL     1     -50.067  28.583  19.840  1.00  0.00     0.059 H 
ATOM     18  H   UNL     1     -50.917  28.685  21.376  1.00  0.00     0.059 H 
BRANCH  16  19
ATOM     19  O   UNL     1     -50.858  30.417  20.217  1.00  0.00    -0.383 OA
BRANCH  19  20
ATOM     20  C   UNL     1     -50.944  31.442  21.202  1.00  0.00     0.036 C 
ATOM     21  H   UNL     1     -51.940  31.889  21.228  1.00  0.00     0.053 H 
ATOM     22  H   UNL     1     -50.741  30.994  22.178  1.00  0.00     0.053 H 
ATOM     23  H   UNL     1     -50.192  32.213  21.012  1.00  0.00     0.053 H 
ENDBRANCH  19  20
ENDBRANCH  16  19
ENDBRANCH  13  16
ENDBRANCH  12  13
BRANCH  12  24
ATOM     24  C   UNL     1     -49.992  28.200  23.236  1.00  0.00     0.010 C 
ATOM     25  H   UNL     1     -49.949  28.088  24.322  1.00  0.00     0.046 H 
ATOM     26  H   UNL     1     -50.943  28.658  22.958  1.00  0.00     0.046 H 
ATOM     27  H   UNL     1     -49.935  27.214  22.765  1.00  0.00     0.046 H 
ENDBRANCH  12  24
ENDBRANCH  10  12
ENDBRANCH   1  10
BRANCH   6  28
ATOM     28  N   UNL     1     -48.588  30.063  26.149  1.00  0.00    -0.398 N 
ATOM     29  H   UNL     1     -49.526  30.380  26.412  1.00  0.00     0.156 HD
ATOM     30  H   UNL     1     -48.072  29.676  26.930  1.00  0.00     0.156 HD
ENDBRANCH   6  28
BRANCH   4  31
ATOM     31  O   UNL     1     -46.322  34.184  25.601  1.00  0.00    -0.489 OA
BRANCH  31  32
ATOM     32  C   UNL     1     -46.649  34.329  26.983  1.00  0.00     0.115 C 
ATOM     33  H   UNL     1     -47.469  33.645  27.235  1.00  0.00     0.076 H 
ATOM     34  H   UNL     1     -45.776  34.117  27.611  1.00  0.00     0.076 H 
BRANCH  32  35
ATOM     35  C   UNL     1     -47.075  35.750  27.245  1.00  0.00     0.010 A 
ATOM     36  C   UNL     1     -48.387  36.043  27.590  1.00  0.00     0.034 A 
ATOM     37  C   UNL     1     -46.163  36.816  27.219  1.00  0.00    -0.028 A 
ATOM     38  N   UNL     1     -48.829  37.282  27.882  1.00  0.00    -0.262 NA
ATOM     39  H   UNL     1     -49.148  35.269  27.645  1.00  0.00     0.084 H 
ATOM     40  C   UNL     1     -46.580  38.123  27.510  1.00  0.00     0.066 A 
ATOM     41  H   UNL     1     -45.130  36.582  26.978  1.00  0.00     0.065 H 
ATOM     42  C   UNL     1     -47.922  38.291  27.832  1.00  0.00     0.051 A 
ATOM     43  H   UNL     1     -48.367  39.253  28.058  1.00  0.00     0.086 H 
BRANCH  40  44
ATOM     44  N   UNL     1     -45.661  39.222  27.468  1.00  0.00    -0.299 N 
ATOM     45  C   UNL     1     -45.655  40.210  26.503  1.00  0.00     0.021 A 
ATOM     46  C   UNL     1     -44.621  39.511  28.356  1.00  0.00     0.150 A 
ATOM     47  C   UNL     1     -44.662  41.123  26.781  1.00  0.00     0.033 A 
ATOM     48  H   UNL     1     -46.372  40.236  25.695  1.00  0.00     0.083 H 
ATOM     49  C   UNL     1     -43.967  40.670  27.931  1.00  0.00     0.071 A 
ATOM     50  N   UNL     1     -44.272  38.784  29.436  1.00  0.00    -0.218 NA
ATOM     51  C   UNL     1     -42.846  41.072  28.679  1.00  0.00     0.137 A 
ATOM     52  C   UNL     1     -43.215  39.282  30.086  1.00  0.00     0.120 A 
ATOM     53  N   UNL     1     -42.491  40.365  29.766  1.00  0.00    -0.219 NA
ATOM     54  H   UNL     1     -42.899  38.743  30.974  1.00  0.00     0.106 H 
BRANCH  47  55
ATOM     55  C   UNL     1     -44.395  42.331  26.005  1.00  0.00     0.095 A 
ATOM     56  C   UNL     1     -44.131  42.372  24.620  1.00  0.00    -0.016 A 
ATOM     57  N   UNL     1     -44.313  43.542  26.566  1.00  0.00    -0.173 NA
ATOM     58  C   UNL     1     -43.907  43.700  24.343  1.00  0.00     0.025 A 
ATOM     59  H   UNL     1     -44.102  41.548  23.920  1.00  0.00     0.066 H 
ATOM     60  N   UNL     1     -44.024  44.355  25.534  1.00  0.00    -0.275 N 
ATOM     61  H   UNL     1     -43.668  44.215  23.424  1.00  0.00     0.084 H 
BRANCH  60  62
ATOM     62  C   UNL     1     -43.863  45.769  25.768  1.00  0.00     0.030 C 
ATOM     63  H   UNL     1     -43.500  46.232  24.847  1.00  0.00     0.048 H 
ATOM     64  H   UNL     1     -43.141  45.904  26.577  1.00  0.00     0.048 H 
ATOM     65  H   UNL     1     -44.825  46.203  26.050  1.00  0.00     0.048 H 
ENDBRANCH  60  62
ENDBRANCH  47  55
BRANCH  51  66
ATOM     66  N   UNL     1     -42.025  42.145  28.360  1.00  0.00    -0.383 N 
ATOM     67  H   UNL     1     -42.521  43.022  28.254  1.00  0.00     0.158 HD
ATOM     68  H   UNL     1     -41.426  41.893  27.581  1.00  0.00     0.158 HD
ENDBRANCH  51  66
ENDBRANCH  40  44
ENDBRANCH  32  35
ENDBRANCH  31  32
ENDBRANCH   4  31
TORSDOF 15
ENDMDL
MODEL 6
REMARK VINA RESULT:      -8.1      2.372      3.378
REMARK SMILES COCCN(C)C(=O)c1ccc(OCc2cncc(-n3cc(-c4ccn(C)n4)c4c(N)ncnc43)c2)cc1N
REMARK SMILES IDX 9 1 10 2 11 3 12 4 37 5 38 6 7 10 8 11 5 12 4 13 3 16 2 19
REMARK SMILES IDX 1 20 6 24 39 28 13 31 14 32 15 35 16 36 36 37 17 38 19 40
REMARK SMILES IDX 18 42 20 44 21 45 35 46 22 47 29 49 34 50 30 51 33 52 32 53
REMARK SMILES IDX 23 55 24 56 28 57 25 58 26 60 27 62 31 66
REMARK H PARENT 10 7 11 8 37 9 4 14 4 15 3 17 3 18 1 21 1 22 1 23 6 25 6 26
REMARK H PARENT 6 27 39 29 39 30 14 33 14 34 16 39 36 41 18 43 21 48 33 54
REMARK H PARENT 24 59 25 61 27 63 27 64 27 65 31 67 31 68
REMARK Flexibility Score: inf
ROOT
ATOM      1  C   UNL     1     -47.754  30.939  24.357  1.00  0.00     0.063 A 
ATOM      2  C   UNL     1     -48.710  31.615  25.126  1.00  0.00    -0.044 A 
ATOM      3  C   UNL     1     -48.407  32.860  25.680  1.00  0.00    -0.019 A 
ATOM      4  C   UNL     1     -47.157  33.435  25.447  1.00  0.00     0.121 A 
ATOM      5  C   UNL     1     -46.218  32.754  24.659  1.00  0.00     0.004 A 
ATOM      6  C   UNL     1     -46.481  31.487  24.124  1.00  0.00     0.048 A 
ATOM      7  H   UNL     1     -49.691  31.172  25.282  1.00  0.00     0.063 H 
ATOM      8  H   UNL     1     -49.170  33.353  26.271  1.00  0.00     0.066 H 
ATOM      9  H   UNL     1     -45.267  33.240  24.450  1.00  0.00     0.068 H 
ENDROOT
BRANCH   1  10
ATOM     10  C   UNL     1     -48.138  29.625  23.803  1.00  0.00     0.255 C 
ATOM     11  O   UNL     1     -48.651  29.599  22.686  1.00  0.00    -0.269 OA
BRANCH  10  12
ATOM     12  N   UNL     1     -47.902  28.486  24.578  1.00  0.00    -0.339 N 
BRANCH  12  13
ATOM     13  C   UNL     1     -48.884  28.145  25.610  1.00  0.00     0.044 C 
ATOM     14  H   UNL     1     -49.864  27.987  25.148  1.00  0.00     0.052 H 
ATOM     15  H   UNL     1     -48.984  29.002  26.284  1.00  0.00     0.052 H 
BRANCH  13  16
ATOM     16  C   UNL     1     -48.493  26.890  26.410  1.00  0.00     0.064 C 
ATOM     17  H   UNL     1     -47.555  26.490  26.011  1.00  0.00     0.059 H 
ATOM     18  H   UNL     1     -48.308  27.142  27.460  1.00  0.00     0.059 H 
BRANCH  16  19
ATOM     19  O   UNL     1     -49.454  25.833  26.311  1.00  0.00    -0.383 OA
BRANCH  19  20
ATOM     20  C   UNL     1     -50.770  26.310  26.046  1.00  0.00     0.036 C 
ATOM     21  H   UNL     1     -51.526  25.680  26.519  1.00  0.00     0.053 H 
ATOM     22  H   UNL     1     -50.855  27.320  26.456  1.00  0.00     0.053 H 
ATOM     23  H   UNL     1     -50.946  26.358  24.967  1.00  0.00     0.053 H 
ENDBRANCH  19  20
ENDBRANCH  16  19
ENDBRANCH  13  16
ENDBRANCH  12  13
BRANCH  12  24
ATOM     24  C   UNL     1     -46.893  27.483  24.259  1.00  0.00     0.010 C 
ATOM     25  H   UNL     1     -46.924  27.269  23.188  1.00  0.00     0.046 H 
ATOM     26  H   UNL     1     -45.892  27.827  24.530  1.00  0.00     0.046 H 
ATOM     27  H   UNL     1     -47.106  26.570  24.821  1.00  0.00     0.046 H 
ENDBRANCH  12  24
ENDBRANCH  10  12
ENDBRANCH   1  10
BRANCH   6  28
ATOM     28  N   UNL     1     -45.565  30.936  23.217  1.00  0.00    -0.398 N 
ATOM     29  H   UNL     1     -45.920  30.729  22.279  1.00  0.00     0.156 HD
ATOM     30  H   UNL     1     -44.966  30.205  23.581  1.00  0.00     0.156 HD
ENDBRANCH   6  28
BRANCH   4  31
ATOM     31  O   UNL     1     -46.733  34.649  25.914  1.00  0.00    -0.489 OA
BRANCH  31  32
ATOM     32  C   UNL     1     -47.487  35.245  26.969  1.00  0.00     0.115 C 
ATOM     33  H   UNL     1     -48.474  35.538  26.589  1.00  0.00     0.076 H 
ATOM     34  H   UNL     1     -47.600  34.546  27.806  1.00  0.00     0.076 H 
BRANCH  32  35
ATOM     35  C   UNL     1     -46.757  36.461  27.475  1.00  0.00     0.010 A 
ATOM     36  C   UNL     1     -45.718  36.334  28.386  1.00  0.00     0.034 A 
ATOM     37  C   UNL     1     -47.046  37.751  27.004  1.00  0.00    -0.028 A 
ATOM     38  N   UNL     1     -44.992  37.371  28.849  1.00  0.00    -0.262 NA
ATOM     39  H   UNL     1     -45.426  35.366  28.786  1.00  0.00     0.084 H 
ATOM     40  C   UNL     1     -46.320  38.860  27.462  1.00  0.00     0.066 A 
ATOM     41  H   UNL     1     -47.840  37.847  26.269  1.00  0.00     0.065 H 
ATOM     42  C   UNL     1     -45.309  38.606  28.382  1.00  0.00     0.051 A 
ATOM     43  H   UNL     1     -44.693  39.381  28.822  1.00  0.00     0.086 H 
BRANCH  40  44
ATOM     44  N   UNL     1     -46.619  40.184  27.002  1.00  0.00    -0.299 N 
ATOM     45  C   UNL     1     -47.860  40.787  27.083  1.00  0.00     0.021 A 
ATOM     46  C   UNL     1     -45.757  41.102  26.397  1.00  0.00     0.150 A 
ATOM     47  C   UNL     1     -47.786  42.066  26.576  1.00  0.00     0.033 A 
ATOM     48  H   UNL     1     -48.714  40.297  27.527  1.00  0.00     0.083 H 
ATOM     49  C   UNL     1     -46.468  42.267  26.096  1.00  0.00     0.071 A 
ATOM     50  N   UNL     1     -44.453  40.904  26.115  1.00  0.00    -0.218 NA
ATOM     51  C   UNL     1     -45.763  43.279  25.420  1.00  0.00     0.137 A 
ATOM     52  C   UNL     1     -43.883  41.947  25.505  1.00  0.00     0.120 A 
ATOM     53  N   UNL     1     -44.460  43.102  25.142  1.00  0.00    -0.219 NA
ATOM     54  H   UNL     1     -42.828  41.847  25.267  1.00  0.00     0.106 H 
BRANCH  47  55
ATOM     55  C   UNL     1     -48.893  43.018  26.548  1.00  0.00     0.095 A 
ATOM     56  C   UNL     1     -49.623  43.457  27.673  1.00  0.00    -0.016 A 
ATOM     57  N   UNL     1     -49.371  43.531  25.409  1.00  0.00    -0.173 NA
ATOM     58  C   UNL     1     -50.577  44.307  27.163  1.00  0.00     0.025 A 
ATOM     59  H   UNL     1     -49.480  43.188  28.710  1.00  0.00     0.066 H 
ATOM     60  N   UNL     1     -50.387  44.315  25.812  1.00  0.00    -0.275 N 
ATOM     61  H   UNL     1     -51.360  44.880  27.638  1.00  0.00     0.084 H 
BRANCH  60  62
ATOM     62  C   UNL     1     -51.150  45.048  24.832  1.00  0.00     0.030 C 
ATOM     63  H   UNL     1     -50.482  45.752  24.331  1.00  0.00     0.048 H 
ATOM     64  H   UNL     1     -51.954  45.580  25.348  1.00  0.00     0.048 H 
ATOM     65  H   UNL     1     -51.572  44.351  24.104  1.00  0.00     0.048 H 
ENDBRANCH  60  62
ENDBRANCH  47  55
BRANCH  51  66
ATOM     66  N   UNL     1     -46.324  44.466  24.966  1.00  0.00    -0.383 N 
ATOM     67  H   UNL     1     -47.314  44.550  25.161  1.00  0.00     0.158 HD
ATOM     68  H   UNL     1     -46.062  44.614  23.997  1.00  0.00     0.158 HD
ENDBRANCH  51  66
ENDBRANCH  40  44
ENDBRANCH  32  35
ENDBRANCH  31  32
ENDBRANCH   4  31
TORSDOF 15
ENDMDL
MODEL 7
REMARK VINA RESULT:      -7.9      1.674      2.401
REMARK SMILES COCCN(C)C(=O)c1ccc(OCc2cncc(-n3cc(-c4ccn(C)n4)c4c(N)ncnc43)c2)cc1N
REMARK SMILES IDX 9 1 10 2 11 3 12 4 37 5 38 6 7 10 8 11 5 12 4 13 3 16 2 19
REMARK SMILES IDX 1 20 6 24 39 28 13 31 14 32 15 35 16 36 36 37 17 38 19 40
REMARK SMILES IDX 18 42 20 44 21 45 35 46 22 47 29 49 34 50 30 51 33 52 32 53
REMARK SMILES IDX 23 55 24 56 28 57 25 58 26 60 27 62 31 66
REMARK H PARENT 10 7 11 8 37 9 4 14 4 15 3 17 3 18 1 21 1 22 1 23 6 25 6 26
REMARK H PARENT 6 27 39 29 39 30 14 33 14 34 16 39 36 41 18 43 21 48 33 54
REMARK H PARENT 24 59 25 61 27 63 27 64 27 65 31 67 31 68
REMARK Flexibility Score: inf
ROOT
ATOM      1  C   UNL     1     -48.151  31.643  24.434  1.00  0.00     0.063 A 
ATOM      2  C   UNL     1     -49.034  32.160  25.391  1.00  0.00    -0.044 A 
ATOM      3  C   UNL     1     -48.632  33.210  26.217  1.00  0.00    -0.019 A 
ATOM      4  C   UNL     1     -47.357  33.756  26.072  1.00  0.00     0.121 A 
ATOM      5  C   UNL     1     -46.491  33.241  25.096  1.00  0.00     0.004 A 
ATOM      6  C   UNL     1     -46.853  32.161  24.280  1.00  0.00     0.048 A 
ATOM      7  H   UNL     1     -50.036  31.746  25.481  1.00  0.00     0.063 H 
ATOM      8  H   UNL     1     -49.342  33.582  26.948  1.00  0.00     0.066 H 
ATOM      9  H   UNL     1     -45.518  33.711  24.965  1.00  0.00     0.068 H 
ENDROOT
BRANCH   1  10
ATOM     10  C   UNL     1     -48.638  30.530  23.595  1.00  0.00     0.255 C 
ATOM     11  O   UNL     1     -48.630  30.683  22.375  1.00  0.00    -0.269 OA
BRANCH  10  12
ATOM     12  N   UNL     1     -49.084  29.368  24.231  1.00  0.00    -0.339 N 
BRANCH  12  13
ATOM     13  C   UNL     1     -50.357  28.794  23.791  1.00  0.00     0.044 C 
ATOM     14  H   UNL     1     -50.309  28.563  22.723  1.00  0.00     0.052 H 
ATOM     15  H   UNL     1     -51.137  29.553  23.919  1.00  0.00     0.052 H 
BRANCH  13  16
ATOM     16  C   UNL     1     -50.733  27.520  24.568  1.00  0.00     0.064 C 
ATOM     17  H   UNL     1     -49.826  27.086  25.003  1.00  0.00     0.059 H 
ATOM     18  H   UNL     1     -51.402  27.756  25.403  1.00  0.00     0.059 H 
BRANCH  16  19
ATOM     19  O   UNL     1     -51.307  26.501  23.741  1.00  0.00    -0.383 OA
BRANCH  19  20
ATOM     20  C   UNL     1     -51.365  26.876  22.368  1.00  0.00     0.036 C 
ATOM     21  H   UNL     1     -52.395  26.906  22.005  1.00  0.00     0.053 H 
ATOM     22  H   UNL     1     -50.934  27.876  22.269  1.00  0.00     0.053 H 
ATOM     23  H   UNL     1     -50.775  26.183  21.761  1.00  0.00     0.053 H 
ENDBRANCH  19  20
ENDBRANCH  16  19
ENDBRANCH  13  16
ENDBRANCH  12  13
BRANCH  12  24
ATOM     24  C   UNL     1     -48.252  28.555  25.108  1.00  0.00     0.010 C 
ATOM     25  H   UNL     1     -47.375  29.132  25.411  1.00  0.00     0.046 H 
ATOM     26  H   UNL     1     -48.802  28.242  25.999  1.00  0.00     0.046 H 
ATOM     27  H   UNL     1     -47.932  27.658  24.570  1.00  0.00     0.046 H 
ENDBRANCH  12  24
ENDBRANCH  10  12
ENDBRANCH   1  10
BRANCH   6  28
ATOM     28  N   UNL     1     -46.007  31.803  23.223  1.00  0.00    -0.398 N 
ATOM     29  H   UNL     1     -45.522  30.905  23.310  1.00  0.00     0.156 HD
ATOM     30  H   UNL     1     -45.409  32.538  22.865  1.00  0.00     0.156 HD
ENDBRANCH   6  28
BRANCH   4  31
ATOM     31  O   UNL     1     -46.839  34.792  26.800  1.00  0.00    -0.489 OA
BRANCH  31  32
ATOM     32  C   UNL     1     -47.417  36.082  26.605  1.00  0.00     0.115 C 
ATOM     33  H   UNL     1     -47.465  36.299  25.531  1.00  0.00     0.076 H 
ATOM     34  H   UNL     1     -48.422  36.125  27.041  1.00  0.00     0.076 H 
BRANCH  32  35
ATOM     35  C   UNL     1     -46.567  37.116  27.295  1.00  0.00     0.010 A 
ATOM     36  C   UNL     1     -45.914  36.817  28.482  1.00  0.00     0.034 A 
ATOM     37  C   UNL     1     -46.348  38.387  26.742  1.00  0.00    -0.028 A 
ATOM     38  N   UNL     1     -45.102  37.675  29.131  1.00  0.00    -0.262 NA
ATOM     39  H   UNL     1     -46.022  35.848  28.964  1.00  0.00     0.084 H 
ATOM     40  C   UNL     1     -45.517  39.315  27.386  1.00  0.00     0.066 A 
ATOM     41  H   UNL     1     -46.837  38.611  25.798  1.00  0.00     0.065 H 
ATOM     42  C   UNL     1     -44.925  38.901  28.574  1.00  0.00     0.051 A 
ATOM     43  H   UNL     1     -44.278  39.533  29.172  1.00  0.00     0.086 H 
BRANCH  40  44
ATOM     44  N   UNL     1     -45.300  40.622  26.839  1.00  0.00    -0.299 N 
ATOM     45  C   UNL     1     -46.280  41.412  26.269  1.00  0.00     0.021 A 
ATOM     46  C   UNL     1     -44.104  41.340  26.769  1.00  0.00     0.150 A 
ATOM     47  C   UNL     1     -45.735  42.613  25.874  1.00  0.00     0.033 A 
ATOM     48  H   UNL     1     -47.312  41.099  26.206  1.00  0.00     0.083 H 
ATOM     49  C   UNL     1     -44.344  42.567  26.145  1.00  0.00     0.071 A 
ATOM     50  N   UNL     1     -42.898  40.922  27.201  1.00  0.00    -0.218 NA
ATOM     51  C   UNL     1     -43.228  43.396  25.933  1.00  0.00     0.137 A 
ATOM     52  C   UNL     1     -41.922  41.807  26.975  1.00  0.00     0.120 A 
ATOM     53  N   UNL     1     -42.020  42.999  26.368  1.00  0.00    -0.219 NA
ATOM     54  H   UNL     1     -40.930  41.527  27.317  1.00  0.00     0.106 H 
BRANCH  47  55
ATOM     55  C   UNL     1     -46.485  43.716  25.280  1.00  0.00     0.095 A 
ATOM     56  C   UNL     1     -47.748  44.174  25.713  1.00  0.00    -0.016 A 
ATOM     57  N   UNL     1     -46.057  44.374  24.197  1.00  0.00    -0.173 NA
ATOM     58  C   UNL     1     -48.070  45.188  24.842  1.00  0.00     0.025 A 
ATOM     59  H   UNL     1     -48.343  43.813  26.540  1.00  0.00     0.066 H 
ATOM     60  N   UNL     1     -47.035  45.267  23.958  1.00  0.00    -0.275 N 
ATOM     61  H   UNL     1     -48.935  45.834  24.776  1.00  0.00     0.084 H 
BRANCH  60  62
ATOM     62  C   UNL     1     -46.912  46.172  22.842  1.00  0.00     0.030 C 
ATOM     63  H   UNL     1     -46.548  47.133  23.216  1.00  0.00     0.048 H 
ATOM     64  H   UNL     1     -47.896  46.287  22.380  1.00  0.00     0.048 H 
ATOM     65  H   UNL     1     -46.205  45.762  22.117  1.00  0.00     0.048 H 
ENDBRANCH  60  62
ENDBRANCH  47  55
BRANCH  51  66
ATOM     66  N   UNL     1     -43.259  44.608  25.256  1.00  0.00    -0.383 N 
ATOM     67  H   UNL     1     -42.876  45.382  25.786  1.00  0.00     0.158 HD
ATOM     68  H   UNL     1     -44.189  44.763  24.881  1.00  0.00     0.158 HD
ENDBRANCH  51  66
ENDBRANCH  40  44
ENDBRANCH  32  35
ENDBRANCH  31  32
ENDBRANCH   4  31
TORSDOF 15
ENDMDL
