MODEL 1
REMARK VINA RESULT:     -10.2      0.000      0.000
REMARK SMILES CN(CC1CC1)C(=O)c1ccc(OCc2cncc(-n3cc(-c4ccn(C)n4)c4c(N)ncnc43)c2)cc1N
REMARK SMILES IDX 13 1 12 2 9 3 10 4 38 5 11 6 37 8 7 11 8 12 2 13 1 14 3 18
REMARK SMILES IDX 4 21 5 22 6 23 39 29 14 32 15 35 16 36 36 37 17 38 19 40
REMARK SMILES IDX 18 42 20 44 21 45 35 46 22 47 29 49 34 50 30 51 33 52 32 53
REMARK SMILES IDX 23 55 24 56 28 57 25 58 26 60 27 62 31 66
REMARK H PARENT 10 7 11 9 37 10 1 15 1 16 1 17 3 19 3 20 4 24 5 25 5 26 6 27
REMARK H PARENT 6 28 39 30 39 31 14 33 14 34 16 39 36 41 18 43 21 48 33 54
REMARK H PARENT 24 59 25 61 27 63 27 64 27 65 31 67 31 68
REMARK Flexibility Score: inf
ROOT
ATOM      1  O   UNL     1     -47.198  33.300  24.859  1.00  0.00    -0.489 OA
ENDROOT
BRANCH   1   2
ATOM      2  C   UNL     1     -47.682  32.052  24.568  1.00  0.00     0.121 A 
ATOM      3  C   UNL     1     -48.532  29.470  24.015  1.00  0.00     0.063 A 
ATOM      4  C   UNL     1     -49.460  30.441  24.425  1.00  0.00    -0.044 A 
ATOM      5  C   UNL     1     -47.187  29.806  23.775  1.00  0.00     0.048 A 
ATOM      6  C   UNL     1     -49.033  31.740  24.693  1.00  0.00    -0.019 A 
ATOM      7  H   UNL     1     -50.510  30.181  24.530  1.00  0.00     0.063 H 
ATOM      8  C   UNL     1     -46.769  31.102  24.097  1.00  0.00     0.004 A 
ATOM      9  H   UNL     1     -49.753  32.494  24.997  1.00  0.00     0.066 H 
ATOM     10  H   UNL     1     -45.722  31.381  24.002  1.00  0.00     0.068 H 
BRANCH   3  11
ATOM     11  C   UNL     1     -49.017  28.098  23.750  1.00  0.00     0.255 C 
ATOM     12  O   UNL     1     -49.030  27.725  22.577  1.00  0.00    -0.269 OA
BRANCH  11  13
ATOM     13  N   UNL     1     -49.449  27.317  24.821  1.00  0.00    -0.341 N 
BRANCH  13  14
ATOM     14  C   UNL     1     -50.739  26.642  24.882  1.00  0.00     0.009 C 
ATOM     15  H   UNL     1     -50.591  25.589  25.139  1.00  0.00     0.046 H 
ATOM     16  H   UNL     1     -51.401  27.078  25.632  1.00  0.00     0.046 H 
ATOM     17  H   UNL     1     -51.210  26.709  23.896  1.00  0.00     0.046 H 
ENDBRANCH  13  14
BRANCH  13  18
ATOM     18  C   UNL     1     -48.592  27.222  25.996  1.00  0.00     0.023 C 
ATOM     19  H   UNL     1     -48.135  28.203  26.172  1.00  0.00     0.050 H 
ATOM     20  H   UNL     1     -49.203  26.990  26.877  1.00  0.00     0.050 H 
BRANCH  18  21
ATOM     21  C   UNL     1     -47.524  26.185  25.803  1.00  0.00    -0.024 C 
ATOM     22  C   UNL     1     -46.507  25.938  26.889  1.00  0.00    -0.048 C 
ATOM     23  C   UNL     1     -47.548  24.896  26.586  1.00  0.00    -0.048 C 
ATOM     24  H   UNL     1     -47.162  26.154  24.783  1.00  0.00     0.032 H 
ATOM     25  H   UNL     1     -45.485  25.733  26.592  1.00  0.00     0.027 H 
ATOM     26  H   UNL     1     -46.598  26.479  27.824  1.00  0.00     0.027 H 
ATOM     27  H   UNL     1     -47.235  23.989  26.084  1.00  0.00     0.027 H 
ATOM     28  H   UNL     1     -48.341  24.745  27.310  1.00  0.00     0.027 H 
ENDBRANCH  18  21
ENDBRANCH  13  18
ENDBRANCH  11  13
ENDBRANCH   3  11
BRANCH   5  29
ATOM     29  N   UNL     1     -46.215  28.835  23.456  1.00  0.00    -0.398 N 
ATOM     30  H   UNL     1     -45.649  28.596  24.276  1.00  0.00     0.156 HD
ATOM     31  H   UNL     1     -46.613  27.996  23.040  1.00  0.00     0.156 HD
ENDBRANCH   5  29
ENDBRANCH   1   2
BRANCH   1  32
ATOM     32  C   UNL     1     -46.872  33.473  26.246  1.00  0.00     0.115 C 
ATOM     33  H   UNL     1     -47.386  32.673  26.792  1.00  0.00     0.076 H 
ATOM     34  H   UNL     1     -45.804  33.342  26.460  1.00  0.00     0.076 H 
BRANCH  32  35
ATOM     35  C   UNL     1     -47.340  34.814  26.744  1.00  0.00     0.010 A 
ATOM     36  C   UNL     1     -48.675  35.051  27.035  1.00  0.00     0.034 A 
ATOM     37  C   UNL     1     -46.445  35.879  26.916  1.00  0.00    -0.028 A 
ATOM     38  N   UNL     1     -49.147  36.233  27.487  1.00  0.00    -0.262 NA
ATOM     39  H   UNL     1     -49.431  34.279  26.915  1.00  0.00     0.084 H 
ATOM     40  C   UNL     1     -46.900  37.131  27.347  1.00  0.00     0.066 A 
ATOM     41  H   UNL     1     -45.393  35.698  26.717  1.00  0.00     0.065 H 
ATOM     42  C   UNL     1     -48.254  37.247  27.632  1.00  0.00     0.051 A 
ATOM     43  H   UNL     1     -48.716  38.173  27.957  1.00  0.00     0.086 H 
BRANCH  40  44
ATOM     44  N   UNL     1     -46.003  38.236  27.453  1.00  0.00    -0.299 N 
ATOM     45  C   UNL     1     -45.891  39.252  26.519  1.00  0.00     0.021 A 
ATOM     46  C   UNL     1     -45.104  38.514  28.481  1.00  0.00     0.150 A 
ATOM     47  C   UNL     1     -44.946  40.162  26.940  1.00  0.00     0.033 A 
ATOM     48  H   UNL     1     -46.514  39.277  25.636  1.00  0.00     0.083 H 
ATOM     49  C   UNL     1     -44.444  39.710  28.193  1.00  0.00     0.071 A 
ATOM     50  N   UNL     1     -44.879  37.743  29.563  1.00  0.00    -0.218 NA
ATOM     51  C   UNL     1     -43.509  40.154  29.145  1.00  0.00     0.137 A 
ATOM     52  C   UNL     1     -43.948  38.254  30.378  1.00  0.00     0.120 A 
ATOM     53  N   UNL     1     -43.261  39.396  30.230  1.00  0.00    -0.219 NA
ATOM     54  H   UNL     1     -43.721  37.676  31.269  1.00  0.00     0.106 H 
BRANCH  47  55
ATOM     55  C   UNL     1     -44.541  41.372  26.219  1.00  0.00     0.095 A 
ATOM     56  C   UNL     1     -45.434  42.252  25.566  1.00  0.00    -0.016 A 
ATOM     57  N   UNL     1     -43.266  41.763  26.076  1.00  0.00    -0.173 NA
ATOM     58  C   UNL     1     -44.634  43.234  25.029  1.00  0.00     0.025 A 
ATOM     59  H   UNL     1     -46.513  42.195  25.506  1.00  0.00     0.066 H 
ATOM     60  N   UNL     1     -43.357  42.902  25.366  1.00  0.00    -0.275 N 
ATOM     61  H   UNL     1     -44.868  44.122  24.460  1.00  0.00     0.084 H 
BRANCH  60  62
ATOM     62  C   UNL     1     -42.156  43.634  25.040  1.00  0.00     0.030 C 
ATOM     63  H   UNL     1     -41.462  43.548  25.879  1.00  0.00     0.048 H 
ATOM     64  H   UNL     1     -42.427  44.679  24.868  1.00  0.00     0.048 H 
ATOM     65  H   UNL     1     -41.706  43.212  24.138  1.00  0.00     0.048 H 
ENDBRANCH  60  62
ENDBRANCH  47  55
BRANCH  51  66
ATOM     66  N   UNL     1     -42.800  41.341  29.045  1.00  0.00    -0.383 N 
ATOM     67  H   UNL     1     -41.937  41.305  29.568  1.00  0.00     0.158 HD
ATOM     68  H   UNL     1     -42.744  41.686  28.082  1.00  0.00     0.158 HD
ENDBRANCH  51  66
ENDBRANCH  40  44
ENDBRANCH  32  35
ENDBRANCH   1  32
TORSDOF 13
ENDMDL
MODEL 2
REMARK VINA RESULT:      -9.7      1.822      2.796
REMARK SMILES CN(CC1CC1)C(=O)c1ccc(OCc2cncc(-n3cc(-c4ccn(C)n4)c4c(N)ncnc43)c2)cc1N
REMARK SMILES IDX 13 1 12 2 9 3 10 4 38 5 11 6 37 8 7 11 8 12 2 13 1 14 3 18
REMARK SMILES IDX 4 21 5 22 6 23 39 29 14 32 15 35 16 36 36 37 17 38 19 40
REMARK SMILES IDX 18 42 20 44 21 45 35 46 22 47 29 49 34 50 30 51 33 52 32 53
REMARK SMILES IDX 23 55 24 56 28 57 25 58 26 60 27 62 31 66
REMARK H PARENT 10 7 11 9 37 10 1 15 1 16 1 17 3 19 3 20 4 24 5 25 5 26 6 27
REMARK H PARENT 6 28 39 30 39 31 14 33 14 34 16 39 36 41 18 43 21 48 33 54
REMARK H PARENT 24 59 25 61 27 63 27 64 27 65 31 67 31 68
REMARK Flexibility Score: inf
ROOT
ATOM      1  O   UNL     1     -47.379  33.504  26.893  1.00  0.00    -0.489 OA
ENDROOT
BRANCH   1   2
ATOM      2  C   UNL     1     -47.532  32.490  25.984  1.00  0.00     0.121 A 
ATOM      3  C   UNL     1     -47.696  30.425  24.140  1.00  0.00     0.063 A 
ATOM      4  C   UNL     1     -48.746  30.639  25.048  1.00  0.00    -0.044 A 
ATOM      5  C   UNL     1     -46.601  31.306  24.073  1.00  0.00     0.048 A 
ATOM      6  C   UNL     1     -48.666  31.682  25.967  1.00  0.00    -0.019 A 
ATOM      7  H   UNL     1     -49.620  29.994  25.032  1.00  0.00     0.063 H 
ATOM      8  C   UNL     1     -46.517  32.317  25.037  1.00  0.00     0.004 A 
ATOM      9  H   UNL     1     -49.483  31.856  26.660  1.00  0.00     0.066 H 
ATOM     10  H   UNL     1     -45.648  32.971  25.072  1.00  0.00     0.068 H 
BRANCH   3  11
ATOM     11  C   UNL     1     -47.809  29.301  23.185  1.00  0.00     0.255 C 
ATOM     12  O   UNL     1     -47.646  29.560  21.993  1.00  0.00    -0.269 OA
BRANCH  11  13
ATOM     13  N   UNL     1     -48.109  28.030  23.672  1.00  0.00    -0.341 N 
BRANCH  13  14
ATOM     14  C   UNL     1     -49.408  27.382  23.544  1.00  0.00     0.009 C 
ATOM     15  H   UNL     1     -49.821  27.187  24.537  1.00  0.00     0.046 H 
ATOM     16  H   UNL     1     -50.126  27.997  22.999  1.00  0.00     0.046 H 
ATOM     17  H   UNL     1     -49.268  26.432  23.019  1.00  0.00     0.046 H 
ENDBRANCH  13  14
BRANCH  13  18
ATOM     18  C   UNL     1     -47.084  27.320  24.428  1.00  0.00     0.023 C 
ATOM     19  H   UNL     1     -46.565  26.634  23.749  1.00  0.00     0.050 H 
ATOM     20  H   UNL     1     -46.337  28.036  24.794  1.00  0.00     0.050 H 
BRANCH  18  21
ATOM     21  C   UNL     1     -47.688  26.555  25.570  1.00  0.00    -0.024 C 
ATOM     22  C   UNL     1     -47.161  25.188  25.926  1.00  0.00    -0.048 C 
ATOM     23  C   UNL     1     -46.923  26.347  26.853  1.00  0.00    -0.048 C 
ATOM     24  H   UNL     1     -48.761  26.693  25.633  1.00  0.00     0.032 H 
ATOM     25  H   UNL     1     -47.873  24.431  26.233  1.00  0.00     0.027 H 
ATOM     26  H   UNL     1     -46.307  24.799  25.382  1.00  0.00     0.027 H 
ATOM     27  H   UNL     1     -47.472  26.380  27.785  1.00  0.00     0.027 H 
ATOM     28  H   UNL     1     -45.916  26.742  26.924  1.00  0.00     0.027 H 
ENDBRANCH  18  21
ENDBRANCH  13  18
ENDBRANCH  11  13
ENDBRANCH   3  11
BRANCH   5  29
ATOM     29  N   UNL     1     -45.490  31.063  23.239  1.00  0.00    -0.398 N 
ATOM     30  H   UNL     1     -45.757  31.097  22.250  1.00  0.00     0.156 HD
ATOM     31  H   UNL     1     -44.712  31.692  23.420  1.00  0.00     0.156 HD
ENDBRANCH   5  29
ENDBRANCH   1   2
BRANCH   1  32
ATOM     32  C   UNL     1     -46.281  34.377  26.589  1.00  0.00     0.115 C 
ATOM     33  H   UNL     1     -45.364  33.801  26.760  1.00  0.00     0.076 H 
ATOM     34  H   UNL     1     -46.249  34.684  25.536  1.00  0.00     0.076 H 
BRANCH  32  35
ATOM     35  C   UNL     1     -46.297  35.590  27.481  1.00  0.00     0.010 A 
ATOM     36  C   UNL     1     -46.535  35.482  28.842  1.00  0.00     0.034 A 
ATOM     37  C   UNL     1     -46.087  36.875  26.965  1.00  0.00    -0.028 A 
ATOM     38  N   UNL     1     -46.558  36.536  29.688  1.00  0.00    -0.262 NA
ATOM     39  H   UNL     1     -46.719  34.521  29.315  1.00  0.00     0.084 H 
ATOM     40  C   UNL     1     -46.139  37.998  27.799  1.00  0.00     0.066 A 
ATOM     41  H   UNL     1     -45.873  36.970  25.904  1.00  0.00     0.065 H 
ATOM     42  C   UNL     1     -46.362  37.769  29.151  1.00  0.00     0.051 A 
ATOM     43  H   UNL     1     -46.437  38.564  29.885  1.00  0.00     0.086 H 
BRANCH  40  44
ATOM     44  N   UNL     1     -45.999  39.313  27.263  1.00  0.00    -0.299 N 
ATOM     45  C   UNL     1     -44.807  39.859  26.818  1.00  0.00     0.021 A 
ATOM     46  C   UNL     1     -46.993  40.270  27.073  1.00  0.00     0.150 A 
ATOM     47  C   UNL     1     -45.032  41.136  26.349  1.00  0.00     0.033 A 
ATOM     48  H   UNL     1     -43.886  39.293  26.834  1.00  0.00     0.083 H 
ATOM     49  C   UNL     1     -46.422  41.406  26.496  1.00  0.00     0.071 A 
ATOM     50  N   UNL     1     -48.290  40.141  27.415  1.00  0.00    -0.218 NA
ATOM     51  C   UNL     1     -47.296  42.471  26.213  1.00  0.00     0.137 A 
ATOM     52  C   UNL     1     -49.013  41.230  27.125  1.00  0.00     0.120 A 
ATOM     53  N   UNL     1     -48.594  42.369  26.555  1.00  0.00    -0.219 NA
ATOM     54  H   UNL     1     -50.068  41.187  27.380  1.00  0.00     0.106 H 
BRANCH  47  55
ATOM     55  C   UNL     1     -44.016  42.039  25.803  1.00  0.00     0.095 A 
ATOM     56  C   UNL     1     -42.888  42.503  26.519  1.00  0.00    -0.016 A 
ATOM     57  N   UNL     1     -44.060  42.546  24.563  1.00  0.00    -0.173 NA
ATOM     58  C   UNL     1     -42.217  43.314  25.634  1.00  0.00     0.025 A 
ATOM     59  H   UNL     1     -42.592  42.269  27.533  1.00  0.00     0.066 H 
ATOM     60  N   UNL     1     -42.948  43.302  24.485  1.00  0.00    -0.275 N 
ATOM     61  H   UNL     1     -41.297  43.874  25.726  1.00  0.00     0.084 H 
BRANCH  60  62
ATOM     62  C   UNL     1     -42.645  43.995  23.257  1.00  0.00     0.030 C 
ATOM     63  H   UNL     1     -42.575  45.064  23.472  1.00  0.00     0.048 H 
ATOM     64  H   UNL     1     -43.449  43.797  22.543  1.00  0.00     0.048 H 
ATOM     65  H   UNL     1     -41.694  43.632  22.858  1.00  0.00     0.048 H 
ENDBRANCH  60  62
ENDBRANCH  47  55
BRANCH  51  66
ATOM     66  N   UNL     1     -46.909  43.653  25.599  1.00  0.00    -0.383 N 
ATOM     67  H   UNL     1     -47.614  44.370  25.694  1.00  0.00     0.158 HD
ATOM     68  H   UNL     1     -45.945  43.916  25.823  1.00  0.00     0.158 HD
ENDBRANCH  51  66
ENDBRANCH  40  44
ENDBRANCH  32  35
ENDBRANCH   1  32
TORSDOF 13
ENDMDL
MODEL 3
REMARK VINA RESULT:      -9.6      1.484      2.062
REMARK SMILES CN(CC1CC1)C(=O)c1ccc(OCc2cncc(-n3cc(-c4ccn(C)n4)c4c(N)ncnc43)c2)cc1N
REMARK SMILES IDX 13 1 12 2 9 3 10 4 38 5 11 6 37 8 7 11 8 12 2 13 1 14 3 18
REMARK SMILES IDX 4 21 5 22 6 23 39 29 14 32 15 35 16 36 36 37 17 38 19 40
REMARK SMILES IDX 18 42 20 44 21 45 35 46 22 47 29 49 34 50 30 51 33 52 32 53
REMARK SMILES IDX 23 55 24 56 28 57 25 58 26 60 27 62 31 66
REMARK H PARENT 10 7 11 9 37 10 1 15 1 16 1 17 3 19 3 20 4 24 5 25 5 26 6 27
REMARK H PARENT 6 28 39 30 39 31 14 33 14 34 16 39 36 41 18 43 21 48 33 54
REMARK H PARENT 24 59 25 61 27 63 27 64 27 65 31 67 31 68
REMARK Flexibility Score: inf
ROOT
ATOM      1  O   UNL     1     -46.489  34.395  25.671  1.00  0.00    -0.489 OA
ENDROOT
BRANCH   1   2
ATOM      2  C   UNL     1     -46.927  33.185  25.200  1.00  0.00     0.121 A 
ATOM      3  C   UNL     1     -47.672  30.692  24.239  1.00  0.00     0.063 A 
ATOM      4  C   UNL     1     -48.545  31.413  25.069  1.00  0.00    -0.044 A 
ATOM      5  C   UNL     1     -46.461  31.254  23.794  1.00  0.00     0.048 A 
ATOM      6  C   UNL     1     -48.173  32.669  25.543  1.00  0.00    -0.019 A 
ATOM      7  H   UNL     1     -49.511  30.994  25.340  1.00  0.00     0.063 H 
ATOM      8  C   UNL     1     -46.085  32.495  24.321  1.00  0.00     0.004 A 
ATOM      9  H   UNL     1     -48.854  33.233  26.174  1.00  0.00     0.066 H 
ATOM     10  H   UNL     1     -45.121  32.930  24.066  1.00  0.00     0.068 H 
BRANCH   3  11
ATOM     11  C   UNL     1     -48.094  29.357  23.762  1.00  0.00     0.255 C 
ATOM     12  O   UNL     1     -48.654  29.303  22.668  1.00  0.00    -0.269 OA
BRANCH  11  13
ATOM     13  N   UNL     1     -47.858  28.247  24.572  1.00  0.00    -0.341 N 
BRANCH  13  14
ATOM     14  C   UNL     1     -46.760  27.307  24.384  1.00  0.00     0.009 C 
ATOM     15  H   UNL     1     -46.912  26.432  25.022  1.00  0.00     0.046 H 
ATOM     16  H   UNL     1     -46.684  26.959  23.352  1.00  0.00     0.046 H 
ATOM     17  H   UNL     1     -45.829  27.804  24.672  1.00  0.00     0.046 H 
ENDBRANCH  13  14
BRANCH  13  18
ATOM     18  C   UNL     1     -48.810  27.954  25.637  1.00  0.00     0.023 C 
ATOM     19  H   UNL     1     -48.250  27.618  26.518  1.00  0.00     0.050 H 
ATOM     20  H   UNL     1     -49.335  28.873  25.922  1.00  0.00     0.050 H 
BRANCH  18  21
ATOM     21  C   UNL     1     -49.785  26.894  25.213  1.00  0.00    -0.024 C 
ATOM     22  C   UNL     1     -49.750  25.533  25.860  1.00  0.00    -0.048 C 
ATOM     23  C   UNL     1     -50.902  26.460  26.129  1.00  0.00    -0.048 C 
ATOM     24  H   UNL     1     -49.981  26.920  24.148  1.00  0.00     0.032 H 
ATOM     25  H   UNL     1     -49.933  24.666  25.235  1.00  0.00     0.027 H 
ATOM     26  H   UNL     1     -49.050  25.356  26.670  1.00  0.00     0.027 H 
ATOM     27  H   UNL     1     -51.863  26.228  25.687  1.00  0.00     0.027 H 
ATOM     28  H   UNL     1     -50.971  26.914  27.112  1.00  0.00     0.027 H 
ENDBRANCH  18  21
ENDBRANCH  13  18
ENDBRANCH  11  13
ENDBRANCH   3  11
BRANCH   5  29
ATOM     29  N   UNL     1     -45.524  30.519  23.039  1.00  0.00    -0.398 N 
ATOM     30  H   UNL     1     -44.940  29.934  23.645  1.00  0.00     0.156 HD
ATOM     31  H   UNL     1     -45.954  29.958  22.308  1.00  0.00     0.156 HD
ENDBRANCH   5  29
ENDBRANCH   1   2
BRANCH   1  32
ATOM     32  C   UNL     1     -47.519  35.161  26.312  1.00  0.00     0.115 C 
ATOM     33  H   UNL     1     -47.988  35.773  25.533  1.00  0.00     0.076 H 
ATOM     34  H   UNL     1     -48.324  34.542  26.730  1.00  0.00     0.076 H 
BRANCH  32  35
ATOM     35  C   UNL     1     -46.941  36.049  27.381  1.00  0.00     0.010 A 
ATOM     36  C   UNL     1     -47.073  35.742  28.726  1.00  0.00     0.034 A 
ATOM     37  C   UNL     1     -46.262  37.231  27.055  1.00  0.00    -0.028 A 
ATOM     38  N   UNL     1     -46.573  36.502  29.724  1.00  0.00    -0.262 NA
ATOM     39  H   UNL     1     -47.597  34.849  29.058  1.00  0.00     0.084 H 
ATOM     40  C   UNL     1     -45.760  38.067  28.060  1.00  0.00     0.066 A 
ATOM     41  H   UNL     1     -46.129  37.470  26.004  1.00  0.00     0.065 H 
ATOM     42  C   UNL     1     -45.930  37.647  29.373  1.00  0.00     0.051 A 
ATOM     43  H   UNL     1     -45.596  38.222  30.230  1.00  0.00     0.086 H 
BRANCH  40  44
ATOM     44  N   UNL     1     -45.134  39.306  27.733  1.00  0.00    -0.299 N 
ATOM     45  C   UNL     1     -45.492  40.113  26.666  1.00  0.00     0.021 A 
ATOM     46  C   UNL     1     -44.087  39.939  28.401  1.00  0.00     0.150 A 
ATOM     47  C   UNL     1     -44.696  41.238  26.652  1.00  0.00     0.033 A 
ATOM     48  H   UNL     1     -46.309  39.849  26.009  1.00  0.00     0.083 H 
ATOM     49  C   UNL     1     -43.804  41.145  27.758  1.00  0.00     0.071 A 
ATOM     50  N   UNL     1     -43.428  39.457  29.473  1.00  0.00    -0.218 NA
ATOM     51  C   UNL     1     -42.779  41.929  28.318  1.00  0.00     0.137 A 
ATOM     52  C   UNL     1     -42.457  40.276  29.895  1.00  0.00     0.120 A 
ATOM     53  N   UNL     1     -42.101  41.463  29.384  1.00  0.00    -0.219 NA
ATOM     54  H   UNL     1     -41.888  39.941  30.757  1.00  0.00     0.106 H 
BRANCH  47  55
ATOM     55  C   UNL     1     -44.767  42.324  25.671  1.00  0.00     0.095 A 
ATOM     56  C   UNL     1     -45.899  43.147  25.467  1.00  0.00    -0.016 A 
ATOM     57  N   UNL     1     -43.767  42.640  24.836  1.00  0.00    -0.173 NA
ATOM     58  C   UNL     1     -45.528  44.017  24.467  1.00  0.00     0.025 A 
ATOM     59  H   UNL     1     -46.848  43.127  25.985  1.00  0.00     0.066 H 
ATOM     60  N   UNL     1     -44.252  43.679  24.131  1.00  0.00    -0.275 N 
ATOM     61  H   UNL     1     -46.054  44.831  23.989  1.00  0.00     0.084 H 
BRANCH  60  62
ATOM     62  C   UNL     1     -43.422  44.312  23.135  1.00  0.00     0.030 C 
ATOM     63  H   UNL     1     -44.034  45.027  22.579  1.00  0.00     0.048 H 
ATOM     64  H   UNL     1     -43.035  43.537  22.468  1.00  0.00     0.048 H 
ATOM     65  H   UNL     1     -42.594  44.830  23.625  1.00  0.00     0.048 H 
ENDBRANCH  60  62
ENDBRANCH  47  55
BRANCH  51  66
ATOM     66  N   UNL     1     -42.400  43.173  27.838  1.00  0.00    -0.383 N 
ATOM     67  H   UNL     1     -42.486  43.227  26.833  1.00  0.00     0.158 HD
ATOM     68  H   UNL     1     -42.803  43.944  28.380  1.00  0.00     0.158 HD
ENDBRANCH  51  66
ENDBRANCH  40  44
ENDBRANCH  32  35
ENDBRANCH   1  32
TORSDOF 13
ENDMDL
MODEL 4
REMARK VINA RESULT:      -8.9      2.384      3.595
REMARK SMILES CN(CC1CC1)C(=O)c1ccc(OCc2cncc(-n3cc(-c4ccn(C)n4)c4c(N)ncnc43)c2)cc1N
REMARK SMILES IDX 13 1 12 2 9 3 10 4 38 5 11 6 37 8 7 11 8 12 2 13 1 14 3 18
REMARK SMILES IDX 4 21 5 22 6 23 39 29 14 32 15 35 16 36 36 37 17 38 19 40
REMARK SMILES IDX 18 42 20 44 21 45 35 46 22 47 29 49 34 50 30 51 33 52 32 53
REMARK SMILES IDX 23 55 24 56 28 57 25 58 26 60 27 62 31 66
REMARK H PARENT 10 7 11 9 37 10 1 15 1 16 1 17 3 19 3 20 4 24 5 25 5 26 6 27
REMARK H PARENT 6 28 39 30 39 31 14 33 14 34 16 39 36 41 18 43 21 48 33 54
REMARK H PARENT 24 59 25 61 27 63 27 64 27 65 31 67 31 68
REMARK Flexibility Score: inf
ROOT
ATOM      1  O   UNL     1     -47.235  35.372  26.162  1.00  0.00    -0.489 OA
ENDROOT
BRANCH   1   2
ATOM      2  C   UNL     1     -47.241  34.097  25.661  1.00  0.00     0.121 A 
ATOM      3  C   UNL     1     -47.392  31.540  24.596  1.00  0.00     0.063 A 
ATOM      4  C   UNL     1     -46.147  32.178  24.713  1.00  0.00    -0.044 A 
ATOM      5  C   UNL     1     -48.563  32.130  25.107  1.00  0.00     0.048 A 
ATOM      6  C   UNL     1     -46.072  33.459  25.257  1.00  0.00    -0.019 A 
ATOM      7  H   UNL     1     -45.242  31.674  24.383  1.00  0.00     0.063 H 
ATOM      8  C   UNL     1     -48.473  33.435  25.603  1.00  0.00     0.004 A 
ATOM      9  H   UNL     1     -45.108  33.947  25.360  1.00  0.00     0.066 H 
ATOM     10  H   UNL     1     -49.367  33.959  25.935  1.00  0.00     0.068 H 
BRANCH   3  11
ATOM     11  C   UNL     1     -47.436  30.185  24.004  1.00  0.00     0.255 C 
ATOM     12  O   UNL     1     -48.011  29.310  24.649  1.00  0.00    -0.269 OA
BRANCH  11  13
ATOM     13  N   UNL     1     -46.817  29.967  22.774  1.00  0.00    -0.341 N 
BRANCH  13  14
ATOM     14  C   UNL     1     -45.608  29.173  22.589  1.00  0.00     0.009 C 
ATOM     15  H   UNL     1     -45.054  29.544  21.722  1.00  0.00     0.046 H 
ATOM     16  H   UNL     1     -44.944  29.220  23.454  1.00  0.00     0.046 H 
ATOM     17  H   UNL     1     -45.902  28.134  22.409  1.00  0.00     0.046 H 
ENDBRANCH  13  14
BRANCH  13  18
ATOM     18  C   UNL     1     -47.363  30.631  21.597  1.00  0.00     0.023 C 
ATOM     19  H   UNL     1     -47.190  31.709  21.698  1.00  0.00     0.050 H 
ATOM     20  H   UNL     1     -46.818  30.301  20.705  1.00  0.00     0.050 H 
BRANCH  18  21
ATOM     21  C   UNL     1     -48.831  30.357  21.455  1.00  0.00    -0.024 C 
ATOM     22  C   UNL     1     -49.662  31.171  20.495  1.00  0.00    -0.048 C 
ATOM     23  C   UNL     1     -49.381  29.723  20.201  1.00  0.00    -0.048 C 
ATOM     24  H   UNL     1     -49.294  30.100  22.400  1.00  0.00     0.032 H 
ATOM     25  H   UNL     1     -50.668  31.441  20.794  1.00  0.00     0.027 H 
ATOM     26  H   UNL     1     -49.169  31.912  19.875  1.00  0.00     0.027 H 
ATOM     27  H   UNL     1     -50.192  29.012  20.303  1.00  0.00     0.027 H 
ATOM     28  H   UNL     1     -48.695  29.492  19.394  1.00  0.00     0.027 H 
ENDBRANCH  18  21
ENDBRANCH  13  18
ENDBRANCH  11  13
ENDBRANCH   3  11
BRANCH   5  29
ATOM     29  N   UNL     1     -49.837  31.556  24.919  1.00  0.00    -0.398 N 
ATOM     30  H   UNL     1     -49.767  30.547  24.757  1.00  0.00     0.156 HD
ATOM     31  H   UNL     1     -50.477  31.751  25.685  1.00  0.00     0.156 HD
ENDBRANCH   5  29
ENDBRANCH   1   2
BRANCH   1  32
ATOM     32  C   UNL     1     -47.752  35.459  27.498  1.00  0.00     0.115 C 
ATOM     33  H   UNL     1     -48.740  35.928  27.424  1.00  0.00     0.076 H 
ATOM     34  H   UNL     1     -47.922  34.479  27.963  1.00  0.00     0.076 H 
BRANCH  32  35
ATOM     35  C   UNL     1     -46.853  36.296  28.368  1.00  0.00     0.010 A 
ATOM     36  C   UNL     1     -46.648  35.987  29.704  1.00  0.00     0.034 A 
ATOM     37  C   UNL     1     -46.204  37.431  27.864  1.00  0.00    -0.028 A 
ATOM     38  N   UNL     1     -45.851  36.703  30.528  1.00  0.00    -0.262 NA
ATOM     39  H   UNL     1     -47.126  35.130  30.171  1.00  0.00     0.084 H 
ATOM     40  C   UNL     1     -45.399  38.221  28.693  1.00  0.00     0.066 A 
ATOM     41  H   UNL     1     -46.335  37.669  26.812  1.00  0.00     0.065 H 
ATOM     42  C   UNL     1     -45.246  37.803  30.008  1.00  0.00     0.051 A 
ATOM     43  H   UNL     1     -44.659  38.346  30.741  1.00  0.00     0.086 H 
BRANCH  40  44
ATOM     44  N   UNL     1     -44.796  39.417  28.200  1.00  0.00    -0.299 N 
ATOM     45  C   UNL     1     -45.237  40.123  27.094  1.00  0.00     0.021 A 
ATOM     46  C   UNL     1     -43.696  40.098  28.718  1.00  0.00     0.150 A 
ATOM     47  C   UNL     1     -44.441  41.233  26.909  1.00  0.00     0.033 A 
ATOM     48  H   UNL     1     -46.106  39.808  26.533  1.00  0.00     0.083 H 
ATOM     49  C   UNL     1     -43.462  41.234  27.942  1.00  0.00     0.071 A 
ATOM     50  N   UNL     1     -42.953  39.712  29.775  1.00  0.00    -0.218 NA
ATOM     51  C   UNL     1     -42.391  42.055  28.341  1.00  0.00     0.137 A 
ATOM     52  C   UNL     1     -41.948  40.555  30.037  1.00  0.00     0.120 A 
ATOM     53  N   UNL     1     -41.630  41.685  29.388  1.00  0.00    -0.219 NA
ATOM     54  H   UNL     1     -41.312  40.296  30.878  1.00  0.00     0.106 H 
BRANCH  47  55
ATOM     55  C   UNL     1     -44.587  42.223  25.838  1.00  0.00     0.095 A 
ATOM     56  C   UNL     1     -45.782  42.925  25.554  1.00  0.00    -0.016 A 
ATOM     57  N   UNL     1     -43.604  42.552  24.989  1.00  0.00    -0.173 NA
ATOM     58  C   UNL     1     -45.469  43.736  24.487  1.00  0.00     0.025 A 
ATOM     59  H   UNL     1     -46.734  42.867  26.063  1.00  0.00     0.066 H 
ATOM     60  N   UNL     1     -44.164  43.483  24.193  1.00  0.00    -0.275 N 
ATOM     61  H   UNL     1     -46.055  44.459  23.937  1.00  0.00     0.084 H 
BRANCH  60  62
ATOM     62  C   UNL     1     -43.374  44.098  23.154  1.00  0.00     0.030 C 
ATOM     63  H   UNL     1     -43.213  45.146  23.419  1.00  0.00     0.048 H 
ATOM     64  H   UNL     1     -43.923  44.018  22.213  1.00  0.00     0.048 H 
ATOM     65  H   UNL     1     -42.414  43.582  23.072  1.00  0.00     0.048 H 
ENDBRANCH  60  62
ENDBRANCH  47  55
BRANCH  51  66
ATOM     66  N   UNL     1     -42.048  43.245  27.716  1.00  0.00    -0.383 N 
ATOM     67  H   UNL     1     -42.160  44.036  28.334  1.00  0.00     0.158 HD
ATOM     68  H   UNL     1     -41.165  43.179  27.202  1.00  0.00     0.158 HD
ENDBRANCH  51  66
ENDBRANCH  40  44
ENDBRANCH  32  35
ENDBRANCH   1  32
TORSDOF 13
ENDMDL
MODEL 5
REMARK VINA RESULT:      -8.6      2.743     12.499
REMARK SMILES CN(CC1CC1)C(=O)c1ccc(OCc2cncc(-n3cc(-c4ccn(C)n4)c4c(N)ncnc43)c2)cc1N
REMARK SMILES IDX 13 1 12 2 9 3 10 4 38 5 11 6 37 8 7 11 8 12 2 13 1 14 3 18
REMARK SMILES IDX 4 21 5 22 6 23 39 29 14 32 15 35 16 36 36 37 17 38 19 40
REMARK SMILES IDX 18 42 20 44 21 45 35 46 22 47 29 49 34 50 30 51 33 52 32 53
REMARK SMILES IDX 23 55 24 56 28 57 25 58 26 60 27 62 31 66
REMARK H PARENT 10 7 11 9 37 10 1 15 1 16 1 17 3 19 3 20 4 24 5 25 5 26 6 27
REMARK H PARENT 6 28 39 30 39 31 14 33 14 34 16 39 36 41 18 43 21 48 33 54
REMARK H PARENT 24 59 25 61 27 63 27 64 27 65 31 67 31 68
REMARK Flexibility Score: inf
ROOT
ATOM      1  O   UNL     1     -46.703  37.780  27.734  1.00  0.00    -0.489 OA
ENDROOT
BRANCH   1   2
ATOM      2  C   UNL     1     -45.781  38.772  27.525  1.00  0.00     0.121 A 
ATOM      3  C   UNL     1     -43.823  40.708  27.192  1.00  0.00     0.063 A 
ATOM      4  C   UNL     1     -44.745  40.460  26.162  1.00  0.00    -0.044 A 
ATOM      5  C   UNL     1     -43.934  40.066  28.438  1.00  0.00     0.048 A 
ATOM      6  C   UNL     1     -45.734  39.494  26.335  1.00  0.00    -0.019 A 
ATOM      7  H   UNL     1     -44.691  41.022  25.234  1.00  0.00     0.063 H 
ATOM      8  C   UNL     1     -44.902  39.065  28.573  1.00  0.00     0.004 A 
ATOM      9  H   UNL     1     -46.456  39.311  25.545  1.00  0.00     0.066 H 
ATOM     10  H   UNL     1     -44.971  38.488  29.493  1.00  0.00     0.068 H 
BRANCH   3  11
ATOM     11  C   UNL     1     -42.780  41.734  26.971  1.00  0.00     0.255 C 
ATOM     12  O   UNL     1     -41.611  41.391  27.146  1.00  0.00    -0.269 OA
BRANCH  11  13
ATOM     13  N   UNL     1     -43.168  43.020  26.600  1.00  0.00    -0.341 N 
BRANCH  13  14
ATOM     14  C   UNL     1     -44.322  43.724  27.145  1.00  0.00     0.009 C 
ATOM     15  H   UNL     1     -45.077  42.999  27.463  1.00  0.00     0.046 H 
ATOM     16  H   UNL     1     -44.064  44.337  28.010  1.00  0.00     0.046 H 
ATOM     17  H   UNL     1     -44.741  44.359  26.359  1.00  0.00     0.046 H 
ENDBRANCH  13  14
BRANCH  13  18
ATOM     18  C   UNL     1     -42.420  43.690  25.543  1.00  0.00     0.023 C 
ATOM     19  H   UNL     1     -42.595  44.769  25.626  1.00  0.00     0.050 H 
ATOM     20  H   UNL     1     -41.346  43.526  25.694  1.00  0.00     0.050 H 
BRANCH  18  21
ATOM     21  C   UNL     1     -42.846  43.203  24.188  1.00  0.00    -0.024 C 
ATOM     22  C   UNL     1     -43.644  44.103  23.278  1.00  0.00    -0.048 C 
ATOM     23  C   UNL     1     -42.221  43.761  22.934  1.00  0.00    -0.048 C 
ATOM     24  H   UNL     1     -43.121  42.156  24.197  1.00  0.00     0.032 H 
ATOM     25  H   UNL     1     -44.431  43.656  22.682  1.00  0.00     0.027 H 
ATOM     26  H   UNL     1     -43.851  45.119  23.598  1.00  0.00     0.027 H 
ATOM     27  H   UNL     1     -42.041  43.083  22.109  1.00  0.00     0.027 H 
ATOM     28  H   UNL     1     -41.473  44.540  23.031  1.00  0.00     0.027 H 
ENDBRANCH  18  21
ENDBRANCH  13  18
ENDBRANCH  11  13
ENDBRANCH   3  11
BRANCH   5  29
ATOM     29  N   UNL     1     -42.969  40.225  29.454  1.00  0.00    -0.398 N 
ATOM     30  H   UNL     1     -42.987  41.176  29.836  1.00  0.00     0.156 HD
ATOM     31  H   UNL     1     -43.061  39.539  30.200  1.00  0.00     0.156 HD
ENDBRANCH   5  29
ENDBRANCH   1   2
BRANCH   1  32
ATOM     32  C   UNL     1     -46.914  36.949  26.583  1.00  0.00     0.115 C 
ATOM     33  H   UNL     1     -47.945  37.125  26.254  1.00  0.00     0.076 H 
ATOM     34  H   UNL     1     -46.279  37.219  25.730  1.00  0.00     0.076 H 
BRANCH  32  35
ATOM     35  C   UNL     1     -46.729  35.496  26.928  1.00  0.00     0.010 A 
ATOM     36  C   UNL     1     -46.047  35.106  28.070  1.00  0.00     0.034 A 
ATOM     37  C   UNL     1     -47.225  34.482  26.097  1.00  0.00    -0.028 A 
ATOM     38  N   UNL     1     -45.854  33.817  28.427  1.00  0.00    -0.262 NA
ATOM     39  H   UNL     1     -45.622  35.833  28.757  1.00  0.00     0.084 H 
ATOM     40  C   UNL     1     -47.015  33.135  26.412  1.00  0.00     0.066 A 
ATOM     41  H   UNL     1     -47.785  34.775  25.214  1.00  0.00     0.065 H 
ATOM     42  C   UNL     1     -46.339  32.860  27.593  1.00  0.00     0.051 A 
ATOM     43  H   UNL     1     -46.108  31.854  27.927  1.00  0.00     0.086 H 
BRANCH  40  44
ATOM     44  N   UNL     1     -47.456  32.103  25.530  1.00  0.00    -0.299 N 
ATOM     45  C   UNL     1     -48.406  31.147  25.848  1.00  0.00     0.021 A 
ATOM     46  C   UNL     1     -47.048  31.865  24.219  1.00  0.00     0.150 A 
ATOM     47  C   UNL     1     -48.606  30.318  24.765  1.00  0.00     0.033 A 
ATOM     48  H   UNL     1     -48.900  31.141  26.810  1.00  0.00     0.083 H 
ATOM     49  C   UNL     1     -47.755  30.771  23.718  1.00  0.00     0.071 A 
ATOM     50  N   UNL     1     -46.104  32.554  23.548  1.00  0.00    -0.218 NA
ATOM     51  C   UNL     1     -47.480  30.404  22.387  1.00  0.00     0.137 A 
ATOM     52  C   UNL     1     -45.910  32.092  22.306  1.00  0.00     0.120 A 
ATOM     53  N   UNL     1     -46.534  31.071  21.701  1.00  0.00    -0.219 NA
ATOM     54  H   UNL     1     -45.159  32.607  21.715  1.00  0.00     0.106 H 
BRANCH  47  55
ATOM     55  C   UNL     1     -49.529  29.181  24.716  1.00  0.00     0.095 A 
ATOM     56  C   UNL     1     -49.356  27.977  25.438  1.00  0.00    -0.016 A 
ATOM     57  N   UNL     1     -50.632  29.150  23.956  1.00  0.00    -0.173 NA
ATOM     58  C   UNL     1     -50.441  27.202  25.098  1.00  0.00     0.025 A 
ATOM     59  H   UNL     1     -48.564  27.712  26.126  1.00  0.00     0.066 H 
ATOM     60  N   UNL     1     -51.172  27.945  24.221  1.00  0.00    -0.275 N 
ATOM     61  H   UNL     1     -50.745  26.213  25.409  1.00  0.00     0.084 H 
BRANCH  60  62
ATOM     62  C   UNL     1     -52.411  27.566  23.587  1.00  0.00     0.030 C 
ATOM     63  H   UNL     1     -52.371  27.874  22.539  1.00  0.00     0.048 H 
ATOM     64  H   UNL     1     -53.230  28.072  24.105  1.00  0.00     0.048 H 
ATOM     65  H   UNL     1     -52.539  26.483  23.653  1.00  0.00     0.048 H 
ENDBRANCH  60  62
ENDBRANCH  47  55
BRANCH  51  66
ATOM     66  N   UNL     1     -48.123  29.375  21.716  1.00  0.00    -0.383 N 
ATOM     67  H   UNL     1     -49.127  29.474  21.756  1.00  0.00     0.158 HD
ATOM     68  H   UNL     1     -47.712  29.187  20.796  1.00  0.00     0.158 HD
ENDBRANCH  51  66
ENDBRANCH  40  44
ENDBRANCH  32  35
ENDBRANCH   1  32
TORSDOF 13
ENDMDL
MODEL 6
REMARK VINA RESULT:      -8.4      2.558      3.686
REMARK SMILES CN(CC1CC1)C(=O)c1ccc(OCc2cncc(-n3cc(-c4ccn(C)n4)c4c(N)ncnc43)c2)cc1N
REMARK SMILES IDX 13 1 12 2 9 3 10 4 38 5 11 6 37 8 7 11 8 12 2 13 1 14 3 18
REMARK SMILES IDX 4 21 5 22 6 23 39 29 14 32 15 35 16 36 36 37 17 38 19 40
REMARK SMILES IDX 18 42 20 44 21 45 35 46 22 47 29 49 34 50 30 51 33 52 32 53
REMARK SMILES IDX 23 55 24 56 28 57 25 58 26 60 27 62 31 66
REMARK H PARENT 10 7 11 9 37 10 1 15 1 16 1 17 3 19 3 20 4 24 5 25 5 26 6 27
REMARK H PARENT 6 28 39 30 39 31 14 33 14 34 16 39 36 41 18 43 21 48 33 54
REMARK H PARENT 24 59 25 61 27 63 27 64 27 65 31 67 31 68
REMARK Flexibility Score: inf
ROOT
ATOM      1  O   UNL     1     -47.504  34.041  27.144  1.00  0.00    -0.489 OA
ENDROOT
BRANCH   1   2
ATOM      2  C   UNL     1     -47.724  33.087  26.186  1.00  0.00     0.121 A 
ATOM      3  C   UNL     1     -48.028  31.117  24.257  1.00  0.00     0.063 A 
ATOM      4  C   UNL     1     -49.119  31.485  25.061  1.00  0.00    -0.044 A 
ATOM      5  C   UNL     1     -46.802  31.803  24.336  1.00  0.00     0.048 A 
ATOM      6  C   UNL     1     -48.967  32.481  26.023  1.00  0.00    -0.019 A 
ATOM      7  H   UNL     1     -50.081  30.996  24.932  1.00  0.00     0.063 H 
ATOM      8  C   UNL     1     -46.656  32.766  25.342  1.00  0.00     0.004 A 
ATOM      9  H   UNL     1     -49.814  32.775  26.636  1.00  0.00     0.066 H 
ATOM     10  H   UNL     1     -45.700  33.264  25.490  1.00  0.00     0.068 H 
BRANCH   3  11
ATOM     11  C   UNL     1     -48.221  30.049  23.253  1.00  0.00     0.255 C 
ATOM     12  O   UNL     1     -47.687  28.964  23.479  1.00  0.00    -0.269 OA
BRANCH  11  13
ATOM     13  N   UNL     1     -48.971  30.325  22.110  1.00  0.00    -0.341 N 
BRANCH  13  14
ATOM     14  C   UNL     1     -49.999  31.355  22.027  1.00  0.00     0.009 C 
ATOM     15  H   UNL     1     -49.571  32.268  21.603  1.00  0.00     0.046 H 
ATOM     16  H   UNL     1     -50.837  31.055  21.395  1.00  0.00     0.046 H 
ATOM     17  H   UNL     1     -50.360  31.564  23.039  1.00  0.00     0.046 H 
ENDBRANCH  13  14
BRANCH  13  18
ATOM     18  C   UNL     1     -48.775  29.485  20.935  1.00  0.00     0.023 C 
ATOM     19  H   UNL     1     -48.598  30.135  20.070  1.00  0.00     0.050 H 
ATOM     20  H   UNL     1     -47.873  28.875  21.067  1.00  0.00     0.050 H 
BRANCH  18  21
ATOM     21  C   UNL     1     -49.973  28.615  20.688  1.00  0.00    -0.024 C 
ATOM     22  C   UNL     1     -49.798  27.241  20.090  1.00  0.00    -0.048 C 
ATOM     23  C   UNL     1     -50.221  27.385  21.526  1.00  0.00    -0.048 C 
ATOM     24  H   UNL     1     -50.831  29.184  20.352  1.00  0.00     0.032 H 
ATOM     25  H   UNL     1     -50.537  26.898  19.376  1.00  0.00     0.027 H 
ATOM     26  H   UNL     1     -48.794  26.878  19.899  1.00  0.00     0.027 H 
ATOM     27  H   UNL     1     -51.244  27.144  21.786  1.00  0.00     0.027 H 
ATOM     28  H   UNL     1     -49.502  27.129  22.296  1.00  0.00     0.027 H 
ENDBRANCH  18  21
ENDBRANCH  13  18
ENDBRANCH  11  13
ENDBRANCH   3  11
BRANCH   5  29
ATOM     29  N   UNL     1     -45.664  31.395  23.611  1.00  0.00    -0.398 N 
ATOM     30  H   UNL     1     -45.927  30.826  22.800  1.00  0.00     0.156 HD
ATOM     31  H   UNL     1     -45.075  32.173  23.324  1.00  0.00     0.156 HD
ENDBRANCH   5  29
ENDBRANCH   1   2
BRANCH   1  32
ATOM     32  C   UNL     1     -46.149  34.514  27.173  1.00  0.00     0.115 C 
ATOM     33  H   UNL     1     -45.552  33.729  27.651  1.00  0.00     0.076 H 
ATOM     34  H   UNL     1     -45.716  34.652  26.175  1.00  0.00     0.076 H 
BRANCH  32  35
ATOM     35  C   UNL     1     -46.043  35.790  27.966  1.00  0.00     0.010 A 
ATOM     36  C   UNL     1     -46.128  35.790  29.349  1.00  0.00     0.034 A 
ATOM     37  C   UNL     1     -45.870  37.027  27.331  1.00  0.00    -0.028 A 
ATOM     38  N   UNL     1     -46.037  36.904  30.108  1.00  0.00    -0.262 NA
ATOM     39  H   UNL     1     -46.274  34.872  29.912  1.00  0.00     0.084 H 
ATOM     40  C   UNL     1     -45.808  38.210  28.078  1.00  0.00     0.066 A 
ATOM     41  H   UNL     1     -45.775  37.037  26.249  1.00  0.00     0.065 H 
ATOM     42  C   UNL     1     -45.881  38.088  29.459  1.00  0.00     0.051 A 
ATOM     43  H   UNL     1     -45.859  38.938  30.133  1.00  0.00     0.086 H 
BRANCH  40  44
ATOM     44  N   UNL     1     -45.706  39.477  27.430  1.00  0.00    -0.299 N 
ATOM     45  C   UNL     1     -44.527  40.025  26.953  1.00  0.00     0.021 A 
ATOM     46  C   UNL     1     -46.730  40.378  27.143  1.00  0.00     0.150 A 
ATOM     47  C   UNL     1     -44.790  41.247  26.371  1.00  0.00     0.033 A 
ATOM     48  H   UNL     1     -43.587  39.496  27.029  1.00  0.00     0.083 H 
ATOM     49  C   UNL     1     -46.191  41.478  26.476  1.00  0.00     0.071 A 
ATOM     50  N   UNL     1     -48.027  40.232  27.480  1.00  0.00    -0.218 NA
ATOM     51  C   UNL     1     -47.097  42.482  26.090  1.00  0.00     0.137 A 
ATOM     52  C   UNL     1     -48.783  41.264  27.087  1.00  0.00     0.120 A 
ATOM     53  N   UNL     1     -48.395  42.363  26.424  1.00  0.00    -0.219 NA
ATOM     54  H   UNL     1     -49.839  41.205  27.332  1.00  0.00     0.106 H 
BRANCH  47  55
ATOM     55  C   UNL     1     -43.798  42.135  25.759  1.00  0.00     0.095 A 
ATOM     56  C   UNL     1     -42.626  42.593  26.406  1.00  0.00    -0.016 A 
ATOM     57  N   UNL     1     -43.908  42.634  24.520  1.00  0.00    -0.173 NA
ATOM     58  C   UNL     1     -41.998  43.390  25.476  1.00  0.00     0.025 A 
ATOM     59  H   UNL     1     -42.274  42.363  27.402  1.00  0.00     0.066 H 
ATOM     60  N   UNL     1     -42.795  43.377  24.372  1.00  0.00    -0.275 N 
ATOM     61  H   UNL     1     -41.069  43.941  25.511  1.00  0.00     0.084 H 
BRANCH  60  62
ATOM     62  C   UNL     1     -42.556  44.057  23.122  1.00  0.00     0.030 C 
ATOM     63  H   UNL     1     -41.962  44.952  23.325  1.00  0.00     0.048 H 
ATOM     64  H   UNL     1     -43.522  44.327  22.688  1.00  0.00     0.048 H 
ATOM     65  H   UNL     1     -42.013  43.395  22.444  1.00  0.00     0.048 H 
ENDBRANCH  60  62
ENDBRANCH  47  55
BRANCH  51  66
ATOM     66  N   UNL     1     -46.742  43.619  25.378  1.00  0.00    -0.383 N 
ATOM     67  H   UNL     1     -47.381  44.381  25.552  1.00  0.00     0.158 HD
ATOM     68  H   UNL     1     -45.742  43.828  25.443  1.00  0.00     0.158 HD
ENDBRANCH  51  66
ENDBRANCH  40  44
ENDBRANCH  32  35
ENDBRANCH   1  32
TORSDOF 13
ENDMDL
