MODEL 1
REMARK VINA RESULT:     -10.1      0.000      0.000
REMARK SMILES CCc1cc(N2CCCC2)c2ccc(OCc3cncc(-n4ccc5c(N)ncnc54)c3)cc2n1
REMARK SMILES IDX 16 1 15 4 14 5 3 6 4 7 35 8 5 9 34 11 11 12 33 13 12 14
REMARK SMILES IDX 13 16 2 19 1 22 6 26 7 27 10 28 8 29 9 32 17 39 18 40 32 41
REMARK SMILES IDX 19 42 21 44 20 46 22 48 23 49 31 50 24 51 25 53 30 54 26 56
REMARK SMILES IDX 29 57 28 58 27 60
REMARK H PARENT 16 2 16 3 4 10 33 15 12 17 13 18 2 20 2 21 1 23 1 24 1 25 7 30
REMARK H PARENT 7 31 10 33 10 34 8 35 8 36 9 37 9 38 18 43 32 45 20 47 23 52
REMARK H PARENT 24 55 29 59 27 61 27 62
REMARK Flexibility Score: inf
ROOT
ATOM      1  C   UNL     1     -47.929  36.281  27.184  1.00  0.00     0.115 C 
ATOM      2  H   UNL     1     -47.754  36.801  26.234  1.00  0.00     0.076 H 
ATOM      3  H   UNL     1     -49.006  36.364  27.378  1.00  0.00     0.076 H 
ENDROOT
BRANCH   1   4
ATOM      4  O   UNL     1     -47.176  36.986  28.175  1.00  0.00    -0.489 OA
BRANCH   4   5
ATOM      5  C   UNL     1     -46.468  38.093  27.800  1.00  0.00     0.122 A 
ATOM      6  C   UNL     1     -42.892  41.206  28.114  1.00  0.00     0.043 A 
ATOM      7  C   UNL     1     -43.337  41.947  27.028  1.00  0.00    -0.016 A 
ATOM      8  N   UNL     1     -43.532  40.101  28.555  1.00  0.00    -0.253 NA
ATOM      9  C   UNL     1     -44.502  41.560  26.360  1.00  0.00     0.048 A 
ATOM     10  H   UNL     1     -42.762  42.802  26.693  1.00  0.00     0.066 H 
ATOM     11  C   UNL     1     -44.649  39.709  27.922  1.00  0.00     0.076 A 
ATOM     12  C   UNL     1     -45.184  40.403  26.817  1.00  0.00     0.024 A 
ATOM     13  C   UNL     1     -45.296  38.568  28.388  1.00  0.00     0.007 A 
ATOM     14  C   UNL     1     -46.371  39.920  26.226  1.00  0.00    -0.047 A 
ATOM     15  H   UNL     1     -44.836  38.061  29.229  1.00  0.00     0.069 H 
ATOM     16  C   UNL     1     -47.002  38.778  26.712  1.00  0.00    -0.019 A 
ATOM     17  H   UNL     1     -46.810  40.448  25.383  1.00  0.00     0.063 H 
ATOM     18  H   UNL     1     -47.914  38.423  26.240  1.00  0.00     0.066 H 
BRANCH   6  19
ATOM     19  C   UNL     1     -41.625  41.589  28.833  1.00  0.00    -0.013 C 
ATOM     20  H   UNL     1     -40.753  41.296  28.236  1.00  0.00     0.033 H 
ATOM     21  H   UNL     1     -41.582  42.681  28.931  1.00  0.00     0.033 H 
BRANCH  19  22
ATOM     22  C   UNL     1     -41.552  40.955  30.214  1.00  0.00    -0.060 C 
ATOM     23  H   UNL     1     -40.808  41.457  30.842  1.00  0.00     0.023 H 
ATOM     24  H   UNL     1     -42.518  41.011  30.728  1.00  0.00     0.023 H 
ATOM     25  H   UNL     1     -41.272  39.900  30.133  1.00  0.00     0.023 H 
ENDBRANCH  19  22
ENDBRANCH   6  19
BRANCH   9  26
ATOM     26  N   UNL     1     -44.972  42.255  25.227  1.00  0.00    -0.371 N 
ATOM     27  C   UNL     1     -43.877  42.625  24.306  1.00  0.00     0.018 C 
ATOM     28  C   UNL     1     -45.852  43.417  25.431  1.00  0.00     0.018 C 
ATOM     29  C   UNL     1     -44.368  43.906  23.642  1.00  0.00    -0.034 C 
ATOM     30  H   UNL     1     -42.941  42.827  24.842  1.00  0.00     0.049 H 
ATOM     31  H   UNL     1     -43.696  41.837  23.567  1.00  0.00     0.049 H 
ATOM     32  C   UNL     1     -45.128  44.584  24.767  1.00  0.00    -0.034 C 
ATOM     33  H   UNL     1     -46.794  43.221  24.906  1.00  0.00     0.049 H 
ATOM     34  H   UNL     1     -46.103  43.631  26.475  1.00  0.00     0.049 H 
ATOM     35  H   UNL     1     -43.548  44.517  23.253  1.00  0.00     0.029 H 
ATOM     36  H   UNL     1     -45.048  43.671  22.815  1.00  0.00     0.029 H 
ATOM     37  H   UNL     1     -44.425  45.045  25.474  1.00  0.00     0.029 H 
ATOM     38  H   UNL     1     -45.814  45.357  24.412  1.00  0.00     0.029 H 
ENDBRANCH   9  26
ENDBRANCH   4   5
ENDBRANCH   1   4
BRANCH   1  39
ATOM     39  C   UNL     1     -47.485  34.853  27.000  1.00  0.00     0.010 A 
ATOM     40  C   UNL     1     -46.542  34.300  27.855  1.00  0.00     0.034 A 
ATOM     41  C   UNL     1     -48.033  34.020  26.012  1.00  0.00    -0.028 A 
ATOM     42  N   UNL     1     -46.111  33.024  27.774  1.00  0.00    -0.262 NA
ATOM     43  H   UNL     1     -46.088  34.881  28.654  1.00  0.00     0.084 H 
ATOM     44  C   UNL     1     -47.611  32.692  25.887  1.00  0.00     0.066 A 
ATOM     45  H   UNL     1     -48.769  34.452  25.342  1.00  0.00     0.065 H 
ATOM     46  C   UNL     1     -46.648  32.256  26.794  1.00  0.00     0.051 A 
ATOM     47  H   UNL     1     -46.257  31.245  26.805  1.00  0.00     0.086 H 
BRANCH  44  48
ATOM     48  N   UNL     1     -48.127  31.812  24.883  1.00  0.00    -0.300 N 
ATOM     49  C   UNL     1     -49.380  31.210  24.918  1.00  0.00     0.012 A 
ATOM     50  C   UNL     1     -47.505  31.388  23.704  1.00  0.00     0.150 A 
ATOM     51  C   UNL     1     -49.545  30.419  23.805  1.00  0.00    -0.031 A 
ATOM     52  H   UNL     1     -50.062  31.357  25.743  1.00  0.00     0.082 H 
ATOM     53  C   UNL     1     -48.368  30.529  23.029  1.00  0.00     0.061 A 
ATOM     54  N   UNL     1     -46.285  31.749  23.256  1.00  0.00    -0.218 NA
ATOM     55  H   UNL     1     -50.417  29.819  23.580  1.00  0.00     0.065 H 
ATOM     56  C   UNL     1     -47.922  29.991  21.812  1.00  0.00     0.136 A 
ATOM     57  C   UNL     1     -45.965  31.173  22.090  1.00  0.00     0.120 A 
ATOM     58  N   UNL     1     -46.707  30.329  21.353  1.00  0.00    -0.219 NA
ATOM     59  H   UNL     1     -44.987  31.420  21.688  1.00  0.00     0.106 H 
BRANCH  56  60
ATOM     60  N   UNL     1     -48.680  29.131  21.030  1.00  0.00    -0.383 N 
ATOM     61  H   UNL     1     -49.391  28.616  21.528  1.00  0.00     0.158 HD
ATOM     62  H   UNL     1     -48.975  29.596  20.178  1.00  0.00     0.158 HD
ENDBRANCH  56  60
ENDBRANCH  44  48
ENDBRANCH   1  39
TORSDOF 8
ENDMDL
MODEL 2
REMARK VINA RESULT:     -10.0      1.936     11.132
REMARK SMILES CCc1cc(N2CCCC2)c2ccc(OCc3cncc(-n4ccc5c(N)ncnc54)c3)cc2n1
REMARK SMILES IDX 16 1 15 4 14 5 3 6 4 7 35 8 5 9 34 11 11 12 33 13 12 14
REMARK SMILES IDX 13 16 2 19 1 22 6 26 7 27 10 28 8 29 9 32 17 39 18 40 32 41
REMARK SMILES IDX 19 42 21 44 20 46 22 48 23 49 31 50 24 51 25 53 30 54 26 56
REMARK SMILES IDX 29 57 28 58 27 60
REMARK H PARENT 16 2 16 3 4 10 33 15 12 17 13 18 2 20 2 21 1 23 1 24 1 25 7 30
REMARK H PARENT 7 31 10 33 10 34 8 35 8 36 9 37 9 38 18 43 32 45 20 47 23 52
REMARK H PARENT 24 55 29 59 27 61 27 62
REMARK Flexibility Score: inf
ROOT
ATOM      1  C   UNL     1     -47.499  35.130  27.416  1.00  0.00     0.115 C 
ATOM      2  H   UNL     1     -48.440  34.959  27.954  1.00  0.00     0.076 H 
ATOM      3  H   UNL     1     -47.784  35.476  26.415  1.00  0.00     0.076 H 
ENDROOT
BRANCH   1   4
ATOM      4  O   UNL     1     -46.837  33.864  27.350  1.00  0.00    -0.489 OA
BRANCH   4   5
ATOM      5  C   UNL     1     -47.119  33.027  26.307  1.00  0.00     0.122 A 
ATOM      6  C   UNL     1     -46.468  31.221  21.961  1.00  0.00     0.043 A 
ATOM      7  C   UNL     1     -47.503  30.305  22.101  1.00  0.00    -0.016 A 
ATOM      8  N   UNL     1     -46.125  32.087  22.939  1.00  0.00    -0.253 NA
ATOM      9  C   UNL     1     -48.241  30.275  23.287  1.00  0.00     0.048 A 
ATOM     10  H   UNL     1     -47.710  29.607  21.299  1.00  0.00     0.066 H 
ATOM     11  C   UNL     1     -46.817  32.069  24.088  1.00  0.00     0.076 A 
ATOM     12  C   UNL     1     -47.890  31.183  24.318  1.00  0.00     0.024 A 
ATOM     13  C   UNL     1     -46.450  32.967  25.085  1.00  0.00     0.007 A 
ATOM     14  C   UNL     1     -48.567  31.248  25.555  1.00  0.00    -0.047 A 
ATOM     15  H   UNL     1     -45.608  33.615  24.866  1.00  0.00     0.069 H 
ATOM     16  C   UNL     1     -48.182  32.158  26.537  1.00  0.00    -0.019 A 
ATOM     17  H   UNL     1     -49.407  30.586  25.749  1.00  0.00     0.063 H 
ATOM     18  H   UNL     1     -48.716  32.189  27.483  1.00  0.00     0.066 H 
BRANCH   6  19
ATOM     19  C   UNL     1     -45.642  31.254  20.702  1.00  0.00    -0.013 C 
ATOM     20  H   UNL     1     -44.681  31.743  20.898  1.00  0.00     0.033 H 
ATOM     21  H   UNL     1     -45.411  30.226  20.395  1.00  0.00     0.033 H 
BRANCH  19  22
ATOM     22  C   UNL     1     -46.371  31.965  19.573  1.00  0.00    -0.060 C 
ATOM     23  H   UNL     1     -47.017  32.762  19.957  1.00  0.00     0.023 H 
ATOM     24  H   UNL     1     -45.666  32.415  18.866  1.00  0.00     0.023 H 
ATOM     25  H   UNL     1     -46.998  31.257  19.020  1.00  0.00     0.023 H 
ENDBRANCH  19  22
ENDBRANCH   6  19
BRANCH   9  26
ATOM     26  N   UNL     1     -49.273  29.337  23.493  1.00  0.00    -0.371 N 
ATOM     27  C   UNL     1     -48.838  27.955  23.203  1.00  0.00     0.018 C 
ATOM     28  C   UNL     1     -50.580  29.581  22.859  1.00  0.00     0.018 C 
ATOM     29  C   UNL     1     -50.109  27.255  22.737  1.00  0.00    -0.034 C 
ATOM     30  H   UNL     1     -48.088  27.921  22.401  1.00  0.00     0.049 H 
ATOM     31  H   UNL     1     -48.421  27.475  24.094  1.00  0.00     0.049 H 
ATOM     32  C   UNL     1     -50.828  28.358  21.981  1.00  0.00    -0.034 C 
ATOM     33  H   UNL     1     -51.335  29.624  23.652  1.00  0.00     0.049 H 
ATOM     34  H   UNL     1     -50.654  30.514  22.291  1.00  0.00     0.049 H 
ATOM     35  H   UNL     1     -49.901  26.379  22.117  1.00  0.00     0.029 H 
ATOM     36  H   UNL     1     -50.707  26.936  23.600  1.00  0.00     0.029 H 
ATOM     37  H   UNL     1     -50.369  28.500  20.994  1.00  0.00     0.029 H 
ATOM     38  H   UNL     1     -51.892  28.152  21.840  1.00  0.00     0.029 H 
ENDBRANCH   9  26
ENDBRANCH   4   5
ENDBRANCH   1   4
BRANCH   1  39
ATOM     39  C   UNL     1     -46.726  36.168  28.188  1.00  0.00     0.010 A 
ATOM     40  C   UNL     1     -46.495  36.000  29.546  1.00  0.00     0.034 A 
ATOM     41  C   UNL     1     -46.171  37.301  27.571  1.00  0.00    -0.028 A 
ATOM     42  N   UNL     1     -45.791  36.867  30.302  1.00  0.00    -0.262 NA
ATOM     43  H   UNL     1     -46.879  35.138  30.086  1.00  0.00     0.084 H 
ATOM     44  C   UNL     1     -45.440  38.231  28.318  1.00  0.00     0.066 A 
ATOM     45  H   UNL     1     -46.354  37.434  26.510  1.00  0.00     0.065 H 
ATOM     46  C   UNL     1     -45.288  37.959  29.675  1.00  0.00     0.051 A 
ATOM     47  H   UNL     1     -44.729  38.599  30.349  1.00  0.00     0.086 H 
BRANCH  44  48
ATOM     48  N   UNL     1     -44.873  39.409  27.735  1.00  0.00    -0.300 N 
ATOM     49  C   UNL     1     -45.274  39.976  26.531  1.00  0.00     0.012 A 
ATOM     50  C   UNL     1     -43.837  40.205  28.235  1.00  0.00     0.150 A 
ATOM     51  C   UNL     1     -44.510  41.089  26.265  1.00  0.00    -0.031 A 
ATOM     52  H   UNL     1     -46.055  39.539  25.925  1.00  0.00     0.082 H 
ATOM     53  C   UNL     1     -43.603  41.245  27.338  1.00  0.00     0.061 A 
ATOM     54  N   UNL     1     -43.170  40.035  29.395  1.00  0.00    -0.218 NA
ATOM     55  H   UNL     1     -44.592  41.716  25.388  1.00  0.00     0.065 H 
ATOM     56  C   UNL     1     -42.590  42.161  27.663  1.00  0.00     0.136 A 
ATOM     57  C   UNL     1     -42.227  40.965  29.597  1.00  0.00     0.120 A 
ATOM     58  N   UNL     1     -41.908  42.004  28.808  1.00  0.00    -0.219 NA
ATOM     59  H   UNL     1     -41.652  40.869  30.513  1.00  0.00     0.106 H 
BRANCH  56  60
ATOM     60  N   UNL     1     -42.256  43.249  26.868  1.00  0.00    -0.383 N 
ATOM     61  H   UNL     1     -41.302  43.257  26.536  1.00  0.00     0.158 HD
ATOM     62  H   UNL     1     -42.976  43.412  26.173  1.00  0.00     0.158 HD
ENDBRANCH  56  60
ENDBRANCH  44  48
ENDBRANCH   1  39
TORSDOF 8
ENDMDL
MODEL 3
REMARK VINA RESULT:      -9.6      1.600      2.035
REMARK SMILES CCc1cc(N2CCCC2)c2ccc(OCc3cncc(-n4ccc5c(N)ncnc54)c3)cc2n1
REMARK SMILES IDX 16 1 15 4 14 5 3 6 4 7 35 8 5 9 34 11 11 12 33 13 12 14
REMARK SMILES IDX 13 16 2 19 1 22 6 26 7 27 10 28 8 29 9 32 17 39 18 40 32 41
REMARK SMILES IDX 19 42 21 44 20 46 22 48 23 49 31 50 24 51 25 53 30 54 26 56
REMARK SMILES IDX 29 57 28 58 27 60
REMARK H PARENT 16 2 16 3 4 10 33 15 12 17 13 18 2 20 2 21 1 23 1 24 1 25 7 30
REMARK H PARENT 7 31 10 33 10 34 8 35 8 36 9 37 9 38 18 43 32 45 20 47 23 52
REMARK H PARENT 24 55 29 59 27 61 27 62
REMARK Flexibility Score: inf
ROOT
ATOM      1  C   UNL     1     -48.344  35.332  27.229  1.00  0.00     0.115 C 
ATOM      2  H   UNL     1     -48.580  36.191  26.589  1.00  0.00     0.076 H 
ATOM      3  H   UNL     1     -49.286  35.057  27.720  1.00  0.00     0.076 H 
ENDROOT
BRANCH   1   4
ATOM      4  O   UNL     1     -47.385  35.792  28.184  1.00  0.00    -0.489 OA
BRANCH   4   5
ATOM      5  C   UNL     1     -46.743  36.977  27.955  1.00  0.00     0.122 A 
ATOM      6  C   UNL     1     -43.464  40.310  28.799  1.00  0.00     0.043 A 
ATOM      7  C   UNL     1     -43.887  41.106  27.743  1.00  0.00    -0.016 A 
ATOM      8  N   UNL     1     -44.043  39.127  29.098  1.00  0.00    -0.253 NA
ATOM      9  C   UNL     1     -44.966  40.691  26.956  1.00  0.00     0.048 A 
ATOM     10  H   UNL     1     -43.361  42.027  27.524  1.00  0.00     0.066 H 
ATOM     11  C   UNL     1     -45.076  38.708  28.350  1.00  0.00     0.076 A 
ATOM     12  C   UNL     1     -45.583  39.452  27.264  1.00  0.00     0.024 A 
ATOM     13  C   UNL     1     -45.660  37.487  28.671  1.00  0.00     0.007 A 
ATOM     14  C   UNL     1     -46.680  38.934  26.545  1.00  0.00    -0.047 A 
ATOM     15  H   UNL     1     -45.223  36.945  29.503  1.00  0.00     0.069 H 
ATOM     16  C   UNL     1     -47.250  37.710  26.887  1.00  0.00    -0.019 A 
ATOM     17  H   UNL     1     -47.099  39.497  25.714  1.00  0.00     0.063 H 
ATOM     18  H   UNL     1     -48.094  37.330  26.317  1.00  0.00     0.066 H 
BRANCH   6  19
ATOM     19  C   UNL     1     -42.288  40.724  29.644  1.00  0.00    -0.013 C 
ATOM     20  H   UNL     1     -42.628  41.346  30.480  1.00  0.00     0.033 H 
ATOM     21  H   UNL     1     -41.830  39.831  30.086  1.00  0.00     0.033 H 
BRANCH  19  22
ATOM     22  C   UNL     1     -41.247  41.471  28.825  1.00  0.00    -0.060 C 
ATOM     23  H   UNL     1     -41.624  41.710  27.826  1.00  0.00     0.023 H 
ATOM     24  H   UNL     1     -40.960  42.411  29.310  1.00  0.00     0.023 H 
ATOM     25  H   UNL     1     -40.344  40.861  28.711  1.00  0.00     0.023 H 
ENDBRANCH  19  22
ENDBRANCH   6  19
BRANCH   9  26
ATOM     26  N   UNL     1     -45.406  41.443  25.848  1.00  0.00    -0.371 N 
ATOM     27  C   UNL     1     -44.281  41.995  25.065  1.00  0.00     0.018 C 
ATOM     28  C   UNL     1     -46.410  42.497  26.069  1.00  0.00     0.018 C 
ATOM     29  C   UNL     1     -44.839  43.283  24.471  1.00  0.00    -0.034 C 
ATOM     30  H   UNL     1     -43.417  42.231  25.700  1.00  0.00     0.049 H 
ATOM     31  H   UNL     1     -43.963  41.299  24.282  1.00  0.00     0.049 H 
ATOM     32  C   UNL     1     -45.752  43.782  25.576  1.00  0.00    -0.034 C 
ATOM     33  H   UNL     1     -47.282  42.266  25.446  1.00  0.00     0.049 H 
ATOM     34  H   UNL     1     -46.767  42.590  27.100  1.00  0.00     0.049 H 
ATOM     35  H   UNL     1     -44.054  43.999  24.211  1.00  0.00     0.029 H 
ATOM     36  H   UNL     1     -45.422  43.065  23.568  1.00  0.00     0.029 H 
ATOM     37  H   UNL     1     -45.158  44.236  26.379  1.00  0.00     0.029 H 
ATOM     38  H   UNL     1     -46.480  44.518  25.226  1.00  0.00     0.029 H 
ENDBRANCH   9  26
ENDBRANCH   4   5
ENDBRANCH   1   4
BRANCH   1  39
ATOM     39  C   UNL     1     -47.820  34.239  26.333  1.00  0.00     0.010 A 
ATOM     40  C   UNL     1     -46.512  34.285  25.870  1.00  0.00     0.034 A 
ATOM     41  C   UNL     1     -48.595  33.123  25.980  1.00  0.00    -0.028 A 
ATOM     42  N   UNL     1     -45.959  33.335  25.087  1.00  0.00    -0.262 NA
ATOM     43  H   UNL     1     -45.849  35.109  26.118  1.00  0.00     0.084 H 
ATOM     44  C   UNL     1     -48.064  32.118  25.165  1.00  0.00     0.066 A 
ATOM     45  H   UNL     1     -49.618  33.089  26.340  1.00  0.00     0.065 H 
ATOM     46  C   UNL     1     -46.745  32.283  24.751  1.00  0.00     0.051 A 
ATOM     47  H   UNL     1     -46.223  31.562  24.131  1.00  0.00     0.086 H 
BRANCH  44  48
ATOM     48  N   UNL     1     -48.823  30.972  24.764  1.00  0.00    -0.300 N 
ATOM     49  C   UNL     1     -48.851  29.757  25.439  1.00  0.00     0.012 A 
ATOM     50  C   UNL     1     -49.662  30.839  23.652  1.00  0.00     0.150 A 
ATOM     51  C   UNL     1     -49.670  28.875  24.773  1.00  0.00    -0.031 A 
ATOM     52  H   UNL     1     -48.266  29.586  26.332  1.00  0.00     0.082 H 
ATOM     53  C   UNL     1     -50.191  29.551  23.646  1.00  0.00     0.061 A 
ATOM     54  N   UNL     1     -49.949  31.785  22.735  1.00  0.00    -0.218 NA
ATOM     55  H   UNL     1     -49.863  27.852  25.064  1.00  0.00     0.065 H 
ATOM     56  C   UNL     1     -51.064  29.217  22.600  1.00  0.00     0.136 A 
ATOM     57  C   UNL     1     -50.788  31.353  21.784  1.00  0.00     0.120 A 
ATOM     58  N   UNL     1     -51.356  30.141  21.670  1.00  0.00    -0.219 NA
ATOM     59  H   UNL     1     -51.045  32.073  21.012  1.00  0.00     0.106 H 
BRANCH  56  60
ATOM     60  N   UNL     1     -51.671  27.976  22.473  1.00  0.00    -0.383 N 
ATOM     61  H   UNL     1     -51.822  27.670  21.522  1.00  0.00     0.158 HD
ATOM     62  H   UNL     1     -51.237  27.305  23.097  1.00  0.00     0.158 HD
ENDBRANCH  56  60
ENDBRANCH  44  48
ENDBRANCH   1  39
TORSDOF 8
ENDMDL
MODEL 4
REMARK VINA RESULT:      -9.3      1.761     10.836
REMARK SMILES CCc1cc(N2CCCC2)c2ccc(OCc3cncc(-n4ccc5c(N)ncnc54)c3)cc2n1
REMARK SMILES IDX 16 1 15 4 14 5 3 6 4 7 35 8 5 9 34 11 11 12 33 13 12 14
REMARK SMILES IDX 13 16 2 19 1 22 6 26 7 27 10 28 8 29 9 32 17 39 18 40 32 41
REMARK SMILES IDX 19 42 21 44 20 46 22 48 23 49 31 50 24 51 25 53 30 54 26 56
REMARK SMILES IDX 29 57 28 58 27 60
REMARK H PARENT 16 2 16 3 4 10 33 15 12 17 13 18 2 20 2 21 1 23 1 24 1 25 7 30
REMARK H PARENT 7 31 10 33 10 34 8 35 8 36 9 37 9 38 18 43 32 45 20 47 23 52
REMARK H PARENT 24 55 29 59 27 61 27 62
REMARK Flexibility Score: inf
ROOT
ATOM      1  C   UNL     1     -47.254  35.876  28.047  1.00  0.00     0.115 C 
ATOM      2  H   UNL     1     -46.887  35.632  29.051  1.00  0.00     0.076 H 
ATOM      3  H   UNL     1     -48.266  35.458  27.987  1.00  0.00     0.076 H 
ENDROOT
BRANCH   1   4
ATOM      4  O   UNL     1     -46.376  35.222  27.127  1.00  0.00    -0.489 OA
BRANCH   4   5
ATOM      5  C   UNL     1     -46.877  34.235  26.326  1.00  0.00     0.122 A 
ATOM      6  C   UNL     1     -46.642  30.986  22.867  1.00  0.00     0.043 A 
ATOM      7  C   UNL     1     -47.954  30.575  23.056  1.00  0.00    -0.016 A 
ATOM      8  N   UNL     1     -46.068  31.957  23.610  1.00  0.00    -0.253 NA
ATOM      9  C   UNL     1     -48.735  31.190  24.039  1.00  0.00     0.048 A 
ATOM     10  H   UNL     1     -48.352  29.764  22.457  1.00  0.00     0.066 H 
ATOM     11  C   UNL     1     -46.799  32.555  24.564  1.00  0.00     0.076 A 
ATOM     12  C   UNL     1     -48.142  32.213  24.823  1.00  0.00     0.024 A 
ATOM     13  C   UNL     1     -46.192  33.552  25.321  1.00  0.00     0.007 A 
ATOM     14  C   UNL     1     -48.833  32.908  25.838  1.00  0.00    -0.047 A 
ATOM     15  H   UNL     1     -45.153  33.766  25.095  1.00  0.00     0.069 H 
ATOM     16  C   UNL     1     -48.205  33.904  26.581  1.00  0.00    -0.019 A 
ATOM     17  H   UNL     1     -49.874  32.672  26.045  1.00  0.00     0.063 H 
ATOM     18  H   UNL     1     -48.755  34.425  27.360  1.00  0.00     0.066 H 
BRANCH   6  19
ATOM     19  C   UNL     1     -45.774  30.320  21.832  1.00  0.00    -0.013 C 
ATOM     20  H   UNL     1     -46.375  30.054  20.954  1.00  0.00     0.033 H 
ATOM     21  H   UNL     1     -45.016  31.033  21.485  1.00  0.00     0.033 H 
BRANCH  19  22
ATOM     22  C   UNL     1     -45.086  29.084  22.390  1.00  0.00    -0.060 C 
ATOM     23  H   UNL     1     -44.098  29.328  22.794  1.00  0.00     0.023 H 
ATOM     24  H   UNL     1     -45.676  28.631  23.195  1.00  0.00     0.023 H 
ATOM     25  H   UNL     1     -44.956  28.334  21.603  1.00  0.00     0.023 H 
ENDBRANCH  19  22
ENDBRANCH   6  19
BRANCH   9  26
ATOM     26  N   UNL     1     -50.058  30.780  24.297  1.00  0.00    -0.371 N 
ATOM     27  C   UNL     1     -50.237  29.324  24.117  1.00  0.00     0.018 C 
ATOM     28  C   UNL     1     -51.158  31.494  23.626  1.00  0.00     0.018 C 
ATOM     29  C   UNL     1     -51.692  29.179  23.684  1.00  0.00    -0.034 C 
ATOM     30  H   UNL     1     -49.582  28.925  23.332  1.00  0.00     0.049 H 
ATOM     31  H   UNL     1     -50.042  28.782  25.048  1.00  0.00     0.049 H 
ATOM     32  C   UNL     1     -51.903  30.421  22.838  1.00  0.00    -0.034 C 
ATOM     33  H   UNL     1     -51.815  31.904  24.402  1.00  0.00     0.049 H 
ATOM     34  H   UNL     1     -50.849  32.329  22.990  1.00  0.00     0.049 H 
ATOM     35  H   UNL     1     -51.874  28.252  23.134  1.00  0.00     0.029 H 
ATOM     36  H   UNL     1     -52.353  29.200  24.558  1.00  0.00     0.029 H 
ATOM     37  H   UNL     1     -51.443  30.288  21.850  1.00  0.00     0.029 H 
ATOM     38  H   UNL     1     -52.960  30.663  22.695  1.00  0.00     0.029 H 
ENDBRANCH   9  26
ENDBRANCH   4   5
ENDBRANCH   1   4
BRANCH   1  39
ATOM     39  C   UNL     1     -47.241  37.378  27.920  1.00  0.00     0.010 A 
ATOM     40  C   UNL     1     -48.430  38.092  27.972  1.00  0.00     0.034 A 
ATOM     41  C   UNL     1     -46.049  38.110  27.801  1.00  0.00    -0.028 A 
ATOM     42  N   UNL     1     -48.504  39.437  27.892  1.00  0.00    -0.262 NA
ATOM     43  H   UNL     1     -49.390  37.593  28.080  1.00  0.00     0.084 H 
ATOM     44  C   UNL     1     -46.078  39.505  27.709  1.00  0.00     0.066 A 
ATOM     45  H   UNL     1     -45.120  37.552  27.758  1.00  0.00     0.065 H 
ATOM     46  C   UNL     1     -47.333  40.107  27.758  1.00  0.00     0.051 A 
ATOM     47  H   UNL     1     -47.478  41.181  27.712  1.00  0.00     0.086 H 
BRANCH  44  48
ATOM     48  N   UNL     1     -44.890  40.291  27.567  1.00  0.00    -0.300 N 
ATOM     49  C   UNL     1     -43.767  40.193  28.381  1.00  0.00     0.012 A 
ATOM     50  C   UNL     1     -44.620  41.285  26.620  1.00  0.00     0.150 A 
ATOM     51  C   UNL     1     -42.818  41.102  27.974  1.00  0.00    -0.031 A 
ATOM     52  H   UNL     1     -43.723  39.505  29.213  1.00  0.00     0.082 H 
ATOM     53  C   UNL     1     -43.346  41.793  26.859  1.00  0.00     0.061 A 
ATOM     54  N   UNL     1     -45.427  41.691  25.619  1.00  0.00    -0.218 NA
ATOM     55  H   UNL     1     -41.852  41.256  28.436  1.00  0.00     0.065 H 
ATOM     56  C   UNL     1     -42.887  42.810  26.008  1.00  0.00     0.136 A 
ATOM     57  C   UNL     1     -44.887  42.666  24.876  1.00  0.00     0.120 A 
ATOM     58  N   UNL     1     -43.678  43.236  25.010  1.00  0.00    -0.219 NA
ATOM     59  H   UNL     1     -45.500  43.039  24.061  1.00  0.00     0.106 H 
BRANCH  56  60
ATOM     60  N   UNL     1     -41.636  43.400  26.122  1.00  0.00    -0.383 N 
ATOM     61  H   UNL     1     -40.936  42.832  26.577  1.00  0.00     0.158 HD
ATOM     62  H   UNL     1     -41.366  43.828  25.244  1.00  0.00     0.158 HD
ENDBRANCH  56  60
ENDBRANCH  44  48
ENDBRANCH   1  39
TORSDOF 8
ENDMDL
MODEL 5
REMARK VINA RESULT:      -9.2      3.184      5.039
REMARK SMILES CCc1cc(N2CCCC2)c2ccc(OCc3cncc(-n4ccc5c(N)ncnc54)c3)cc2n1
REMARK SMILES IDX 16 1 15 4 14 5 3 6 4 7 35 8 5 9 34 11 11 12 33 13 12 14
REMARK SMILES IDX 13 16 2 19 1 22 6 26 7 27 10 28 8 29 9 32 17 39 18 40 32 41
REMARK SMILES IDX 19 42 21 44 20 46 22 48 23 49 31 50 24 51 25 53 30 54 26 56
REMARK SMILES IDX 29 57 28 58 27 60
REMARK H PARENT 16 2 16 3 4 10 33 15 12 17 13 18 2 20 2 21 1 23 1 24 1 25 7 30
REMARK H PARENT 7 31 10 33 10 34 8 35 8 36 9 37 9 38 18 43 32 45 20 47 23 52
REMARK H PARENT 24 55 29 59 27 61 27 62
REMARK Flexibility Score: inf
ROOT
ATOM      1  C   UNL     1     -46.599  32.843  24.628  1.00  0.00     0.115 C 
ATOM      2  H   UNL     1     -45.689  33.202  24.132  1.00  0.00     0.076 H 
ATOM      3  H   UNL     1     -47.408  33.500  24.284  1.00  0.00     0.076 H 
ENDROOT
BRANCH   1   4
ATOM      4  O   UNL     1     -46.379  32.994  26.033  1.00  0.00    -0.489 OA
BRANCH   4   5
ATOM      5  C   UNL     1     -46.479  34.240  26.585  1.00  0.00     0.122 A 
ATOM      6  C   UNL     1     -45.143  37.772  29.469  1.00  0.00     0.043 A 
ATOM      7  C   UNL     1     -46.156  38.615  29.035  1.00  0.00    -0.016 A 
ATOM      8  N   UNL     1     -44.974  36.523  28.981  1.00  0.00    -0.253 NA
ATOM      9  C   UNL     1     -47.058  38.168  28.065  1.00  0.00     0.048 A 
ATOM     10  H   UNL     1     -46.222  39.621  29.433  1.00  0.00     0.066 H 
ATOM     11  C   UNL     1     -45.826  36.077  28.044  1.00  0.00     0.076 A 
ATOM     12  C   UNL     1     -46.891  36.858  27.548  1.00  0.00     0.024 A 
ATOM     13  C   UNL     1     -45.637  34.790  27.551  1.00  0.00     0.007 A 
ATOM     14  C   UNL     1     -47.742  36.296  26.573  1.00  0.00    -0.047 A 
ATOM     15  H   UNL     1     -44.794  34.238  27.952  1.00  0.00     0.069 H 
ATOM     16  C   UNL     1     -47.535  35.004  26.096  1.00  0.00    -0.019 A 
ATOM     17  H   UNL     1     -48.580  36.873  26.187  1.00  0.00     0.063 H 
ATOM     18  H   UNL     1     -48.202  34.593  25.343  1.00  0.00     0.066 H 
BRANCH   6  19
ATOM     19  C   UNL     1     -44.144  38.242  30.494  1.00  0.00    -0.013 C 
ATOM     20  H   UNL     1     -44.666  38.599  31.389  1.00  0.00     0.033 H 
ATOM     21  H   UNL     1     -43.527  37.392  30.811  1.00  0.00     0.033 H 
BRANCH  19  22
ATOM     22  C   UNL     1     -43.247  39.336  29.938  1.00  0.00    -0.060 C 
ATOM     23  H   UNL     1     -43.652  39.748  29.007  1.00  0.00     0.023 H 
ATOM     24  H   UNL     1     -43.139  40.162  30.651  1.00  0.00     0.023 H 
ATOM     25  H   UNL     1     -42.248  38.939  29.728  1.00  0.00     0.023 H 
ENDBRANCH  19  22
ENDBRANCH   6  19
BRANCH   9  26
ATOM     26  N   UNL     1     -48.078  39.001  27.562  1.00  0.00    -0.371 N 
ATOM     27  C   UNL     1     -47.538  40.194  26.878  1.00  0.00     0.018 C 
ATOM     28  C   UNL     1     -49.164  39.407  28.469  1.00  0.00     0.018 C 
ATOM     29  C   UNL     1     -48.608  41.259  27.088  1.00  0.00    -0.034 C 
ATOM     30  H   UNL     1     -46.594  40.532  27.328  1.00  0.00     0.049 H 
ATOM     31  H   UNL     1     -47.370  40.001  25.814  1.00  0.00     0.049 H 
ATOM     32  C   UNL     1     -49.122  40.933  28.478  1.00  0.00    -0.034 C 
ATOM     33  H   UNL     1     -50.111  39.068  28.033  1.00  0.00     0.049 H 
ATOM     34  H   UNL     1     -49.106  38.990  29.479  1.00  0.00     0.049 H 
ATOM     35  H   UNL     1     -48.210  42.274  27.008  1.00  0.00     0.029 H 
ATOM     36  H   UNL     1     -49.411  41.142  26.351  1.00  0.00     0.029 H 
ATOM     37  H   UNL     1     -48.412  41.287  29.236  1.00  0.00     0.029 H 
ATOM     38  H   UNL     1     -50.099  41.378  28.686  1.00  0.00     0.029 H 
ENDBRANCH   9  26
ENDBRANCH   4   5
ENDBRANCH   1   4
BRANCH   1  39
ATOM     39  C   UNL     1     -46.802  31.410  24.206  1.00  0.00     0.010 A 
ATOM     40  C   UNL     1     -46.182  30.924  23.064  1.00  0.00     0.034 A 
ATOM     41  C   UNL     1     -47.567  30.507  24.962  1.00  0.00    -0.028 A 
ATOM     42  N   UNL     1     -46.290  29.651  22.632  1.00  0.00    -0.262 NA
ATOM     43  H   UNL     1     -45.560  31.561  22.439  1.00  0.00     0.084 H 
ATOM     44  C   UNL     1     -47.713  29.179  24.549  1.00  0.00     0.066 A 
ATOM     45  H   UNL     1     -48.054  30.887  25.854  1.00  0.00     0.065 H 
ATOM     46  C   UNL     1     -47.053  28.814  23.378  1.00  0.00     0.051 A 
ATOM     47  H   UNL     1     -47.081  27.810  22.970  1.00  0.00     0.086 H 
BRANCH  44  48
ATOM     48  N   UNL     1     -48.498  28.229  25.278  1.00  0.00    -0.300 N 
ATOM     49  C   UNL     1     -48.039  27.467  26.346  1.00  0.00     0.012 A 
ATOM     50  C   UNL     1     -49.838  27.881  25.076  1.00  0.00     0.150 A 
ATOM     51  C   UNL     1     -49.048  26.651  26.801  1.00  0.00    -0.031 A 
ATOM     52  H   UNL     1     -47.018  27.531  26.697  1.00  0.00     0.082 H 
ATOM     53  C   UNL     1     -50.190  26.909  26.008  1.00  0.00     0.061 A 
ATOM     54  N   UNL     1     -50.679  28.395  24.156  1.00  0.00    -0.218 NA
ATOM     55  H   UNL     1     -48.968  25.940  27.613  1.00  0.00     0.065 H 
ATOM     56  C   UNL     1     -51.506  26.423  25.968  1.00  0.00     0.136 A 
ATOM     57  C   UNL     1     -51.904  27.856  24.209  1.00  0.00     0.120 A 
ATOM     58  N   UNL     1     -52.358  26.915  25.054  1.00  0.00    -0.219 NA
ATOM     59  H   UNL     1     -52.620  28.227  23.482  1.00  0.00     0.106 H 
BRANCH  56  60
ATOM     60  N   UNL     1     -51.997  25.463  26.842  1.00  0.00    -0.383 N 
ATOM     61  H   UNL     1     -52.485  24.696  26.402  1.00  0.00     0.158 HD
ATOM     62  H   UNL     1     -51.291  25.214  27.525  1.00  0.00     0.158 HD
ENDBRANCH  56  60
ENDBRANCH  44  48
ENDBRANCH   1  39
TORSDOF 8
ENDMDL
MODEL 6
REMARK VINA RESULT:      -9.1      2.599     11.676
REMARK SMILES CCc1cc(N2CCCC2)c2ccc(OCc3cncc(-n4ccc5c(N)ncnc54)c3)cc2n1
REMARK SMILES IDX 16 1 15 4 14 5 3 6 4 7 35 8 5 9 34 11 11 12 33 13 12 14
REMARK SMILES IDX 13 16 2 19 1 22 6 26 7 27 10 28 8 29 9 32 17 39 18 40 32 41
REMARK SMILES IDX 19 42 21 44 20 46 22 48 23 49 31 50 24 51 25 53 30 54 26 56
REMARK SMILES IDX 29 57 28 58 27 60
REMARK H PARENT 16 2 16 3 4 10 33 15 12 17 13 18 2 20 2 21 1 23 1 24 1 25 7 30
REMARK H PARENT 7 31 10 33 10 34 8 35 8 36 9 37 9 38 18 43 32 45 20 47 23 52
REMARK H PARENT 24 55 29 59 27 61 27 62
REMARK Flexibility Score: inf
ROOT
ATOM      1  C   UNL     1     -47.384  33.936  26.466  1.00  0.00     0.115 C 
ATOM      2  H   UNL     1     -47.357  34.062  25.377  1.00  0.00     0.076 H 
ATOM      3  H   UNL     1     -46.437  33.453  26.736  1.00  0.00     0.076 H 
ENDROOT
BRANCH   1   4
ATOM      4  O   UNL     1     -48.493  33.077  26.745  1.00  0.00    -0.489 OA
BRANCH   4   5
ATOM      5  C   UNL     1     -48.694  31.982  25.953  1.00  0.00     0.122 A 
ATOM      6  C   UNL     1     -48.672  27.330  24.983  1.00  0.00     0.043 A 
ATOM      7  C   UNL     1     -49.182  27.515  23.705  1.00  0.00    -0.016 A 
ATOM      8  N   UNL     1     -48.440  28.357  25.830  1.00  0.00    -0.253 NA
ATOM      9  C   UNL     1     -49.456  28.808  23.251  1.00  0.00     0.048 A 
ATOM     10  H   UNL     1     -49.386  26.652  23.081  1.00  0.00     0.066 H 
ATOM     11  C   UNL     1     -48.703  29.606  25.416  1.00  0.00     0.076 A 
ATOM     12  C   UNL     1     -49.213  29.893  24.132  1.00  0.00     0.024 A 
ATOM     13  C   UNL     1     -48.459  30.651  26.301  1.00  0.00     0.007 A 
ATOM     14  C   UNL     1     -49.446  31.240  23.783  1.00  0.00    -0.047 A 
ATOM     15  H   UNL     1     -48.085  30.378  27.281  1.00  0.00     0.069 H 
ATOM     16  C   UNL     1     -49.191  32.270  24.686  1.00  0.00    -0.019 A 
ATOM     17  H   UNL     1     -49.823  31.486  22.794  1.00  0.00     0.063 H 
ATOM     18  H   UNL     1     -49.380  33.300  24.396  1.00  0.00     0.066 H 
BRANCH   6  19
ATOM     19  C   UNL     1     -48.394  25.944  25.502  1.00  0.00    -0.013 C 
ATOM     20  H   UNL     1     -49.095  25.698  26.308  1.00  0.00     0.033 H 
ATOM     21  H   UNL     1     -48.572  25.217  24.701  1.00  0.00     0.033 H 
BRANCH  19  22
ATOM     22  C   UNL     1     -46.962  25.809  25.995  1.00  0.00    -0.060 C 
ATOM     23  H   UNL     1     -46.641  26.707  26.535  1.00  0.00     0.023 H 
ATOM     24  H   UNL     1     -46.854  24.954  26.672  1.00  0.00     0.023 H 
ATOM     25  H   UNL     1     -46.281  25.660  25.150  1.00  0.00     0.023 H 
ENDBRANCH  19  22
ENDBRANCH   6  19
BRANCH   9  26
ATOM     26  N   UNL     1     -50.013  29.044  21.978  1.00  0.00    -0.371 N 
ATOM     27  C   UNL     1     -51.394  28.531  21.869  1.00  0.00     0.018 C 
ATOM     28  C   UNL     1     -49.245  28.636  20.790  1.00  0.00     0.018 C 
ATOM     29  C   UNL     1     -51.541  28.169  20.396  1.00  0.00    -0.034 C 
ATOM     30  H   UNL     1     -51.548  27.632  22.482  1.00  0.00     0.049 H 
ATOM     31  H   UNL     1     -52.125  29.289  22.168  1.00  0.00     0.049 H 
ATOM     32  C   UNL     1     -50.154  27.661  20.046  1.00  0.00    -0.034 C 
ATOM     33  H   UNL     1     -49.080  29.528  20.175  1.00  0.00     0.049 H 
ATOM     34  H   UNL     1     -48.263  28.201  20.999  1.00  0.00     0.049 H 
ATOM     35  H   UNL     1     -52.324  27.425  20.223  1.00  0.00     0.029 H 
ATOM     36  H   UNL     1     -51.776  29.063  19.805  1.00  0.00     0.029 H 
ATOM     37  H   UNL     1     -50.016  26.644  20.434  1.00  0.00     0.029 H 
ATOM     38  H   UNL     1     -49.964  27.649  18.970  1.00  0.00     0.029 H 
ENDBRANCH   9  26
ENDBRANCH   4   5
ENDBRANCH   1   4
BRANCH   1  39
ATOM     39  C   UNL     1     -47.524  35.309  27.071  1.00  0.00     0.010 A 
ATOM     40  C   UNL     1     -48.777  35.895  27.188  1.00  0.00     0.034 A 
ATOM     41  C   UNL     1     -46.426  36.019  27.582  1.00  0.00    -0.028 A 
ATOM     42  N   UNL     1     -48.992  37.107  27.740  1.00  0.00    -0.262 NA
ATOM     43  H   UNL     1     -49.674  35.396  26.830  1.00  0.00     0.084 H 
ATOM     44  C   UNL     1     -46.601  37.281  28.157  1.00  0.00     0.066 A 
ATOM     45  H   UNL     1     -45.446  35.561  27.489  1.00  0.00     0.065 H 
ATOM     46  C   UNL     1     -47.904  37.770  28.204  1.00  0.00     0.051 A 
ATOM     47  H   UNL     1     -48.163  38.729  28.640  1.00  0.00     0.086 H 
BRANCH  44  48
ATOM     48  N   UNL     1     -45.508  38.049  28.674  1.00  0.00    -0.300 N 
ATOM     49  C   UNL     1     -44.849  37.793  29.871  1.00  0.00     0.012 A 
ATOM     50  C   UNL     1     -44.899  39.173  28.106  1.00  0.00     0.150 A 
ATOM     51  C   UNL     1     -43.862  38.731  30.066  1.00  0.00    -0.031 A 
ATOM     52  H   UNL     1     -45.141  36.981  30.521  1.00  0.00     0.082 H 
ATOM     53  C   UNL     1     -43.882  39.604  28.954  1.00  0.00     0.061 A 
ATOM     54  N   UNL     1     -45.206  39.754  26.929  1.00  0.00    -0.218 NA
ATOM     55  H   UNL     1     -43.203  38.785  30.922  1.00  0.00     0.065 H 
ATOM     56  C   UNL     1     -43.145  40.731  28.558  1.00  0.00     0.136 A 
ATOM     57  C   UNL     1     -44.442  40.820  26.657  1.00  0.00     0.120 A 
ATOM     58  N   UNL     1     -43.441  41.331  27.394  1.00  0.00    -0.219 NA
ATOM     59  H   UNL     1     -44.654  41.334  25.724  1.00  0.00     0.106 H 
BRANCH  56  60
ATOM     60  N   UNL     1     -42.099  41.263  29.299  1.00  0.00    -0.383 N 
ATOM     61  H   UNL     1     -41.931  40.810  30.185  1.00  0.00     0.158 HD
ATOM     62  H   UNL     1     -41.288  41.411  28.708  1.00  0.00     0.158 HD
ENDBRANCH  56  60
ENDBRANCH  44  48
ENDBRANCH   1  39
TORSDOF 8
ENDMDL
MODEL 7
REMARK VINA RESULT:      -8.9      2.360     11.688
REMARK SMILES CCc1cc(N2CCCC2)c2ccc(OCc3cncc(-n4ccc5c(N)ncnc54)c3)cc2n1
REMARK SMILES IDX 16 1 15 4 14 5 3 6 4 7 35 8 5 9 34 11 11 12 33 13 12 14
REMARK SMILES IDX 13 16 2 19 1 22 6 26 7 27 10 28 8 29 9 32 17 39 18 40 32 41
REMARK SMILES IDX 19 42 21 44 20 46 22 48 23 49 31 50 24 51 25 53 30 54 26 56
REMARK SMILES IDX 29 57 28 58 27 60
REMARK H PARENT 16 2 16 3 4 10 33 15 12 17 13 18 2 20 2 21 1 23 1 24 1 25 7 30
REMARK H PARENT 7 31 10 33 10 34 8 35 8 36 9 37 9 38 18 43 32 45 20 47 23 52
REMARK H PARENT 24 55 29 59 27 61 27 62
REMARK Flexibility Score: inf
ROOT
ATOM      1  C   UNL     1     -46.947  34.201  25.984  1.00  0.00     0.115 C 
ATOM      2  H   UNL     1     -47.399  34.366  24.998  1.00  0.00     0.076 H 
ATOM      3  H   UNL     1     -45.884  34.006  25.798  1.00  0.00     0.076 H 
ENDROOT
BRANCH   1   4
ATOM      4  O   UNL     1     -47.590  33.049  26.535  1.00  0.00    -0.489 OA
BRANCH   4   5
ATOM      5  C   UNL     1     -47.971  32.042  25.694  1.00  0.00     0.122 A 
ATOM      6  C   UNL     1     -48.857  30.107  21.446  1.00  0.00     0.043 A 
ATOM      7  C   UNL     1     -49.202  28.877  21.990  1.00  0.00    -0.016 A 
ATOM      8  N   UNL     1     -48.473  31.157  22.203  1.00  0.00    -0.253 NA
ATOM      9  C   UNL     1     -49.173  28.704  23.377  1.00  0.00     0.048 A 
ATOM     10  H   UNL     1     -49.465  28.057  21.333  1.00  0.00     0.066 H 
ATOM     11  C   UNL     1     -48.432  31.009  23.537  1.00  0.00     0.076 A 
ATOM     12  C   UNL     1     -48.774  29.802  24.181  1.00  0.00     0.024 A 
ATOM     13  C   UNL     1     -48.033  32.101  24.302  1.00  0.00     0.007 A 
ATOM     14  C   UNL     1     -48.712  29.747  25.590  1.00  0.00    -0.047 A 
ATOM     15  H   UNL     1     -47.764  33.000  23.759  1.00  0.00     0.069 H 
ATOM     16  C   UNL     1     -48.313  30.854  26.334  1.00  0.00    -0.019 A 
ATOM     17  H   UNL     1     -48.986  28.832  26.109  1.00  0.00     0.063 H 
ATOM     18  H   UNL     1     -48.270  30.789  27.418  1.00  0.00     0.066 H 
BRANCH   6  19
ATOM     19  C   UNL     1     -48.856  30.308  19.953  1.00  0.00    -0.013 C 
ATOM     20  H   UNL     1     -48.373  29.456  19.461  1.00  0.00     0.033 H 
ATOM     21  H   UNL     1     -49.891  30.331  19.592  1.00  0.00     0.033 H 
BRANCH  19  22
ATOM     22  C   UNL     1     -48.157  31.602  19.565  1.00  0.00    -0.060 C 
ATOM     23  H   UNL     1     -47.250  31.405  18.984  1.00  0.00     0.023 H 
ATOM     24  H   UNL     1     -48.811  32.240  18.959  1.00  0.00     0.023 H 
ATOM     25  H   UNL     1     -47.873  32.164  20.460  1.00  0.00     0.023 H 
ENDBRANCH  19  22
ENDBRANCH   6  19
BRANCH   9  26
ATOM     26  N   UNL     1     -49.473  27.463  23.974  1.00  0.00    -0.371 N 
ATOM     27  C   UNL     1     -50.790  27.471  24.644  1.00  0.00     0.018 C 
ATOM     28  C   UNL     1     -48.475  26.854  24.868  1.00  0.00     0.018 C 
ATOM     29  C   UNL     1     -50.633  26.473  25.785  1.00  0.00    -0.034 C 
ATOM     30  H   UNL     1     -51.036  28.459  25.055  1.00  0.00     0.049 H 
ATOM     31  H   UNL     1     -51.588  27.169  23.957  1.00  0.00     0.049 H 
ATOM     32  C   UNL     1     -49.190  26.686  26.205  1.00  0.00    -0.034 C 
ATOM     33  H   UNL     1     -48.217  25.869  24.461  1.00  0.00     0.049 H 
ATOM     34  H   UNL     1     -47.541  27.415  24.971  1.00  0.00     0.049 H 
ATOM     35  H   UNL     1     -51.344  26.649  26.597  1.00  0.00     0.029 H 
ATOM     36  H   UNL     1     -50.773  25.449  25.418  1.00  0.00     0.029 H 
ATOM     37  H   UNL     1     -49.102  27.604  26.800  1.00  0.00     0.029 H 
ATOM     38  H   UNL     1     -48.791  25.855  26.793  1.00  0.00     0.029 H 
ENDBRANCH   9  26
ENDBRANCH   4   5
ENDBRANCH   1   4
BRANCH   1  39
ATOM     39  C   UNL     1     -47.170  35.454  26.793  1.00  0.00     0.010 A 
ATOM     40  C   UNL     1     -48.457  35.926  27.007  1.00  0.00     0.034 A 
ATOM     41  C   UNL     1     -46.113  36.153  27.397  1.00  0.00    -0.028 A 
ATOM     42  N   UNL     1     -48.743  37.022  27.739  1.00  0.00    -0.262 NA
ATOM     43  H   UNL     1     -49.324  35.425  26.585  1.00  0.00     0.084 H 
ATOM     44  C   UNL     1     -46.362  37.298  28.159  1.00  0.00     0.066 A 
ATOM     45  H   UNL     1     -45.106  35.785  27.228  1.00  0.00     0.065 H 
ATOM     46  C   UNL     1     -47.695  37.682  28.291  1.00  0.00     0.051 A 
ATOM     47  H   UNL     1     -48.010  38.543  28.870  1.00  0.00     0.086 H 
BRANCH  44  48
ATOM     48  N   UNL     1     -45.315  38.054  28.778  1.00  0.00    -0.300 N 
ATOM     49  C   UNL     1     -44.747  37.766  30.014  1.00  0.00     0.012 A 
ATOM     50  C   UNL     1     -44.670  39.195  28.290  1.00  0.00     0.150 A 
ATOM     51  C   UNL     1     -43.781  38.700  30.310  1.00  0.00    -0.031 A 
ATOM     52  H   UNL     1     -45.083  36.934  30.618  1.00  0.00     0.082 H 
ATOM     53  C   UNL     1     -43.722  39.604  29.224  1.00  0.00     0.061 A 
ATOM     54  N   UNL     1     -44.890  39.808  27.110  1.00  0.00    -0.218 NA
ATOM     55  H   UNL     1     -43.189  38.731  31.215  1.00  0.00     0.065 H 
ATOM     56  C   UNL     1     -42.963  40.743  28.917  1.00  0.00     0.136 A 
ATOM     57  C   UNL     1     -44.112  40.883  26.926  1.00  0.00     0.120 A 
ATOM     58  N   UNL     1     -43.172  41.375  27.751  1.00  0.00    -0.219 NA
ATOM     59  H   UNL     1     -44.256  41.423  25.995  1.00  0.00     0.106 H 
BRANCH  56  60
ATOM     60  N   UNL     1     -41.978  41.257  29.749  1.00  0.00    -0.383 N 
ATOM     61  H   UNL     1     -42.237  42.094  30.250  1.00  0.00     0.158 HD
ATOM     62  H   UNL     1     -41.558  40.515  30.299  1.00  0.00     0.158 HD
ENDBRANCH  56  60
ENDBRANCH  44  48
ENDBRANCH   1  39
TORSDOF 8
ENDMDL
