MODEL 1
REMARK VINA RESULT:     -10.5      0.000      0.000
REMARK SMILES O=C(NCc1cc2[nH]c(CNCC3CCC3)cc2cn1)c1cc(=O)n2ccccc2n1
REMARK SMILES IDX 5 1 6 2 7 3 8 4 9 5 17 6 18 7 19 8 20 9 4 14 3 17 1 18 2 19
REMARK SMILES IDX 21 21 22 22 31 23 23 24 30 26 24 27 25 28 29 29 26 30 28 31
REMARK SMILES IDX 27 33 10 37 11 40 12 42 13 45 14 46 16 47 15 49
REMARK H PARENT 6 10 8 11 17 12 19 13 4 15 4 16 3 20 22 25 29 32 26 34 28 35
REMARK H PARENT 27 36 10 38 10 39 11 41 12 43 12 44 13 48 14 50 14 51 16 52
REMARK H PARENT 16 53 15 54 15 55
REMARK Flexibility Score: inf
ROOT
ATOM      1  C   UNL     1     -47.971  35.088  26.788  1.00  0.00     0.062 A 
ATOM      2  C   UNL     1     -48.818  34.014  26.515  1.00  0.00    -0.014 A 
ATOM      3  C   UNL     1     -48.268  32.989  25.749  1.00  0.00     0.049 A 
ATOM      4  N   UNL     1     -48.819  31.809  25.308  1.00  0.00    -0.357 N 
ATOM      5  C   UNL     1     -47.896  31.091  24.583  1.00  0.00     0.030 A 
ATOM      6  C   UNL     1     -46.732  31.838  24.553  1.00  0.00    -0.031 A 
ATOM      7  C   UNL     1     -46.954  33.034  25.290  1.00  0.00     0.018 A 
ATOM      8  C   UNL     1     -46.170  34.145  25.616  1.00  0.00     0.037 A 
ATOM      9  N   UNL     1     -46.681  35.155  26.364  1.00  0.00    -0.259 NA
ATOM     10  H   UNL     1     -49.836  33.979  26.887  1.00  0.00     0.067 H 
ATOM     11  H   UNL     1     -49.765  31.511  25.502  1.00  0.00     0.166 HD
ATOM     12  H   UNL     1     -45.816  31.550  24.055  1.00  0.00     0.065 H 
ATOM     13  H   UNL     1     -45.139  34.252  25.299  1.00  0.00     0.085 H 
ENDROOT
BRANCH   1  14
ATOM     14  C   UNL     1     -48.469  36.230  27.647  1.00  0.00     0.060 C 
ATOM     15  H   UNL     1     -48.676  35.882  28.665  1.00  0.00     0.056 H 
ATOM     16  H   UNL     1     -49.405  36.620  27.232  1.00  0.00     0.056 H 
BRANCH  14  17
ATOM     17  N   UNL     1     -47.527  37.325  27.674  1.00  0.00    -0.345 N 
ATOM     18  O   UNL     1     -46.598  36.820  29.713  1.00  0.00    -0.268 OA
ATOM     19  C   UNL     1     -46.607  37.480  28.679  1.00  0.00     0.270 C 
ATOM     20  H   UNL     1     -47.335  37.817  26.806  1.00  0.00     0.164 HD
BRANCH  19  21
ATOM     21  C   UNL     1     -45.581  38.541  28.366  1.00  0.00     0.136 A 
ATOM     22  C   UNL     1     -45.715  39.171  27.197  1.00  0.00     0.035 A 
ATOM     23  N   UNL     1     -44.591  38.799  29.287  1.00  0.00    -0.225 NA
ATOM     24  C   UNL     1     -44.744  40.217  26.855  1.00  0.00     0.258 A 
ATOM     25  H   UNL     1     -46.499  38.961  26.481  1.00  0.00     0.071 H 
ATOM     26  C   UNL     1     -43.735  39.726  28.981  1.00  0.00     0.140 A 
ATOM     27  O   UNL     1     -44.862  40.803  25.779  1.00  0.00    -0.269 OA
ATOM     28  N   UNL     1     -43.757  40.458  27.799  1.00  0.00    -0.268 N 
ATOM     29  C   UNL     1     -42.646  40.040  29.950  1.00  0.00    -0.019 A 
ATOM     30  C   UNL     1     -42.800  41.434  27.545  1.00  0.00     0.014 A 
ATOM     31  C   UNL     1     -41.749  40.989  29.661  1.00  0.00    -0.057 A 
ATOM     32  H   UNL     1     -42.622  39.476  30.873  1.00  0.00     0.066 H 
ATOM     33  C   UNL     1     -41.825  41.711  28.419  1.00  0.00    -0.045 A 
ATOM     34  H   UNL     1     -42.878  41.968  26.601  1.00  0.00     0.082 H 
ATOM     35  H   UNL     1     -40.949  41.232  30.353  1.00  0.00     0.062 H 
ATOM     36  H   UNL     1     -41.084  42.476  28.211  1.00  0.00     0.064 H 
ENDBRANCH  19  21
ENDBRANCH  14  17
ENDBRANCH   1  14
BRANCH   5  37
ATOM     37  C   UNL     1     -48.223  29.768  23.985  1.00  0.00     0.036 C 
ATOM     38  H   UNL     1     -47.594  29.622  23.099  1.00  0.00     0.049 H 
ATOM     39  H   UNL     1     -49.259  29.732  23.627  1.00  0.00     0.049 H 
BRANCH  37  40
ATOM     40  N   UNL     1     -47.955  28.676  24.915  1.00  0.00    -0.311 NA
ATOM     41  H   UNL     1     -48.086  29.022  25.864  1.00  0.00     0.123 HD
BRANCH  40  42
ATOM     42  C   UNL     1     -48.807  27.508  24.695  1.00  0.00    -0.002 C 
ATOM     43  H   UNL     1     -48.947  27.351  23.618  1.00  0.00     0.043 H 
ATOM     44  H   UNL     1     -49.799  27.668  25.134  1.00  0.00     0.043 H 
BRANCH  42  45
ATOM     45  C   UNL     1     -48.210  26.233  25.289  1.00  0.00    -0.029 C 
ATOM     46  C   UNL     1     -48.396  25.914  26.800  1.00  0.00    -0.049 C 
ATOM     47  C   UNL     1     -46.681  26.149  25.548  1.00  0.00    -0.049 C 
ATOM     48  H   UNL     1     -48.547  25.385  24.672  1.00  0.00     0.032 H 
ATOM     49  C   UNL     1     -47.011  25.232  26.746  1.00  0.00    -0.053 C 
ATOM     50  H   UNL     1     -48.423  26.783  27.466  1.00  0.00     0.027 H 
ATOM     51  H   UNL     1     -49.235  25.258  27.044  1.00  0.00     0.027 H 
ATOM     52  H   UNL     1     -46.203  27.090  25.843  1.00  0.00     0.027 H 
ATOM     53  H   UNL     1     -46.090  25.689  24.751  1.00  0.00     0.027 H 
ATOM     54  H   UNL     1     -46.383  25.358  27.631  1.00  0.00     0.027 H 
ATOM     55  H   UNL     1     -47.054  24.168  26.487  1.00  0.00     0.027 H 
ENDBRANCH  42  45
ENDBRANCH  40  42
ENDBRANCH  37  40
ENDBRANCH   5  37
TORSDOF 7
ENDMDL
MODEL 2
REMARK VINA RESULT:      -9.9      1.873      3.045
REMARK SMILES O=C(NCc1cc2[nH]c(CNCC3CCC3)cc2cn1)c1cc(=O)n2ccccc2n1
REMARK SMILES IDX 5 1 6 2 7 3 8 4 9 5 17 6 18 7 19 8 20 9 4 14 3 17 1 18 2 19
REMARK SMILES IDX 21 21 22 22 31 23 23 24 30 26 24 27 25 28 29 29 26 30 28 31
REMARK SMILES IDX 27 33 10 37 11 40 12 42 13 45 14 46 16 47 15 49
REMARK H PARENT 6 10 8 11 17 12 19 13 4 15 4 16 3 20 22 25 29 32 26 34 28 35
REMARK H PARENT 27 36 10 38 10 39 11 41 12 43 12 44 13 48 14 50 14 51 16 52
REMARK H PARENT 16 53 15 54 15 55
REMARK Flexibility Score: inf
ROOT
ATOM      1  C   UNL     1     -46.830  35.670  28.555  1.00  0.00     0.062 A 
ATOM      2  C   UNL     1     -45.949  34.753  27.981  1.00  0.00    -0.014 A 
ATOM      3  C   UNL     1     -46.450  34.026  26.904  1.00  0.00     0.049 A 
ATOM      4  N   UNL     1     -45.857  33.059  26.126  1.00  0.00    -0.357 N 
ATOM      5  C   UNL     1     -46.732  32.618  25.161  1.00  0.00     0.030 A 
ATOM      6  C   UNL     1     -47.916  33.312  25.336  1.00  0.00    -0.031 A 
ATOM      7  C   UNL     1     -47.746  34.207  26.429  1.00  0.00     0.018 A 
ATOM      8  C   UNL     1     -48.561  35.153  27.058  1.00  0.00     0.037 A 
ATOM      9  N   UNL     1     -48.096  35.877  28.107  1.00  0.00    -0.259 NA
ATOM     10  H   UNL     1     -44.936  34.627  28.346  1.00  0.00     0.067 H 
ATOM     11  H   UNL     1     -44.907  32.733  26.243  1.00  0.00     0.166 HD
ATOM     12  H   UNL     1     -48.808  33.191  24.737  1.00  0.00     0.065 H 
ATOM     13  H   UNL     1     -49.580  35.354  26.746  1.00  0.00     0.085 H 
ENDROOT
BRANCH   1  14
ATOM     14  C   UNL     1     -46.361  36.534  29.704  1.00  0.00     0.060 C 
ATOM     15  H   UNL     1     -45.651  35.985  30.333  1.00  0.00     0.056 H 
ATOM     16  H   UNL     1     -47.217  36.808  30.331  1.00  0.00     0.056 H 
BRANCH  14  17
ATOM     17  N   UNL     1     -45.766  37.765  29.236  1.00  0.00    -0.345 N 
ATOM     18  O   UNL     1     -44.200  37.950  30.907  1.00  0.00    -0.268 OA
ATOM     19  C   UNL     1     -44.671  38.330  29.841  1.00  0.00     0.270 C 
ATOM     20  H   UNL     1     -45.960  38.063  28.285  1.00  0.00     0.164 HD
BRANCH  19  21
ATOM     21  C   UNL     1     -44.086  39.463  29.034  1.00  0.00     0.136 A 
ATOM     22  C   UNL     1     -43.014  40.068  29.548  1.00  0.00     0.035 A 
ATOM     23  N   UNL     1     -44.674  39.795  27.834  1.00  0.00    -0.225 NA
ATOM     24  C   UNL     1     -42.406  41.171  28.793  1.00  0.00     0.258 A 
ATOM     25  H   UNL     1     -42.559  39.797  30.492  1.00  0.00     0.071 H 
ATOM     26  C   UNL     1     -44.133  40.770  27.169  1.00  0.00     0.140 A 
ATOM     27  O   UNL     1     -41.417  41.732  29.261  1.00  0.00    -0.269 OA
ATOM     28  N   UNL     1     -43.018  41.486  27.588  1.00  0.00    -0.268 N 
ATOM     29  C   UNL     1     -44.736  41.163  25.863  1.00  0.00    -0.019 A 
ATOM     30  C   UNL     1     -42.500  42.520  26.816  1.00  0.00     0.014 A 
ATOM     31  C   UNL     1     -44.202  42.165  25.155  1.00  0.00    -0.057 A 
ATOM     32  H   UNL     1     -45.605  40.611  25.528  1.00  0.00     0.066 H 
ATOM     33  C   UNL     1     -43.047  42.869  25.645  1.00  0.00    -0.045 A 
ATOM     34  H   UNL     1     -41.626  43.037  27.206  1.00  0.00     0.082 H 
ATOM     35  H   UNL     1     -44.627  42.466  24.204  1.00  0.00     0.062 H 
ATOM     36  H   UNL     1     -42.634  43.677  25.050  1.00  0.00     0.064 H 
ENDBRANCH  19  21
ENDBRANCH  14  17
ENDBRANCH   1  14
BRANCH   5  37
ATOM     37  C   UNL     1     -46.352  31.571  24.174  1.00  0.00     0.036 C 
ATOM     38  H   UNL     1     -46.349  30.599  24.682  1.00  0.00     0.049 H 
ATOM     39  H   UNL     1     -45.331  31.719  23.801  1.00  0.00     0.049 H 
BRANCH  37  40
ATOM     40  N   UNL     1     -47.304  31.500  23.070  1.00  0.00    -0.311 NA
ATOM     41  H   UNL     1     -46.899  31.977  22.266  1.00  0.00     0.123 HD
BRANCH  40  42
ATOM     42  C   UNL     1     -47.660  30.130  22.702  1.00  0.00    -0.002 C 
ATOM     43  H   UNL     1     -47.001  29.781  21.898  1.00  0.00     0.043 H 
ATOM     44  H   UNL     1     -48.689  30.089  22.324  1.00  0.00     0.043 H 
BRANCH  42  45
ATOM     45  C   UNL     1     -47.533  29.162  23.877  1.00  0.00    -0.029 C 
ATOM     46  C   UNL     1     -46.620  27.908  23.761  1.00  0.00    -0.049 C 
ATOM     47  C   UNL     1     -48.694  28.179  24.193  1.00  0.00    -0.049 C 
ATOM     48  H   UNL     1     -47.268  29.751  24.770  1.00  0.00     0.032 H 
ATOM     49  C   UNL     1     -47.620  27.190  24.694  1.00  0.00    -0.053 C 
ATOM     50  H   UNL     1     -46.561  27.459  22.764  1.00  0.00     0.027 H 
ATOM     51  H   UNL     1     -45.607  28.024  24.155  1.00  0.00     0.027 H 
ATOM     52  H   UNL     1     -49.248  27.812  23.321  1.00  0.00     0.027 H 
ATOM     53  H   UNL     1     -49.410  28.519  24.946  1.00  0.00     0.027 H 
ATOM     54  H   UNL     1     -47.803  26.136  24.474  1.00  0.00     0.027 H 
ATOM     55  H   UNL     1     -47.384  27.297  25.759  1.00  0.00     0.027 H 
ENDBRANCH  42  45
ENDBRANCH  40  42
ENDBRANCH  37  40
ENDBRANCH   5  37
TORSDOF 7
ENDMDL
MODEL 3
REMARK VINA RESULT:      -9.7      1.438      2.150
REMARK SMILES O=C(NCc1cc2[nH]c(CNCC3CCC3)cc2cn1)c1cc(=O)n2ccccc2n1
REMARK SMILES IDX 5 1 6 2 7 3 8 4 9 5 17 6 18 7 19 8 20 9 4 14 3 17 1 18 2 19
REMARK SMILES IDX 21 21 22 22 31 23 23 24 30 26 24 27 25 28 29 29 26 30 28 31
REMARK SMILES IDX 27 33 10 37 11 40 12 42 13 45 14 46 16 47 15 49
REMARK H PARENT 6 10 8 11 17 12 19 13 4 15 4 16 3 20 22 25 29 32 26 34 28 35
REMARK H PARENT 27 36 10 38 10 39 11 41 12 43 12 44 13 48 14 50 14 51 16 52
REMARK H PARENT 16 53 15 54 15 55
REMARK Flexibility Score: inf
ROOT
ATOM      1  C   UNL     1     -47.859  36.006  27.162  1.00  0.00     0.062 A 
ATOM      2  C   UNL     1     -48.786  34.987  26.942  1.00  0.00    -0.014 A 
ATOM      3  C   UNL     1     -48.287  33.835  26.340  1.00  0.00     0.049 A 
ATOM      4  N   UNL     1     -48.918  32.665  25.988  1.00  0.00    -0.357 N 
ATOM      5  C   UNL     1     -48.022  31.788  25.424  1.00  0.00     0.030 A 
ATOM      6  C   UNL     1     -46.791  32.419  25.405  1.00  0.00    -0.031 A 
ATOM      7  C   UNL     1     -46.946  33.708  25.987  1.00  0.00     0.018 A 
ATOM      8  C   UNL     1     -46.082  34.775  26.250  1.00  0.00     0.037 A 
ATOM      9  N   UNL     1     -46.542  35.908  26.838  1.00  0.00    -0.259 NA
ATOM     10  H   UNL     1     -49.826  35.087  27.232  1.00  0.00     0.067 H 
ATOM     11  H   UNL     1     -49.900  32.478  26.137  1.00  0.00     0.166 HD
ATOM     12  H   UNL     1     -45.875  31.994  25.018  1.00  0.00     0.065 H 
ATOM     13  H   UNL     1     -45.026  34.752  26.007  1.00  0.00     0.085 H 
ENDROOT
BRANCH   1  14
ATOM     14  C   UNL     1     -48.302  37.281  27.847  1.00  0.00     0.060 C 
ATOM     15  H   UNL     1     -48.527  37.090  28.902  1.00  0.00     0.056 H 
ATOM     16  H   UNL     1     -49.217  37.653  27.373  1.00  0.00     0.056 H 
BRANCH  14  17
ATOM     17  N   UNL     1     -47.307  38.322  27.728  1.00  0.00    -0.345 N 
ATOM     18  O   UNL     1     -46.361  38.018  29.799  1.00  0.00    -0.268 OA
ATOM     19  C   UNL     1     -46.359  38.549  28.694  1.00  0.00     0.270 C 
ATOM     20  H   UNL     1     -47.110  38.695  26.804  1.00  0.00     0.164 HD
BRANCH  19  21
ATOM     21  C   UNL     1     -45.290  39.511  28.239  1.00  0.00     0.136 A 
ATOM     22  C   UNL     1     -44.206  39.605  29.012  1.00  0.00     0.035 A 
ATOM     23  N   UNL     1     -45.484  40.215  27.072  1.00  0.00    -0.225 NA
ATOM     24  C   UNL     1     -43.136  40.523  28.603  1.00  0.00     0.258 A 
ATOM     25  H   UNL     1     -44.063  39.044  29.927  1.00  0.00     0.071 H 
ATOM     26  C   UNL     1     -44.535  41.026  26.714  1.00  0.00     0.140 A 
ATOM     27  O   UNL     1     -42.134  40.614  29.311  1.00  0.00    -0.269 OA
ATOM     28  N   UNL     1     -43.357  41.221  27.425  1.00  0.00    -0.268 N 
ATOM     29  C   UNL     1     -44.703  41.808  25.456  1.00  0.00    -0.019 A 
ATOM     30  C   UNL     1     -42.389  42.111  26.973  1.00  0.00     0.014 A 
ATOM     31  C   UNL     1     -43.743  42.652  25.061  1.00  0.00    -0.057 A 
ATOM     32  H   UNL     1     -45.617  41.662  24.895  1.00  0.00     0.066 H 
ATOM     33  C   UNL     1     -42.546  42.811  25.843  1.00  0.00    -0.045 A 
ATOM     34  H   UNL     1     -41.492  42.214  27.580  1.00  0.00     0.082 H 
ATOM     35  H   UNL     1     -43.846  43.230  24.150  1.00  0.00     0.062 H 
ATOM     36  H   UNL     1     -41.783  43.502  25.499  1.00  0.00     0.064 H 
ENDBRANCH  19  21
ENDBRANCH  14  17
ENDBRANCH   1  14
BRANCH   5  37
ATOM     37  C   UNL     1     -48.434  30.438  24.951  1.00  0.00     0.036 C 
ATOM     38  H   UNL     1     -47.718  30.102  24.190  1.00  0.00     0.049 H 
ATOM     39  H   UNL     1     -49.411  30.466  24.452  1.00  0.00     0.049 H 
BRANCH  37  40
ATOM     40  N   UNL     1     -48.431  29.463  26.036  1.00  0.00    -0.311 NA
ATOM     41  H   UNL     1     -49.087  29.775  26.751  1.00  0.00     0.123 HD
BRANCH  40  42
ATOM     42  C   UNL     1     -48.785  28.113  25.599  1.00  0.00    -0.002 C 
ATOM     43  H   UNL     1     -48.616  28.018  24.520  1.00  0.00     0.043 H 
ATOM     44  H   UNL     1     -49.847  27.914  25.784  1.00  0.00     0.043 H 
BRANCH  42  45
ATOM     45  C   UNL     1     -47.958  27.039  26.306  1.00  0.00    -0.029 C 
ATOM     46  C   UNL     1     -46.880  26.239  25.519  1.00  0.00    -0.049 C 
ATOM     47  C   UNL     1     -48.605  25.668  26.643  1.00  0.00    -0.049 C 
ATOM     48  H   UNL     1     -47.517  27.494  27.208  1.00  0.00     0.032 H 
ATOM     49  C   UNL     1     -47.207  25.044  26.442  1.00  0.00    -0.053 C 
ATOM     50  H   UNL     1     -47.111  26.047  24.466  1.00  0.00     0.027 H 
ATOM     51  H   UNL     1     -45.861  26.625  25.590  1.00  0.00     0.027 H 
ATOM     52  H   UNL     1     -49.347  25.310  25.921  1.00  0.00     0.027 H 
ATOM     53  H   UNL     1     -49.021  25.576  27.650  1.00  0.00     0.027 H 
ATOM     54  H   UNL     1     -47.188  24.059  25.970  1.00  0.00     0.027 H 
ATOM     55  H   UNL     1     -46.602  25.015  27.355  1.00  0.00     0.027 H 
ENDBRANCH  42  45
ENDBRANCH  40  42
ENDBRANCH  37  40
ENDBRANCH   5  37
TORSDOF 7
ENDMDL
MODEL 4
REMARK VINA RESULT:      -9.6      1.739      3.107
REMARK SMILES O=C(NCc1cc2[nH]c(CNCC3CCC3)cc2cn1)c1cc(=O)n2ccccc2n1
REMARK SMILES IDX 5 1 6 2 7 3 8 4 9 5 17 6 18 7 19 8 20 9 4 14 3 17 1 18 2 19
REMARK SMILES IDX 21 21 22 22 31 23 23 24 30 26 24 27 25 28 29 29 26 30 28 31
REMARK SMILES IDX 27 33 10 37 11 40 12 42 13 45 14 46 16 47 15 49
REMARK H PARENT 6 10 8 11 17 12 19 13 4 15 4 16 3 20 22 25 29 32 26 34 28 35
REMARK H PARENT 27 36 10 38 10 39 11 41 12 43 12 44 13 48 14 50 14 51 16 52
REMARK H PARENT 16 53 15 54 15 55
REMARK Flexibility Score: inf
ROOT
ATOM      1  C   UNL     1     -47.918  35.126  26.818  1.00  0.00     0.062 A 
ATOM      2  C   UNL     1     -48.787  34.060  26.587  1.00  0.00    -0.014 A 
ATOM      3  C   UNL     1     -48.266  33.004  25.843  1.00  0.00     0.049 A 
ATOM      4  N   UNL     1     -48.843  31.822  25.443  1.00  0.00    -0.357 N 
ATOM      5  C   UNL     1     -47.944  31.067  24.727  1.00  0.00     0.030 A 
ATOM      6  C   UNL     1     -46.767  31.792  24.660  1.00  0.00    -0.031 A 
ATOM      7  C   UNL     1     -46.958  33.012  25.366  1.00  0.00     0.018 A 
ATOM      8  C   UNL     1     -46.150  34.117  25.649  1.00  0.00     0.037 A 
ATOM      9  N   UNL     1     -46.633  35.157  26.375  1.00  0.00    -0.259 NA
ATOM     10  H   UNL     1     -49.800  34.053  26.974  1.00  0.00     0.067 H 
ATOM     11  H   UNL     1     -49.792  31.547  25.658  1.00  0.00     0.166 HD
ATOM     12  H   UNL     1     -45.863  31.474  24.158  1.00  0.00     0.065 H 
ATOM     13  H   UNL     1     -45.122  34.197  25.316  1.00  0.00     0.085 H 
ENDROOT
BRANCH   1  14
ATOM     14  C   UNL     1     -48.383  36.300  27.651  1.00  0.00     0.060 C 
ATOM     15  H   UNL     1     -48.556  35.990  28.687  1.00  0.00     0.056 H 
ATOM     16  H   UNL     1     -49.332  36.678  27.254  1.00  0.00     0.056 H 
BRANCH  14  17
ATOM     17  N   UNL     1     -47.438  37.392  27.606  1.00  0.00    -0.345 N 
ATOM     18  O   UNL     1     -46.750  37.231  29.792  1.00  0.00    -0.268 OA
ATOM     19  C   UNL     1     -46.635  37.714  28.671  1.00  0.00     0.270 C 
ATOM     20  H   UNL     1     -47.144  37.737  26.698  1.00  0.00     0.164 HD
BRANCH  19  21
ATOM     21  C   UNL     1     -45.569  38.718  28.308  1.00  0.00     0.136 A 
ATOM     22  C   UNL     1     -45.678  39.295  27.110  1.00  0.00     0.035 A 
ATOM     23  N   UNL     1     -44.569  38.982  29.217  1.00  0.00    -0.225 NA
ATOM     24  C   UNL     1     -44.666  40.284  26.718  1.00  0.00     0.258 A 
ATOM     25  H   UNL     1     -46.470  39.080  26.403  1.00  0.00     0.071 H 
ATOM     26  C   UNL     1     -43.677  39.858  28.867  1.00  0.00     0.140 A 
ATOM     27  O   UNL     1     -44.762  40.821  25.615  1.00  0.00    -0.269 OA
ATOM     28  N   UNL     1     -43.671  40.532  27.651  1.00  0.00    -0.268 N 
ATOM     29  C   UNL     1     -42.577  40.176  29.822  1.00  0.00    -0.019 A 
ATOM     30  C   UNL     1     -42.676  41.456  27.352  1.00  0.00     0.014 A 
ATOM     31  C   UNL     1     -41.643  41.074  29.489  1.00  0.00    -0.057 A 
ATOM     32  H   UNL     1     -42.575  39.657  30.772  1.00  0.00     0.066 H 
ATOM     33  C   UNL     1     -41.691  41.737  28.212  1.00  0.00    -0.045 A 
ATOM     34  H   UNL     1     -42.733  41.945  26.382  1.00  0.00     0.082 H 
ATOM     35  H   UNL     1     -40.834  41.319  30.169  1.00  0.00     0.062 H 
ATOM     36  H   UNL     1     -40.920  42.461  27.968  1.00  0.00     0.064 H 
ENDBRANCH  19  21
ENDBRANCH  14  17
ENDBRANCH   1  14
BRANCH   5  37
ATOM     37  C   UNL     1     -48.302  29.734  24.171  1.00  0.00     0.036 C 
ATOM     38  H   UNL     1     -49.169  29.349  24.722  1.00  0.00     0.049 H 
ATOM     39  H   UNL     1     -47.498  29.004  24.326  1.00  0.00     0.049 H 
BRANCH  37  40
ATOM     40  N   UNL     1     -48.663  29.818  22.760  1.00  0.00    -0.311 NA
ATOM     41  H   UNL     1     -49.180  30.684  22.611  1.00  0.00     0.123 HD
BRANCH  40  42
ATOM     42  C   UNL     1     -47.508  29.774  21.864  1.00  0.00    -0.002 C 
ATOM     43  H   UNL     1     -47.667  29.009  21.095  1.00  0.00     0.043 H 
ATOM     44  H   UNL     1     -46.602  29.499  22.418  1.00  0.00     0.043 H 
BRANCH  42  45
ATOM     45  C   UNL     1     -47.266  31.110  21.164  1.00  0.00    -0.029 C 
ATOM     46  C   UNL     1     -47.854  31.369  19.747  1.00  0.00    -0.049 C 
ATOM     47  C   UNL     1     -45.873  31.413  20.545  1.00  0.00    -0.049 C 
ATOM     48  H   UNL     1     -47.565  31.912  21.858  1.00  0.00     0.032 H 
ATOM     49  C   UNL     1     -46.613  32.247  19.477  1.00  0.00    -0.053 C 
ATOM     50  H   UNL     1     -47.913  30.491  19.094  1.00  0.00     0.027 H 
ATOM     51  H   UNL     1     -48.815  31.889  19.723  1.00  0.00     0.027 H 
ATOM     52  H   UNL     1     -45.347  30.545  20.129  1.00  0.00     0.027 H 
ATOM     53  H   UNL     1     -45.183  31.970  21.183  1.00  0.00     0.027 H 
ATOM     54  H   UNL     1     -46.205  32.196  18.465  1.00  0.00     0.027 H 
ATOM     55  H   UNL     1     -46.748  33.298  19.755  1.00  0.00     0.027 H 
ENDBRANCH  42  45
ENDBRANCH  40  42
ENDBRANCH  37  40
ENDBRANCH   5  37
TORSDOF 7
ENDMDL
MODEL 5
REMARK VINA RESULT:      -9.6      2.621      3.460
REMARK SMILES O=C(NCc1cc2[nH]c(CNCC3CCC3)cc2cn1)c1cc(=O)n2ccccc2n1
REMARK SMILES IDX 5 1 6 2 7 3 8 4 9 5 17 6 18 7 19 8 20 9 4 14 3 17 1 18 2 19
REMARK SMILES IDX 21 21 22 22 31 23 23 24 30 26 24 27 25 28 29 29 26 30 28 31
REMARK SMILES IDX 27 33 10 37 11 40 12 42 13 45 14 46 16 47 15 49
REMARK H PARENT 6 10 8 11 17 12 19 13 4 15 4 16 3 20 22 25 29 32 26 34 28 35
REMARK H PARENT 27 36 10 38 10 39 11 41 12 43 12 44 13 48 14 50 14 51 16 52
REMARK H PARENT 16 53 15 54 15 55
REMARK Flexibility Score: inf
ROOT
ATOM      1  C   UNL     1     -46.786  34.886  28.026  1.00  0.00     0.062 A 
ATOM      2  C   UNL     1     -45.845  34.099  27.362  1.00  0.00    -0.014 A 
ATOM      3  C   UNL     1     -46.324  33.365  26.281  1.00  0.00     0.049 A 
ATOM      4  N   UNL     1     -45.675  32.505  25.426  1.00  0.00    -0.357 N 
ATOM      5  C   UNL     1     -46.551  32.009  24.489  1.00  0.00     0.030 A 
ATOM      6  C   UNL     1     -47.792  32.558  24.760  1.00  0.00    -0.031 A 
ATOM      7  C   UNL     1     -47.658  33.419  25.884  1.00  0.00     0.018 A 
ATOM      8  C   UNL     1     -48.535  34.240  26.600  1.00  0.00     0.037 A 
ATOM      9  N   UNL     1     -48.092  34.968  27.656  1.00  0.00    -0.259 NA
ATOM     10  H   UNL     1     -44.804  34.073  27.667  1.00  0.00     0.067 H 
ATOM     11  H   UNL     1     -44.690  32.283  25.477  1.00  0.00     0.166 HD
ATOM     12  H   UNL     1     -48.699  32.362  24.204  1.00  0.00     0.065 H 
ATOM     13  H   UNL     1     -49.586  34.338  26.353  1.00  0.00     0.085 H 
ENDROOT
BRANCH   1  14
ATOM     14  C   UNL     1     -46.349  35.749  29.189  1.00  0.00     0.060 C 
ATOM     15  H   UNL     1     -45.779  35.156  29.913  1.00  0.00     0.056 H 
ATOM     16  H   UNL     1     -47.231  36.145  29.704  1.00  0.00     0.056 H 
BRANCH  14  17
ATOM     17  N   UNL     1     -45.569  36.883  28.747  1.00  0.00    -0.345 N 
ATOM     18  O   UNL     1     -47.338  38.323  28.470  1.00  0.00    -0.268 OA
ATOM     19  C   UNL     1     -46.131  38.110  28.501  1.00  0.00     0.270 C 
ATOM     20  H   UNL     1     -44.566  36.868  28.904  1.00  0.00     0.164 HD
BRANCH  19  21
ATOM     21  C   UNL     1     -45.095  39.188  28.294  1.00  0.00     0.136 A 
ATOM     22  C   UNL     1     -44.180  39.326  29.255  1.00  0.00     0.035 A 
ATOM     23  N   UNL     1     -45.147  39.946  27.145  1.00  0.00    -0.225 NA
ATOM     24  C   UNL     1     -43.148  40.357  29.091  1.00  0.00     0.258 A 
ATOM     25  H   UNL     1     -44.148  38.723  30.154  1.00  0.00     0.071 H 
ATOM     26  C   UNL     1     -44.231  40.856  27.004  1.00  0.00     0.140 A 
ATOM     27  O   UNL     1     -42.300  40.489  29.974  1.00  0.00    -0.269 OA
ATOM     28  N   UNL     1     -43.222  41.107  27.927  1.00  0.00    -0.268 N 
ATOM     29  C   UNL     1     -44.248  41.699  25.775  1.00  0.00    -0.019 A 
ATOM     30  C   UNL     1     -42.279  42.103  27.701  1.00  0.00     0.014 A 
ATOM     31  C   UNL     1     -43.318  42.645  25.602  1.00  0.00    -0.057 A 
ATOM     32  H   UNL     1     -45.030  41.510  25.050  1.00  0.00     0.066 H 
ATOM     33  C   UNL     1     -42.300  42.857  26.595  1.00  0.00    -0.045 A 
ATOM     34  H   UNL     1     -41.518  42.245  28.465  1.00  0.00     0.082 H 
ATOM     35  H   UNL     1     -43.314  43.269  24.714  1.00  0.00     0.062 H 
ATOM     36  H   UNL     1     -41.558  43.632  26.429  1.00  0.00     0.064 H 
ENDBRANCH  19  21
ENDBRANCH  14  17
ENDBRANCH   1  14
BRANCH   5  37
ATOM     37  C   UNL     1     -46.116  31.053  23.434  1.00  0.00     0.036 C 
ATOM     38  H   UNL     1     -46.240  30.033  23.817  1.00  0.00     0.049 H 
ATOM     39  H   UNL     1     -45.049  31.162  23.206  1.00  0.00     0.049 H 
BRANCH  37  40
ATOM     40  N   UNL     1     -46.922  31.183  22.225  1.00  0.00    -0.311 NA
ATOM     41  H   UNL     1     -46.322  31.516  21.472  1.00  0.00     0.123 HD
BRANCH  40  42
ATOM     42  C   UNL     1     -47.567  29.933  21.824  1.00  0.00    -0.002 C 
ATOM     43  H   UNL     1     -47.217  29.115  22.466  1.00  0.00     0.043 H 
ATOM     44  H   UNL     1     -47.300  29.676  20.792  1.00  0.00     0.043 H 
BRANCH  42  45
ATOM     45  C   UNL     1     -49.089  30.004  21.931  1.00  0.00    -0.029 C 
ATOM     46  C   UNL     1     -49.818  31.373  21.808  1.00  0.00    -0.049 C 
ATOM     47  C   UNL     1     -49.770  29.866  23.320  1.00  0.00    -0.049 C 
ATOM     48  H   UNL     1     -49.510  29.278  21.217  1.00  0.00     0.032 H 
ATOM     49  C   UNL     1     -50.867  30.814  22.793  1.00  0.00    -0.053 C 
ATOM     50  H   UNL     1     -49.271  32.235  22.203  1.00  0.00     0.027 H 
ATOM     51  H   UNL     1     -50.191  31.621  20.811  1.00  0.00     0.027 H 
ATOM     52  H   UNL     1     -49.205  30.283  24.162  1.00  0.00     0.027 H 
ATOM     53  H   UNL     1     -50.104  28.859  23.585  1.00  0.00     0.027 H 
ATOM     54  H   UNL     1     -51.269  31.528  23.516  1.00  0.00     0.027 H 
ATOM     55  H   UNL     1     -51.700  30.296  22.303  1.00  0.00     0.027 H 
ENDBRANCH  42  45
ENDBRANCH  40  42
ENDBRANCH  37  40
ENDBRANCH   5  37
TORSDOF 7
ENDMDL
MODEL 6
REMARK VINA RESULT:      -9.4      2.966     11.641
REMARK SMILES O=C(NCc1cc2[nH]c(CNCC3CCC3)cc2cn1)c1cc(=O)n2ccccc2n1
REMARK SMILES IDX 5 1 6 2 7 3 8 4 9 5 17 6 18 7 19 8 20 9 4 14 3 17 1 18 2 19
REMARK SMILES IDX 21 21 22 22 31 23 23 24 30 26 24 27 25 28 29 29 26 30 28 31
REMARK SMILES IDX 27 33 10 37 11 40 12 42 13 45 14 46 16 47 15 49
REMARK H PARENT 6 10 8 11 17 12 19 13 4 15 4 16 3 20 22 25 29 32 26 34 28 35
REMARK H PARENT 27 36 10 38 10 39 11 41 12 43 12 44 13 48 14 50 14 51 16 52
REMARK H PARENT 16 53 15 54 15 55
REMARK Flexibility Score: inf
ROOT
ATOM      1  C   UNL     1     -46.527  33.616  25.996  1.00  0.00     0.062 A 
ATOM      2  C   UNL     1     -46.696  34.991  25.838  1.00  0.00    -0.014 A 
ATOM      3  C   UNL     1     -46.610  35.749  27.003  1.00  0.00     0.049 A 
ATOM      4  N   UNL     1     -46.726  37.106  27.197  1.00  0.00    -0.357 N 
ATOM      5  C   UNL     1     -46.558  37.416  28.526  1.00  0.00     0.030 A 
ATOM      6  C   UNL     1     -46.341  36.226  29.198  1.00  0.00    -0.031 A 
ATOM      7  C   UNL     1     -46.365  35.170  28.245  1.00  0.00     0.018 A 
ATOM      8  C   UNL     1     -46.200  33.783  28.314  1.00  0.00     0.037 A 
ATOM      9  N   UNL     1     -46.276  33.022  27.193  1.00  0.00    -0.259 NA
ATOM     10  H   UNL     1     -46.872  35.438  24.865  1.00  0.00     0.067 H 
ATOM     11  H   UNL     1     -46.898  37.777  26.460  1.00  0.00     0.166 HD
ATOM     12  H   UNL     1     -46.177  36.128  30.262  1.00  0.00     0.065 H 
ATOM     13  H   UNL     1     -46.005  33.258  29.242  1.00  0.00     0.085 H 
ENDROOT
BRANCH   1  14
ATOM     14  C   UNL     1     -46.565  32.716  24.781  1.00  0.00     0.060 C 
ATOM     15  H   UNL     1     -45.550  32.421  24.491  1.00  0.00     0.056 H 
ATOM     16  H   UNL     1     -47.008  33.257  23.937  1.00  0.00     0.056 H 
BRANCH  14  17
ATOM     17  N   UNL     1     -47.380  31.545  25.010  1.00  0.00    -0.345 N 
ATOM     18  O   UNL     1     -48.146  31.334  22.855  1.00  0.00    -0.268 OA
ATOM     19  C   UNL     1     -48.044  30.901  23.997  1.00  0.00     0.270 C 
ATOM     20  H   UNL     1     -47.230  31.013  25.862  1.00  0.00     0.164 HD
BRANCH  19  21
ATOM     21  C   UNL     1     -48.620  29.577  24.435  1.00  0.00     0.136 A 
ATOM     22  C   UNL     1     -49.929  29.403  24.239  1.00  0.00     0.035 A 
ATOM     23  N   UNL     1     -47.779  28.639  24.991  1.00  0.00    -0.225 NA
ATOM     24  C   UNL     1     -50.530  28.126  24.643  1.00  0.00     0.258 A 
ATOM     25  H   UNL     1     -50.580  30.147  23.799  1.00  0.00     0.071 H 
ATOM     26  C   UNL     1     -48.315  27.511  25.346  1.00  0.00     0.140 A 
ATOM     27  O   UNL     1     -51.736  27.959  24.465  1.00  0.00    -0.269 OA
ATOM     28  N   UNL     1     -49.662  27.199  25.201  1.00  0.00    -0.268 N 
ATOM     29  C   UNL     1     -47.441  26.466  25.951  1.00  0.00    -0.019 A 
ATOM     30  C   UNL     1     -50.158  25.966  25.608  1.00  0.00     0.014 A 
ATOM     31  C   UNL     1     -47.964  25.293  26.327  1.00  0.00    -0.057 A 
ATOM     32  H   UNL     1     -46.390  26.699  26.067  1.00  0.00     0.066 H 
ATOM     33  C   UNL     1     -49.368  25.032  26.152  1.00  0.00    -0.045 A 
ATOM     34  H   UNL     1     -51.222  25.790  25.465  1.00  0.00     0.082 H 
ATOM     35  H   UNL     1     -47.345  24.521  26.770  1.00  0.00     0.062 H 
ATOM     36  H   UNL     1     -49.766  24.072  26.466  1.00  0.00     0.064 H 
ENDBRANCH  19  21
ENDBRANCH  14  17
ENDBRANCH   1  14
BRANCH   5  37
ATOM     37  C   UNL     1     -46.631  38.817  29.023  1.00  0.00     0.036 C 
ATOM     38  H   UNL     1     -46.124  38.869  29.993  1.00  0.00     0.049 H 
ATOM     39  H   UNL     1     -47.668  39.125  29.208  1.00  0.00     0.049 H 
BRANCH  37  40
ATOM     40  N   UNL     1     -45.967  39.746  28.114  1.00  0.00    -0.311 NA
ATOM     41  H   UNL     1     -46.354  40.676  28.265  1.00  0.00     0.123 HD
BRANCH  40  42
ATOM     42  C   UNL     1     -44.515  39.783  28.287  1.00  0.00    -0.002 C 
ATOM     43  H   UNL     1     -44.121  38.760  28.311  1.00  0.00     0.043 H 
ATOM     44  H   UNL     1     -44.253  40.258  29.240  1.00  0.00     0.043 H 
BRANCH  42  45
ATOM     45  C   UNL     1     -43.816  40.536  27.157  1.00  0.00    -0.029 C 
ATOM     46  C   UNL     1     -42.555  41.398  27.454  1.00  0.00    -0.049 C 
ATOM     47  C   UNL     1     -44.457  41.830  26.583  1.00  0.00    -0.049 C 
ATOM     48  H   UNL     1     -43.607  39.815  26.351  1.00  0.00     0.032 H 
ATOM     49  C   UNL     1     -43.021  42.332  26.317  1.00  0.00    -0.053 C 
ATOM     50  H   UNL     1     -42.538  41.886  28.435  1.00  0.00     0.027 H 
ATOM     51  H   UNL     1     -41.595  40.901  27.293  1.00  0.00     0.027 H 
ATOM     52  H   UNL     1     -45.003  42.444  27.308  1.00  0.00     0.027 H 
ATOM     53  H   UNL     1     -45.080  41.695  25.695  1.00  0.00     0.027 H 
ATOM     54  H   UNL     1     -42.852  43.400  26.479  1.00  0.00     0.027 H 
ATOM     55  H   UNL     1     -42.632  42.055  25.331  1.00  0.00     0.027 H 
ENDBRANCH  42  45
ENDBRANCH  40  42
ENDBRANCH  37  40
ENDBRANCH   5  37
TORSDOF 7
ENDMDL
MODEL 7
REMARK VINA RESULT:      -9.2      3.037      4.736
REMARK SMILES O=C(NCc1cc2[nH]c(CNCC3CCC3)cc2cn1)c1cc(=O)n2ccccc2n1
REMARK SMILES IDX 5 1 6 2 7 3 8 4 9 5 17 6 18 7 19 8 20 9 4 14 3 17 1 18 2 19
REMARK SMILES IDX 21 21 22 22 31 23 23 24 30 26 24 27 25 28 29 29 26 30 28 31
REMARK SMILES IDX 27 33 10 37 11 40 12 42 13 45 14 46 16 47 15 49
REMARK H PARENT 6 10 8 11 17 12 19 13 4 15 4 16 3 20 22 25 29 32 26 34 28 35
REMARK H PARENT 27 36 10 38 10 39 11 41 12 43 12 44 13 48 14 50 14 51 16 52
REMARK H PARENT 16 53 15 54 15 55
REMARK Flexibility Score: inf
ROOT
ATOM      1  C   UNL     1     -47.016  31.750  24.304  1.00  0.00     0.062 A 
ATOM      2  C   UNL     1     -47.925  31.100  25.137  1.00  0.00    -0.014 A 
ATOM      3  C   UNL     1     -48.743  30.156  24.521  1.00  0.00     0.049 A 
ATOM      4  N   UNL     1     -49.729  29.351  25.042  1.00  0.00    -0.357 N 
ATOM      5  C   UNL     1     -50.271  28.559  24.057  1.00  0.00     0.030 A 
ATOM      6  C   UNL     1     -49.623  28.876  22.876  1.00  0.00    -0.031 A 
ATOM      7  C   UNL     1     -48.653  29.877  23.160  1.00  0.00     0.018 A 
ATOM      8  C   UNL     1     -47.708  30.571  22.397  1.00  0.00     0.037 A 
ATOM      9  N   UNL     1     -46.897  31.493  22.974  1.00  0.00    -0.259 NA
ATOM     10  H   UNL     1     -47.981  31.311  26.200  1.00  0.00     0.067 H 
ATOM     11  H   UNL     1     -50.002  29.338  26.015  1.00  0.00     0.166 HD
ATOM     12  H   UNL     1     -49.824  28.430  21.912  1.00  0.00     0.065 H 
ATOM     13  H   UNL     1     -47.575  30.409  21.333  1.00  0.00     0.085 H 
ENDROOT
BRANCH   1  14
ATOM     14  C   UNL     1     -46.059  32.763  24.893  1.00  0.00     0.060 C 
ATOM     15  H   UNL     1     -45.334  33.089  24.139  1.00  0.00     0.056 H 
ATOM     16  H   UNL     1     -45.499  32.304  25.715  1.00  0.00     0.056 H 
BRANCH  14  17
ATOM     17  N   UNL     1     -46.759  33.903  25.439  1.00  0.00    -0.345 N 
ATOM     18  O   UNL     1     -46.567  33.295  27.645  1.00  0.00    -0.268 OA
ATOM     19  C   UNL     1     -46.883  34.113  26.789  1.00  0.00     0.270 C 
ATOM     20  H   UNL     1     -46.904  34.711  24.841  1.00  0.00     0.164 HD
BRANCH  19  21
ATOM     21  C   UNL     1     -47.432  35.480  27.113  1.00  0.00     0.136 A 
ATOM     22  C   UNL     1     -46.577  36.501  27.025  1.00  0.00     0.035 A 
ATOM     23  N   UNL     1     -48.758  35.596  27.465  1.00  0.00    -0.225 NA
ATOM     24  C   UNL     1     -47.071  37.851  27.324  1.00  0.00     0.258 A 
ATOM     25  H   UNL     1     -45.536  36.398  26.745  1.00  0.00     0.071 H 
ATOM     26  C   UNL     1     -49.191  36.792  27.728  1.00  0.00     0.140 A 
ATOM     27  O   UNL     1     -46.288  38.797  27.243  1.00  0.00    -0.269 OA
ATOM     28  N   UNL     1     -48.409  37.941  27.676  1.00  0.00    -0.268 N 
ATOM     29  C   UNL     1     -50.621  36.965  28.112  1.00  0.00    -0.019 A 
ATOM     30  C   UNL     1     -48.950  39.187  27.974  1.00  0.00     0.014 A 
ATOM     31  C   UNL     1     -51.095  38.184  28.389  1.00  0.00    -0.057 A 
ATOM     32  H   UNL     1     -51.237  36.076  28.154  1.00  0.00     0.066 H 
ATOM     33  C   UNL     1     -50.234  39.335  28.319  1.00  0.00    -0.045 A 
ATOM     34  H   UNL     1     -48.280  40.042  27.914  1.00  0.00     0.082 H 
ATOM     35  H   UNL     1     -52.132  38.330  28.671  1.00  0.00     0.062 H 
ATOM     36  H   UNL     1     -50.646  40.313  28.549  1.00  0.00     0.064 H 
ENDBRANCH  19  21
ENDBRANCH  14  17
ENDBRANCH   1  14
BRANCH   5  37
ATOM     37  C   UNL     1     -51.361  27.586  24.341  1.00  0.00     0.036 C 
ATOM     38  H   UNL     1     -51.516  26.968  23.448  1.00  0.00     0.049 H 
ATOM     39  H   UNL     1     -52.316  28.092  24.525  1.00  0.00     0.049 H 
BRANCH  37  40
ATOM     40  N   UNL     1     -51.018  26.701  25.449  1.00  0.00    -0.311 NA
ATOM     41  H   UNL     1     -51.828  26.121  25.661  1.00  0.00     0.123 HD
BRANCH  40  42
ATOM     42  C   UNL     1     -49.862  25.849  25.171  1.00  0.00    -0.002 C 
ATOM     43  H   UNL     1     -49.551  25.979  24.128  1.00  0.00     0.043 H 
ATOM     44  H   UNL     1     -50.121  24.793  25.308  1.00  0.00     0.043 H 
BRANCH  42  45
ATOM     45  C   UNL     1     -48.669  26.179  26.068  1.00  0.00    -0.029 C 
ATOM     46  C   UNL     1     -47.317  26.622  25.438  1.00  0.00    -0.049 C 
ATOM     47  C   UNL     1     -47.876  25.029  26.747  1.00  0.00    -0.049 C 
ATOM     48  H   UNL     1     -49.005  26.915  26.816  1.00  0.00     0.032 H 
ATOM     49  C   UNL     1     -46.624  25.924  26.629  1.00  0.00    -0.053 C 
ATOM     50  H   UNL     1     -47.076  26.168  24.471  1.00  0.00     0.027 H 
ATOM     51  H   UNL     1     -47.161  27.701  25.368  1.00  0.00     0.027 H 
ATOM     52  H   UNL     1     -47.803  24.103  26.164  1.00  0.00     0.027 H 
ATOM     53  H   UNL     1     -48.184  24.780  27.766  1.00  0.00     0.027 H 
ATOM     54  H   UNL     1     -45.689  25.409  26.399  1.00  0.00     0.027 H 
ATOM     55  H   UNL     1     -46.468  26.580  27.493  1.00  0.00     0.027 H 
ENDBRANCH  42  45
ENDBRANCH  40  42
ENDBRANCH  37  40
ENDBRANCH   5  37
TORSDOF 7
ENDMDL
