MODEL 1
REMARK VINA RESULT:     -10.6      0.000      0.000
REMARK SMILES CCc1cc(N2CCC2)nc2cc(OCc3cncc(-n4cc([C@@H]5CCCO5)c5c(N)ncnc54)c3)cc(F)c12
REMARK SMILES IDX 15 1 14 4 13 5 3 6 4 7 40 8 5 9 11 11 38 12 10 13 12 14
REMARK SMILES IDX 37 15 39 16 2 19 1 22 6 26 7 27 9 28 8 29 16 36 17 37 36 38
REMARK SMILES IDX 18 39 20 41 19 43 21 45 22 46 35 47 23 48 29 50 34 51 30 52
REMARK SMILES IDX 33 53 32 54 24 56 25 57 28 58 26 60 27 63 31 68
REMARK H PARENT 15 2 15 3 4 10 12 17 37 18 2 20 2 21 1 23 1 24 1 25 7 30 7 31
REMARK H PARENT 9 32 9 33 8 34 8 35 17 40 36 42 19 44 22 49 33 55 24 59 25 61
REMARK H PARENT 25 62 26 64 26 65 27 66 27 67 31 69 31 70
REMARK Flexibility Score: inf
ROOT
ATOM      1  C   UNL     1     -46.343  35.125  26.998  1.00  0.00     0.115 C 
ATOM      2  H   UNL     1     -45.507  34.439  27.188  1.00  0.00     0.076 H 
ATOM      3  H   UNL     1     -46.050  35.733  26.134  1.00  0.00     0.076 H 
ENDROOT
BRANCH   1   4
ATOM      4  O   UNL     1     -46.514  36.036  28.089  1.00  0.00    -0.489 OA
BRANCH   4   5
ATOM      5  C   UNL     1     -45.844  37.226  28.060  1.00  0.00     0.124 A 
ATOM      6  C   UNL     1     -43.593  40.830  28.202  1.00  0.00    -0.032 A 
ATOM      7  C   UNL     1     -43.805  41.734  27.150  1.00  0.00    -0.015 A 
ATOM      8  C   UNL     1     -44.319  39.611  28.209  1.00  0.00     0.040 A 
ATOM      9  C   UNL     1     -44.701  41.428  26.137  1.00  0.00     0.129 A 
ATOM     10  H   UNL     1     -43.259  42.672  27.118  1.00  0.00     0.066 H 
ATOM     11  C   UNL     1     -45.201  39.386  27.132  1.00  0.00     0.080 A 
ATOM     12  C   UNL     1     -44.233  38.603  29.196  1.00  0.00     0.136 A 
ATOM     13  N   UNL     1     -45.380  40.263  26.134  1.00  0.00    -0.231 NA
ATOM     14  C   UNL     1     -45.937  38.206  27.074  1.00  0.00     0.007 A 
ATOM     15  C   UNL     1     -44.978  37.430  29.125  1.00  0.00     0.017 A 
ATOM     16  F   UNL     1     -43.420  38.743  30.254  1.00  0.00    -0.206 F 
ATOM     17  H   UNL     1     -46.584  38.079  26.210  1.00  0.00     0.069 H 
ATOM     18  H   UNL     1     -44.876  36.686  29.908  1.00  0.00     0.069 H 
BRANCH   6  19
ATOM     19  C   UNL     1     -42.610  41.225  29.282  1.00  0.00    -0.030 C 
ATOM     20  H   UNL     1     -42.935  42.144  29.781  1.00  0.00     0.031 H 
ATOM     21  H   UNL     1     -42.609  40.464  30.073  1.00  0.00     0.031 H 
BRANCH  19  22
ATOM     22  C   UNL     1     -41.195  41.371  28.743  1.00  0.00    -0.061 C 
ATOM     23  H   UNL     1     -40.509  40.650  29.199  1.00  0.00     0.023 H 
ATOM     24  H   UNL     1     -41.185  41.207  27.660  1.00  0.00     0.023 H 
ATOM     25  H   UNL     1     -40.800  42.374  28.936  1.00  0.00     0.023 H 
ENDBRANCH  19  22
ENDBRANCH   6  19
BRANCH   9  26
ATOM     26  N   UNL     1     -44.899  42.326  25.072  1.00  0.00    -0.356 N 
ATOM     27  C   UNL     1     -45.525  43.611  25.202  1.00  0.00     0.021 C 
ATOM     28  C   UNL     1     -43.894  42.830  24.182  1.00  0.00     0.021 C 
ATOM     29  C   UNL     1     -44.874  43.964  23.860  1.00  0.00    -0.018 C 
ATOM     30  H   UNL     1     -45.156  44.185  26.058  1.00  0.00     0.049 H 
ATOM     31  H   UNL     1     -46.616  43.566  25.205  1.00  0.00     0.049 H 
ATOM     32  H   UNL     1     -42.981  43.141  24.700  1.00  0.00     0.049 H 
ATOM     33  H   UNL     1     -43.662  42.155  23.355  1.00  0.00     0.049 H 
ATOM     34  H   UNL     1     -44.439  44.964  23.789  1.00  0.00     0.030 H 
ATOM     35  H   UNL     1     -45.509  43.778  22.986  1.00  0.00     0.030 H 
ENDBRANCH   9  26
ENDBRANCH   4   5
ENDBRANCH   1   4
BRANCH   1  36
ATOM     36  C   UNL     1     -47.606  34.392  26.626  1.00  0.00     0.010 A 
ATOM     37  C   UNL     1     -48.840  34.973  26.882  1.00  0.00     0.034 A 
ATOM     38  C   UNL     1     -47.603  33.103  26.075  1.00  0.00    -0.028 A 
ATOM     39  N   UNL     1     -50.021  34.380  26.615  1.00  0.00    -0.262 NA
ATOM     40  H   UNL     1     -48.924  35.962  27.325  1.00  0.00     0.084 H 
ATOM     41  C   UNL     1     -48.807  32.451  25.774  1.00  0.00     0.066 A 
ATOM     42  H   UNL     1     -46.640  32.628  25.911  1.00  0.00     0.065 H 
ATOM     43  C   UNL     1     -49.980  33.138  26.066  1.00  0.00     0.051 A 
ATOM     44  H   UNL     1     -50.970  32.746  25.857  1.00  0.00     0.086 H 
BRANCH  41  45
ATOM     45  N   UNL     1     -48.819  31.146  25.183  1.00  0.00    -0.299 N 
ATOM     46  C   UNL     1     -48.535  29.967  25.857  1.00  0.00     0.018 A 
ATOM     47  C   UNL     1     -49.109  30.804  23.864  1.00  0.00     0.150 A 
ATOM     48  C   UNL     1     -48.602  28.888  24.994  1.00  0.00     0.012 A 
ATOM     49  H   UNL     1     -48.274  29.974  26.905  1.00  0.00     0.083 H 
ATOM     50  C   UNL     1     -48.984  29.424  23.724  1.00  0.00     0.067 A 
ATOM     51  N   UNL     1     -49.476  31.648  22.878  1.00  0.00    -0.218 NA
ATOM     52  C   UNL     1     -49.249  28.889  22.451  1.00  0.00     0.136 A 
ATOM     53  C   UNL     1     -49.703  31.023  21.716  1.00  0.00     0.120 A 
ATOM     54  N   UNL     1     -49.604  29.713  21.449  1.00  0.00    -0.219 NA
ATOM     55  H   UNL     1     -50.003  31.655  20.885  1.00  0.00     0.106 H 
BRANCH  48  56
ATOM     56  C   UNL     1     -48.370  27.439  25.310  1.00  0.00     0.085 C 
ATOM     57  C   UNL     1     -48.229  27.104  26.792  1.00  0.00    -0.020 C 
ATOM     58  O   UNL     1     -47.161  26.943  24.684  1.00  0.00    -0.373 OA
ATOM     59  H   UNL     1     -49.199  26.856  24.887  1.00  0.00     0.066 H 
ATOM     60  C   UNL     1     -47.424  25.831  26.752  1.00  0.00    -0.027 C 
ATOM     61  H   UNL     1     -47.656  27.873  27.326  1.00  0.00     0.030 H 
ATOM     62  H   UNL     1     -49.194  26.992  27.295  1.00  0.00     0.030 H 
ATOM     63  C   UNL     1     -46.459  26.122  25.627  1.00  0.00     0.048 C 
ATOM     64  H   UNL     1     -46.923  25.597  27.696  1.00  0.00     0.029 H 
ATOM     65  H   UNL     1     -48.072  24.988  26.486  1.00  0.00     0.029 H 
ATOM     66  H   UNL     1     -46.103  25.214  25.132  1.00  0.00     0.057 H 
ATOM     67  H   UNL     1     -45.591  26.688  25.983  1.00  0.00     0.057 H 
ENDBRANCH  48  56
BRANCH  52  68
ATOM     68  N   UNL     1     -49.152  27.535  22.149  1.00  0.00    -0.383 N 
ATOM     69  H   UNL     1     -49.976  27.231  21.645  1.00  0.00     0.158 HD
ATOM     70  H   UNL     1     -48.259  27.301  21.711  1.00  0.00     0.158 HD
ENDBRANCH  52  68
ENDBRANCH  41  45
ENDBRANCH   1  36
TORSDOF 9
ENDMDL
MODEL 2
REMARK VINA RESULT:     -10.3      3.029     12.708
REMARK SMILES CCc1cc(N2CCC2)nc2cc(OCc3cncc(-n4cc([C@@H]5CCCO5)c5c(N)ncnc54)c3)cc(F)c12
REMARK SMILES IDX 15 1 14 4 13 5 3 6 4 7 40 8 5 9 11 11 38 12 10 13 12 14
REMARK SMILES IDX 37 15 39 16 2 19 1 22 6 26 7 27 9 28 8 29 16 36 17 37 36 38
REMARK SMILES IDX 18 39 20 41 19 43 21 45 22 46 35 47 23 48 29 50 34 51 30 52
REMARK SMILES IDX 33 53 32 54 24 56 25 57 28 58 26 60 27 63 31 68
REMARK H PARENT 15 2 15 3 4 10 12 17 37 18 2 20 2 21 1 23 1 24 1 25 7 30 7 31
REMARK H PARENT 9 32 9 33 8 34 8 35 17 40 36 42 19 44 22 49 33 55 24 59 25 61
REMARK H PARENT 25 62 26 64 26 65 27 66 27 67 31 69 31 70
REMARK Flexibility Score: inf
ROOT
ATOM      1  C   UNL     1     -47.653  34.231  26.176  1.00  0.00     0.115 C 
ATOM      2  H   UNL     1     -47.678  34.289  25.081  1.00  0.00     0.076 H 
ATOM      3  H   UNL     1     -46.642  33.902  26.443  1.00  0.00     0.076 H 
ENDROOT
BRANCH   1   4
ATOM      4  O   UNL     1     -48.543  33.216  26.654  1.00  0.00    -0.489 OA
BRANCH   4   5
ATOM      5  C   UNL     1     -48.760  32.115  25.877  1.00  0.00     0.124 A 
ATOM      6  C   UNL     1     -49.513  28.873  23.231  1.00  0.00    -0.032 A 
ATOM      7  C   UNL     1     -49.132  27.602  23.686  1.00  0.00    -0.015 A 
ATOM      8  C   UNL     1     -49.288  29.992  24.073  1.00  0.00     0.040 A 
ATOM      9  C   UNL     1     -48.541  27.454  24.932  1.00  0.00     0.129 A 
ATOM     10  H   UNL     1     -49.289  26.728  23.060  1.00  0.00     0.066 H 
ATOM     11  C   UNL     1     -48.674  29.744  25.318  1.00  0.00     0.080 A 
ATOM     12  C   UNL     1     -49.621  31.333  23.773  1.00  0.00     0.136 A 
ATOM     13  N   UNL     1     -48.313  28.520  25.726  1.00  0.00    -0.231 NA
ATOM     14  C   UNL     1     -48.418  30.800  26.187  1.00  0.00     0.007 A 
ATOM     15  C   UNL     1     -49.361  32.377  24.655  1.00  0.00     0.017 A 
ATOM     16  F   UNL     1     -50.212  31.652  22.611  1.00  0.00    -0.206 F 
ATOM     17  H   UNL     1     -47.924  30.550  27.122  1.00  0.00     0.069 H 
ATOM     18  H   UNL     1     -49.636  33.390  24.376  1.00  0.00     0.069 H 
BRANCH   6  19
ATOM     19  C   UNL     1     -50.161  28.968  21.867  1.00  0.00    -0.030 C 
ATOM     20  H   UNL     1     -51.026  29.638  21.900  1.00  0.00     0.031 H 
ATOM     21  H   UNL     1     -49.466  29.442  21.164  1.00  0.00     0.031 H 
BRANCH  19  22
ATOM     22  C   UNL     1     -50.552  27.602  21.323  1.00  0.00    -0.061 C 
ATOM     23  H   UNL     1     -50.850  26.915  22.122  1.00  0.00     0.023 H 
ATOM     24  H   UNL     1     -51.395  27.699  20.631  1.00  0.00     0.023 H 
ATOM     25  H   UNL     1     -49.721  27.140  20.780  1.00  0.00     0.023 H 
ENDBRANCH  19  22
ENDBRANCH   6  19
BRANCH   9  26
ATOM     26  N   UNL     1     -48.142  26.181  25.380  1.00  0.00    -0.356 N 
ATOM     27  C   UNL     1     -46.801  25.838  25.757  1.00  0.00     0.021 C 
ATOM     28  C   UNL     1     -48.710  25.443  26.470  1.00  0.00     0.021 C 
ATOM     29  C   UNL     1     -47.409  24.633  26.483  1.00  0.00    -0.018 C 
ATOM     30  H   UNL     1     -46.334  26.582  26.411  1.00  0.00     0.049 H 
ATOM     31  H   UNL     1     -46.155  25.607  24.907  1.00  0.00     0.049 H 
ATOM     32  H   UNL     1     -48.881  26.058  27.360  1.00  0.00     0.049 H 
ATOM     33  H   UNL     1     -49.612  24.887  26.202  1.00  0.00     0.049 H 
ATOM     34  H   UNL     1     -46.995  24.412  27.470  1.00  0.00     0.030 H 
ATOM     35  H   UNL     1     -47.442  23.715  25.886  1.00  0.00     0.030 H 
ENDBRANCH   9  26
ENDBRANCH   4   5
ENDBRANCH   1   4
BRANCH   1  36
ATOM     36  C   UNL     1     -47.874  35.574  26.822  1.00  0.00     0.010 A 
ATOM     37  C   UNL     1     -49.118  35.887  27.354  1.00  0.00     0.034 A 
ATOM     38  C   UNL     1     -46.887  36.569  26.864  1.00  0.00    -0.028 A 
ATOM     39  N   UNL     1     -49.418  37.073  27.920  1.00  0.00    -0.262 NA
ATOM     40  H   UNL     1     -49.939  35.174  27.341  1.00  0.00     0.084 H 
ATOM     41  C   UNL     1     -47.153  37.815  27.450  1.00  0.00     0.066 A 
ATOM     42  H   UNL     1     -45.926  36.344  26.413  1.00  0.00     0.065 H 
ATOM     43  C   UNL     1     -48.432  38.007  27.959  1.00  0.00     0.051 A 
ATOM     44  H   UNL     1     -48.747  38.919  28.455  1.00  0.00     0.086 H 
BRANCH  41  45
ATOM     45  N   UNL     1     -46.145  38.830  27.527  1.00  0.00    -0.299 N 
ATOM     46  C   UNL     1     -46.015  39.889  26.640  1.00  0.00     0.018 A 
ATOM     47  C   UNL     1     -45.130  38.962  28.473  1.00  0.00     0.150 A 
ATOM     48  C   UNL     1     -44.923  40.670  26.976  1.00  0.00     0.012 A 
ATOM     49  H   UNL     1     -46.693  40.003  25.807  1.00  0.00     0.083 H 
ATOM     50  C   UNL     1     -44.368  40.083  28.156  1.00  0.00     0.067 A 
ATOM     51  N   UNL     1     -44.918  38.163  29.539  1.00  0.00    -0.218 NA
ATOM     52  C   UNL     1     -43.293  40.382  29.011  1.00  0.00     0.136 A 
ATOM     53  C   UNL     1     -43.870  38.548  30.278  1.00  0.00     0.120 A 
ATOM     54  N   UNL     1     -43.054  39.593  30.073  1.00  0.00    -0.219 NA
ATOM     55  H   UNL     1     -43.652  37.940  31.151  1.00  0.00     0.106 H 
BRANCH  48  56
ATOM     56  C   UNL     1     -44.429  41.907  26.285  1.00  0.00     0.085 C 
ATOM     57  C   UNL     1     -42.957  41.893  25.882  1.00  0.00    -0.020 C 
ATOM     58  O   UNL     1     -44.592  43.084  27.115  1.00  0.00    -0.373 OA
ATOM     59  H   UNL     1     -45.045  42.074  25.391  1.00  0.00     0.066 H 
ATOM     60  C   UNL     1     -42.631  43.363  25.827  1.00  0.00    -0.027 C 
ATOM     61  H   UNL     1     -42.334  41.418  26.651  1.00  0.00     0.030 H 
ATOM     62  H   UNL     1     -42.781  41.374  24.936  1.00  0.00     0.030 H 
ATOM     63  C   UNL     1     -43.408  43.888  27.011  1.00  0.00     0.048 C 
ATOM     64  H   UNL     1     -41.561  43.579  25.888  1.00  0.00     0.029 H 
ATOM     65  H   UNL     1     -43.019  43.796  24.898  1.00  0.00     0.029 H 
ATOM     66  H   UNL     1     -43.687  44.940  26.900  1.00  0.00     0.057 H 
ATOM     67  H   UNL     1     -42.843  43.772  27.942  1.00  0.00     0.057 H 
ENDBRANCH  48  56
BRANCH  52  68
ATOM     68  N   UNL     1     -42.432  41.458  28.820  1.00  0.00    -0.383 N 
ATOM     69  H   UNL     1     -42.930  42.232  28.399  1.00  0.00     0.158 HD
ATOM     70  H   UNL     1     -41.904  41.683  29.665  1.00  0.00     0.158 HD
ENDBRANCH  52  68
ENDBRANCH  41  45
ENDBRANCH   1  36
TORSDOF 9
ENDMDL
MODEL 3
REMARK VINA RESULT:     -10.3      2.932     12.410
REMARK SMILES CCc1cc(N2CCC2)nc2cc(OCc3cncc(-n4cc([C@@H]5CCCO5)c5c(N)ncnc54)c3)cc(F)c12
REMARK SMILES IDX 15 1 14 4 13 5 3 6 4 7 40 8 5 9 11 11 38 12 10 13 12 14
REMARK SMILES IDX 37 15 39 16 2 19 1 22 6 26 7 27 9 28 8 29 16 36 17 37 36 38
REMARK SMILES IDX 18 39 20 41 19 43 21 45 22 46 35 47 23 48 29 50 34 51 30 52
REMARK SMILES IDX 33 53 32 54 24 56 25 57 28 58 26 60 27 63 31 68
REMARK H PARENT 15 2 15 3 4 10 12 17 37 18 2 20 2 21 1 23 1 24 1 25 7 30 7 31
REMARK H PARENT 9 32 9 33 8 34 8 35 17 40 36 42 19 44 22 49 33 55 24 59 25 61
REMARK H PARENT 25 62 26 64 26 65 27 66 27 67 31 69 31 70
REMARK Flexibility Score: inf
ROOT
ATOM      1  C   UNL     1     -45.997  34.450  27.888  1.00  0.00     0.115 C 
ATOM      2  H   UNL     1     -45.030  34.137  27.473  1.00  0.00     0.076 H 
ATOM      3  H   UNL     1     -46.273  33.690  28.628  1.00  0.00     0.076 H 
ENDROOT
BRANCH   1   4
ATOM      4  O   UNL     1     -47.017  34.422  26.885  1.00  0.00    -0.489 OA
BRANCH   4   5
ATOM      5  C   UNL     1     -47.126  33.317  26.091  1.00  0.00     0.124 A 
ATOM      6  C   UNL     1     -47.250  29.992  23.443  1.00  0.00    -0.032 A 
ATOM      7  C   UNL     1     -48.027  28.900  23.858  1.00  0.00    -0.015 A 
ATOM      8  C   UNL     1     -47.174  31.131  24.286  1.00  0.00     0.040 A 
ATOM      9  C   UNL     1     -48.695  28.939  25.073  1.00  0.00     0.129 A 
ATOM     10  H   UNL     1     -48.099  28.013  23.235  1.00  0.00     0.066 H 
ATOM     11  C   UNL     1     -47.881  31.075  25.504  1.00  0.00     0.080 A 
ATOM     12  C   UNL     1     -46.450  32.314  24.013  1.00  0.00     0.136 A 
ATOM     13  N   UNL     1     -48.611  30.015  25.881  1.00  0.00    -0.231 NA
ATOM     14  C   UNL     1     -47.840  32.156  26.380  1.00  0.00     0.007 A 
ATOM     15  C   UNL     1     -46.422  33.387  24.898  1.00  0.00     0.017 A 
ATOM     16  F   UNL     1     -45.754  32.448  22.873  1.00  0.00    -0.206 F 
ATOM     17  H   UNL     1     -48.387  32.046  27.312  1.00  0.00     0.069 H 
ATOM     18  H   UNL     1     -45.850  34.274  24.642  1.00  0.00     0.069 H 
BRANCH   6  19
ATOM     19  C   UNL     1     -46.553  29.893  22.105  1.00  0.00    -0.030 C 
ATOM     20  H   UNL     1     -47.169  29.334  21.392  1.00  0.00     0.031 H 
ATOM     21  H   UNL     1     -46.458  30.894  21.666  1.00  0.00     0.031 H 
BRANCH  19  22
ATOM     22  C   UNL     1     -45.166  29.277  22.225  1.00  0.00    -0.061 C 
ATOM     23  H   UNL     1     -44.772  29.359  23.243  1.00  0.00     0.023 H 
ATOM     24  H   UNL     1     -45.201  28.215  21.961  1.00  0.00     0.023 H 
ATOM     25  H   UNL     1     -44.456  29.770  21.553  1.00  0.00     0.023 H 
ENDBRANCH  19  22
ENDBRANCH   6  19
BRANCH   9  26
ATOM     26  N   UNL     1     -49.458  27.835  25.497  1.00  0.00    -0.356 N 
ATOM     27  C   UNL     1     -50.050  26.872  24.612  1.00  0.00     0.021 C 
ATOM     28  C   UNL     1     -49.056  26.828  26.434  1.00  0.00     0.021 C 
ATOM     29  C   UNL     1     -50.162  25.953  25.834  1.00  0.00    -0.018 C 
ATOM     30  H   UNL     1     -49.364  26.523  23.834  1.00  0.00     0.049 H 
ATOM     31  H   UNL     1     -50.995  27.204  24.177  1.00  0.00     0.049 H 
ATOM     32  H   UNL     1     -48.036  26.467  26.263  1.00  0.00     0.049 H 
ATOM     33  H   UNL     1     -49.196  27.119  27.478  1.00  0.00     0.049 H 
ATOM     34  H   UNL     1     -49.902  24.905  25.667  1.00  0.00     0.030 H 
ATOM     35  H   UNL     1     -51.121  26.013  26.359  1.00  0.00     0.030 H 
ENDBRANCH   9  26
ENDBRANCH   4   5
ENDBRANCH   1   4
BRANCH   1  36
ATOM     36  C   UNL     1     -45.904  35.768  28.612  1.00  0.00     0.010 A 
ATOM     37  C   UNL     1     -46.355  35.869  29.921  1.00  0.00     0.034 A 
ATOM     38  C   UNL     1     -45.431  36.939  28.003  1.00  0.00    -0.028 A 
ATOM     39  N   UNL     1     -46.343  37.012  30.636  1.00  0.00    -0.262 NA
ATOM     40  H   UNL     1     -46.754  35.010  30.454  1.00  0.00     0.084 H 
ATOM     41  C   UNL     1     -45.393  38.149  28.711  1.00  0.00     0.066 A 
ATOM     42  H   UNL     1     -45.115  36.875  26.966  1.00  0.00     0.065 H 
ATOM     43  C   UNL     1     -45.861  38.123  30.020  1.00  0.00     0.051 A 
ATOM     44  H   UNL     1     -45.860  38.989  30.672  1.00  0.00     0.086 H 
BRANCH  41  45
ATOM     45  N   UNL     1     -44.883  39.345  28.111  1.00  0.00    -0.299 N 
ATOM     46  C   UNL     1     -45.419  39.962  26.989  1.00  0.00     0.018 A 
ATOM     47  C   UNL     1     -43.791  40.110  28.515  1.00  0.00     0.150 A 
ATOM     48  C   UNL     1     -44.675  41.078  26.648  1.00  0.00     0.012 A 
ATOM     49  H   UNL     1     -46.281  39.549  26.486  1.00  0.00     0.083 H 
ATOM     50  C   UNL     1     -43.644  41.179  27.634  1.00  0.00     0.067 A 
ATOM     51  N   UNL     1     -43.009  39.886  29.591  1.00  0.00    -0.218 NA
ATOM     52  C   UNL     1     -42.588  42.071  27.890  1.00  0.00     0.136 A 
ATOM     53  C   UNL     1     -42.041  40.802  29.732  1.00  0.00     0.120 A 
ATOM     54  N   UNL     1     -41.787  41.861  28.949  1.00  0.00    -0.219 NA
ATOM     55  H   UNL     1     -41.380  40.671  30.583  1.00  0.00     0.106 H 
BRANCH  48  56
ATOM     56  C   UNL     1     -44.908  42.027  25.510  1.00  0.00     0.085 C 
ATOM     57  C   UNL     1     -43.800  42.084  24.463  1.00  0.00    -0.020 C 
ATOM     58  O   UNL     1     -45.072  43.389  25.976  1.00  0.00    -0.373 OA
ATOM     59  H   UNL     1     -45.852  41.754  25.019  1.00  0.00     0.066 H 
ATOM     60  C   UNL     1     -43.991  43.459  23.876  1.00  0.00    -0.027 C 
ATOM     61  H   UNL     1     -42.806  42.029  24.926  1.00  0.00     0.030 H 
ATOM     62  H   UNL     1     -43.873  41.283  23.723  1.00  0.00     0.030 H 
ATOM     63  C   UNL     1     -44.341  44.264  25.105  1.00  0.00     0.048 C 
ATOM     64  H   UNL     1     -43.111  43.840  23.351  1.00  0.00     0.029 H 
ATOM     65  H   UNL     1     -44.835  43.451  23.177  1.00  0.00     0.029 H 
ATOM     66  H   UNL     1     -44.948  45.144  24.874  1.00  0.00     0.057 H 
ATOM     67  H   UNL     1     -43.442  44.591  25.638  1.00  0.00     0.057 H 
ENDBRANCH  48  56
BRANCH  52  68
ATOM     68  N   UNL     1     -42.303  43.175  27.094  1.00  0.00    -0.383 N 
ATOM     69  H   UNL     1     -42.614  44.024  27.550  1.00  0.00     0.158 HD
ATOM     70  H   UNL     1     -41.333  43.179  26.774  1.00  0.00     0.158 HD
ENDBRANCH  52  68
ENDBRANCH  41  45
ENDBRANCH   1  36
TORSDOF 9
ENDMDL
MODEL 4
REMARK VINA RESULT:     -10.1      1.852      2.340
REMARK SMILES CCc1cc(N2CCC2)nc2cc(OCc3cncc(-n4cc([C@@H]5CCCO5)c5c(N)ncnc54)c3)cc(F)c12
REMARK SMILES IDX 15 1 14 4 13 5 3 6 4 7 40 8 5 9 11 11 38 12 10 13 12 14
REMARK SMILES IDX 37 15 39 16 2 19 1 22 6 26 7 27 9 28 8 29 16 36 17 37 36 38
REMARK SMILES IDX 18 39 20 41 19 43 21 45 22 46 35 47 23 48 29 50 34 51 30 52
REMARK SMILES IDX 33 53 32 54 24 56 25 57 28 58 26 60 27 63 31 68
REMARK H PARENT 15 2 15 3 4 10 12 17 37 18 2 20 2 21 1 23 1 24 1 25 7 30 7 31
REMARK H PARENT 9 32 9 33 8 34 8 35 17 40 36 42 19 44 22 49 33 55 24 59 25 61
REMARK H PARENT 25 62 26 64 26 65 27 66 27 67 31 69 31 70
REMARK Flexibility Score: inf
ROOT
ATOM      1  C   UNL     1     -47.171  36.618  26.585  1.00  0.00     0.115 C 
ATOM      2  H   UNL     1     -46.580  36.998  25.742  1.00  0.00     0.076 H 
ATOM      3  H   UNL     1     -48.223  36.773  26.317  1.00  0.00     0.076 H 
ENDROOT
BRANCH   1   4
ATOM      4  O   UNL     1     -46.939  37.398  27.764  1.00  0.00    -0.489 OA
BRANCH   4   5
ATOM      5  C   UNL     1     -46.071  38.450  27.694  1.00  0.00     0.124 A 
ATOM      6  C   UNL     1     -43.220  41.605  27.711  1.00  0.00    -0.032 A 
ATOM      7  C   UNL     1     -43.274  42.493  26.626  1.00  0.00    -0.015 A 
ATOM      8  C   UNL     1     -44.150  40.533  27.760  1.00  0.00     0.040 A 
ATOM      9  C   UNL     1     -44.215  42.313  25.622  1.00  0.00     0.129 A 
ATOM     10  H   UNL     1     -42.573  43.318  26.561  1.00  0.00     0.066 H 
ATOM     11  C   UNL     1     -45.062  40.428  26.690  1.00  0.00     0.080 A 
ATOM     12  C   UNL     1     -44.238  39.561  28.782  1.00  0.00     0.136 A 
ATOM     13  N   UNL     1     -45.088  41.287  25.661  1.00  0.00    -0.231 NA
ATOM     14  C   UNL     1     -45.994  39.394  26.673  1.00  0.00     0.007 A 
ATOM     15  C   UNL     1     -45.178  38.536  28.752  1.00  0.00     0.017 A 
ATOM     16  F   UNL     1     -43.408  39.594  29.836  1.00  0.00    -0.206 F 
ATOM     17  H   UNL     1     -46.656  39.352  25.813  1.00  0.00     0.069 H 
ATOM     18  H   UNL     1     -45.204  37.814  29.562  1.00  0.00     0.069 H 
BRANCH   6  19
ATOM     19  C   UNL     1     -42.179  41.858  28.777  1.00  0.00    -0.030 C 
ATOM     20  H   UNL     1     -42.055  42.933  28.945  1.00  0.00     0.031 H 
ATOM     21  H   UNL     1     -42.535  41.465  29.738  1.00  0.00     0.031 H 
BRANCH  19  22
ATOM     22  C   UNL     1     -40.846  41.203  28.445  1.00  0.00    -0.061 C 
ATOM     23  H   UNL     1     -40.588  41.320  27.387  1.00  0.00     0.023 H 
ATOM     24  H   UNL     1     -40.045  41.654  29.039  1.00  0.00     0.023 H 
ATOM     25  H   UNL     1     -40.868  40.131  28.665  1.00  0.00     0.023 H 
ENDBRANCH  19  22
ENDBRANCH   6  19
BRANCH   9  26
ATOM     26  N   UNL     1     -44.256  43.193  24.526  1.00  0.00    -0.356 N 
ATOM     27  C   UNL     1     -44.599  44.584  24.616  1.00  0.00     0.021 C 
ATOM     28  C   UNL     1     -43.197  43.445  23.592  1.00  0.00     0.021 C 
ATOM     29  C   UNL     1     -43.932  44.745  23.245  1.00  0.00    -0.018 C 
ATOM     30  H   UNL     1     -44.093  45.100  25.438  1.00  0.00     0.049 H 
ATOM     31  H   UNL     1     -45.676  44.766  24.646  1.00  0.00     0.049 H 
ATOM     32  H   UNL     1     -42.224  43.578  24.075  1.00  0.00     0.049 H 
ATOM     33  H   UNL     1     -43.135  42.707  22.789  1.00  0.00     0.049 H 
ATOM     34  H   UNL     1     -43.302  45.629  23.122  1.00  0.00     0.030 H 
ATOM     35  H   UNL     1     -44.619  44.663  22.395  1.00  0.00     0.030 H 
ENDBRANCH   9  26
ENDBRANCH   4   5
ENDBRANCH   1   4
BRANCH   1  36
ATOM     36  C   UNL     1     -46.974  35.139  26.797  1.00  0.00     0.010 A 
ATOM     37  C   UNL     1     -46.259  34.690  27.899  1.00  0.00     0.034 A 
ATOM     38  C   UNL     1     -47.435  34.174  25.891  1.00  0.00    -0.028 A 
ATOM     39  N   UNL     1     -46.005  33.390  28.153  1.00  0.00    -0.262 NA
ATOM     40  H   UNL     1     -45.854  35.379  28.635  1.00  0.00     0.084 H 
ATOM     41  C   UNL     1     -47.200  32.810  26.118  1.00  0.00     0.066 A 
ATOM     42  H   UNL     1     -47.959  34.523  25.006  1.00  0.00     0.065 H 
ATOM     43  C   UNL     1     -46.481  32.481  27.262  1.00  0.00     0.051 A 
ATOM     44  H   UNL     1     -46.258  31.461  27.555  1.00  0.00     0.086 H 
BRANCH  41  45
ATOM     45  N   UNL     1     -47.690  31.811  25.217  1.00  0.00    -0.299 N 
ATOM     46  C   UNL     1     -48.774  30.981  25.465  1.00  0.00     0.018 A 
ATOM     47  C   UNL     1     -47.203  31.481  23.954  1.00  0.00     0.150 A 
ATOM     48  C   UNL     1     -48.967  30.108  24.409  1.00  0.00     0.012 A 
ATOM     49  H   UNL     1     -49.323  31.045  26.393  1.00  0.00     0.083 H 
ATOM     50  C   UNL     1     -47.971  30.440  23.438  1.00  0.00     0.067 A 
ATOM     51  N   UNL     1     -46.178  32.074  23.309  1.00  0.00    -0.218 NA
ATOM     52  C   UNL     1     -47.629  29.974  22.156  1.00  0.00     0.136 A 
ATOM     53  C   UNL     1     -45.949  31.548  22.099  1.00  0.00     0.120 A 
ATOM     54  N   UNL     1     -46.603  30.542  21.499  1.00  0.00    -0.219 NA
ATOM     55  H   UNL     1     -45.133  31.988  21.533  1.00  0.00     0.106 H 
BRANCH  48  56
ATOM     56  C   UNL     1     -50.024  29.052  24.269  1.00  0.00     0.085 C 
ATOM     57  C   UNL     1     -49.515  27.615  24.216  1.00  0.00    -0.020 C 
ATOM     58  O   UNL     1     -50.801  29.231  23.059  1.00  0.00    -0.373 OA
ATOM     59  H   UNL     1     -50.728  29.154  25.105  1.00  0.00     0.066 H 
ATOM     60  C   UNL     1     -50.626  26.913  23.478  1.00  0.00    -0.027 C 
ATOM     61  H   UNL     1     -48.590  27.536  23.630  1.00  0.00     0.030 H 
ATOM     62  H   UNL     1     -49.322  27.196  25.208  1.00  0.00     0.030 H 
ATOM     63  C   UNL     1     -51.002  27.950  22.446  1.00  0.00     0.048 C 
ATOM     64  H   UNL     1     -50.326  25.959  23.036  1.00  0.00     0.029 H 
ATOM     65  H   UNL     1     -51.467  26.732  24.156  1.00  0.00     0.029 H 
ATOM     66  H   UNL     1     -52.040  27.858  22.116  1.00  0.00     0.057 H 
ATOM     67  H   UNL     1     -50.350  27.894  21.568  1.00  0.00     0.057 H 
ENDBRANCH  48  56
BRANCH  52  68
ATOM     68  N   UNL     1     -48.289  28.933  21.513  1.00  0.00    -0.383 N 
ATOM     69  H   UNL     1     -48.141  28.065  22.013  1.00  0.00     0.158 HD
ATOM     70  H   UNL     1     -49.264  29.162  21.311  1.00  0.00     0.158 HD
ENDBRANCH  52  68
ENDBRANCH  41  45
ENDBRANCH   1  36
TORSDOF 9
ENDMDL
MODEL 5
REMARK VINA RESULT:     -10.1      2.036      3.307
REMARK SMILES CCc1cc(N2CCC2)nc2cc(OCc3cncc(-n4cc([C@@H]5CCCO5)c5c(N)ncnc54)c3)cc(F)c12
REMARK SMILES IDX 15 1 14 4 13 5 3 6 4 7 40 8 5 9 11 11 38 12 10 13 12 14
REMARK SMILES IDX 37 15 39 16 2 19 1 22 6 26 7 27 9 28 8 29 16 36 17 37 36 38
REMARK SMILES IDX 18 39 20 41 19 43 21 45 22 46 35 47 23 48 29 50 34 51 30 52
REMARK SMILES IDX 33 53 32 54 24 56 25 57 28 58 26 60 27 63 31 68
REMARK H PARENT 15 2 15 3 4 10 12 17 37 18 2 20 2 21 1 23 1 24 1 25 7 30 7 31
REMARK H PARENT 9 32 9 33 8 34 8 35 17 40 36 42 19 44 22 49 33 55 24 59 25 61
REMARK H PARENT 25 62 26 64 26 65 27 66 27 67 31 69 31 70
REMARK Flexibility Score: inf
ROOT
ATOM      1  C   UNL     1     -48.232  36.419  27.143  1.00  0.00     0.115 C 
ATOM      2  H   UNL     1     -47.991  36.994  26.240  1.00  0.00     0.076 H 
ATOM      3  H   UNL     1     -49.315  36.250  27.118  1.00  0.00     0.076 H 
ENDROOT
BRANCH   1   4
ATOM      4  O   UNL     1     -47.974  37.188  28.323  1.00  0.00    -0.489 OA
BRANCH   4   5
ATOM      5  C   UNL     1     -46.885  38.013  28.343  1.00  0.00     0.124 A 
ATOM      6  C   UNL     1     -43.376  40.398  28.613  1.00  0.00    -0.032 A 
ATOM      7  C   UNL     1     -43.246  41.418  27.659  1.00  0.00    -0.015 A 
ATOM      8  C   UNL     1     -44.529  39.572  28.573  1.00  0.00     0.040 A 
ATOM      9  C   UNL     1     -44.227  41.601  26.695  1.00  0.00     0.129 A 
ATOM     10  H   UNL     1     -42.372  42.062  27.664  1.00  0.00     0.066 H 
ATOM     11  C   UNL     1     -45.466  39.829  27.551  1.00  0.00     0.080 A 
ATOM     12  C   UNL     1     -44.818  38.512  29.463  1.00  0.00     0.136 A 
ATOM     13  N   UNL     1     -45.315  40.807  26.647  1.00  0.00    -0.231 NA
ATOM     14  C   UNL     1     -46.614  39.049  27.452  1.00  0.00     0.007 A 
ATOM     15  C   UNL     1     -45.972  37.744  29.351  1.00  0.00     0.017 A 
ATOM     16  F   UNL     1     -43.979  38.206  30.465  1.00  0.00    -0.206 F 
ATOM     17  H   UNL     1     -47.288  39.281  26.632  1.00  0.00     0.069 H 
ATOM     18  H   UNL     1     -46.148  36.940  30.060  1.00  0.00     0.069 H 
BRANCH   6  19
ATOM     19  C   UNL     1     -42.278  40.255  29.644  1.00  0.00    -0.030 C 
ATOM     20  H   UNL     1     -42.698  39.964  30.613  1.00  0.00     0.031 H 
ATOM     21  H   UNL     1     -41.620  39.423  29.365  1.00  0.00     0.031 H 
BRANCH  19  22
ATOM     22  C   UNL     1     -41.442  41.520  29.771  1.00  0.00    -0.061 C 
ATOM     23  H   UNL     1     -40.785  41.661  28.907  1.00  0.00     0.023 H 
ATOM     24  H   UNL     1     -42.094  42.397  29.846  1.00  0.00     0.023 H 
ATOM     25  H   UNL     1     -40.813  41.489  30.667  1.00  0.00     0.023 H 
ENDBRANCH  19  22
ENDBRANCH   6  19
BRANCH   9  26
ATOM     26  N   UNL     1     -44.087  42.613  25.727  1.00  0.00    -0.356 N 
ATOM     27  C   UNL     1     -42.960  43.498  25.637  1.00  0.00     0.021 C 
ATOM     28  C   UNL     1     -44.159  42.449  24.304  1.00  0.00     0.021 C 
ATOM     29  C   UNL     1     -43.416  43.786  24.202  1.00  0.00    -0.018 C 
ATOM     30  H   UNL     1     -41.999  42.980  25.719  1.00  0.00     0.049 H 
ATOM     31  H   UNL     1     -43.010  44.339  26.331  1.00  0.00     0.049 H 
ATOM     32  H   UNL     1     -43.598  41.580  23.944  1.00  0.00     0.049 H 
ATOM     33  H   UNL     1     -45.179  42.443  23.914  1.00  0.00     0.049 H 
ATOM     34  H   UNL     1     -42.624  43.835  23.451  1.00  0.00     0.030 H 
ATOM     35  H   UNL     1     -44.070  44.660  24.103  1.00  0.00     0.030 H 
ENDBRANCH   9  26
ENDBRANCH   4   5
ENDBRANCH   1   4
BRANCH   1  36
ATOM     36  C   UNL     1     -47.566  35.067  27.152  1.00  0.00     0.010 A 
ATOM     37  C   UNL     1     -46.744  34.711  28.212  1.00  0.00     0.034 A 
ATOM     38  C   UNL     1     -47.687  34.153  26.095  1.00  0.00    -0.028 A 
ATOM     39  N   UNL     1     -46.081  33.539  28.290  1.00  0.00    -0.262 NA
ATOM     40  H   UNL     1     -46.585  35.375  29.058  1.00  0.00     0.084 H 
ATOM     41  C   UNL     1     -47.022  32.920  26.138  1.00  0.00     0.066 A 
ATOM     42  H   UNL     1     -48.296  34.444  25.245  1.00  0.00     0.065 H 
ATOM     43  C   UNL     1     -46.236  32.670  27.257  1.00  0.00     0.051 A 
ATOM     44  H   UNL     1     -45.694  31.744  27.412  1.00  0.00     0.086 H 
BRANCH  41  45
ATOM     45  N   UNL     1     -47.161  31.964  25.081  1.00  0.00    -0.299 N 
ATOM     46  C   UNL     1     -46.627  32.103  23.807  1.00  0.00     0.018 A 
ATOM     47  C   UNL     1     -47.831  30.742  25.110  1.00  0.00     0.150 A 
ATOM     48  C   UNL     1     -46.969  31.021  23.017  1.00  0.00     0.012 A 
ATOM     49  H   UNL     1     -46.059  32.982  23.536  1.00  0.00     0.083 H 
ATOM     50  C   UNL     1     -47.727  30.146  23.856  1.00  0.00     0.067 A 
ATOM     51  N   UNL     1     -48.461  30.198  26.172  1.00  0.00    -0.218 NA
ATOM     52  C   UNL     1     -48.342  28.891  23.698  1.00  0.00     0.136 A 
ATOM     53  C   UNL     1     -49.004  29.005  25.900  1.00  0.00     0.120 A 
ATOM     54  N   UNL     1     -48.986  28.335  24.738  1.00  0.00    -0.219 NA
ATOM     55  H   UNL     1     -49.525  28.519  26.720  1.00  0.00     0.106 H 
BRANCH  48  56
ATOM     56  C   UNL     1     -46.598  30.773  21.584  1.00  0.00     0.085 C 
ATOM     57  C   UNL     1     -45.697  31.827  20.946  1.00  0.00    -0.020 C 
ATOM     58  O   UNL     1     -47.769  30.699  20.734  1.00  0.00    -0.373 OA
ATOM     59  H   UNL     1     -46.107  29.793  21.519  1.00  0.00     0.066 H 
ATOM     60  C   UNL     1     -46.017  31.669  19.482  1.00  0.00    -0.027 C 
ATOM     61  H   UNL     1     -45.974  32.840  21.265  1.00  0.00     0.030 H 
ATOM     62  H   UNL     1     -44.639  31.676  21.178  1.00  0.00     0.030 H 
ATOM     63  C   UNL     1     -47.506  31.424  19.524  1.00  0.00     0.048 C 
ATOM     64  H   UNL     1     -45.743  32.538  18.876  1.00  0.00     0.029 H 
ATOM     65  H   UNL     1     -45.500  30.791  19.080  1.00  0.00     0.029 H 
ATOM     66  H   UNL     1     -47.863  30.847  18.665  1.00  0.00     0.057 H 
ATOM     67  H   UNL     1     -48.065  32.364  19.570  1.00  0.00     0.057 H 
ENDBRANCH  48  56
BRANCH  52  68
ATOM     68  N   UNL     1     -48.338  28.177  22.504  1.00  0.00    -0.383 N 
ATOM     69  H   UNL     1     -47.456  27.695  22.389  1.00  0.00     0.158 HD
ATOM     70  H   UNL     1     -49.172  27.596  22.401  1.00  0.00     0.158 HD
ENDBRANCH  52  68
ENDBRANCH  41  45
ENDBRANCH   1  36
TORSDOF 9
ENDMDL
MODEL 6
REMARK VINA RESULT:      -9.9      2.864     12.255
REMARK SMILES CCc1cc(N2CCC2)nc2cc(OCc3cncc(-n4cc([C@@H]5CCCO5)c5c(N)ncnc54)c3)cc(F)c12
REMARK SMILES IDX 15 1 14 4 13 5 3 6 4 7 40 8 5 9 11 11 38 12 10 13 12 14
REMARK SMILES IDX 37 15 39 16 2 19 1 22 6 26 7 27 9 28 8 29 16 36 17 37 36 38
REMARK SMILES IDX 18 39 20 41 19 43 21 45 22 46 35 47 23 48 29 50 34 51 30 52
REMARK SMILES IDX 33 53 32 54 24 56 25 57 28 58 26 60 27 63 31 68
REMARK H PARENT 15 2 15 3 4 10 12 17 37 18 2 20 2 21 1 23 1 24 1 25 7 30 7 31
REMARK H PARENT 9 32 9 33 8 34 8 35 17 40 36 42 19 44 22 49 33 55 24 59 25 61
REMARK H PARENT 25 62 26 64 26 65 27 66 27 67 31 69 31 70
REMARK Flexibility Score: inf
ROOT
ATOM      1  C   UNL     1     -47.876  35.557  26.746  1.00  0.00     0.115 C 
ATOM      2  H   UNL     1     -48.914  35.837  26.966  1.00  0.00     0.076 H 
ATOM      3  H   UNL     1     -47.798  35.506  25.654  1.00  0.00     0.076 H 
ENDROOT
BRANCH   1   4
ATOM      4  O   UNL     1     -47.590  34.239  27.230  1.00  0.00    -0.489 OA
BRANCH   4   5
ATOM      5  C   UNL     1     -47.538  33.209  26.334  1.00  0.00     0.124 A 
ATOM      6  C   UNL     1     -47.158  30.152  23.404  1.00  0.00    -0.032 A 
ATOM      7  C   UNL     1     -47.877  28.972  23.645  1.00  0.00    -0.015 A 
ATOM      8  C   UNL     1     -47.249  31.209  24.347  1.00  0.00     0.040 A 
ATOM      9  C   UNL     1     -48.651  28.847  24.789  1.00  0.00     0.129 A 
ATOM     10  H   UNL     1     -47.822  28.146  22.942  1.00  0.00     0.066 H 
ATOM     11  C   UNL     1     -48.054  30.985  25.483  1.00  0.00     0.080 A 
ATOM     12  C   UNL     1     -46.601  32.462  24.251  1.00  0.00     0.136 A 
ATOM     13  N   UNL     1     -48.726  29.844  25.693  1.00  0.00    -0.231 NA
ATOM     14  C   UNL     1     -48.179  31.978  26.450  1.00  0.00     0.007 A 
ATOM     15  C   UNL     1     -46.739  33.444  25.225  1.00  0.00     0.017 A 
ATOM     16  F   UNL     1     -45.821  32.753  23.199  1.00  0.00    -0.206 F 
ATOM     17  H   UNL     1     -48.795  31.740  27.313  1.00  0.00     0.069 H 
ATOM     18  H   UNL     1     -46.220  34.390  25.105  1.00  0.00     0.069 H 
BRANCH   6  19
ATOM     19  C   UNL     1     -46.339  30.232  22.135  1.00  0.00    -0.030 C 
ATOM     20  H   UNL     1     -45.438  30.833  22.296  1.00  0.00     0.031 H 
ATOM     21  H   UNL     1     -45.965  29.233  21.877  1.00  0.00     0.031 H 
BRANCH  19  22
ATOM     22  C   UNL     1     -47.149  30.769  20.964  1.00  0.00    -0.061 C 
ATOM     23  H   UNL     1     -47.445  31.811  21.118  1.00  0.00     0.023 H 
ATOM     24  H   UNL     1     -46.559  30.719  20.042  1.00  0.00     0.023 H 
ATOM     25  H   UNL     1     -48.062  30.183  20.813  1.00  0.00     0.023 H 
ENDBRANCH  19  22
ENDBRANCH   6  19
BRANCH   9  26
ATOM     26  N   UNL     1     -49.357  27.656  25.039  1.00  0.00    -0.356 N 
ATOM     27  C   UNL     1     -49.385  26.980  26.305  1.00  0.00     0.021 C 
ATOM     28  C   UNL     1     -50.754  27.426  24.809  1.00  0.00     0.021 C 
ATOM     29  C   UNL     1     -50.631  26.253  25.788  1.00  0.00    -0.018 C 
ATOM     30  H   UNL     1     -49.562  27.655  27.149  1.00  0.00     0.049 H 
ATOM     31  H   UNL     1     -48.508  26.355  26.484  1.00  0.00     0.049 H 
ATOM     32  H   UNL     1     -51.385  28.252  25.152  1.00  0.00     0.049 H 
ATOM     33  H   UNL     1     -50.990  27.158  23.776  1.00  0.00     0.049 H 
ATOM     34  H   UNL     1     -51.450  26.143  26.504  1.00  0.00     0.030 H 
ATOM     35  H   UNL     1     -50.427  25.287  25.314  1.00  0.00     0.030 H 
ENDBRANCH   9  26
ENDBRANCH   4   5
ENDBRANCH   1   4
BRANCH   1  36
ATOM     36  C   UNL     1     -46.894  36.596  27.221  1.00  0.00     0.010 A 
ATOM     37  C   UNL     1     -45.983  36.278  28.219  1.00  0.00     0.034 A 
ATOM     38  C   UNL     1     -46.889  37.913  26.740  1.00  0.00    -0.028 A 
ATOM     39  N   UNL     1     -45.090  37.150  28.728  1.00  0.00    -0.262 NA
ATOM     40  H   UNL     1     -45.939  35.283  28.655  1.00  0.00     0.084 H 
ATOM     41  C   UNL     1     -45.973  38.851  27.236  1.00  0.00     0.066 A 
ATOM     42  H   UNL     1     -47.627  38.178  25.989  1.00  0.00     0.065 H 
ATOM     43  C   UNL     1     -45.102  38.413  28.227  1.00  0.00     0.051 A 
ATOM     44  H   UNL     1     -44.336  39.040  28.670  1.00  0.00     0.086 H 
BRANCH  41  45
ATOM     45  N   UNL     1     -45.936  40.192  26.733  1.00  0.00    -0.299 N 
ATOM     46  C   UNL     1     -44.796  40.839  26.279  1.00  0.00     0.018 A 
ATOM     47  C   UNL     1     -46.995  41.087  26.596  1.00  0.00     0.150 A 
ATOM     48  C   UNL     1     -45.095  42.133  25.891  1.00  0.00     0.012 A 
ATOM     49  H   UNL     1     -43.835  40.344  26.288  1.00  0.00     0.083 H 
ATOM     50  C   UNL     1     -46.504  42.284  26.081  1.00  0.00     0.067 A 
ATOM     51  N   UNL     1     -48.291  40.847  26.885  1.00  0.00    -0.218 NA
ATOM     52  C   UNL     1     -47.438  43.313  25.866  1.00  0.00     0.136 A 
ATOM     53  C   UNL     1     -49.083  41.898  26.637  1.00  0.00     0.120 A 
ATOM     54  N   UNL     1     -48.733  43.101  26.158  1.00  0.00    -0.219 NA
ATOM     55  H   UNL     1     -50.139  41.762  26.851  1.00  0.00     0.106 H 
BRANCH  48  56
ATOM     56  C   UNL     1     -44.159  43.168  25.340  1.00  0.00     0.085 C 
ATOM     57  C   UNL     1     -43.754  42.980  23.881  1.00  0.00    -0.020 C 
ATOM     58  O   UNL     1     -42.916  43.215  26.084  1.00  0.00    -0.373 OA
ATOM     59  H   UNL     1     -44.626  44.155  25.459  1.00  0.00     0.066 H 
ATOM     60  C   UNL     1     -42.434  43.706  23.824  1.00  0.00    -0.027 C 
ATOM     61  H   UNL     1     -43.590  41.921  23.642  1.00  0.00     0.030 H 
ATOM     62  H   UNL     1     -44.496  43.373  23.181  1.00  0.00     0.030 H 
ATOM     63  C   UNL     1     -41.828  43.332  25.156  1.00  0.00     0.048 C 
ATOM     64  H   UNL     1     -41.810  43.417  22.973  1.00  0.00     0.029 H 
ATOM     65  H   UNL     1     -42.606  44.787  23.776  1.00  0.00     0.029 H 
ATOM     66  H   UNL     1     -41.115  44.079  25.518  1.00  0.00     0.057 H 
ATOM     67  H   UNL     1     -41.324  42.362  25.107  1.00  0.00     0.057 H 
ENDBRANCH  48  56
BRANCH  52  68
ATOM     68  N   UNL     1     -47.101  44.568  25.372  1.00  0.00    -0.383 N 
ATOM     69  H   UNL     1     -46.106  44.616  25.191  1.00  0.00     0.158 HD
ATOM     70  H   UNL     1     -47.701  44.851  24.596  1.00  0.00     0.158 HD
ENDBRANCH  52  68
ENDBRANCH  41  45
ENDBRANCH   1  36
TORSDOF 9
ENDMDL
MODEL 7
REMARK VINA RESULT:      -9.6      2.869     11.883
REMARK SMILES CCc1cc(N2CCC2)nc2cc(OCc3cncc(-n4cc([C@@H]5CCCO5)c5c(N)ncnc54)c3)cc(F)c12
REMARK SMILES IDX 15 1 14 4 13 5 3 6 4 7 40 8 5 9 11 11 38 12 10 13 12 14
REMARK SMILES IDX 37 15 39 16 2 19 1 22 6 26 7 27 9 28 8 29 16 36 17 37 36 38
REMARK SMILES IDX 18 39 20 41 19 43 21 45 22 46 35 47 23 48 29 50 34 51 30 52
REMARK SMILES IDX 33 53 32 54 24 56 25 57 28 58 26 60 27 63 31 68
REMARK H PARENT 15 2 15 3 4 10 12 17 37 18 2 20 2 21 1 23 1 24 1 25 7 30 7 31
REMARK H PARENT 9 32 9 33 8 34 8 35 17 40 36 42 19 44 22 49 33 55 24 59 25 61
REMARK H PARENT 25 62 26 64 26 65 27 66 27 67 31 69 31 70
REMARK Flexibility Score: inf
ROOT
ATOM      1  C   UNL     1     -49.236  34.838  26.983  1.00  0.00     0.115 C 
ATOM      2  H   UNL     1     -50.063  34.328  27.492  1.00  0.00     0.076 H 
ATOM      3  H   UNL     1     -49.491  34.846  25.917  1.00  0.00     0.076 H 
ENDROOT
BRANCH   1   4
ATOM      4  O   UNL     1     -48.023  34.086  27.099  1.00  0.00    -0.489 OA
BRANCH   4   5
ATOM      5  C   UNL     1     -47.796  33.067  26.219  1.00  0.00     0.124 A 
ATOM      6  C   UNL     1     -46.867  30.060  23.360  1.00  0.00    -0.032 A 
ATOM      7  C   UNL     1     -47.524  28.831  23.520  1.00  0.00    -0.015 A 
ATOM      8  C   UNL     1     -47.141  31.102  24.284  1.00  0.00     0.040 A 
ATOM      9  C   UNL     1     -48.414  28.645  24.568  1.00  0.00     0.129 A 
ATOM     10  H   UNL     1     -47.331  28.015  22.831  1.00  0.00     0.066 H 
ATOM     11  C   UNL     1     -48.053  30.816  25.320  1.00  0.00     0.080 A 
ATOM     12  C   UNL     1     -46.576  32.398  24.259  1.00  0.00     0.136 A 
ATOM     13  N   UNL     1     -48.662  29.630  25.455  1.00  0.00    -0.231 NA
ATOM     14  C   UNL     1     -48.357  31.793  26.264  1.00  0.00     0.007 A 
ATOM     15  C   UNL     1     -46.894  33.364  25.208  1.00  0.00     0.017 A 
ATOM     16  F   UNL     1     -45.703  32.750  23.303  1.00  0.00    -0.206 F 
ATOM     17  H   UNL     1     -49.050  31.508  27.050  1.00  0.00     0.069 H 
ATOM     18  H   UNL     1     -46.432  34.344  25.145  1.00  0.00     0.069 H 
BRANCH   6  19
ATOM     19  C   UNL     1     -45.916  30.203  22.193  1.00  0.00    -0.030 C 
ATOM     20  H   UNL     1     -45.016  30.749  22.496  1.00  0.00     0.031 H 
ATOM     21  H   UNL     1     -45.553  29.213  21.892  1.00  0.00     0.031 H 
BRANCH  19  22
ATOM     22  C   UNL     1     -46.577  30.868  20.994  1.00  0.00    -0.061 C 
ATOM     23  H   UNL     1     -47.447  30.303  20.644  1.00  0.00     0.023 H 
ATOM     24  H   UNL     1     -46.913  31.876  21.259  1.00  0.00     0.023 H 
ATOM     25  H   UNL     1     -45.878  30.954  20.156  1.00  0.00     0.023 H 
ENDBRANCH  19  22
ENDBRANCH   6  19
BRANCH   9  26
ATOM     26  N   UNL     1     -49.058  27.406  24.739  1.00  0.00    -0.356 N 
ATOM     27  C   UNL     1     -48.543  26.327  25.533  1.00  0.00     0.021 C 
ATOM     28  C   UNL     1     -50.399  27.196  25.202  1.00  0.00     0.021 C 
ATOM     29  C   UNL     1     -49.967  25.762  25.528  1.00  0.00    -0.018 C 
ATOM     30  H   UNL     1     -48.179  26.651  26.514  1.00  0.00     0.049 H 
ATOM     31  H   UNL     1     -47.790  25.727  25.017  1.00  0.00     0.049 H 
ATOM     32  H   UNL     1     -50.653  27.813  26.070  1.00  0.00     0.049 H 
ATOM     33  H   UNL     1     -51.154  27.297  24.419  1.00  0.00     0.049 H 
ATOM     34  H   UNL     1     -50.325  25.363  26.480  1.00  0.00     0.030 H 
ATOM     35  H   UNL     1     -50.164  25.038  24.730  1.00  0.00     0.030 H 
ENDBRANCH   9  26
ENDBRANCH   4   5
ENDBRANCH   1   4
BRANCH   1  36
ATOM     36  C   UNL     1     -49.096  36.273  27.422  1.00  0.00     0.010 A 
ATOM     37  C   UNL     1     -50.222  36.990  27.802  1.00  0.00     0.034 A 
ATOM     38  C   UNL     1     -47.870  36.955  27.413  1.00  0.00    -0.028 A 
ATOM     39  N   UNL     1     -50.198  38.285  28.178  1.00  0.00    -0.262 NA
ATOM     40  H   UNL     1     -51.209  36.536  27.817  1.00  0.00     0.084 H 
ATOM     41  C   UNL     1     -47.798  38.299  27.803  1.00  0.00     0.066 A 
ATOM     42  H   UNL     1     -46.994  36.410  27.077  1.00  0.00     0.065 H 
ATOM     43  C   UNL     1     -48.991  38.909  28.173  1.00  0.00     0.051 A 
ATOM     44  H   UNL     1     -49.057  39.936  28.515  1.00  0.00     0.086 H 
BRANCH  41  45
ATOM     45  N   UNL     1     -46.549  39.000  27.827  1.00  0.00    -0.299 N 
ATOM     46  C   UNL     1     -46.135  39.920  26.874  1.00  0.00     0.018 A 
ATOM     47  C   UNL     1     -45.532  38.909  28.775  1.00  0.00     0.150 A 
ATOM     48  C   UNL     1     -44.869  40.390  27.172  1.00  0.00     0.012 A 
ATOM     49  H   UNL     1     -46.760  40.161  26.026  1.00  0.00     0.083 H 
ATOM     50  C   UNL     1     -44.491  39.754  28.396  1.00  0.00     0.067 A 
ATOM     51  N   UNL     1     -45.543  38.156  29.894  1.00  0.00    -0.218 NA
ATOM     52  C   UNL     1     -43.371  39.801  29.244  1.00  0.00     0.136 A 
ATOM     53  C   UNL     1     -44.426  38.286  30.621  1.00  0.00     0.120 A 
ATOM     54  N   UNL     1     -43.355  39.049  30.359  1.00  0.00    -0.219 NA
ATOM     55  H   UNL     1     -44.380  37.702  31.535  1.00  0.00     0.106 H 
BRANCH  48  56
ATOM     56  C   UNL     1     -44.056  41.394  26.408  1.00  0.00     0.085 C 
ATOM     57  C   UNL     1     -44.065  42.812  26.970  1.00  0.00    -0.020 C 
ATOM     58  O   UNL     1     -44.510  41.517  25.037  1.00  0.00    -0.373 OA
ATOM     59  H   UNL     1     -43.019  41.034  26.358  1.00  0.00     0.066 H 
ATOM     60  C   UNL     1     -43.748  43.637  25.749  1.00  0.00    -0.027 C 
ATOM     61  H   UNL     1     -45.059  43.092  27.341  1.00  0.00     0.030 H 
ATOM     62  H   UNL     1     -43.349  42.951  27.785  1.00  0.00     0.030 H 
ATOM     63  C   UNL     1     -44.529  42.907  24.682  1.00  0.00     0.048 C 
ATOM     64  H   UNL     1     -44.032  44.689  25.842  1.00  0.00     0.029 H 
ATOM     65  H   UNL     1     -42.674  43.586  25.533  1.00  0.00     0.029 H 
ATOM     66  H   UNL     1     -44.101  43.037  23.684  1.00  0.00     0.057 H 
ATOM     67  H   UNL     1     -45.574  43.232  24.660  1.00  0.00     0.057 H 
ENDBRANCH  48  56
BRANCH  52  68
ATOM     68  N   UNL     1     -42.248  40.582  28.995  1.00  0.00    -0.383 N 
ATOM     69  H   UNL     1     -42.344  41.055  28.105  1.00  0.00     0.158 HD
ATOM     70  H   UNL     1     -42.012  41.182  29.787  1.00  0.00     0.158 HD
ENDBRANCH  52  68
ENDBRANCH  41  45
ENDBRANCH   1  36
TORSDOF 9
ENDMDL
