MODEL 1
REMARK VINA RESULT:      -8.8      0.000      0.000
REMARK SMILES CN(Cc1cncc(-n2cc(-c3ccn(C)n3)c3c(N)ncnc32)c1)CC1CC1
REMARK SMILES IDX 4 1 5 2 6 3 7 4 8 5 25 6 3 10 2 13 1 14 26 18 27 21 28 22
REMARK SMILES IDX 29 23 9 29 10 30 24 31 11 32 18 34 23 35 19 36 22 37 21 38
REMARK SMILES IDX 12 40 13 41 17 42 14 43 15 45 16 47 20 51
REMARK H PARENT 5 7 7 8 25 9 3 11 3 12 1 15 1 16 1 17 26 19 26 20 27 24 28 25
REMARK H PARENT 28 26 29 27 29 28 10 33 22 39 13 44 14 46 16 48 16 49 16 50
REMARK H PARENT 20 52 20 53
REMARK Flexibility Score: inf
ROOT
ATOM      1  C   UNL     1     -48.319  30.624  24.932  1.00  0.00    -0.013 A 
ATOM      2  C   UNL     1     -47.251  30.501  24.052  1.00  0.00     0.031 A 
ATOM      3  N   UNL     1     -46.309  31.449  23.870  1.00  0.00    -0.262 NA
ATOM      4  C   UNL     1     -46.429  32.588  24.597  1.00  0.00     0.051 A 
ATOM      5  C   UNL     1     -47.453  32.829  25.505  1.00  0.00     0.066 A 
ATOM      6  C   UNL     1     -48.406  31.812  25.668  1.00  0.00    -0.030 A 
ATOM      7  H   UNL     1     -47.118  29.609  23.445  1.00  0.00     0.084 H 
ATOM      8  H   UNL     1     -45.647  33.305  24.373  1.00  0.00     0.086 H 
ATOM      9  H   UNL     1     -49.218  31.902  26.379  1.00  0.00     0.065 H 
ENDROOT
BRANCH   1  10
ATOM     10  C   UNL     1     -49.329  29.511  25.074  1.00  0.00     0.025 C 
ATOM     11  H   UNL     1     -49.727  29.541  26.098  1.00  0.00     0.048 H 
ATOM     12  H   UNL     1     -50.200  29.746  24.447  1.00  0.00     0.048 H 
BRANCH  10  13
ATOM     13  N   UNL     1     -48.857  28.148  24.840  1.00  0.00    -0.302 NA
BRANCH  13  14
ATOM     14  C   UNL     1     -49.326  27.473  23.644  1.00  0.00    -0.013 C 
ATOM     15  H   UNL     1     -49.184  26.390  23.724  1.00  0.00     0.039 H 
ATOM     16  H   UNL     1     -50.404  27.624  23.510  1.00  0.00     0.039 H 
ATOM     17  H   UNL     1     -48.827  27.827  22.736  1.00  0.00     0.039 H 
ENDBRANCH  13  14
BRANCH  13  18
ATOM     18  C   UNL     1     -48.708  27.300  26.013  1.00  0.00     0.001 C 
ATOM     19  H   UNL     1     -49.703  27.085  26.424  1.00  0.00     0.043 H 
ATOM     20  H   UNL     1     -48.198  27.867  26.803  1.00  0.00     0.043 H 
BRANCH  18  21
ATOM     21  C   UNL     1     -47.954  26.025  25.787  1.00  0.00    -0.029 C 
ATOM     22  C   UNL     1     -46.495  26.107  25.404  1.00  0.00    -0.049 C 
ATOM     23  C   UNL     1     -46.882  25.570  26.750  1.00  0.00    -0.049 C 
ATOM     24  H   UNL     1     -48.535  25.279  25.258  1.00  0.00     0.032 H 
ATOM     25  H   UNL     1     -46.020  27.081  25.364  1.00  0.00     0.027 H 
ATOM     26  H   UNL     1     -46.126  25.408  24.661  1.00  0.00     0.027 H 
ATOM     27  H   UNL     1     -46.669  26.181  27.620  1.00  0.00     0.027 H 
ATOM     28  H   UNL     1     -46.751  24.507  26.916  1.00  0.00     0.027 H 
ENDBRANCH  18  21
ENDBRANCH  13  18
ENDBRANCH  10  13
ENDBRANCH   1  10
BRANCH   5  29
ATOM     29  N   UNL     1     -47.548  34.055  26.236  1.00  0.00    -0.299 N 
ATOM     30  C   UNL     1     -46.466  34.825  26.629  1.00  0.00     0.021 A 
ATOM     31  C   UNL     1     -48.698  34.699  26.694  1.00  0.00     0.150 A 
ATOM     32  C   UNL     1     -46.909  35.929  27.327  1.00  0.00     0.033 A 
ATOM     33  H   UNL     1     -45.452  34.513  26.430  1.00  0.00     0.083 H 
ATOM     34  C   UNL     1     -48.331  35.873  27.353  1.00  0.00     0.071 A 
ATOM     35  N   UNL     1     -49.967  34.281  26.510  1.00  0.00    -0.218 NA
ATOM     36  C   UNL     1     -49.379  36.670  27.849  1.00  0.00     0.137 A 
ATOM     37  C   UNL     1     -50.872  35.108  27.046  1.00  0.00     0.120 A 
ATOM     38  N   UNL     1     -50.651  36.255  27.702  1.00  0.00    -0.219 NA
ATOM     39  H   UNL     1     -51.912  34.817  26.937  1.00  0.00     0.106 H 
BRANCH  32  40
ATOM     40  C   UNL     1     -46.058  36.952  27.943  1.00  0.00     0.095 A 
ATOM     41  C   UNL     1     -45.514  36.863  29.244  1.00  0.00    -0.016 A 
ATOM     42  N   UNL     1     -45.728  38.107  27.347  1.00  0.00    -0.173 NA
ATOM     43  C   UNL     1     -44.809  38.032  29.417  1.00  0.00     0.025 A 
ATOM     44  H   UNL     1     -45.611  36.058  29.959  1.00  0.00     0.066 H 
ATOM     45  N   UNL     1     -44.965  38.735  28.261  1.00  0.00    -0.275 N 
ATOM     46  H   UNL     1     -44.225  38.407  30.247  1.00  0.00     0.084 H 
BRANCH  45  47
ATOM     47  C   UNL     1     -44.409  40.031  27.953  1.00  0.00     0.030 C 
ATOM     48  H   UNL     1     -44.377  40.619  28.873  1.00  0.00     0.048 H 
ATOM     49  H   UNL     1     -43.402  39.887  27.552  1.00  0.00     0.048 H 
ATOM     50  H   UNL     1     -45.038  40.530  27.212  1.00  0.00     0.048 H 
ENDBRANCH  45  47
ENDBRANCH  32  40
BRANCH  36  51
ATOM     51  N   UNL     1     -49.196  37.884  28.495  1.00  0.00    -0.383 N 
ATOM     52  H   UNL     1     -50.022  38.160  29.008  1.00  0.00     0.158 HD
ATOM     53  H   UNL     1     -48.304  37.934  28.994  1.00  0.00     0.158 HD
ENDBRANCH  36  51
ENDBRANCH   5  29
TORSDOF 9
ENDMDL
MODEL 2
REMARK VINA RESULT:      -8.5      2.550      6.142
REMARK SMILES CN(Cc1cncc(-n2cc(-c3ccn(C)n3)c3c(N)ncnc32)c1)CC1CC1
REMARK SMILES IDX 4 1 5 2 6 3 7 4 8 5 25 6 3 10 2 13 1 14 26 18 27 21 28 22
REMARK SMILES IDX 29 23 9 29 10 30 24 31 11 32 18 34 23 35 19 36 22 37 21 38
REMARK SMILES IDX 12 40 13 41 17 42 14 43 15 45 16 47 20 51
REMARK H PARENT 5 7 7 8 25 9 3 11 3 12 1 15 1 16 1 17 26 19 26 20 27 24 28 25
REMARK H PARENT 28 26 29 27 29 28 10 33 22 39 13 44 14 46 16 48 16 49 16 50
REMARK H PARENT 20 52 20 53
REMARK Flexibility Score: inf
ROOT
ATOM      1  C   UNL     1     -47.682  35.425  26.617  1.00  0.00    -0.013 A 
ATOM      2  C   UNL     1     -48.881  35.593  27.300  1.00  0.00     0.031 A 
ATOM      3  N   UNL     1     -49.199  36.698  28.005  1.00  0.00    -0.262 NA
ATOM      4  C   UNL     1     -48.280  37.696  28.042  1.00  0.00     0.051 A 
ATOM      5  C   UNL     1     -47.047  37.642  27.403  1.00  0.00     0.066 A 
ATOM      6  C   UNL     1     -46.761  36.478  26.675  1.00  0.00    -0.030 A 
ATOM      7  H   UNL     1     -49.643  34.818  27.303  1.00  0.00     0.084 H 
ATOM      8  H   UNL     1     -48.605  38.534  28.647  1.00  0.00     0.086 H 
ATOM      9  H   UNL     1     -45.838  36.367  26.119  1.00  0.00     0.065 H 
ENDROOT
BRANCH   1  10
ATOM     10  C   UNL     1     -47.407  34.153  25.851  1.00  0.00     0.025 C 
ATOM     11  H   UNL     1     -48.157  34.069  25.052  1.00  0.00     0.048 H 
ATOM     12  H   UNL     1     -46.459  34.268  25.310  1.00  0.00     0.048 H 
BRANCH  10  13
ATOM     13  N   UNL     1     -47.443  32.900  26.602  1.00  0.00    -0.302 NA
BRANCH  13  14
ATOM     14  C   UNL     1     -46.291  32.580  27.425  1.00  0.00    -0.013 C 
ATOM     15  H   UNL     1     -45.433  32.298  26.806  1.00  0.00     0.039 H 
ATOM     16  H   UNL     1     -45.970  33.457  28.001  1.00  0.00     0.039 H 
ATOM     17  H   UNL     1     -46.491  31.772  28.136  1.00  0.00     0.039 H 
ENDBRANCH  13  14
BRANCH  13  18
ATOM     18  C   UNL     1     -48.071  31.764  25.944  1.00  0.00     0.001 C 
ATOM     19  H   UNL     1     -49.145  31.773  26.169  1.00  0.00     0.043 H 
ATOM     20  H   UNL     1     -47.699  30.837  26.399  1.00  0.00     0.043 H 
BRANCH  18  21
ATOM     21  C   UNL     1     -47.852  31.684  24.464  1.00  0.00    -0.029 C 
ATOM     22  C   UNL     1     -46.474  31.324  23.956  1.00  0.00    -0.049 C 
ATOM     23  C   UNL     1     -47.608  30.357  23.781  1.00  0.00    -0.049 C 
ATOM     24  H   UNL     1     -48.361  32.468  23.918  1.00  0.00     0.032 H 
ATOM     25  H   UNL     1     -45.701  31.075  24.675  1.00  0.00     0.027 H 
ATOM     26  H   UNL     1     -46.107  31.845  23.079  1.00  0.00     0.027 H 
ATOM     27  H   UNL     1     -47.602  29.455  24.382  1.00  0.00     0.027 H 
ATOM     28  H   UNL     1     -47.987  30.214  22.776  1.00  0.00     0.027 H 
ENDBRANCH  18  21
ENDBRANCH  13  18
ENDBRANCH  10  13
ENDBRANCH   1  10
BRANCH   5  29
ATOM     29  N   UNL     1     -46.102  38.714  27.486  1.00  0.00    -0.299 N 
ATOM     30  C   UNL     1     -46.038  39.780  26.604  1.00  0.00     0.021 A 
ATOM     31  C   UNL     1     -45.086  38.895  28.425  1.00  0.00     0.150 A 
ATOM     32  C   UNL     1     -45.004  40.619  26.963  1.00  0.00     0.033 A 
ATOM     33  H   UNL     1     -46.698  39.846  25.753  1.00  0.00     0.083 H 
ATOM     34  C   UNL     1     -44.406  40.080  28.136  1.00  0.00     0.071 A 
ATOM     35  N   UNL     1     -44.813  38.083  29.466  1.00  0.00    -0.218 NA
ATOM     36  C   UNL     1     -43.366  40.438  29.014  1.00  0.00     0.137 A 
ATOM     37  C   UNL     1     -43.790  38.515  30.212  1.00  0.00     0.120 A 
ATOM     38  N   UNL     1     -43.059  39.624  30.040  1.00  0.00    -0.219 NA
ATOM     39  H   UNL     1     -43.520  37.894  31.060  1.00  0.00     0.106 H 
BRANCH  32  40
ATOM     40  C   UNL     1     -44.594  41.829  26.244  1.00  0.00     0.095 A 
ATOM     41  C   UNL     1     -44.200  41.859  24.886  1.00  0.00    -0.016 A 
ATOM     42  N   UNL     1     -44.515  43.043  26.808  1.00  0.00    -0.173 NA
ATOM     43  C   UNL     1     -43.885  43.175  24.635  1.00  0.00     0.025 A 
ATOM     44  H   UNL     1     -44.158  41.042  24.182  1.00  0.00     0.066 H 
ATOM     45  N   UNL     1     -44.091  43.838  25.807  1.00  0.00    -0.275 N 
ATOM     46  H   UNL     1     -43.541  43.677  23.741  1.00  0.00     0.084 H 
BRANCH  45  47
ATOM     47  C   UNL     1     -43.902  45.247  26.052  1.00  0.00     0.030 C 
ATOM     48  H   UNL     1     -43.048  45.368  26.723  1.00  0.00     0.048 H 
ATOM     49  H   UNL     1     -43.712  45.740  25.095  1.00  0.00     0.048 H 
ATOM     50  H   UNL     1     -44.801  45.661  26.514  1.00  0.00     0.048 H 
ENDBRANCH  45  47
ENDBRANCH  32  40
BRANCH  36  51
ATOM     51  N   UNL     1     -42.613  41.598  28.897  1.00  0.00    -0.383 N 
ATOM     52  H   UNL     1     -41.636  41.392  28.739  1.00  0.00     0.158 HD
ATOM     53  H   UNL     1     -43.047  42.288  28.278  1.00  0.00     0.158 HD
ENDBRANCH  36  51
ENDBRANCH   5  29
TORSDOF 9
ENDMDL
MODEL 3
REMARK VINA RESULT:      -8.2      3.243     10.099
REMARK SMILES CN(Cc1cncc(-n2cc(-c3ccn(C)n3)c3c(N)ncnc32)c1)CC1CC1
REMARK SMILES IDX 4 1 5 2 6 3 7 4 8 5 25 6 3 10 2 13 1 14 26 18 27 21 28 22
REMARK SMILES IDX 29 23 9 29 10 30 24 31 11 32 18 34 23 35 19 36 22 37 21 38
REMARK SMILES IDX 12 40 13 41 17 42 14 43 15 45 16 47 20 51
REMARK H PARENT 5 7 7 8 25 9 3 11 3 12 1 15 1 16 1 17 26 19 26 20 27 24 28 25
REMARK H PARENT 28 26 29 27 29 28 10 33 22 39 13 44 14 46 16 48 16 49 16 50
REMARK H PARENT 20 52 20 53
REMARK Flexibility Score: inf
ROOT
ATOM      1  C   UNL     1     -45.480  41.770  25.833  1.00  0.00    -0.013 A 
ATOM      2  C   UNL     1     -46.648  42.484  26.071  1.00  0.00     0.031 A 
ATOM      3  N   UNL     1     -47.759  41.953  26.621  1.00  0.00    -0.262 NA
ATOM      4  C   UNL     1     -47.717  40.638  26.955  1.00  0.00     0.051 A 
ATOM      5  C   UNL     1     -46.608  39.821  26.764  1.00  0.00     0.066 A 
ATOM      6  C   UNL     1     -45.473  40.418  26.195  1.00  0.00    -0.030 A 
ATOM      7  H   UNL     1     -46.730  43.537  25.814  1.00  0.00     0.084 H 
ATOM      8  H   UNL     1     -48.655  40.287  27.368  1.00  0.00     0.086 H 
ATOM      9  H   UNL     1     -44.556  39.864  26.042  1.00  0.00     0.065 H 
ENDROOT
BRANCH   1  10
ATOM     10  C   UNL     1     -44.281  42.446  25.212  1.00  0.00     0.025 C 
ATOM     11  H   UNL     1     -43.614  41.664  24.822  1.00  0.00     0.048 H 
ATOM     12  H   UNL     1     -44.609  42.984  24.313  1.00  0.00     0.048 H 
BRANCH  10  13
ATOM     13  N   UNL     1     -43.473  43.301  26.079  1.00  0.00    -0.302 NA
BRANCH  13  14
ATOM     14  C   UNL     1     -43.308  44.688  25.686  1.00  0.00    -0.013 C 
ATOM     15  H   UNL     1     -43.238  45.339  26.564  1.00  0.00     0.039 H 
ATOM     16  H   UNL     1     -42.370  44.826  25.135  1.00  0.00     0.039 H 
ATOM     17  H   UNL     1     -44.123  45.046  25.048  1.00  0.00     0.039 H 
ENDBRANCH  13  14
BRANCH  13  18
ATOM     18  C   UNL     1     -42.306  42.687  26.696  1.00  0.00     0.001 C 
ATOM     19  H   UNL     1     -41.425  43.305  26.478  1.00  0.00     0.043 H 
ATOM     20  H   UNL     1     -42.103  41.729  26.201  1.00  0.00     0.043 H 
BRANCH  18  21
ATOM     21  C   UNL     1     -42.418  42.443  28.170  1.00  0.00    -0.029 C 
ATOM     22  C   UNL     1     -42.917  41.098  28.643  1.00  0.00    -0.049 C 
ATOM     23  C   UNL     1     -41.487  41.484  28.876  1.00  0.00    -0.049 C 
ATOM     24  H   UNL     1     -42.798  43.300  28.713  1.00  0.00     0.032 H 
ATOM     25  H   UNL     1     -43.122  40.328  27.907  1.00  0.00     0.027 H 
ATOM     26  H   UNL     1     -43.587  41.078  29.496  1.00  0.00     0.027 H 
ATOM     27  H   UNL     1     -40.723  40.976  28.295  1.00  0.00     0.027 H 
ATOM     28  H   UNL     1     -41.191  41.703  29.895  1.00  0.00     0.027 H 
ENDBRANCH  18  21
ENDBRANCH  13  18
ENDBRANCH  10  13
ENDBRANCH   1  10
BRANCH   5  29
ATOM     29  N   UNL     1     -46.618  38.434  27.115  1.00  0.00    -0.299 N 
ATOM     30  C   UNL     1     -46.905  37.400  26.239  1.00  0.00     0.021 A 
ATOM     31  C   UNL     1     -46.360  37.859  28.360  1.00  0.00     0.150 A 
ATOM     32  C   UNL     1     -46.841  36.195  26.907  1.00  0.00     0.033 A 
ATOM     33  H   UNL     1     -47.184  37.592  25.215  1.00  0.00     0.083 H 
ATOM     34  C   UNL     1     -46.470  36.472  28.252  1.00  0.00     0.071 A 
ATOM     35  N   UNL     1     -46.028  38.522  29.486  1.00  0.00    -0.218 NA
ATOM     36  C   UNL     1     -46.203  35.727  29.416  1.00  0.00     0.137 A 
ATOM     37  C   UNL     1     -45.822  37.710  30.530  1.00  0.00     0.120 A 
ATOM     38  N   UNL     1     -45.899  36.372  30.557  1.00  0.00    -0.219 NA
ATOM     39  H   UNL     1     -45.560  38.190  31.467  1.00  0.00     0.106 H 
BRANCH  32  40
ATOM     40  C   UNL     1     -47.129  34.878  26.327  1.00  0.00     0.095 A 
ATOM     41  C   UNL     1     -46.191  34.094  25.619  1.00  0.00    -0.016 A 
ATOM     42  N   UNL     1     -48.330  34.286  26.379  1.00  0.00    -0.173 NA
ATOM     43  C   UNL     1     -46.881  32.964  25.244  1.00  0.00     0.025 A 
ATOM     44  H   UNL     1     -45.152  34.311  25.414  1.00  0.00     0.066 H 
ATOM     45  N   UNL     1     -48.146  33.125  25.722  1.00  0.00    -0.275 N 
ATOM     46  H   UNL     1     -46.580  32.084  24.692  1.00  0.00     0.084 H 
BRANCH  45  47
ATOM     47  C   UNL     1     -49.248  32.203  25.588  1.00  0.00     0.030 C 
ATOM     48  H   UNL     1     -49.545  32.172  24.536  1.00  0.00     0.048 H 
ATOM     49  H   UNL     1     -48.915  31.217  25.922  1.00  0.00     0.048 H 
ATOM     50  H   UNL     1     -50.085  32.543  26.202  1.00  0.00     0.048 H 
ENDBRANCH  45  47
ENDBRANCH  32  40
BRANCH  36  51
ATOM     51  N   UNL     1     -46.229  34.341  29.477  1.00  0.00    -0.383 N 
ATOM     52  H   UNL     1     -46.210  34.012  30.433  1.00  0.00     0.158 HD
ATOM     53  H   UNL     1     -46.937  33.933  28.860  1.00  0.00     0.158 HD
ENDBRANCH  36  51
ENDBRANCH   5  29
TORSDOF 9
ENDMDL
MODEL 4
REMARK VINA RESULT:      -8.1      3.403     10.267
REMARK SMILES CN(Cc1cncc(-n2cc(-c3ccn(C)n3)c3c(N)ncnc32)c1)CC1CC1
REMARK SMILES IDX 4 1 5 2 6 3 7 4 8 5 25 6 3 10 2 13 1 14 26 18 27 21 28 22
REMARK SMILES IDX 29 23 9 29 10 30 24 31 11 32 18 34 23 35 19 36 22 37 21 38
REMARK SMILES IDX 12 40 13 41 17 42 14 43 15 45 16 47 20 51
REMARK H PARENT 5 7 7 8 25 9 3 11 3 12 1 15 1 16 1 17 26 19 26 20 27 24 28 25
REMARK H PARENT 28 26 29 27 29 28 10 33 22 39 13 44 14 46 16 48 16 49 16 50
REMARK H PARENT 20 52 20 53
REMARK Flexibility Score: inf
ROOT
ATOM      1  C   UNL     1     -42.966  41.667  27.829  1.00  0.00    -0.013 A 
ATOM      2  C   UNL     1     -42.264  41.520  29.020  1.00  0.00     0.031 A 
ATOM      3  N   UNL     1     -42.491  40.536  29.915  1.00  0.00    -0.262 NA
ATOM      4  C   UNL     1     -43.470  39.644  29.618  1.00  0.00     0.051 A 
ATOM      5  C   UNL     1     -44.240  39.688  28.462  1.00  0.00     0.066 A 
ATOM      6  C   UNL     1     -43.965  40.724  27.557  1.00  0.00    -0.030 A 
ATOM      7  H   UNL     1     -41.477  42.215  29.302  1.00  0.00     0.084 H 
ATOM      8  H   UNL     1     -43.603  38.903  30.398  1.00  0.00     0.086 H 
ATOM      9  H   UNL     1     -44.493  40.813  26.617  1.00  0.00     0.065 H 
ENDROOT
BRANCH   1  10
ATOM     10  C   UNL     1     -42.645  42.799  26.885  1.00  0.00     0.025 C 
ATOM     11  H   UNL     1     -42.403  43.687  27.486  1.00  0.00     0.048 H 
ATOM     12  H   UNL     1     -41.704  42.569  26.368  1.00  0.00     0.048 H 
BRANCH  10  13
ATOM     13  N   UNL     1     -43.687  43.196  25.940  1.00  0.00    -0.302 NA
BRANCH  13  14
ATOM     14  C   UNL     1     -43.318  43.299  24.540  1.00  0.00    -0.013 C 
ATOM     15  H   UNL     1     -42.943  44.302  24.307  1.00  0.00     0.039 H 
ATOM     16  H   UNL     1     -42.498  42.611  24.304  1.00  0.00     0.039 H 
ATOM     17  H   UNL     1     -44.149  43.069  23.866  1.00  0.00     0.039 H 
ENDBRANCH  13  14
BRANCH  13  18
ATOM     18  C   UNL     1     -44.644  44.190  26.405  1.00  0.00     0.001 C 
ATOM     19  H   UNL     1     -44.227  45.191  26.233  1.00  0.00     0.043 H 
ATOM     20  H   UNL     1     -44.739  44.112  27.495  1.00  0.00     0.043 H 
BRANCH  18  21
ATOM     21  C   UNL     1     -46.013  44.087  25.803  1.00  0.00    -0.029 C 
ATOM     22  C   UNL     1     -46.809  42.823  26.031  1.00  0.00    -0.049 C 
ATOM     23  C   UNL     1     -47.251  44.107  26.670  1.00  0.00    -0.049 C 
ATOM     24  H   UNL     1     -46.067  44.499  24.803  1.00  0.00     0.032 H 
ATOM     25  H   UNL     1     -46.394  42.054  26.673  1.00  0.00     0.027 H 
ATOM     26  H   UNL     1     -47.393  42.437  25.204  1.00  0.00     0.027 H 
ATOM     27  H   UNL     1     -47.133  44.205  27.744  1.00  0.00     0.027 H 
ATOM     28  H   UNL     1     -48.149  44.571  26.282  1.00  0.00     0.027 H 
ENDBRANCH  18  21
ENDBRANCH  13  18
ENDBRANCH  10  13
ENDBRANCH   1  10
BRANCH   5  29
ATOM     29  N   UNL     1     -45.275  38.735  28.202  1.00  0.00    -0.299 N 
ATOM     30  C   UNL     1     -45.060  37.399  27.906  1.00  0.00     0.021 A 
ATOM     31  C   UNL     1     -46.654  38.944  28.184  1.00  0.00     0.150 A 
ATOM     32  C   UNL     1     -46.270  36.769  27.695  1.00  0.00     0.033 A 
ATOM     33  H   UNL     1     -44.064  36.996  27.816  1.00  0.00     0.083 H 
ATOM     34  C   UNL     1     -47.293  37.737  27.895  1.00  0.00     0.071 A 
ATOM     35  N   UNL     1     -47.283  40.110  28.433  1.00  0.00    -0.218 NA
ATOM     36  C   UNL     1     -48.701  37.760  27.874  1.00  0.00     0.137 A 
ATOM     37  C   UNL     1     -48.616  40.012  28.360  1.00  0.00     0.120 A 
ATOM     38  N   UNL     1     -49.346  38.921  28.090  1.00  0.00    -0.219 NA
ATOM     39  H   UNL     1     -49.175  40.924  28.543  1.00  0.00     0.106 H 
BRANCH  32  40
ATOM     40  C   UNL     1     -46.450  35.365  27.314  1.00  0.00     0.095 A 
ATOM     41  C   UNL     1     -45.999  34.264  28.078  1.00  0.00    -0.016 A 
ATOM     42  N   UNL     1     -47.037  34.969  26.176  1.00  0.00    -0.173 NA
ATOM     43  C   UNL     1     -46.357  33.153  27.349  1.00  0.00     0.025 A 
ATOM     44  H   UNL     1     -45.492  34.272  29.032  1.00  0.00     0.066 H 
ATOM     45  N   UNL     1     -46.973  33.625  26.230  1.00  0.00    -0.275 N 
ATOM     46  H   UNL     1     -46.227  32.095  27.534  1.00  0.00     0.084 H 
BRANCH  45  47
ATOM     47  C   UNL     1     -47.532  32.844  25.152  1.00  0.00     0.030 C 
ATOM     48  H   UNL     1     -47.108  31.838  25.201  1.00  0.00     0.048 H 
ATOM     49  H   UNL     1     -48.617  32.811  25.278  1.00  0.00     0.048 H 
ATOM     50  H   UNL     1     -47.280  33.309  24.196  1.00  0.00     0.048 H 
ENDBRANCH  45  47
ENDBRANCH  32  40
BRANCH  36  51
ATOM     51  N   UNL     1     -49.494  36.646  27.641  1.00  0.00    -0.383 N 
ATOM     52  H   UNL     1     -50.386  36.721  28.112  1.00  0.00     0.158 HD
ATOM     53  H   UNL     1     -49.513  36.375  26.654  1.00  0.00     0.158 HD
ENDBRANCH  36  51
ENDBRANCH   5  29
TORSDOF 9
ENDMDL
MODEL 5
REMARK VINA RESULT:      -8.0      2.210      9.493
REMARK SMILES CN(Cc1cncc(-n2cc(-c3ccn(C)n3)c3c(N)ncnc32)c1)CC1CC1
REMARK SMILES IDX 4 1 5 2 6 3 7 4 8 5 25 6 3 10 2 13 1 14 26 18 27 21 28 22
REMARK SMILES IDX 29 23 9 29 10 30 24 31 11 32 18 34 23 35 19 36 22 37 21 38
REMARK SMILES IDX 12 40 13 41 17 42 14 43 15 45 16 47 20 51
REMARK H PARENT 5 7 7 8 25 9 3 11 3 12 1 15 1 16 1 17 26 19 26 20 27 24 28 25
REMARK H PARENT 28 26 29 27 29 28 10 33 22 39 13 44 14 46 16 48 16 49 16 50
REMARK H PARENT 20 52 20 53
REMARK Flexibility Score: inf
ROOT
ATOM      1  C   UNL     1     -46.685  35.175  26.832  1.00  0.00    -0.013 A 
ATOM      2  C   UNL     1     -46.114  34.708  28.011  1.00  0.00     0.031 A 
ATOM      3  N   UNL     1     -45.977  33.402  28.319  1.00  0.00    -0.262 NA
ATOM      4  C   UNL     1     -46.432  32.501  27.412  1.00  0.00     0.051 A 
ATOM      5  C   UNL     1     -47.023  32.845  26.202  1.00  0.00     0.066 A 
ATOM      6  C   UNL     1     -47.139  34.214  25.920  1.00  0.00    -0.030 A 
ATOM      7  H   UNL     1     -45.741  35.393  28.768  1.00  0.00     0.084 H 
ATOM      8  H   UNL     1     -46.305  31.478  27.747  1.00  0.00     0.086 H 
ATOM      9  H   UNL     1     -47.555  34.570  24.986  1.00  0.00     0.065 H 
ENDROOT
BRANCH   1  10
ATOM     10  C   UNL     1     -46.798  36.656  26.568  1.00  0.00     0.025 C 
ATOM     11  H   UNL     1     -46.032  36.930  25.830  1.00  0.00     0.048 H 
ATOM     12  H   UNL     1     -47.745  36.848  26.046  1.00  0.00     0.048 H 
BRANCH  10  13
ATOM     13  N   UNL     1     -46.629  37.553  27.710  1.00  0.00    -0.302 NA
BRANCH  13  14
ATOM     14  C   UNL     1     -47.759  38.385  28.080  1.00  0.00    -0.013 C 
ATOM     15  H   UNL     1     -48.608  37.773  28.403  1.00  0.00     0.039 H 
ATOM     16  H   UNL     1     -47.507  39.022  28.936  1.00  0.00     0.039 H 
ATOM     17  H   UNL     1     -48.087  39.039  27.266  1.00  0.00     0.039 H 
ENDBRANCH  13  14
BRANCH  13  18
ATOM     18  C   UNL     1     -45.322  38.176  27.861  1.00  0.00     0.001 C 
ATOM     19  H   UNL     1     -44.622  37.707  27.158  1.00  0.00     0.043 H 
ATOM     20  H   UNL     1     -44.922  37.933  28.854  1.00  0.00     0.043 H 
BRANCH  18  21
ATOM     21  C   UNL     1     -45.303  39.665  27.697  1.00  0.00    -0.029 C 
ATOM     22  C   UNL     1     -43.967  40.365  27.613  1.00  0.00    -0.049 C 
ATOM     23  C   UNL     1     -44.851  40.303  26.403  1.00  0.00    -0.049 C 
ATOM     24  H   UNL     1     -46.056  40.166  28.293  1.00  0.00     0.032 H 
ATOM     25  H   UNL     1     -43.063  39.766  27.612  1.00  0.00     0.027 H 
ATOM     26  H   UNL     1     -43.862  41.318  28.121  1.00  0.00     0.027 H 
ATOM     27  H   UNL     1     -44.546  39.660  25.584  1.00  0.00     0.027 H 
ATOM     28  H   UNL     1     -45.324  41.225  26.086  1.00  0.00     0.027 H 
ENDBRANCH  18  21
ENDBRANCH  13  18
ENDBRANCH  10  13
ENDBRANCH   1  10
BRANCH   5  29
ATOM     29  N   UNL     1     -47.505  31.858  25.285  1.00  0.00    -0.299 N 
ATOM     30  C   UNL     1     -48.531  30.967  25.552  1.00  0.00     0.021 A 
ATOM     31  C   UNL     1     -47.056  31.592  23.991  1.00  0.00     0.150 A 
ATOM     32  C   UNL     1     -48.730  30.145  24.462  1.00  0.00     0.033 A 
ATOM     33  H   UNL     1     -49.018  30.941  26.515  1.00  0.00     0.083 H 
ATOM     34  C   UNL     1     -47.814  30.551  23.451  1.00  0.00     0.071 A 
ATOM     35  N   UNL     1     -46.072  32.247  23.342  1.00  0.00    -0.218 NA
ATOM     36  C   UNL     1     -47.516  30.177  22.127  1.00  0.00     0.137 A 
ATOM     37  C   UNL     1     -45.865  31.786  22.103  1.00  0.00     0.120 A 
ATOM     38  N   UNL     1     -46.517  30.798  21.475  1.00  0.00    -0.219 NA
ATOM     39  H   UNL     1     -45.077  32.271  21.537  1.00  0.00     0.106 H 
BRANCH  32  40
ATOM     40  C   UNL     1     -49.697  29.046  24.382  1.00  0.00     0.095 A 
ATOM     41  C   UNL     1     -49.703  27.922  25.238  1.00  0.00    -0.016 A 
ATOM     42  N   UNL     1     -50.667  28.970  23.460  1.00  0.00    -0.173 NA
ATOM     43  C   UNL     1     -50.751  27.145  24.801  1.00  0.00     0.025 A 
ATOM     44  H   UNL     1     -49.044  27.705  26.066  1.00  0.00     0.066 H 
ATOM     45  N   UNL     1     -51.294  27.813  23.745  1.00  0.00    -0.275 N 
ATOM     46  H   UNL     1     -51.143  26.199  25.149  1.00  0.00     0.084 H 
BRANCH  45  47
ATOM     47  C   UNL     1     -52.425  27.403  22.948  1.00  0.00     0.030 C 
ATOM     48  H   UNL     1     -52.054  27.040  21.985  1.00  0.00     0.048 H 
ATOM     49  H   UNL     1     -52.952  26.608  23.481  1.00  0.00     0.048 H 
ATOM     50  H   UNL     1     -53.091  28.255  22.794  1.00  0.00     0.048 H 
ENDBRANCH  45  47
ENDBRANCH  32  40
BRANCH  36  51
ATOM     51  N   UNL     1     -48.194  29.190  21.426  1.00  0.00    -0.383 N 
ATOM     52  H   UNL     1     -47.555  28.583  20.930  1.00  0.00     0.158 HD
ATOM     53  H   UNL     1     -48.921  28.738  21.986  1.00  0.00     0.158 HD
ENDBRANCH  36  51
ENDBRANCH   5  29
TORSDOF 9
ENDMDL
MODEL 6
REMARK VINA RESULT:      -8.0      3.526      6.567
REMARK SMILES CN(Cc1cncc(-n2cc(-c3ccn(C)n3)c3c(N)ncnc32)c1)CC1CC1
REMARK SMILES IDX 4 1 5 2 6 3 7 4 8 5 25 6 3 10 2 13 1 14 26 18 27 21 28 22
REMARK SMILES IDX 29 23 9 29 10 30 24 31 11 32 18 34 23 35 19 36 22 37 21 38
REMARK SMILES IDX 12 40 13 41 17 42 14 43 15 45 16 47 20 51
REMARK H PARENT 5 7 7 8 25 9 3 11 3 12 1 15 1 16 1 17 26 19 26 20 27 24 28 25
REMARK H PARENT 28 26 29 27 29 28 10 33 22 39 13 44 14 46 16 48 16 49 16 50
REMARK H PARENT 20 52 20 53
REMARK Flexibility Score: inf
ROOT
ATOM      1  C   UNL     1     -47.169  36.243  27.488  1.00  0.00    -0.013 A 
ATOM      2  C   UNL     1     -46.301  35.898  28.518  1.00  0.00     0.031 A 
ATOM      3  N   UNL     1     -45.355  36.721  29.016  1.00  0.00    -0.262 NA
ATOM      4  C   UNL     1     -45.257  37.957  28.465  1.00  0.00     0.051 A 
ATOM      5  C   UNL     1     -46.065  38.415  27.430  1.00  0.00     0.066 A 
ATOM      6  C   UNL     1     -47.040  37.529  26.949  1.00  0.00    -0.030 A 
ATOM      7  H   UNL     1     -46.339  34.917  28.985  1.00  0.00     0.084 H 
ATOM      8  H   UNL     1     -44.459  38.543  28.905  1.00  0.00     0.086 H 
ATOM      9  H   UNL     1     -47.734  37.816  26.169  1.00  0.00     0.065 H 
ENDROOT
BRANCH   1  10
ATOM     10  C   UNL     1     -48.200  35.259  26.992  1.00  0.00     0.025 C 
ATOM     11  H   UNL     1     -48.839  34.978  27.841  1.00  0.00     0.048 H 
ATOM     12  H   UNL     1     -48.885  35.782  26.311  1.00  0.00     0.048 H 
BRANCH  10  13
ATOM     13  N   UNL     1     -47.707  34.017  26.400  1.00  0.00    -0.302 NA
BRANCH  13  14
ATOM     14  C   UNL     1     -46.604  34.115  25.462  1.00  0.00    -0.013 C 
ATOM     15  H   UNL     1     -46.563  33.234  24.812  1.00  0.00     0.039 H 
ATOM     16  H   UNL     1     -46.738  34.973  24.793  1.00  0.00     0.039 H 
ATOM     17  H   UNL     1     -45.636  34.230  25.959  1.00  0.00     0.039 H 
ENDBRANCH  13  14
BRANCH  13  18
ATOM     18  C   UNL     1     -48.705  33.006  26.083  1.00  0.00     0.001 C 
ATOM     19  H   UNL     1     -49.617  33.506  25.731  1.00  0.00     0.043 H 
ATOM     20  H   UNL     1     -49.006  32.497  27.008  1.00  0.00     0.043 H 
BRANCH  18  21
ATOM     21  C   UNL     1     -48.268  31.967  25.095  1.00  0.00    -0.029 C 
ATOM     22  C   UNL     1     -48.744  30.545  25.284  1.00  0.00    -0.049 C 
ATOM     23  C   UNL     1     -49.249  31.351  24.124  1.00  0.00    -0.049 C 
ATOM     24  H   UNL     1     -47.233  32.077  24.795  1.00  0.00     0.032 H 
ATOM     25  H   UNL     1     -49.435  30.329  26.091  1.00  0.00     0.027 H 
ATOM     26  H   UNL     1     -48.040  29.745  25.082  1.00  0.00     0.027 H 
ATOM     27  H   UNL     1     -50.282  31.681  24.147  1.00  0.00     0.027 H 
ATOM     28  H   UNL     1     -48.897  31.074  23.137  1.00  0.00     0.027 H 
ENDBRANCH  18  21
ENDBRANCH  13  18
ENDBRANCH  10  13
ENDBRANCH   1  10
BRANCH   5  29
ATOM     29  N   UNL     1     -45.912  39.722  26.869  1.00  0.00    -0.299 N 
ATOM     30  C   UNL     1     -44.737  40.214  26.324  1.00  0.00     0.021 A 
ATOM     31  C   UNL     1     -46.868  40.733  26.765  1.00  0.00     0.150 A 
ATOM     32  C   UNL     1     -44.932  41.509  25.890  1.00  0.00     0.033 A 
ATOM     33  H   UNL     1     -43.829  39.631  26.326  1.00  0.00     0.083 H 
ATOM     34  C   UNL     1     -46.292  41.842  26.142  1.00  0.00     0.071 A 
ATOM     35  N   UNL     1     -48.152  40.655  27.169  1.00  0.00    -0.218 NA
ATOM     36  C   UNL     1     -47.134  42.948  25.923  1.00  0.00     0.137 A 
ATOM     37  C   UNL     1     -48.845  41.774  26.929  1.00  0.00     0.120 A 
ATOM     38  N   UNL     1     -48.411  42.900  26.346  1.00  0.00    -0.219 NA
ATOM     39  H   UNL     1     -49.883  41.772  27.242  1.00  0.00     0.106 H 
BRANCH  32  40
ATOM     40  C   UNL     1     -43.909  42.378  25.300  1.00  0.00     0.095 A 
ATOM     41  C   UNL     1     -42.789  42.884  25.998  1.00  0.00    -0.016 A 
ATOM     42  N   UNL     1     -43.942  42.817  24.034  1.00  0.00    -0.173 NA
ATOM     43  C   UNL     1     -42.115  43.657  25.080  1.00  0.00     0.025 A 
ATOM     44  H   UNL     1     -42.502  42.708  27.024  1.00  0.00     0.066 H 
ATOM     45  N   UNL     1     -42.839  43.582  23.928  1.00  0.00    -0.275 N 
ATOM     46  H   UNL     1     -41.204  44.235  25.153  1.00  0.00     0.084 H 
BRANCH  45  47
ATOM     47  C   UNL     1     -42.537  44.222  22.671  1.00  0.00     0.030 C 
ATOM     48  H   UNL     1     -41.982  43.514  22.049  1.00  0.00     0.048 H 
ATOM     49  H   UNL     1     -43.478  44.501  22.191  1.00  0.00     0.048 H 
ATOM     50  H   UNL     1     -41.931  45.114  22.852  1.00  0.00     0.048 H 
ENDBRANCH  45  47
ENDBRANCH  32  40
BRANCH  36  51
ATOM     51  N   UNL     1     -46.738  44.114  25.285  1.00  0.00    -0.383 N 
ATOM     52  H   UNL     1     -47.241  44.918  25.636  1.00  0.00     0.158 HD
ATOM     53  H   UNL     1     -45.720  44.199  25.216  1.00  0.00     0.158 HD
ENDBRANCH  36  51
ENDBRANCH   5  29
TORSDOF 9
ENDMDL
MODEL 7
REMARK VINA RESULT:      -7.9      4.444      8.021
REMARK SMILES CN(Cc1cncc(-n2cc(-c3ccn(C)n3)c3c(N)ncnc32)c1)CC1CC1
REMARK SMILES IDX 4 1 5 2 6 3 7 4 8 5 25 6 3 10 2 13 1 14 26 18 27 21 28 22
REMARK SMILES IDX 29 23 9 29 10 30 24 31 11 32 18 34 23 35 19 36 22 37 21 38
REMARK SMILES IDX 12 40 13 41 17 42 14 43 15 45 16 47 20 51
REMARK H PARENT 5 7 7 8 25 9 3 11 3 12 1 15 1 16 1 17 26 19 26 20 27 24 28 25
REMARK H PARENT 28 26 29 27 29 28 10 33 22 39 13 44 14 46 16 48 16 49 16 50
REMARK H PARENT 20 52 20 53
REMARK Flexibility Score: inf
ROOT
ATOM      1  C   UNL     1     -45.702  35.831  28.628  1.00  0.00    -0.013 A 
ATOM      2  C   UNL     1     -46.131  35.849  29.950  1.00  0.00     0.031 A 
ATOM      3  N   UNL     1     -46.137  36.951  30.728  1.00  0.00    -0.262 NA
ATOM      4  C   UNL     1     -45.691  38.104  30.170  1.00  0.00     0.051 A 
ATOM      5  C   UNL     1     -45.234  38.211  28.862  1.00  0.00     0.066 A 
ATOM      6  C   UNL     1     -45.252  37.042  28.087  1.00  0.00    -0.030 A 
ATOM      7  H   UNL     1     -46.491  34.947  30.440  1.00  0.00     0.084 H 
ATOM      8  H   UNL     1     -45.706  38.933  30.868  1.00  0.00     0.086 H 
ATOM      9  H   UNL     1     -44.947  37.042  27.048  1.00  0.00     0.065 H 
ENDROOT
BRANCH   1  10
ATOM     10  C   UNL     1     -45.730  34.551  27.829  1.00  0.00     0.025 C 
ATOM     11  H   UNL     1     -44.816  34.509  27.220  1.00  0.00     0.048 H 
ATOM     12  H   UNL     1     -45.623  33.704  28.521  1.00  0.00     0.048 H 
BRANCH  10  13
ATOM     13  N   UNL     1     -46.857  34.356  26.920  1.00  0.00    -0.302 NA
BRANCH  13  14
ATOM     14  C   UNL     1     -46.656  34.690  25.522  1.00  0.00    -0.013 C 
ATOM     15  H   UNL     1     -47.388  34.179  24.888  1.00  0.00     0.039 H 
ATOM     16  H   UNL     1     -46.810  35.763  25.354  1.00  0.00     0.039 H 
ATOM     17  H   UNL     1     -45.650  34.440  25.169  1.00  0.00     0.039 H 
ENDBRANCH  13  14
BRANCH  13  18
ATOM     18  C   UNL     1     -48.179  34.661  27.447  1.00  0.00     0.001 C 
ATOM     19  H   UNL     1     -48.153  34.575  28.541  1.00  0.00     0.043 H 
ATOM     20  H   UNL     1     -48.882  33.882  27.125  1.00  0.00     0.043 H 
BRANCH  18  21
ATOM     21  C   UNL     1     -48.735  35.993  27.044  1.00  0.00    -0.029 C 
ATOM     22  C   UNL     1     -50.148  36.339  27.452  1.00  0.00    -0.049 C 
ATOM     23  C   UNL     1     -48.995  37.074  28.068  1.00  0.00    -0.049 C 
ATOM     24  H   UNL     1     -48.456  36.280  26.038  1.00  0.00     0.032 H 
ATOM     25  H   UNL     1     -50.697  35.642  28.075  1.00  0.00     0.027 H 
ATOM     26  H   UNL     1     -50.767  36.868  26.735  1.00  0.00     0.027 H 
ATOM     27  H   UNL     1     -48.763  36.872  29.109  1.00  0.00     0.027 H 
ATOM     28  H   UNL     1     -48.853  38.108  27.778  1.00  0.00     0.027 H 
ENDBRANCH  18  21
ENDBRANCH  13  18
ENDBRANCH  10  13
ENDBRANCH   1  10
BRANCH   5  29
ATOM     29  N   UNL     1     -44.754  39.447  28.323  1.00  0.00    -0.299 N 
ATOM     30  C   UNL     1     -45.342  40.130  27.271  1.00  0.00     0.021 A 
ATOM     31  C   UNL     1     -43.639  40.185  28.720  1.00  0.00     0.150 A 
ATOM     32  C   UNL     1     -44.619  41.272  26.996  1.00  0.00     0.033 A 
ATOM     33  H   UNL     1     -46.205  39.736  26.756  1.00  0.00     0.083 H 
ATOM     34  C   UNL     1     -43.547  41.332  27.929  1.00  0.00     0.071 A 
ATOM     35  N   UNL     1     -42.796  39.870  29.725  1.00  0.00    -0.218 NA
ATOM     36  C   UNL     1     -42.490  42.215  28.223  1.00  0.00     0.137 A 
ATOM     37  C   UNL     1     -41.821  40.772  29.891  1.00  0.00     0.120 A 
ATOM     38  N   UNL     1     -41.621  41.903  29.201  1.00  0.00    -0.219 NA
ATOM     39  H   UNL     1     -41.107  40.565  30.681  1.00  0.00     0.106 H 
BRANCH  32  40
ATOM     40  C   UNL     1     -44.902  42.228  25.921  1.00  0.00     0.095 A 
ATOM     41  C   UNL     1     -46.082  43.001  25.827  1.00  0.00    -0.016 A 
ATOM     42  N   UNL     1     -44.082  42.451  24.884  1.00  0.00    -0.173 NA
ATOM     43  C   UNL     1     -45.939  43.733  24.672  1.00  0.00     0.025 A 
ATOM     44  H   UNL     1     -46.920  43.031  26.509  1.00  0.00     0.066 H 
ATOM     45  N   UNL     1     -44.733  43.373  24.150  1.00  0.00    -0.275 N 
ATOM     46  H   UNL     1     -46.580  44.462  24.194  1.00  0.00     0.084 H 
BRANCH  45  47
ATOM     47  C   UNL     1     -44.129  43.872  22.938  1.00  0.00     0.030 C 
ATOM     48  H   UNL     1     -44.601  43.372  22.088  1.00  0.00     0.048 H 
ATOM     49  H   UNL     1     -44.293  44.951  22.889  1.00  0.00     0.048 H 
ATOM     50  H   UNL     1     -43.057  43.657  22.950  1.00  0.00     0.048 H 
ENDBRANCH  45  47
ENDBRANCH  32  40
BRANCH  36  51
ATOM     51  N   UNL     1     -42.273  43.415  27.562  1.00  0.00    -0.383 N 
ATOM     52  H   UNL     1     -42.276  43.292  26.558  1.00  0.00     0.158 HD
ATOM     53  H   UNL     1     -42.842  44.179  27.936  1.00  0.00     0.158 HD
ENDBRANCH  36  51
ENDBRANCH   5  29
TORSDOF 9
ENDMDL
