MODEL 1
REMARK VINA RESULT:      -8.7      0.000      0.000
REMARK SMILES Nc1ncnc2c1ncn2[C@@H]1O[C@H](C(=O)NCC2CCNCC2)[C@@H](O)[C@H]1O
REMARK SMILES IDX 11 1 12 2 13 3 24 4 26 5 10 10 2 11 3 12 7 13 4 14 6 15 8 16
REMARK SMILES IDX 5 17 9 19 1 21 27 24 14 26 15 27 16 28 17 30 18 33 19 34
REMARK SMILES IDX 23 35 20 37 22 40 21 43 25 49
REMARK H PARENT 11 6 13 7 24 8 26 9 4 18 9 20 1 22 1 23 27 25 16 29 17 31
REMARK H PARENT 17 32 18 36 19 38 19 39 23 41 23 42 20 44 20 45 22 46 22 47
REMARK H PARENT 21 48 25 50
REMARK Flexibility Score: inf
ROOT
ATOM      1  C   UNL     1     -47.594  28.957  23.102  1.00  0.00     0.166 C 
ATOM      2  O   UNL     1     -46.794  29.701  24.050  1.00  0.00    -0.339 OA
ATOM      3  C   UNL     1     -46.604  31.032  23.519  1.00  0.00     0.167 C 
ATOM      4  C   UNL     1     -46.977  30.979  22.046  1.00  0.00     0.120 C 
ATOM      5  C   UNL     1     -48.095  29.954  22.048  1.00  0.00     0.128 C 
ATOM      6  H   UNL     1     -46.963  28.176  22.662  1.00  0.00     0.088 H 
ATOM      7  H   UNL     1     -45.556  31.311  23.668  1.00  0.00     0.074 H 
ATOM      8  H   UNL     1     -47.270  31.934  21.603  1.00  0.00     0.066 H 
ATOM      9  H   UNL     1     -49.040  30.423  22.348  1.00  0.00     0.068 H 
ENDROOT
BRANCH   1  10
ATOM     10  N   UNL     1     -48.662  28.272  23.808  1.00  0.00    -0.285 N 
ATOM     11  C   UNL     1     -49.878  25.940  26.123  1.00  0.00     0.155 A 
ATOM     12  N   UNL     1     -48.749  25.323  26.541  1.00  0.00    -0.217 NA
ATOM     13  C   UNL     1     -49.769  26.959  25.162  1.00  0.00     0.150 A 
ATOM     14  C   UNL     1     -47.567  25.734  26.034  1.00  0.00     0.120 A 
ATOM     15  C   UNL     1     -48.489  27.269  24.727  1.00  0.00     0.167 A 
ATOM     16  N   UNL     1     -50.707  27.744  24.525  1.00  0.00    -0.231 NA
ATOM     17  N   UNL     1     -47.334  26.700  25.116  1.00  0.00    -0.216 NA
ATOM     18  H   UNL     1     -46.689  25.216  26.413  1.00  0.00     0.106 H 
ATOM     19  C   UNL     1     -50.005  28.531  23.735  1.00  0.00     0.099 A 
ATOM     20  H   UNL     1     -50.419  29.298  23.093  1.00  0.00     0.104 H 
BRANCH  11  21
ATOM     21  N   UNL     1     -51.091  25.520  26.653  1.00  0.00    -0.382 N 
ATOM     22  H   UNL     1     -51.439  26.121  27.390  1.00  0.00     0.158 HD
ATOM     23  H   UNL     1     -51.741  25.224  25.937  1.00  0.00     0.158 HD
ENDBRANCH  11  21
ENDBRANCH   1  10
BRANCH   5  24
ATOM     24  O   UNL     1     -48.248  29.391  20.743  1.00  0.00    -0.386 OA
ATOM     25  H   UNL     1     -47.479  29.705  20.218  1.00  0.00     0.211 HD
ENDBRANCH   5  24
BRANCH   3  26
ATOM     26  C   UNL     1     -47.481  32.025  24.294  1.00  0.00     0.252 C 
ATOM     27  O   UNL     1     -48.702  32.062  24.191  1.00  0.00    -0.272 OA
ATOM     28  N   UNL     1     -46.755  32.873  25.105  1.00  0.00    -0.353 N 
ATOM     29  H   UNL     1     -45.745  32.857  25.011  1.00  0.00     0.163 HD
BRANCH  28  30
ATOM     30  C   UNL     1     -47.377  33.947  25.857  1.00  0.00     0.020 C 
ATOM     31  H   UNL     1     -48.019  33.522  26.636  1.00  0.00     0.049 H 
ATOM     32  H   UNL     1     -48.023  34.477  25.149  1.00  0.00     0.049 H 
BRANCH  30  33
ATOM     33  C   UNL     1     -46.327  34.906  26.444  1.00  0.00    -0.021 C 
ATOM     34  C   UNL     1     -46.842  36.352  26.443  1.00  0.00    -0.036 C 
ATOM     35  C   UNL     1     -45.917  34.488  27.874  1.00  0.00    -0.036 C 
ATOM     36  H   UNL     1     -45.435  34.862  25.805  1.00  0.00     0.032 H 
ATOM     37  C   UNL     1     -47.979  36.570  27.444  1.00  0.00    -0.005 C 
ATOM     38  H   UNL     1     -46.006  37.018  26.700  1.00  0.00     0.028 H 
ATOM     39  H   UNL     1     -47.169  36.646  25.439  1.00  0.00     0.028 H 
ATOM     40  C   UNL     1     -46.482  35.406  28.961  1.00  0.00    -0.005 C 
ATOM     41  H   UNL     1     -44.823  34.500  27.951  1.00  0.00     0.028 H 
ATOM     42  H   UNL     1     -46.225  33.455  28.077  1.00  0.00     0.028 H 
ATOM     43  N   UNL     1     -47.861  35.767  28.660  1.00  0.00    -0.317 NA
ATOM     44  H   UNL     1     -48.016  37.634  27.707  1.00  0.00     0.043 H 
ATOM     45  H   UNL     1     -48.939  36.330  26.973  1.00  0.00     0.043 H 
ATOM     46  H   UNL     1     -46.443  34.882  29.924  1.00  0.00     0.043 H 
ATOM     47  H   UNL     1     -45.865  36.307  29.071  1.00  0.00     0.043 H 
ATOM     48  H   UNL     1     -48.279  36.264  29.446  1.00  0.00     0.122 HD
ENDBRANCH  30  33
ENDBRANCH  28  30
ENDBRANCH   3  26
BRANCH   4  49
ATOM     49  O   UNL     1     -45.874  30.475  21.273  1.00  0.00    -0.387 OA
ATOM     50  H   UNL     1     -46.137  30.616  20.339  1.00  0.00     0.211 HD
ENDBRANCH   4  49
TORSDOF 7
ENDMDL
MODEL 2
REMARK VINA RESULT:      -8.4      5.186     11.310
REMARK SMILES Nc1ncnc2c1ncn2[C@@H]1O[C@H](C(=O)NCC2CCNCC2)[C@@H](O)[C@H]1O
REMARK SMILES IDX 11 1 12 2 13 3 24 4 26 5 10 10 2 11 3 12 7 13 4 14 6 15 8 16
REMARK SMILES IDX 5 17 9 19 1 21 27 24 14 26 15 27 16 28 17 30 18 33 19 34
REMARK SMILES IDX 23 35 20 37 22 40 21 43 25 49
REMARK H PARENT 11 6 13 7 24 8 26 9 4 18 9 20 1 22 1 23 27 25 16 29 17 31
REMARK H PARENT 17 32 18 36 19 38 19 39 23 41 23 42 20 44 20 45 22 46 22 47
REMARK H PARENT 21 48 25 50
REMARK Flexibility Score: inf
ROOT
ATOM      1  C   UNL     1     -45.046  38.346  28.661  1.00  0.00     0.166 C 
ATOM      2  O   UNL     1     -44.505  37.121  28.113  1.00  0.00    -0.339 OA
ATOM      3  C   UNL     1     -45.466  36.069  28.353  1.00  0.00     0.167 C 
ATOM      4  C   UNL     1     -46.440  36.587  29.399  1.00  0.00     0.120 C 
ATOM      5  C   UNL     1     -46.502  38.063  29.058  1.00  0.00     0.128 C 
ATOM      6  H   UNL     1     -44.434  38.635  29.523  1.00  0.00     0.088 H 
ATOM      7  H   UNL     1     -44.922  35.184  28.700  1.00  0.00     0.074 H 
ATOM      8  H   UNL     1     -47.421  36.105  29.403  1.00  0.00     0.066 H 
ATOM      9  H   UNL     1     -47.192  38.232  28.223  1.00  0.00     0.068 H 
ENDROOT
BRANCH   1  10
ATOM     10  N   UNL     1     -44.907  39.412  27.684  1.00  0.00    -0.285 N 
ATOM     11  C   UNL     1     -43.359  42.277  26.392  1.00  0.00     0.155 A 
ATOM     12  N   UNL     1     -42.430  42.560  27.334  1.00  0.00    -0.217 NA
ATOM     13  C   UNL     1     -44.192  41.162  26.586  1.00  0.00     0.150 A 
ATOM     14  C   UNL     1     -42.329  41.743  28.403  1.00  0.00     0.120 A 
ATOM     15  C   UNL     1     -43.978  40.419  27.736  1.00  0.00     0.167 A 
ATOM     16  N   UNL     1     -45.229  40.634  25.846  1.00  0.00    -0.231 NA
ATOM     17  N   UNL     1     -43.064  40.645  28.697  1.00  0.00    -0.216 NA
ATOM     18  H   UNL     1     -41.558  42.005  29.123  1.00  0.00     0.106 H 
ATOM     19  C   UNL     1     -45.620  39.576  26.526  1.00  0.00     0.099 A 
ATOM     20  H   UNL     1     -46.412  38.900  26.226  1.00  0.00     0.104 H 
BRANCH  11  21
ATOM     21  N   UNL     1     -43.453  43.115  25.289  1.00  0.00    -0.382 N 
ATOM     22  H   UNL     1     -43.840  44.026  25.506  1.00  0.00     0.158 HD
ATOM     23  H   UNL     1     -42.626  43.078  24.707  1.00  0.00     0.158 HD
ENDBRANCH  11  21
ENDBRANCH   1  10
BRANCH   5  24
ATOM     24  O   UNL     1     -46.951  38.811  30.190  1.00  0.00    -0.386 OA
ATOM     25  H   UNL     1     -46.315  38.619  30.914  1.00  0.00     0.211 HD
ENDBRANCH   5  24
BRANCH   3  26
ATOM     26  C   UNL     1     -46.176  35.712  27.039  1.00  0.00     0.252 C 
ATOM     27  O   UNL     1     -46.925  36.484  26.452  1.00  0.00    -0.272 OA
ATOM     28  N   UNL     1     -45.892  34.435  26.598  1.00  0.00    -0.353 N 
ATOM     29  H   UNL     1     -45.377  33.828  27.227  1.00  0.00     0.163 HD
BRANCH  28  30
ATOM     30  C   UNL     1     -46.527  33.862  25.426  1.00  0.00     0.020 C 
ATOM     31  H   UNL     1     -46.044  34.253  24.524  1.00  0.00     0.049 H 
ATOM     32  H   UNL     1     -47.560  34.226  25.432  1.00  0.00     0.049 H 
BRANCH  30  33
ATOM     33  C   UNL     1     -46.502  32.324  25.466  1.00  0.00    -0.021 C 
ATOM     34  C   UNL     1     -47.778  31.771  26.113  1.00  0.00    -0.036 C 
ATOM     35  C   UNL     1     -46.317  31.725  24.054  1.00  0.00    -0.036 C 
ATOM     36  H   UNL     1     -45.646  32.017  26.083  1.00  0.00     0.032 H 
ATOM     37  C   UNL     1     -49.018  31.986  25.241  1.00  0.00    -0.005 C 
ATOM     38  H   UNL     1     -47.643  30.693  26.283  1.00  0.00     0.028 H 
ATOM     39  H   UNL     1     -47.937  32.217  27.102  1.00  0.00     0.028 H 
ATOM     40  C   UNL     1     -47.592  31.088  23.493  1.00  0.00    -0.005 C 
ATOM     41  H   UNL     1     -45.538  30.954  24.090  1.00  0.00     0.028 H 
ATOM     42  H   UNL     1     -45.958  32.490  23.355  1.00  0.00     0.028 H 
ATOM     43  N   UNL     1     -48.754  31.908  23.805  1.00  0.00    -0.317 NA
ATOM     44  H   UNL     1     -49.775  31.243  25.518  1.00  0.00     0.043 H 
ATOM     45  H   UNL     1     -49.453  32.969  25.453  1.00  0.00     0.043 H 
ATOM     46  H   UNL     1     -47.492  30.993  22.405  1.00  0.00     0.043 H 
ATOM     47  H   UNL     1     -47.724  30.071  23.883  1.00  0.00     0.043 H 
ATOM     48  H   UNL     1     -49.579  31.558  23.319  1.00  0.00     0.122 HD
ENDBRANCH  30  33
ENDBRANCH  28  30
ENDBRANCH   3  26
BRANCH   4  49
ATOM     49  O   UNL     1     -45.885  36.428  30.715  1.00  0.00    -0.387 OA
ATOM     50  H   UNL     1     -45.187  37.114  30.778  1.00  0.00     0.211 HD
ENDBRANCH   4  49
TORSDOF 7
ENDMDL
MODEL 3
REMARK VINA RESULT:      -8.3      8.258     11.738
REMARK SMILES Nc1ncnc2c1ncn2[C@@H]1O[C@H](C(=O)NCC2CCNCC2)[C@@H](O)[C@H]1O
REMARK SMILES IDX 11 1 12 2 13 3 24 4 26 5 10 10 2 11 3 12 7 13 4 14 6 15 8 16
REMARK SMILES IDX 5 17 9 19 1 21 27 24 14 26 15 27 16 28 17 30 18 33 19 34
REMARK SMILES IDX 23 35 20 37 22 40 21 43 25 49
REMARK H PARENT 11 6 13 7 24 8 26 9 4 18 9 20 1 22 1 23 27 25 16 29 17 31
REMARK H PARENT 17 32 18 36 19 38 19 39 23 41 23 42 20 44 20 45 22 46 22 47
REMARK H PARENT 21 48 25 50
REMARK Flexibility Score: inf
ROOT
ATOM      1  C   UNL     1     -44.902  37.949  29.273  1.00  0.00     0.166 C 
ATOM      2  O   UNL     1     -45.215  36.986  28.239  1.00  0.00    -0.339 OA
ATOM      3  C   UNL     1     -46.460  36.345  28.595  1.00  0.00     0.167 C 
ATOM      4  C   UNL     1     -46.715  36.655  30.062  1.00  0.00     0.120 C 
ATOM      5  C   UNL     1     -46.130  38.048  30.188  1.00  0.00     0.128 C 
ATOM      6  H   UNL     1     -44.015  37.595  29.812  1.00  0.00     0.088 H 
ATOM      7  H   UNL     1     -46.353  35.270  28.414  1.00  0.00     0.074 H 
ATOM      8  H   UNL     1     -47.760  36.596  30.377  1.00  0.00     0.066 H 
ATOM      9  H   UNL     1     -46.847  38.796  29.829  1.00  0.00     0.068 H 
ENDROOT
BRANCH   1  10
ATOM     10  N   UNL     1     -44.532  39.212  28.658  1.00  0.00    -0.285 N 
ATOM     11  C   UNL     1     -42.486  42.035  28.319  1.00  0.00     0.155 A 
ATOM     12  N   UNL     1     -41.604  41.883  29.334  1.00  0.00    -0.217 NA
ATOM     13  C   UNL     1     -43.485  41.062  28.148  1.00  0.00     0.150 A 
ATOM     14  C   UNL     1     -41.710  40.790  30.119  1.00  0.00     0.120 A 
ATOM     15  C   UNL     1     -43.474  39.997  29.036  1.00  0.00     0.167 A 
ATOM     16  N   UNL     1     -44.525  40.942  27.251  1.00  0.00    -0.231 NA
ATOM     17  N   UNL     1     -42.617  39.789  30.052  1.00  0.00    -0.216 NA
ATOM     18  H   UNL     1     -40.969  40.708  30.911  1.00  0.00     0.106 H 
ATOM     19  C   UNL     1     -45.119  39.812  27.576  1.00  0.00     0.099 A 
ATOM     20  H   UNL     1     -45.973  39.387  27.063  1.00  0.00     0.104 H 
BRANCH  11  21
ATOM     21  N   UNL     1     -42.369  43.157  27.509  1.00  0.00    -0.382 N 
ATOM     22  H   UNL     1     -42.091  43.991  28.012  1.00  0.00     0.158 HD
ATOM     23  H   UNL     1     -41.900  42.952  26.636  1.00  0.00     0.158 HD
ENDBRANCH  11  21
ENDBRANCH   1  10
BRANCH   5  24
ATOM     24  O   UNL     1     -45.815  38.327  31.555  1.00  0.00    -0.386 OA
ATOM     25  H   UNL     1     -45.335  37.538  31.890  1.00  0.00     0.211 HD
ENDBRANCH   5  24
BRANCH   3  26
ATOM     26  C   UNL     1     -47.587  36.874  27.697  1.00  0.00     0.252 C 
ATOM     27  O   UNL     1     -47.653  36.636  26.496  1.00  0.00    -0.272 OA
ATOM     28  N   UNL     1     -48.505  37.648  28.376  1.00  0.00    -0.353 N 
ATOM     29  H   UNL     1     -48.283  37.903  29.333  1.00  0.00     0.163 HD
BRANCH  28  30
ATOM     30  C   UNL     1     -49.600  38.322  27.702  1.00  0.00     0.020 C 
ATOM     31  H   UNL     1     -50.418  37.612  27.540  1.00  0.00     0.049 H 
ATOM     32  H   UNL     1     -49.216  38.614  26.719  1.00  0.00     0.049 H 
BRANCH  30  33
ATOM     33  C   UNL     1     -50.066  39.562  28.485  1.00  0.00    -0.021 C 
ATOM     34  C   UNL     1     -48.903  40.538  28.710  1.00  0.00    -0.036 C 
ATOM     35  C   UNL     1     -51.231  40.278  27.765  1.00  0.00    -0.036 C 
ATOM     36  H   UNL     1     -50.424  39.226  29.467  1.00  0.00     0.032 H 
ATOM     37  C   UNL     1     -48.441  41.209  27.414  1.00  0.00    -0.005 C 
ATOM     38  H   UNL     1     -49.233  41.313  29.416  1.00  0.00     0.028 H 
ATOM     39  H   UNL     1     -48.058  40.030  29.188  1.00  0.00     0.028 H 
ATOM     40  C   UNL     1     -50.819  41.596  27.104  1.00  0.00    -0.005 C 
ATOM     41  H   UNL     1     -52.023  40.494  28.493  1.00  0.00     0.028 H 
ATOM     42  H   UNL     1     -51.681  39.621  27.012  1.00  0.00     0.028 H 
ATOM     43  N   UNL     1     -49.520  41.461  26.459  1.00  0.00    -0.317 NA
ATOM     44  H   UNL     1     -47.944  42.153  27.665  1.00  0.00     0.043 H 
ATOM     45  H   UNL     1     -47.691  40.582  26.919  1.00  0.00     0.043 H 
ATOM     46  H   UNL     1     -51.573  41.869  26.356  1.00  0.00     0.043 H 
ATOM     47  H   UNL     1     -50.799  42.412  27.838  1.00  0.00     0.043 H 
ATOM     48  H   UNL     1     -49.307  42.291  25.907  1.00  0.00     0.122 HD
ENDBRANCH  30  33
ENDBRANCH  28  30
ENDBRANCH   3  26
BRANCH   4  49
ATOM     49  O   UNL     1     -45.970  35.751  30.896  1.00  0.00    -0.387 OA
ATOM     50  H   UNL     1     -45.990  36.158  31.788  1.00  0.00     0.211 HD
ENDBRANCH   4  49
TORSDOF 7
ENDMDL
MODEL 4
REMARK VINA RESULT:      -8.2      1.626      2.231
REMARK SMILES Nc1ncnc2c1ncn2[C@@H]1O[C@H](C(=O)NCC2CCNCC2)[C@@H](O)[C@H]1O
REMARK SMILES IDX 11 1 12 2 13 3 24 4 26 5 10 10 2 11 3 12 7 13 4 14 6 15 8 16
REMARK SMILES IDX 5 17 9 19 1 21 27 24 14 26 15 27 16 28 17 30 18 33 19 34
REMARK SMILES IDX 23 35 20 37 22 40 21 43 25 49
REMARK H PARENT 11 6 13 7 24 8 26 9 4 18 9 20 1 22 1 23 27 25 16 29 17 31
REMARK H PARENT 17 32 18 36 19 38 19 39 23 41 23 42 20 44 20 45 22 46 22 47
REMARK H PARENT 21 48 25 50
REMARK Flexibility Score: inf
ROOT
ATOM      1  C   UNL     1     -49.157  29.431  23.681  1.00  0.00     0.166 C 
ATOM      2  O   UNL     1     -47.971  30.252  23.784  1.00  0.00    -0.339 OA
ATOM      3  C   UNL     1     -48.397  31.622  23.966  1.00  0.00     0.167 C 
ATOM      4  C   UNL     1     -49.868  31.683  23.589  1.00  0.00     0.120 C 
ATOM      5  C   UNL     1     -50.358  30.318  24.036  1.00  0.00     0.128 C 
ATOM      6  H   UNL     1     -49.219  29.048  22.656  1.00  0.00     0.088 H 
ATOM      7  H   UNL     1     -47.780  32.258  23.323  1.00  0.00     0.074 H 
ATOM      8  H   UNL     1     -50.431  32.508  24.032  1.00  0.00     0.066 H 
ATOM      9  H   UNL     1     -50.557  30.321  25.115  1.00  0.00     0.068 H 
ENDROOT
BRANCH   1  10
ATOM     10  N   UNL     1     -49.016  28.272  24.544  1.00  0.00    -0.285 N 
ATOM     11  C   UNL     1     -47.210  25.593  25.900  1.00  0.00     0.155 A 
ATOM     12  N   UNL     1     -46.044  25.647  25.215  1.00  0.00    -0.217 NA
ATOM     13  C   UNL     1     -48.203  26.542  25.607  1.00  0.00     0.150 A 
ATOM     14  C   UNL     1     -45.881  26.626  24.300  1.00  0.00     0.120 A 
ATOM     15  C   UNL     1     -47.897  27.485  24.638  1.00  0.00     0.167 A 
ATOM     16  N   UNL     1     -49.479  26.736  26.094  1.00  0.00    -0.231 NA
ATOM     17  N   UNL     1     -46.754  27.593  23.936  1.00  0.00    -0.216 NA
ATOM     18  H   UNL     1     -44.922  26.635  23.788  1.00  0.00     0.106 H 
ATOM     19  C   UNL     1     -49.927  27.793  25.448  1.00  0.00     0.099 A 
ATOM     20  H   UNL     1     -50.900  28.247  25.594  1.00  0.00     0.104 H 
BRANCH  11  21
ATOM     21  N   UNL     1     -47.370  24.589  26.845  1.00  0.00    -0.382 N 
ATOM     22  H   UNL     1     -47.009  24.833  27.760  1.00  0.00     0.158 HD
ATOM     23  H   UNL     1     -48.285  24.159  26.797  1.00  0.00     0.158 HD
ENDBRANCH  11  21
ENDBRANCH   1  10
BRANCH   5  24
ATOM     24  O   UNL     1     -51.560  29.976  23.342  1.00  0.00    -0.386 OA
ATOM     25  H   UNL     1     -51.302  29.829  22.406  1.00  0.00     0.211 HD
ENDBRANCH   5  24
BRANCH   3  26
ATOM     26  C   UNL     1     -48.165  32.043  25.425  1.00  0.00     0.252 C 
ATOM     27  O   UNL     1     -48.293  31.275  26.372  1.00  0.00    -0.272 OA
ATOM     28  N   UNL     1     -47.807  33.369  25.556  1.00  0.00    -0.353 N 
ATOM     29  H   UNL     1     -47.867  33.953  24.729  1.00  0.00     0.163 HD
BRANCH  28  30
ATOM     30  C   UNL     1     -47.628  33.998  26.852  1.00  0.00     0.020 C 
ATOM     31  H   UNL     1     -47.190  33.275  27.549  1.00  0.00     0.049 H 
ATOM     32  H   UNL     1     -48.633  34.239  27.213  1.00  0.00     0.049 H 
BRANCH  30  33
ATOM     33  C   UNL     1     -46.777  35.276  26.746  1.00  0.00    -0.021 C 
ATOM     34  C   UNL     1     -47.648  36.529  26.901  1.00  0.00    -0.036 C 
ATOM     35  C   UNL     1     -45.639  35.284  27.790  1.00  0.00    -0.036 C 
ATOM     36  H   UNL     1     -46.324  35.297  25.745  1.00  0.00     0.032 H 
ATOM     37  C   UNL     1     -48.187  36.696  28.324  1.00  0.00    -0.005 C 
ATOM     38  H   UNL     1     -47.040  37.408  26.643  1.00  0.00     0.028 H 
ATOM     39  H   UNL     1     -48.480  36.514  26.187  1.00  0.00     0.028 H 
ATOM     40  C   UNL     1     -45.879  36.264  28.942  1.00  0.00    -0.005 C 
ATOM     41  H   UNL     1     -44.700  35.562  27.295  1.00  0.00     0.028 H 
ATOM     42  H   UNL     1     -45.482  34.279  28.198  1.00  0.00     0.028 H 
ATOM     43  N   UNL     1     -47.272  36.227  29.364  1.00  0.00    -0.317 NA
ATOM     44  H   UNL     1     -48.421  37.754  28.489  1.00  0.00     0.043 H 
ATOM     45  H   UNL     1     -49.129  36.147  28.430  1.00  0.00     0.043 H 
ATOM     46  H   UNL     1     -45.233  35.987  29.784  1.00  0.00     0.043 H 
ATOM     47  H   UNL     1     -45.592  37.284  28.653  1.00  0.00     0.043 H 
ATOM     48  H   UNL     1     -47.403  36.775  30.214  1.00  0.00     0.122 HD
ENDBRANCH  30  33
ENDBRANCH  28  30
ENDBRANCH   3  26
BRANCH   4  49
ATOM     49  O   UNL     1     -50.010  31.791  22.162  1.00  0.00    -0.387 OA
ATOM     50  H   UNL     1     -50.965  31.648  21.993  1.00  0.00     0.211 HD
ENDBRANCH   4  49
TORSDOF 7
ENDMDL
MODEL 5
REMARK VINA RESULT:      -8.0      6.403      9.782
REMARK SMILES Nc1ncnc2c1ncn2[C@@H]1O[C@H](C(=O)NCC2CCNCC2)[C@@H](O)[C@H]1O
REMARK SMILES IDX 11 1 12 2 13 3 24 4 26 5 10 10 2 11 3 12 7 13 4 14 6 15 8 16
REMARK SMILES IDX 5 17 9 19 1 21 27 24 14 26 15 27 16 28 17 30 18 33 19 34
REMARK SMILES IDX 23 35 20 37 22 40 21 43 25 49
REMARK H PARENT 11 6 13 7 24 8 26 9 4 18 9 20 1 22 1 23 27 25 16 29 17 31
REMARK H PARENT 17 32 18 36 19 38 19 39 23 41 23 42 20 44 20 45 22 46 22 47
REMARK H PARENT 21 48 25 50
REMARK Flexibility Score: inf
ROOT
ATOM      1  C   UNL     1     -47.623  38.302  27.347  1.00  0.00     0.166 C 
ATOM      2  O   UNL     1     -46.693  38.705  26.315  1.00  0.00    -0.339 OA
ATOM      3  C   UNL     1     -46.444  40.120  26.472  1.00  0.00     0.167 C 
ATOM      4  C   UNL     1     -47.534  40.664  27.382  1.00  0.00     0.120 C 
ATOM      5  C   UNL     1     -47.775  39.488  28.310  1.00  0.00     0.128 C 
ATOM      6  H   UNL     1     -48.573  38.039  26.867  1.00  0.00     0.088 H 
ATOM      7  H   UNL     1     -46.468  40.582  25.480  1.00  0.00     0.074 H 
ATOM      8  H   UNL     1     -47.283  41.586  27.913  1.00  0.00     0.066 H 
ATOM      9  H   UNL     1     -47.019  39.468  29.103  1.00  0.00     0.068 H 
ENDROOT
BRANCH   1  10
ATOM     10  N   UNL     1     -47.137  37.093  27.987  1.00  0.00    -0.285 N 
ATOM     11  C   UNL     1     -46.046  33.764  27.947  1.00  0.00     0.155 A 
ATOM     12  N   UNL     1     -46.216  33.414  26.651  1.00  0.00    -0.217 NA
ATOM     13  C   UNL     1     -46.395  35.067  28.340  1.00  0.00     0.150 A 
ATOM     14  C   UNL     1     -46.688  34.341  25.791  1.00  0.00     0.120 A 
ATOM     15  C   UNL     1     -46.874  35.909  27.349  1.00  0.00     0.167 A 
ATOM     16  N   UNL     1     -46.369  35.710  29.560  1.00  0.00    -0.231 NA
ATOM     17  N   UNL     1     -47.051  35.619  26.046  1.00  0.00    -0.216 NA
ATOM     18  H   UNL     1     -46.793  34.015  24.760  1.00  0.00     0.106 H 
ATOM     19  C   UNL     1     -46.803  36.928  29.305  1.00  0.00     0.099 A 
ATOM     20  H   UNL     1     -46.895  37.721  30.036  1.00  0.00     0.104 H 
BRANCH  11  21
ATOM     21  N   UNL     1     -45.553  32.809  28.826  1.00  0.00    -0.382 N 
ATOM     22  H   UNL     1     -44.541  32.787  28.872  1.00  0.00     0.158 HD
ATOM     23  H   UNL     1     -46.067  32.787  29.697  1.00  0.00     0.158 HD
ENDBRANCH  11  21
ENDBRANCH   1  10
BRANCH   5  24
ATOM     24  O   UNL     1     -49.071  39.590  28.906  1.00  0.00    -0.386 OA
ATOM     25  H   UNL     1     -49.037  40.373  29.498  1.00  0.00     0.211 HD
ENDBRANCH   5  24
BRANCH   3  26
ATOM     26  C   UNL     1     -45.045  40.333  27.068  1.00  0.00     0.252 C 
ATOM     27  O   UNL     1     -44.687  39.837  28.131  1.00  0.00    -0.272 OA
ATOM     28  N   UNL     1     -44.242  41.143  26.292  1.00  0.00    -0.353 N 
ATOM     29  H   UNL     1     -44.677  41.618  25.508  1.00  0.00     0.163 HD
BRANCH  28  30
ATOM     30  C   UNL     1     -42.913  41.547  26.713  1.00  0.00     0.020 C 
ATOM     31  H   UNL     1     -42.166  41.057  26.079  1.00  0.00     0.049 H 
ATOM     32  H   UNL     1     -42.787  41.162  27.730  1.00  0.00     0.049 H 
BRANCH  30  33
ATOM     33  C   UNL     1     -42.758  43.078  26.697  1.00  0.00    -0.021 C 
ATOM     34  C   UNL     1     -42.023  43.543  25.433  1.00  0.00    -0.036 C 
ATOM     35  C   UNL     1     -44.127  43.785  26.809  1.00  0.00    -0.036 C 
ATOM     36  H   UNL     1     -42.152  43.365  27.568  1.00  0.00     0.032 H 
ATOM     37  C   UNL     1     -42.861  43.356  24.166  1.00  0.00    -0.005 C 
ATOM     38  H   UNL     1     -41.778  44.609  25.546  1.00  0.00     0.028 H 
ATOM     39  H   UNL     1     -41.066  43.020  25.326  1.00  0.00     0.028 H 
ATOM     40  C   UNL     1     -44.590  44.424  25.496  1.00  0.00    -0.005 C 
ATOM     41  H   UNL     1     -44.062  44.575  27.568  1.00  0.00     0.028 H 
ATOM     42  H   UNL     1     -44.894  43.086  27.161  1.00  0.00     0.028 H 
ATOM     43  N   UNL     1     -44.296  43.548  24.370  1.00  0.00    -0.317 NA
ATOM     44  H   UNL     1     -42.501  44.054  23.400  1.00  0.00     0.043 H 
ATOM     45  H   UNL     1     -42.709  42.347  23.766  1.00  0.00     0.043 H 
ATOM     46  H   UNL     1     -45.670  44.602  25.550  1.00  0.00     0.043 H 
ATOM     47  H   UNL     1     -44.119  45.405  25.352  1.00  0.00     0.043 H 
ATOM     48  H   UNL     1     -44.723  43.908  23.517  1.00  0.00     0.122 HD
ENDBRANCH  30  33
ENDBRANCH  28  30
ENDBRANCH   3  26
BRANCH   4  49
ATOM     49  O   UNL     1     -48.728  40.922  26.625  1.00  0.00    -0.387 OA
ATOM     50  H   UNL     1     -49.284  40.124  26.753  1.00  0.00     0.211 HD
ENDBRANCH   4  49
TORSDOF 7
ENDMDL
MODEL 6
REMARK VINA RESULT:      -7.9      4.489     10.718
REMARK SMILES Nc1ncnc2c1ncn2[C@@H]1O[C@H](C(=O)NCC2CCNCC2)[C@@H](O)[C@H]1O
REMARK SMILES IDX 11 1 12 2 13 3 24 4 26 5 10 10 2 11 3 12 7 13 4 14 6 15 8 16
REMARK SMILES IDX 5 17 9 19 1 21 27 24 14 26 15 27 16 28 17 30 18 33 19 34
REMARK SMILES IDX 23 35 20 37 22 40 21 43 25 49
REMARK H PARENT 11 6 13 7 24 8 26 9 4 18 9 20 1 22 1 23 27 25 16 29 17 31
REMARK H PARENT 17 32 18 36 19 38 19 39 23 41 23 42 20 44 20 45 22 46 22 47
REMARK H PARENT 21 48 25 50
REMARK Flexibility Score: inf
ROOT
ATOM      1  C   UNL     1     -46.862  37.895  29.154  1.00  0.00     0.166 C 
ATOM      2  O   UNL     1     -46.593  36.505  29.449  1.00  0.00    -0.339 OA
ATOM      3  C   UNL     1     -47.410  35.701  28.568  1.00  0.00     0.167 C 
ATOM      4  C   UNL     1     -48.473  36.619  27.988  1.00  0.00     0.120 C 
ATOM      5  C   UNL     1     -47.722  37.933  27.883  1.00  0.00     0.128 C 
ATOM      6  H   UNL     1     -47.381  38.332  30.014  1.00  0.00     0.088 H 
ATOM      7  H   UNL     1     -47.846  34.887  29.157  1.00  0.00     0.074 H 
ATOM      8  H   UNL     1     -48.905  36.293  27.038  1.00  0.00     0.066 H 
ATOM      9  H   UNL     1     -47.107  37.947  26.975  1.00  0.00     0.068 H 
ENDROOT
BRANCH   1  10
ATOM     10  N   UNL     1     -45.605  38.611  29.026  1.00  0.00    -0.285 N 
ATOM     11  C   UNL     1     -43.506  40.988  27.536  1.00  0.00     0.155 A 
ATOM     12  N   UNL     1     -44.256  41.438  26.504  1.00  0.00    -0.217 NA
ATOM     13  C   UNL     1     -44.043  39.995  28.373  1.00  0.00     0.150 A 
ATOM     14  C   UNL     1     -45.497  40.930  26.342  1.00  0.00     0.120 A 
ATOM     15  C   UNL     1     -45.328  39.564  28.080  1.00  0.00     0.167 A 
ATOM     16  N   UNL     1     -43.537  39.323  29.465  1.00  0.00    -0.231 NA
ATOM     17  N   UNL     1     -46.123  39.984  27.078  1.00  0.00    -0.216 NA
ATOM     18  H   UNL     1     -46.064  41.335  25.508  1.00  0.00     0.106 H 
ATOM     19  C   UNL     1     -44.508  38.515  29.841  1.00  0.00     0.099 A 
ATOM     20  H   UNL     1     -44.467  37.844  30.690  1.00  0.00     0.104 H 
BRANCH  11  21
ATOM     21  N   UNL     1     -42.234  41.518  27.704  1.00  0.00    -0.382 N 
ATOM     22  H   UNL     1     -42.067  42.351  27.152  1.00  0.00     0.158 HD
ATOM     23  H   UNL     1     -41.947  41.529  28.674  1.00  0.00     0.158 HD
ENDBRANCH  11  21
ENDBRANCH   1  10
BRANCH   5  24
ATOM     24  O   UNL     1     -48.644  39.024  27.837  1.00  0.00    -0.386 OA
ATOM     25  H   UNL     1     -48.340  39.666  28.516  1.00  0.00     0.211 HD
ENDBRANCH   5  24
BRANCH   3  26
ATOM     26  C   UNL     1     -46.530  35.083  27.472  1.00  0.00     0.252 C 
ATOM     27  O   UNL     1     -45.306  35.146  27.481  1.00  0.00    -0.272 OA
ATOM     28  N   UNL     1     -47.258  34.461  26.478  1.00  0.00    -0.353 N 
ATOM     29  H   UNL     1     -48.265  34.588  26.488  1.00  0.00     0.163 HD
BRANCH  28  30
ATOM     30  C   UNL     1     -46.631  33.890  25.301  1.00  0.00     0.020 C 
ATOM     31  H   UNL     1     -45.654  34.360  25.145  1.00  0.00     0.049 H 
ATOM     32  H   UNL     1     -47.268  34.165  24.454  1.00  0.00     0.049 H 
BRANCH  30  33
ATOM     33  C   UNL     1     -46.517  32.359  25.409  1.00  0.00    -0.021 C 
ATOM     34  C   UNL     1     -47.785  31.757  26.026  1.00  0.00    -0.036 C 
ATOM     35  C   UNL     1     -46.235  31.716  24.033  1.00  0.00    -0.036 C 
ATOM     36  H   UNL     1     -45.673  32.130  26.074  1.00  0.00     0.032 H 
ATOM     37  C   UNL     1     -48.996  31.860  25.094  1.00  0.00    -0.005 C 
ATOM     38  H   UNL     1     -47.594  30.697  26.247  1.00  0.00     0.028 H 
ATOM     39  H   UNL     1     -48.014  32.233  26.986  1.00  0.00     0.028 H 
ATOM     40  C   UNL     1     -47.444  30.980  23.448  1.00  0.00    -0.005 C 
ATOM     41  H   UNL     1     -45.413  30.996  24.135  1.00  0.00     0.028 H 
ATOM     42  H   UNL     1     -45.891  32.471  23.317  1.00  0.00     0.028 H 
ATOM     43  N   UNL     1     -48.665  31.740  23.675  1.00  0.00    -0.317 NA
ATOM     44  H   UNL     1     -49.720  31.084  25.371  1.00  0.00     0.043 H 
ATOM     45  H   UNL     1     -49.498  32.823  25.244  1.00  0.00     0.043 H 
ATOM     46  H   UNL     1     -47.291  30.846  22.370  1.00  0.00     0.043 H 
ATOM     47  H   UNL     1     -47.533  29.973  23.876  1.00  0.00     0.043 H 
ATOM     48  H   UNL     1     -49.446  31.320  23.171  1.00  0.00     0.122 HD
ENDBRANCH  30  33
ENDBRANCH  28  30
ENDBRANCH   3  26
BRANCH   4  49
ATOM     49  O   UNL     1     -49.560  36.769  28.917  1.00  0.00    -0.387 OA
ATOM     50  H   UNL     1     -49.173  36.557  29.793  1.00  0.00     0.211 HD
ENDBRANCH   4  49
TORSDOF 7
ENDMDL
MODEL 7
REMARK VINA RESULT:      -7.9      8.575     14.135
REMARK SMILES Nc1ncnc2c1ncn2[C@@H]1O[C@H](C(=O)NCC2CCNCC2)[C@@H](O)[C@H]1O
REMARK SMILES IDX 11 1 12 2 13 3 24 4 26 5 10 10 2 11 3 12 7 13 4 14 6 15 8 16
REMARK SMILES IDX 5 17 9 19 1 21 27 24 14 26 15 27 16 28 17 30 18 33 19 34
REMARK SMILES IDX 23 35 20 37 22 40 21 43 25 49
REMARK H PARENT 11 6 13 7 24 8 26 9 4 18 9 20 1 22 1 23 27 25 16 29 17 31
REMARK H PARENT 17 32 18 36 19 38 19 39 23 41 23 42 20 44 20 45 22 46 22 47
REMARK H PARENT 21 48 25 50
REMARK Flexibility Score: inf
ROOT
ATOM      1  C   UNL     1     -42.543  43.190  26.653  1.00  0.00     0.166 C 
ATOM      2  O   UNL     1     -42.417  41.812  26.231  1.00  0.00    -0.339 OA
ATOM      3  C   UNL     1     -42.750  40.973  27.361  1.00  0.00     0.167 C 
ATOM      4  C   UNL     1     -42.711  41.858  28.597  1.00  0.00     0.120 C 
ATOM      5  C   UNL     1     -43.194  43.184  28.042  1.00  0.00     0.128 C 
ATOM      6  H   UNL     1     -41.541  43.634  26.671  1.00  0.00     0.088 H 
ATOM      7  H   UNL     1     -42.015  40.163  27.411  1.00  0.00     0.074 H 
ATOM      8  H   UNL     1     -43.303  41.503  29.444  1.00  0.00     0.066 H 
ATOM      9  H   UNL     1     -44.289  43.193  27.979  1.00  0.00     0.068 H 
ENDROOT
BRANCH   1  10
ATOM     10  N   UNL     1     -43.302  43.930  25.659  1.00  0.00    -0.285 N 
ATOM     11  C   UNL     1     -43.855  45.128  22.414  1.00  0.00     0.155 A 
ATOM     12  N   UNL     1     -42.745  44.721  21.756  1.00  0.00    -0.217 NA
ATOM     13  C   UNL     1     -43.977  44.817  23.779  1.00  0.00     0.150 A 
ATOM     14  C   UNL     1     -41.818  44.014  22.436  1.00  0.00     0.120 A 
ATOM     15  C   UNL     1     -42.942  44.091  24.346  1.00  0.00     0.167 A 
ATOM     16  N   UNL     1     -44.947  45.104  24.717  1.00  0.00    -0.231 NA
ATOM     17  N   UNL     1     -41.824  43.650  23.739  1.00  0.00    -0.216 NA
ATOM     18  H   UNL     1     -40.953  43.698  21.859  1.00  0.00     0.106 H 
ATOM     19  C   UNL     1     -44.516  44.540  25.826  1.00  0.00     0.099 A 
ATOM     20  H   UNL     1     -45.042  44.546  26.773  1.00  0.00     0.104 H 
BRANCH  11  21
ATOM     21  N   UNL     1     -44.810  45.848  21.709  1.00  0.00    -0.382 N 
ATOM     22  H   UNL     1     -44.415  46.471  21.014  1.00  0.00     0.158 HD
ATOM     23  H   UNL     1     -45.599  45.276  21.437  1.00  0.00     0.158 HD
ENDBRANCH  11  21
ENDBRANCH   1  10
BRANCH   5  24
ATOM     24  O   UNL     1     -42.769  44.255  28.889  1.00  0.00    -0.386 OA
ATOM     25  H   UNL     1     -42.987  45.084  28.409  1.00  0.00     0.211 HD
ENDBRANCH   5  24
BRANCH   3  26
ATOM     26  C   UNL     1     -44.138  40.352  27.149  1.00  0.00     0.252 C 
ATOM     27  O   UNL     1     -44.828  40.575  26.160  1.00  0.00    -0.272 OA
ATOM     28  N   UNL     1     -44.528  39.529  28.185  1.00  0.00    -0.353 N 
ATOM     29  H   UNL     1     -43.950  39.523  29.019  1.00  0.00     0.163 HD
BRANCH  28  30
ATOM     30  C   UNL     1     -45.840  38.910  28.231  1.00  0.00     0.020 C 
ATOM     31  H   UNL     1     -46.573  39.578  27.766  1.00  0.00     0.049 H 
ATOM     32  H   UNL     1     -46.098  38.825  29.293  1.00  0.00     0.049 H 
BRANCH  30  33
ATOM     33  C   UNL     1     -45.833  37.521  27.570  1.00  0.00    -0.021 C 
ATOM     34  C   UNL     1     -45.427  36.436  28.576  1.00  0.00    -0.036 C 
ATOM     35  C   UNL     1     -47.206  37.184  26.948  1.00  0.00    -0.036 C 
ATOM     36  H   UNL     1     -45.085  37.535  26.765  1.00  0.00     0.032 H 
ATOM     37  C   UNL     1     -46.493  36.205  29.651  1.00  0.00    -0.005 C 
ATOM     38  H   UNL     1     -45.262  35.498  28.028  1.00  0.00     0.028 H 
ATOM     39  H   UNL     1     -44.470  36.685  29.050  1.00  0.00     0.028 H 
ATOM     40  C   UNL     1     -47.992  36.136  27.741  1.00  0.00    -0.005 C 
ATOM     41  H   UNL     1     -47.055  36.800  25.931  1.00  0.00     0.028 H 
ATOM     42  H   UNL     1     -47.815  38.090  26.844  1.00  0.00     0.028 H 
ATOM     43  N   UNL     1     -47.864  36.376  29.172  1.00  0.00    -0.317 NA
ATOM     44  H   UNL     1     -46.368  35.194  30.058  1.00  0.00     0.043 H 
ATOM     45  H   UNL     1     -46.336  36.899  30.484  1.00  0.00     0.043 H 
ATOM     46  H   UNL     1     -49.049  36.192  27.453  1.00  0.00     0.043 H 
ATOM     47  H   UNL     1     -47.654  35.123  27.490  1.00  0.00     0.043 H 
ATOM     48  H   UNL     1     -48.492  35.765  29.694  1.00  0.00     0.122 HD
ENDBRANCH  30  33
ENDBRANCH  28  30
ENDBRANCH   3  26
BRANCH   4  49
ATOM     49  O   UNL     1     -41.357  42.003  29.059  1.00  0.00    -0.387 OA
ATOM     50  H   UNL     1     -41.320  41.491  29.894  1.00  0.00     0.211 HD
ENDBRANCH   4  49
TORSDOF 7
ENDMDL
