MODEL 1
REMARK VINA RESULT:     -11.3      0.000      0.000
REMARK SMILES CC1(C)CCN(Cc2ccc(N3CC(=O)NC4(CCN(c5nc(Cl)nc6[nH]ccc56)CC4)C3)cc2)CC1
REMARK SMILES IDX 8 1 9 2 10 3 11 4 34 5 35 6 7 11 6 14 2 15 4 16 37 17 5 18
REMARK SMILES IDX 36 21 1 28 3 32 12 36 13 37 33 38 14 39 17 42 15 45 16 46
REMARK SMILES IDX 18 47 32 48 19 50 31 53 20 56 21 61 22 62 30 63 23 64 26 65
REMARK SMILES IDX 29 66 24 67 25 68 27 69 28 70
REMARK H PARENT 9 7 10 8 34 9 35 10 7 12 7 13 4 19 4 20 37 22 37 23 5 24 5 25
REMARK H PARENT 36 26 36 27 1 29 1 30 1 31 3 33 3 34 3 35 13 40 13 41 33 43
REMARK H PARENT 33 44 16 49 18 51 18 52 32 54 32 55 19 57 19 58 31 59 31 60
REMARK H PARENT 29 71 27 72 28 73
REMARK Flexibility Score: inf
ROOT
ATOM      1  C   UNL     1     -47.012  32.153  24.761  1.00  0.00    -0.034 A 
ATOM      2  C   UNL     1     -48.282  32.239  25.334  1.00  0.00    -0.056 A 
ATOM      3  C   UNL     1     -48.674  33.386  26.039  1.00  0.00    -0.038 A 
ATOM      4  C   UNL     1     -47.815  34.482  26.208  1.00  0.00     0.037 A 
ATOM      5  C   UNL     1     -46.553  34.387  25.597  1.00  0.00    -0.038 A 
ATOM      6  C   UNL     1     -46.153  33.248  24.891  1.00  0.00    -0.056 A 
ATOM      7  H   UNL     1     -48.984  31.413  25.241  1.00  0.00     0.063 H 
ATOM      8  H   UNL     1     -49.673  33.384  26.463  1.00  0.00     0.064 H 
ATOM      9  H   UNL     1     -45.861  35.225  25.636  1.00  0.00     0.064 H 
ATOM     10  H   UNL     1     -45.164  33.218  24.438  1.00  0.00     0.063 H 
ENDROOT
BRANCH   1  11
ATOM     11  C   UNL     1     -46.592  30.926  23.979  1.00  0.00     0.023 C 
ATOM     12  H   UNL     1     -46.125  30.246  24.705  1.00  0.00     0.048 H 
ATOM     13  H   UNL     1     -45.815  31.183  23.248  1.00  0.00     0.048 H 
BRANCH  11  14
ATOM     14  N   UNL     1     -47.713  30.248  23.311  1.00  0.00    -0.299 NA
ATOM     15  C   UNL     1     -49.624  28.628  21.980  1.00  0.00    -0.033 C 
ATOM     16  C   UNL     1     -48.875  29.740  21.200  1.00  0.00    -0.035 C 
ATOM     17  C   UNL     1     -48.646  27.934  22.946  1.00  0.00    -0.035 C 
ATOM     18  C   UNL     1     -47.559  30.185  21.860  1.00  0.00    -0.001 C 
ATOM     19  H   UNL     1     -49.530  30.614  21.079  1.00  0.00     0.029 H 
ATOM     20  H   UNL     1     -48.636  29.406  20.183  1.00  0.00     0.029 H 
ATOM     21  C   UNL     1     -47.932  28.914  23.890  1.00  0.00    -0.001 C 
ATOM     22  H   UNL     1     -47.885  27.400  22.360  1.00  0.00     0.029 H 
ATOM     23  H   UNL     1     -49.163  27.169  23.541  1.00  0.00     0.029 H 
ATOM     24  H   UNL     1     -47.299  31.163  21.437  1.00  0.00     0.043 H 
ATOM     25  H   UNL     1     -46.747  29.501  21.583  1.00  0.00     0.043 H 
ATOM     26  H   UNL     1     -48.529  29.033  24.803  1.00  0.00     0.043 H 
ATOM     27  H   UNL     1     -46.985  28.449  24.191  1.00  0.00     0.043 H 
BRANCH  15  28
ATOM     28  C   UNL     1     -50.188  27.591  20.992  1.00  0.00    -0.060 C 
ATOM     29  H   UNL     1     -49.611  26.661  21.022  1.00  0.00     0.024 H 
ATOM     30  H   UNL     1     -50.158  27.967  19.962  1.00  0.00     0.024 H 
ATOM     31  H   UNL     1     -51.231  27.347  21.227  1.00  0.00     0.024 H 
ENDBRANCH  15  28
BRANCH  15  32
ATOM     32  C   UNL     1     -50.810  29.231  22.760  1.00  0.00    -0.060 C 
ATOM     33  H   UNL     1     -51.350  28.477  23.342  1.00  0.00     0.024 H 
ATOM     34  H   UNL     1     -51.529  29.701  22.079  1.00  0.00     0.024 H 
ATOM     35  H   UNL     1     -50.468  30.000  23.461  1.00  0.00     0.024 H 
ENDBRANCH  15  32
ENDBRANCH  11  14
ENDBRANCH   1  11
BRANCH   4  36
ATOM     36  N   UNL     1     -48.177  35.647  26.896  1.00  0.00    -0.360 N 
ATOM     37  C   UNL     1     -49.570  35.773  27.388  1.00  0.00     0.097 C 
ATOM     38  C   UNL     1     -47.173  36.177  27.841  1.00  0.00     0.042 C 
ATOM     39  C   UNL     1     -49.881  37.135  28.029  1.00  0.00     0.240 C 
ATOM     40  H   UNL     1     -50.266  35.654  26.548  1.00  0.00     0.060 H 
ATOM     41  H   UNL     1     -49.777  35.015  28.153  1.00  0.00     0.060 H 
ATOM     42  C   UNL     1     -47.446  37.695  28.079  1.00  0.00     0.061 C 
ATOM     43  H   UNL     1     -47.257  35.622  28.786  1.00  0.00     0.052 H 
ATOM     44  H   UNL     1     -46.143  36.049  27.491  1.00  0.00     0.052 H 
ATOM     45  O   UNL     1     -51.032  37.543  28.186  1.00  0.00    -0.273 OA
ATOM     46  N   UNL     1     -48.837  37.874  28.533  1.00  0.00    -0.347 N 
ATOM     47  C   UNL     1     -46.498  38.220  29.182  1.00  0.00    -0.010 C 
ATOM     48  C   UNL     1     -47.230  38.455  26.745  1.00  0.00    -0.010 C 
ATOM     49  H   UNL     1     -49.128  38.778  28.887  1.00  0.00     0.164 HD
ATOM     50  C   UNL     1     -45.244  38.851  28.586  1.00  0.00     0.022 C 
ATOM     51  H   UNL     1     -47.009  38.979  29.793  1.00  0.00     0.031 H 
ATOM     52  H   UNL     1     -46.220  37.418  29.876  1.00  0.00     0.031 H 
ATOM     53  C   UNL     1     -46.838  39.913  26.963  1.00  0.00     0.022 C 
ATOM     54  H   UNL     1     -48.127  38.413  26.116  1.00  0.00     0.031 H 
ATOM     55  H   UNL     1     -46.427  37.977  26.166  1.00  0.00     0.031 H 
ATOM     56  N   UNL     1     -45.634  40.019  27.794  1.00  0.00    -0.356 N 
ATOM     57  H   UNL     1     -44.589  39.157  29.410  1.00  0.00     0.049 H 
ATOM     58  H   UNL     1     -44.703  38.117  27.977  1.00  0.00     0.049 H 
ATOM     59  H   UNL     1     -46.704  40.369  25.975  1.00  0.00     0.049 H 
ATOM     60  H   UNL     1     -47.656  40.449  27.460  1.00  0.00     0.049 H 
BRANCH  56  61
ATOM     61  C   UNL     1     -44.577  40.780  27.290  1.00  0.00     0.143 A 
ATOM     62  N   UNL     1     -44.676  41.303  26.040  1.00  0.00    -0.200 NA
ATOM     63  C   UNL     1     -43.366  41.009  27.987  1.00  0.00     0.061 A 
ATOM     64  C   UNL     1     -43.656  42.036  25.560  1.00  0.00     0.226 A 
ATOM     65  C   UNL     1     -42.405  41.786  27.355  1.00  0.00     0.144 A 
ATOM     66  C   UNL     1     -42.795  40.619  29.236  1.00  0.00    -0.031 A 
ATOM     67  Cl  UNL     1     -43.887  42.669  23.986  1.00  0.00    -0.041 Cl
ATOM     68  N   UNL     1     -42.488  42.344  26.140  1.00  0.00    -0.200 NA
ATOM     69  N   UNL     1     -41.320  41.896  28.180  1.00  0.00    -0.346 N 
ATOM     70  C   UNL     1     -41.541  41.186  29.331  1.00  0.00     0.003 A 
ATOM     71  H   UNL     1     -43.251  39.983  29.983  1.00  0.00     0.065 H 
ATOM     72  H   UNL     1     -40.485  42.414  27.946  1.00  0.00     0.167 HD
ATOM     73  H   UNL     1     -40.790  41.138  30.108  1.00  0.00     0.082 H 
ENDBRANCH  56  61
ENDBRANCH   4  36
TORSDOF 6
ENDMDL
MODEL 2
REMARK VINA RESULT:     -10.3      1.334      2.196
REMARK SMILES CC1(C)CCN(Cc2ccc(N3CC(=O)NC4(CCN(c5nc(Cl)nc6[nH]ccc56)CC4)C3)cc2)CC1
REMARK SMILES IDX 8 1 9 2 10 3 11 4 34 5 35 6 7 11 6 14 2 15 4 16 37 17 5 18
REMARK SMILES IDX 36 21 1 28 3 32 12 36 13 37 33 38 14 39 17 42 15 45 16 46
REMARK SMILES IDX 18 47 32 48 19 50 31 53 20 56 21 61 22 62 30 63 23 64 26 65
REMARK SMILES IDX 29 66 24 67 25 68 27 69 28 70
REMARK H PARENT 9 7 10 8 34 9 35 10 7 12 7 13 4 19 4 20 37 22 37 23 5 24 5 25
REMARK H PARENT 36 26 36 27 1 29 1 30 1 31 3 33 3 34 3 35 13 40 13 41 33 43
REMARK H PARENT 33 44 16 49 18 51 18 52 32 54 32 55 19 57 19 58 31 59 31 60
REMARK H PARENT 29 71 27 72 28 73
REMARK Flexibility Score: inf
ROOT
ATOM      1  C   UNL     1     -47.152  32.344  24.946  1.00  0.00    -0.034 A 
ATOM      2  C   UNL     1     -46.199  33.362  25.027  1.00  0.00    -0.056 A 
ATOM      3  C   UNL     1     -46.490  34.566  25.685  1.00  0.00    -0.038 A 
ATOM      4  C   UNL     1     -47.740  34.804  26.276  1.00  0.00     0.037 A 
ATOM      5  C   UNL     1     -48.674  33.756  26.210  1.00  0.00    -0.038 A 
ATOM      6  C   UNL     1     -48.392  32.551  25.557  1.00  0.00    -0.056 A 
ATOM      7  H   UNL     1     -45.217  33.231  24.578  1.00  0.00     0.063 H 
ATOM      8  H   UNL     1     -45.706  35.315  25.706  1.00  0.00     0.064 H 
ATOM      9  H   UNL     1     -49.638  33.850  26.700  1.00  0.00     0.064 H 
ATOM     10  H   UNL     1     -49.149  31.769  25.527  1.00  0.00     0.063 H 
ENDROOT
BRANCH   1  11
ATOM     11  C   UNL     1     -46.835  31.034  24.257  1.00  0.00     0.023 C 
ATOM     12  H   UNL     1     -46.948  30.251  25.020  1.00  0.00     0.048 H 
ATOM     13  H   UNL     1     -45.785  31.012  23.940  1.00  0.00     0.048 H 
BRANCH  11  14
ATOM     14  N   UNL     1     -47.716  30.747  23.115  1.00  0.00    -0.299 NA
ATOM     15  C   UNL     1     -49.249  29.827  20.912  1.00  0.00    -0.033 C 
ATOM     16  C   UNL     1     -48.013  30.732  20.670  1.00  0.00    -0.035 C 
ATOM     17  C   UNL     1     -48.934  28.821  22.035  1.00  0.00    -0.035 C 
ATOM     18  C   UNL     1     -47.010  30.742  21.836  1.00  0.00    -0.001 C 
ATOM     19  H   UNL     1     -48.340  31.761  20.469  1.00  0.00     0.029 H 
ATOM     20  H   UNL     1     -47.469  30.413  19.773  1.00  0.00     0.029 H 
ATOM     21  C   UNL     1     -48.454  29.494  23.330  1.00  0.00    -0.001 C 
ATOM     22  H   UNL     1     -48.149  28.135  21.689  1.00  0.00     0.029 H 
ATOM     23  H   UNL     1     -49.809  28.196  22.254  1.00  0.00     0.029 H 
ATOM     24  H   UNL     1     -46.382  31.632  21.716  1.00  0.00     0.043 H 
ATOM     25  H   UNL     1     -46.339  29.876  21.765  1.00  0.00     0.043 H 
ATOM     26  H   UNL     1     -49.322  29.714  23.964  1.00  0.00     0.043 H 
ATOM     27  H   UNL     1     -47.846  28.760  23.875  1.00  0.00     0.043 H 
BRANCH  15  28
ATOM     28  C   UNL     1     -49.592  29.061  19.622  1.00  0.00    -0.060 C 
ATOM     29  H   UNL     1     -48.731  29.017  18.947  1.00  0.00     0.024 H 
ATOM     30  H   UNL     1     -50.414  29.544  19.080  1.00  0.00     0.024 H 
ATOM     31  H   UNL     1     -49.898  28.031  19.842  1.00  0.00     0.024 H 
ENDBRANCH  15  28
BRANCH  15  32
ATOM     32  C   UNL     1     -50.473  30.687  21.290  1.00  0.00    -0.060 C 
ATOM     33  H   UNL     1     -50.252  31.759  21.254  1.00  0.00     0.024 H 
ATOM     34  H   UNL     1     -50.818  30.454  22.304  1.00  0.00     0.024 H 
ATOM     35  H   UNL     1     -51.308  30.503  20.606  1.00  0.00     0.024 H 
ENDBRANCH  15  32
ENDBRANCH  11  14
ENDBRANCH   1  11
BRANCH   4  36
ATOM     36  N   UNL     1     -48.060  35.990  26.950  1.00  0.00    -0.360 N 
ATOM     37  C   UNL     1     -49.437  36.157  27.472  1.00  0.00     0.097 C 
ATOM     38  C   UNL     1     -47.022  36.514  27.860  1.00  0.00     0.042 C 
ATOM     39  C   UNL     1     -49.702  37.537  28.094  1.00  0.00     0.240 C 
ATOM     40  H   UNL     1     -50.156  36.038  26.652  1.00  0.00     0.060 H 
ATOM     41  H   UNL     1     -49.642  35.418  28.256  1.00  0.00     0.060 H 
ATOM     42  C   UNL     1     -47.254  38.042  28.075  1.00  0.00     0.061 C 
ATOM     43  H   UNL     1     -47.094  35.979  28.818  1.00  0.00     0.052 H 
ATOM     44  H   UNL     1     -46.003  36.357  27.488  1.00  0.00     0.052 H 
ATOM     45  O   UNL     1     -50.840  37.974  28.271  1.00  0.00    -0.273 OA
ATOM     46  N   UNL     1     -48.630  38.261  28.559  1.00  0.00    -0.347 N 
ATOM     47  C   UNL     1     -46.269  38.567  29.145  1.00  0.00    -0.010 C 
ATOM     48  C   UNL     1     -47.054  38.772  26.722  1.00  0.00    -0.010 C 
ATOM     49  H   UNL     1     -48.892  39.178  28.902  1.00  0.00     0.164 HD
ATOM     50  C   UNL     1     -45.016  39.158  28.507  1.00  0.00     0.022 C 
ATOM     51  H   UNL     1     -46.748  39.348  29.753  1.00  0.00     0.031 H 
ATOM     52  H   UNL     1     -45.992  37.771  29.847  1.00  0.00     0.031 H 
ATOM     53  C   UNL     1     -46.625  40.225  26.902  1.00  0.00     0.022 C 
ATOM     54  H   UNL     1     -47.967  38.738  26.116  1.00  0.00     0.031 H 
ATOM     55  H   UNL     1     -46.276  38.265  26.133  1.00  0.00     0.031 H 
ATOM     56  N   UNL     1     -45.399  40.319  27.702  1.00  0.00    -0.356 N 
ATOM     57  H   UNL     1     -44.334  39.464  29.309  1.00  0.00     0.049 H 
ATOM     58  H   UNL     1     -44.506  38.400  27.899  1.00  0.00     0.049 H 
ATOM     59  H   UNL     1     -46.505  40.659  25.903  1.00  0.00     0.049 H 
ATOM     60  H   UNL     1     -47.419  40.788  27.408  1.00  0.00     0.049 H 
BRANCH  56  61
ATOM     61  C   UNL     1     -44.338  41.046  27.158  1.00  0.00     0.143 A 
ATOM     62  N   UNL     1     -43.085  40.853  27.647  1.00  0.00    -0.200 NA
ATOM     63  C   UNL     1     -44.487  42.023  26.144  1.00  0.00     0.061 A 
ATOM     64  C   UNL     1     -42.066  41.553  27.120  1.00  0.00     0.226 A 
ATOM     65  C   UNL     1     -43.337  42.665  25.705  1.00  0.00     0.144 A 
ATOM     66  C   UNL     1     -45.564  42.602  25.407  1.00  0.00    -0.031 A 
ATOM     67  Cl  UNL     1     -40.526  41.221  27.789  1.00  0.00    -0.041 Cl
ATOM     68  N   UNL     1     -42.086  42.471  26.143  1.00  0.00    -0.200 NA
ATOM     69  N   UNL     1     -43.681  43.561  24.731  1.00  0.00    -0.346 N 
ATOM     70  C   UNL     1     -45.038  43.537  24.541  1.00  0.00     0.003 A 
ATOM     71  H   UNL     1     -46.615  42.364  25.507  1.00  0.00     0.065 H 
ATOM     72  H   UNL     1     -43.019  44.154  24.252  1.00  0.00     0.167 HD
ATOM     73  H   UNL     1     -45.510  44.189  23.818  1.00  0.00     0.082 H 
ENDBRANCH  56  61
ENDBRANCH   4  36
TORSDOF 6
ENDMDL
MODEL 3
REMARK VINA RESULT:      -9.7      1.619      2.636
REMARK SMILES CC1(C)CCN(Cc2ccc(N3CC(=O)NC4(CCN(c5nc(Cl)nc6[nH]ccc56)CC4)C3)cc2)CC1
REMARK SMILES IDX 8 1 9 2 10 3 11 4 34 5 35 6 7 11 6 14 2 15 4 16 37 17 5 18
REMARK SMILES IDX 36 21 1 28 3 32 12 36 13 37 33 38 14 39 17 42 15 45 16 46
REMARK SMILES IDX 18 47 32 48 19 50 31 53 20 56 21 61 22 62 30 63 23 64 26 65
REMARK SMILES IDX 29 66 24 67 25 68 27 69 28 70
REMARK H PARENT 9 7 10 8 34 9 35 10 7 12 7 13 4 19 4 20 37 22 37 23 5 24 5 25
REMARK H PARENT 36 26 36 27 1 29 1 30 1 31 3 33 3 34 3 35 13 40 13 41 33 43
REMARK H PARENT 33 44 16 49 18 51 18 52 32 54 32 55 19 57 19 58 31 59 31 60
REMARK H PARENT 29 71 27 72 28 73
REMARK Flexibility Score: inf
ROOT
ATOM      1  C   UNL     1     -47.122  31.970  24.497  1.00  0.00    -0.034 A 
ATOM      2  C   UNL     1     -46.169  32.941  24.817  1.00  0.00    -0.056 A 
ATOM      3  C   UNL     1     -46.518  34.062  25.583  1.00  0.00    -0.038 A 
ATOM      4  C   UNL     1     -47.825  34.263  26.050  1.00  0.00     0.037 A 
ATOM      5  C   UNL     1     -48.761  33.261  25.743  1.00  0.00    -0.038 A 
ATOM      6  C   UNL     1     -48.422  32.138  24.980  1.00  0.00    -0.056 A 
ATOM      7  H   UNL     1     -45.142  32.837  24.472  1.00  0.00     0.063 H 
ATOM      8  H   UNL     1     -45.730  34.779  25.790  1.00  0.00     0.064 H 
ATOM      9  H   UNL     1     -49.776  33.323  26.126  1.00  0.00     0.064 H 
ATOM     10  H   UNL     1     -49.182  31.388  24.764  1.00  0.00     0.063 H 
ENDROOT
BRANCH   1  11
ATOM     11  C   UNL     1     -46.745  30.747  23.689  1.00  0.00     0.023 C 
ATOM     12  H   UNL     1     -45.647  30.711  23.682  1.00  0.00     0.048 H 
ATOM     13  H   UNL     1     -47.060  30.865  22.644  1.00  0.00     0.048 H 
BRANCH  11  14
ATOM     14  N   UNL     1     -47.280  29.494  24.242  1.00  0.00    -0.299 NA
ATOM     15  C   UNL     1     -48.603  27.111  25.032  1.00  0.00    -0.033 C 
ATOM     16  C   UNL     1     -48.799  28.413  25.852  1.00  0.00    -0.035 C 
ATOM     17  C   UNL     1     -48.576  27.451  23.530  1.00  0.00    -0.035 C 
ATOM     18  C   UNL     1     -48.465  29.696  25.073  1.00  0.00    -0.001 C 
ATOM     19  H   UNL     1     -48.186  28.376  26.762  1.00  0.00     0.029 H 
ATOM     20  H   UNL     1     -49.837  28.500  26.197  1.00  0.00     0.029 H 
ATOM     21  C   UNL     1     -47.531  28.518  23.171  1.00  0.00    -0.001 C 
ATOM     22  H   UNL     1     -49.567  27.823  23.232  1.00  0.00     0.029 H 
ATOM     23  H   UNL     1     -48.396  26.550  22.930  1.00  0.00     0.029 H 
ATOM     24  H   UNL     1     -48.312  30.493  25.810  1.00  0.00     0.043 H 
ATOM     25  H   UNL     1     -49.323  30.002  24.460  1.00  0.00     0.043 H 
ATOM     26  H   UNL     1     -46.581  28.024  22.932  1.00  0.00     0.043 H 
ATOM     27  H   UNL     1     -47.869  29.013  22.252  1.00  0.00     0.043 H 
BRANCH  15  28
ATOM     28  C   UNL     1     -49.762  26.139  25.316  1.00  0.00    -0.060 C 
ATOM     29  H   UNL     1     -50.663  26.426  24.764  1.00  0.00     0.024 H 
ATOM     30  H   UNL     1     -50.017  26.126  26.382  1.00  0.00     0.024 H 
ATOM     31  H   UNL     1     -49.501  25.115  25.023  1.00  0.00     0.024 H 
ENDBRANCH  15  28
BRANCH  15  32
ATOM     32  C   UNL     1     -47.290  26.415  25.447  1.00  0.00    -0.060 C 
ATOM     33  H   UNL     1     -46.638  26.217  24.590  1.00  0.00     0.024 H 
ATOM     34  H   UNL     1     -47.493  25.456  25.937  1.00  0.00     0.024 H 
ATOM     35  H   UNL     1     -46.724  27.033  26.151  1.00  0.00     0.024 H 
ENDBRANCH  15  32
ENDBRANCH  11  14
ENDBRANCH   1  11
BRANCH   4  36
ATOM     36  N   UNL     1     -48.205  35.366  26.826  1.00  0.00    -0.360 N 
ATOM     37  C   UNL     1     -49.627  35.492  27.227  1.00  0.00     0.097 C 
ATOM     38  C   UNL     1     -47.260  35.761  27.891  1.00  0.00     0.042 C 
ATOM     39  C   UNL     1     -49.945  36.793  27.982  1.00  0.00     0.240 C 
ATOM     40  H   UNL     1     -50.260  35.484  26.332  1.00  0.00     0.060 H 
ATOM     41  H   UNL     1     -49.912  34.669  27.893  1.00  0.00     0.060 H 
ATOM     42  C   UNL     1     -47.505  37.256  28.264  1.00  0.00     0.061 C 
ATOM     43  H   UNL     1     -47.430  35.117  28.765  1.00  0.00     0.052 H 
ATOM     44  H   UNL     1     -46.210  35.632  27.605  1.00  0.00     0.052 H 
ATOM     45  O   UNL     1     -51.093  37.225  28.097  1.00  0.00    -0.273 OA
ATOM     46  N   UNL     1     -48.921  37.439  28.633  1.00  0.00    -0.347 N 
ATOM     47  C   UNL     1     -46.628  37.633  29.481  1.00  0.00    -0.010 C 
ATOM     48  C   UNL     1     -47.168  38.139  27.034  1.00  0.00    -0.010 C 
ATOM     49  H   UNL     1     -49.212  38.313  29.056  1.00  0.00     0.164 HD
ATOM     50  C   UNL     1     -45.316  38.275  29.044  1.00  0.00     0.022 C 
ATOM     51  H   UNL     1     -47.163  38.344  30.128  1.00  0.00     0.031 H 
ATOM     52  H   UNL     1     -46.427  36.755  30.106  1.00  0.00     0.031 H 
ATOM     53  C   UNL     1     -46.752  39.552  27.428  1.00  0.00     0.022 C 
ATOM     54  H   UNL     1     -48.017  38.192  26.342  1.00  0.00     0.031 H 
ATOM     55  H   UNL     1     -46.338  37.692  26.468  1.00  0.00     0.031 H 
ATOM     56  N   UNL     1     -45.611  39.530  28.350  1.00  0.00    -0.356 N 
ATOM     57  H   UNL     1     -44.716  38.472  29.940  1.00  0.00     0.049 H 
ATOM     58  H   UNL     1     -44.752  37.586  28.403  1.00  0.00     0.049 H 
ATOM     59  H   UNL     1     -46.531  40.100  26.506  1.00  0.00     0.049 H 
ATOM     60  H   UNL     1     -47.589  40.064  27.918  1.00  0.00     0.049 H 
BRANCH  56  61
ATOM     61  C   UNL     1     -44.497  40.299  28.004  1.00  0.00     0.143 A 
ATOM     62  N   UNL     1     -43.435  40.340  28.850  1.00  0.00    -0.200 NA
ATOM     63  C   UNL     1     -44.416  41.089  26.832  1.00  0.00     0.061 A 
ATOM     64  C   UNL     1     -42.364  41.080  28.512  1.00  0.00     0.226 A 
ATOM     65  C   UNL     1     -43.242  41.801  26.626  1.00  0.00     0.144 A 
ATOM     66  C   UNL     1     -45.269  41.412  25.734  1.00  0.00    -0.031 A 
ATOM     67  Cl  UNL     1     -41.070  41.049  29.633  1.00  0.00    -0.041 Cl
ATOM     68  N   UNL     1     -42.166  41.834  27.422  1.00  0.00    -0.200 NA
ATOM     69  N   UNL     1     -43.353  42.493  25.451  1.00  0.00    -0.346 N 
ATOM     70  C   UNL     1     -44.586  42.269  24.897  1.00  0.00     0.003 A 
ATOM     71  H   UNL     1     -46.280  41.059  25.577  1.00  0.00     0.065 H 
ATOM     72  H   UNL     1     -42.627  43.089  25.079  1.00  0.00     0.167 HD
ATOM     73  H   UNL     1     -44.872  42.742  23.968  1.00  0.00     0.082 H 
ENDBRANCH  56  61
ENDBRANCH   4  36
TORSDOF 6
ENDMDL
MODEL 4
REMARK VINA RESULT:      -9.3      2.954      4.647
REMARK SMILES CC1(C)CCN(Cc2ccc(N3CC(=O)NC4(CCN(c5nc(Cl)nc6[nH]ccc56)CC4)C3)cc2)CC1
REMARK SMILES IDX 8 1 9 2 10 3 11 4 34 5 35 6 7 11 6 14 2 15 4 16 37 17 5 18
REMARK SMILES IDX 36 21 1 28 3 32 12 36 13 37 33 38 14 39 17 42 15 45 16 46
REMARK SMILES IDX 18 47 32 48 19 50 31 53 20 56 21 61 22 62 30 63 23 64 26 65
REMARK SMILES IDX 29 66 24 67 25 68 27 69 28 70
REMARK H PARENT 9 7 10 8 34 9 35 10 7 12 7 13 4 19 4 20 37 22 37 23 5 24 5 25
REMARK H PARENT 36 26 36 27 1 29 1 30 1 31 3 33 3 34 3 35 13 40 13 41 33 43
REMARK H PARENT 33 44 16 49 18 51 18 52 32 54 32 55 19 57 19 58 31 59 31 60
REMARK H PARENT 29 71 27 72 28 73
REMARK Flexibility Score: inf
ROOT
ATOM      1  C   UNL     1     -47.936  32.430  24.769  1.00  0.00    -0.034 A 
ATOM      2  C   UNL     1     -48.896  32.878  25.679  1.00  0.00    -0.056 A 
ATOM      3  C   UNL     1     -48.601  33.909  26.583  1.00  0.00    -0.038 A 
ATOM      4  C   UNL     1     -47.341  34.523  26.620  1.00  0.00     0.037 A 
ATOM      5  C   UNL     1     -46.399  34.078  25.677  1.00  0.00    -0.038 A 
ATOM      6  C   UNL     1     -46.685  33.051  24.770  1.00  0.00    -0.056 A 
ATOM      7  H   UNL     1     -49.887  32.429  25.697  1.00  0.00     0.063 H 
ATOM      8  H   UNL     1     -49.391  34.204  27.265  1.00  0.00     0.064 H 
ATOM      9  H   UNL     1     -45.424  34.553  25.610  1.00  0.00     0.064 H 
ATOM     10  H   UNL     1     -45.922  32.737  24.060  1.00  0.00     0.063 H 
ENDROOT
BRANCH   1  11
ATOM     11  C   UNL     1     -48.257  31.333  23.776  1.00  0.00     0.023 C 
ATOM     12  H   UNL     1     -47.367  31.224  23.142  1.00  0.00     0.048 H 
ATOM     13  H   UNL     1     -49.076  31.642  23.114  1.00  0.00     0.048 H 
BRANCH  11  14
ATOM     14  N   UNL     1     -48.576  30.046  24.411  1.00  0.00    -0.299 NA
ATOM     15  C   UNL     1     -49.113  27.398  25.278  1.00  0.00    -0.033 C 
ATOM     16  C   UNL     1     -50.287  28.352  24.934  1.00  0.00    -0.035 C 
ATOM     17  C   UNL     1     -47.973  27.602  24.263  1.00  0.00    -0.035 C 
ATOM     18  C   UNL     1     -49.888  29.528  24.027  1.00  0.00    -0.001 C 
ATOM     19  H   UNL     1     -50.729  28.746  25.858  1.00  0.00     0.029 H 
ATOM     20  H   UNL     1     -51.093  27.807  24.427  1.00  0.00     0.029 H 
ATOM     21  C   UNL     1     -47.512  29.063  24.159  1.00  0.00    -0.001 C 
ATOM     22  H   UNL     1     -48.317  27.275  23.271  1.00  0.00     0.029 H 
ATOM     23  H   UNL     1     -47.113  26.967  24.511  1.00  0.00     0.029 H 
ATOM     24  H   UNL     1     -50.669  30.291  24.123  1.00  0.00     0.043 H 
ATOM     25  H   UNL     1     -49.889  29.213  22.975  1.00  0.00     0.043 H 
ATOM     26  H   UNL     1     -46.707  29.239  24.884  1.00  0.00     0.043 H 
ATOM     27  H   UNL     1     -47.072  29.199  23.162  1.00  0.00     0.043 H 
BRANCH  15  28
ATOM     28  C   UNL     1     -49.597  25.938  25.218  1.00  0.00    -0.060 C 
ATOM     29  H   UNL     1     -48.765  25.254  25.018  1.00  0.00     0.024 H 
ATOM     30  H   UNL     1     -50.340  25.799  24.424  1.00  0.00     0.024 H 
ATOM     31  H   UNL     1     -50.060  25.635  26.164  1.00  0.00     0.024 H 
ENDBRANCH  15  28
BRANCH  15  32
ATOM     32  C   UNL     1     -48.610  27.670  26.711  1.00  0.00    -0.060 C 
ATOM     33  H   UNL     1     -48.626  28.737  26.959  1.00  0.00     0.024 H 
ATOM     34  H   UNL     1     -47.581  27.316  26.839  1.00  0.00     0.024 H 
ATOM     35  H   UNL     1     -49.232  27.154  27.450  1.00  0.00     0.024 H 
ENDBRANCH  15  32
ENDBRANCH  11  14
ENDBRANCH   1  11
BRANCH   4  36
ATOM     36  N   UNL     1     -47.016  35.562  27.502  1.00  0.00    -0.360 N 
ATOM     37  C   UNL     1     -46.398  35.217  28.805  1.00  0.00     0.097 C 
ATOM     38  C   UNL     1     -46.441  36.775  26.885  1.00  0.00     0.042 C 
ATOM     39  C   UNL     1     -46.187  36.426  29.731  1.00  0.00     0.240 C 
ATOM     40  H   UNL     1     -47.048  34.517  29.344  1.00  0.00     0.060 H 
ATOM     41  H   UNL     1     -45.410  34.766  28.653  1.00  0.00     0.060 H 
ATOM     42  C   UNL     1     -46.664  37.989  27.840  1.00  0.00     0.061 C 
ATOM     43  H   UNL     1     -45.367  36.609  26.724  1.00  0.00     0.052 H 
ATOM     44  H   UNL     1     -46.874  37.007  25.906  1.00  0.00     0.052 H 
ATOM     45  O   UNL     1     -46.007  36.304  30.943  1.00  0.00    -0.273 OA
ATOM     46  N   UNL     1     -46.098  37.675  29.165  1.00  0.00    -0.347 N 
ATOM     47  C   UNL     1     -45.932  39.229  27.275  1.00  0.00    -0.010 C 
ATOM     48  C   UNL     1     -48.187  38.248  27.970  1.00  0.00    -0.010 C 
ATOM     49  H   UNL     1     -46.014  38.415  29.853  1.00  0.00     0.164 HD
ATOM     50  C   UNL     1     -46.869  40.099  26.446  1.00  0.00     0.022 C 
ATOM     51  H   UNL     1     -45.529  39.839  28.097  1.00  0.00     0.031 H 
ATOM     52  H   UNL     1     -45.065  38.931  26.672  1.00  0.00     0.031 H 
ATOM     53  C   UNL     1     -48.504  39.701  28.310  1.00  0.00     0.022 C 
ATOM     54  H   UNL     1     -48.635  37.595  28.729  1.00  0.00     0.031 H 
ATOM     55  H   UNL     1     -48.691  38.009  27.023  1.00  0.00     0.031 H 
ATOM     56  N   UNL     1     -47.929  40.614  27.316  1.00  0.00    -0.356 N 
ATOM     57  H   UNL     1     -46.287  40.930  26.030  1.00  0.00     0.049 H 
ATOM     58  H   UNL     1     -47.283  39.522  25.610  1.00  0.00     0.049 H 
ATOM     59  H   UNL     1     -49.593  39.793  28.380  1.00  0.00     0.049 H 
ATOM     60  H   UNL     1     -48.093  39.952  29.295  1.00  0.00     0.049 H 
BRANCH  56  61
ATOM     61  C   UNL     1     -48.794  41.537  26.723  1.00  0.00     0.143 A 
ATOM     62  N   UNL     1     -48.273  42.636  26.118  1.00  0.00    -0.200 NA
ATOM     63  C   UNL     1     -50.206  41.427  26.749  1.00  0.00     0.061 A 
ATOM     64  C   UNL     1     -49.109  43.521  25.547  1.00  0.00     0.226 A 
ATOM     65  C   UNL     1     -50.933  42.425  26.116  1.00  0.00     0.144 A 
ATOM     66  C   UNL     1     -51.169  40.532  27.306  1.00  0.00    -0.031 A 
ATOM     67  Cl  UNL     1     -48.355  44.859  24.792  1.00  0.00    -0.041 Cl
ATOM     68  N   UNL     1     -50.448  43.501  25.482  1.00  0.00    -0.200 NA
ATOM     69  N   UNL     1     -52.265  42.143  26.245  1.00  0.00    -0.346 N 
ATOM     70  C   UNL     1     -52.425  40.993  26.973  1.00  0.00     0.003 A 
ATOM     71  H   UNL     1     -50.963  39.648  27.895  1.00  0.00     0.065 H 
ATOM     72  H   UNL     1     -53.002  42.722  25.869  1.00  0.00     0.167 HD
ATOM     73  H   UNL     1     -53.411  40.610  27.197  1.00  0.00     0.082 H 
ENDBRANCH  56  61
ENDBRANCH   4  36
TORSDOF 6
ENDMDL
MODEL 5
REMARK VINA RESULT:      -9.1      3.106      4.299
REMARK SMILES CC1(C)CCN(Cc2ccc(N3CC(=O)NC4(CCN(c5nc(Cl)nc6[nH]ccc56)CC4)C3)cc2)CC1
REMARK SMILES IDX 8 1 9 2 10 3 11 4 34 5 35 6 7 11 6 14 2 15 4 16 37 17 5 18
REMARK SMILES IDX 36 21 1 28 3 32 12 36 13 37 33 38 14 39 17 42 15 45 16 46
REMARK SMILES IDX 18 47 32 48 19 50 31 53 20 56 21 61 22 62 30 63 23 64 26 65
REMARK SMILES IDX 29 66 24 67 25 68 27 69 28 70
REMARK H PARENT 9 7 10 8 34 9 35 10 7 12 7 13 4 19 4 20 37 22 37 23 5 24 5 25
REMARK H PARENT 36 26 36 27 1 29 1 30 1 31 3 33 3 34 3 35 13 40 13 41 33 43
REMARK H PARENT 33 44 16 49 18 51 18 52 32 54 32 55 19 57 19 58 31 59 31 60
REMARK H PARENT 29 71 27 72 28 73
REMARK Flexibility Score: inf
ROOT
ATOM      1  C   UNL     1     -48.080  32.476  24.784  1.00  0.00    -0.034 A 
ATOM      2  C   UNL     1     -46.772  32.966  24.810  1.00  0.00    -0.056 A 
ATOM      3  C   UNL     1     -46.405  33.982  25.704  1.00  0.00    -0.038 A 
ATOM      4  C   UNL     1     -47.325  34.553  26.595  1.00  0.00     0.037 A 
ATOM      5  C   UNL     1     -48.627  34.025  26.575  1.00  0.00    -0.038 A 
ATOM      6  C   UNL     1     -49.003  33.010  25.687  1.00  0.00    -0.056 A 
ATOM      7  H   UNL     1     -46.022  32.564  24.132  1.00  0.00     0.063 H 
ATOM      8  H   UNL     1     -45.374  34.319  25.667  1.00  0.00     0.064 H 
ATOM      9  H   UNL     1     -49.373  34.378  27.282  1.00  0.00     0.064 H 
ATOM     10  H   UNL     1     -50.025  32.635  25.705  1.00  0.00     0.063 H 
ENDROOT
BRANCH   1  11
ATOM     11  C   UNL     1     -48.476  31.364  23.836  1.00  0.00     0.023 C 
ATOM     12  H   UNL     1     -47.670  31.294  23.093  1.00  0.00     0.048 H 
ATOM     13  H   UNL     1     -49.385  31.636  23.285  1.00  0.00     0.048 H 
BRANCH  11  14
ATOM     14  N   UNL     1     -48.655  30.065  24.502  1.00  0.00    -0.299 NA
ATOM     15  C   UNL     1     -48.915  27.396  25.429  1.00  0.00    -0.033 C 
ATOM     16  C   UNL     1     -50.182  28.228  25.101  1.00  0.00    -0.035 C 
ATOM     17  C   UNL     1     -47.826  27.687  24.379  1.00  0.00    -0.035 C 
ATOM     18  C   UNL     1     -49.920  29.419  24.163  1.00  0.00    -0.001 C 
ATOM     19  H   UNL     1     -50.636  28.597  26.030  1.00  0.00     0.029 H 
ATOM     20  H   UNL     1     -50.946  27.600  24.626  1.00  0.00     0.029 H 
ATOM     21  C   UNL     1     -47.509  29.183  24.237  1.00  0.00    -0.001 C 
ATOM     22  H   UNL     1     -48.163  27.310  23.403  1.00  0.00     0.029 H 
ATOM     23  H   UNL     1     -46.904  27.141  24.613  1.00  0.00     0.029 H 
ATOM     24  H   UNL     1     -50.768  30.106  24.268  1.00  0.00     0.043 H 
ATOM     25  H   UNL     1     -49.919  29.084  23.117  1.00  0.00     0.043 H 
ATOM     26  H   UNL     1     -46.706  29.448  24.936  1.00  0.00     0.043 H 
ATOM     27  H   UNL     1     -47.110  29.340  23.226  1.00  0.00     0.043 H 
BRANCH  15  28
ATOM     28  C   UNL     1     -49.259  25.896  25.407  1.00  0.00    -0.060 C 
ATOM     29  H   UNL     1     -49.054  25.429  26.376  1.00  0.00     0.024 H 
ATOM     30  H   UNL     1     -48.668  25.365  24.651  1.00  0.00     0.024 H 
ATOM     31  H   UNL     1     -50.318  25.737  25.175  1.00  0.00     0.024 H 
ENDBRANCH  15  28
BRANCH  15  32
ATOM     32  C   UNL     1     -48.402  27.743  26.842  1.00  0.00    -0.060 C 
ATOM     33  H   UNL     1     -49.207  27.745  27.585  1.00  0.00     0.024 H 
ATOM     34  H   UNL     1     -47.935  28.734  26.858  1.00  0.00     0.024 H 
ATOM     35  H   UNL     1     -47.652  27.018  27.176  1.00  0.00     0.024 H 
ENDBRANCH  15  32
ENDBRANCH  11  14
ENDBRANCH   1  11
BRANCH   4  36
ATOM     36  N   UNL     1     -46.989  35.561  27.509  1.00  0.00    -0.360 N 
ATOM     37  C   UNL     1     -46.440  35.165  28.828  1.00  0.00     0.097 C 
ATOM     38  C   UNL     1     -46.337  36.757  26.938  1.00  0.00     0.042 C 
ATOM     39  C   UNL     1     -46.212  36.347  29.785  1.00  0.00     0.240 C 
ATOM     40  H   UNL     1     -47.141  34.486  29.327  1.00  0.00     0.060 H 
ATOM     41  H   UNL     1     -45.467  34.672  28.706  1.00  0.00     0.060 H 
ATOM     42  C   UNL     1     -46.543  37.963  27.907  1.00  0.00     0.061 C 
ATOM     43  H   UNL     1     -45.266  36.545  26.816  1.00  0.00     0.052 H 
ATOM     44  H   UNL     1     -46.721  37.026  25.948  1.00  0.00     0.052 H 
ATOM     45  O   UNL     1     -46.085  36.196  31.000  1.00  0.00    -0.273 OA
ATOM     46  N   UNL     1     -46.045  37.601  29.247  1.00  0.00    -0.347 N 
ATOM     47  C   UNL     1     -45.735  39.178  27.395  1.00  0.00    -0.010 C 
ATOM     48  C   UNL     1     -48.058  38.288  27.984  1.00  0.00    -0.010 C 
ATOM     49  H   UNL     1     -45.955  38.323  29.952  1.00  0.00     0.164 HD
ATOM     50  C   UNL     1     -46.599  40.105  26.548  1.00  0.00     0.022 C 
ATOM     51  H   UNL     1     -45.338  39.755  28.243  1.00  0.00     0.031 H 
ATOM     52  H   UNL     1     -44.859  38.852  26.821  1.00  0.00     0.031 H 
ATOM     53  C   UNL     1     -48.322  39.748  28.339  1.00  0.00     0.022 C 
ATOM     54  H   UNL     1     -48.564  37.643  28.711  1.00  0.00     0.031 H 
ATOM     55  H   UNL     1     -48.534  38.090  27.013  1.00  0.00     0.031 H 
ATOM     56  N   UNL     1     -47.669  40.651  27.385  1.00  0.00    -0.356 N 
ATOM     57  H   UNL     1     -45.965  40.916  26.170  1.00  0.00     0.049 H 
ATOM     58  H   UNL     1     -47.004  39.562  25.685  1.00  0.00     0.049 H 
ATOM     59  H   UNL     1     -49.408  39.888  28.368  1.00  0.00     0.049 H 
ATOM     60  H   UNL     1     -47.940  39.962  29.344  1.00  0.00     0.049 H 
BRANCH  56  61
ATOM     61  C   UNL     1     -48.467  41.623  26.777  1.00  0.00     0.143 A 
ATOM     62  N   UNL     1     -49.807  41.418  26.692  1.00  0.00    -0.200 NA
ATOM     63  C   UNL     1     -47.960  42.809  26.192  1.00  0.00     0.061 A 
ATOM     64  C   UNL     1     -50.572  42.356  26.108  1.00  0.00     0.226 A 
ATOM     65  C   UNL     1     -48.880  43.680  25.624  1.00  0.00     0.144 A 
ATOM     66  C   UNL     1     -46.677  43.397  25.978  1.00  0.00    -0.031 A 
ATOM     67  Cl  UNL     1     -52.249  42.015  26.069  1.00  0.00    -0.041 Cl
ATOM     68  N   UNL     1     -50.208  43.522  25.555  1.00  0.00    -0.200 NA
ATOM     69  N   UNL     1     -48.205  44.758  25.120  1.00  0.00    -0.346 N 
ATOM     70  C   UNL     1     -46.860  44.597  25.325  1.00  0.00     0.003 A 
ATOM     71  H   UNL     1     -45.721  42.981  26.265  1.00  0.00     0.065 H 
ATOM     72  H   UNL     1     -48.653  45.534  24.654  1.00  0.00     0.167 HD
ATOM     73  H   UNL     1     -46.153  45.342  24.982  1.00  0.00     0.082 H 
ENDBRANCH  56  61
ENDBRANCH   4  36
TORSDOF 6
ENDMDL
