MODEL 1
REMARK VINA RESULT:      -9.4      0.000      0.000
REMARK SMILES CNc1ccc2ccc(OC[C@H]3O[C@@H](n4cc(-c5ccc(C)o5)c5c(N)ncnc54)[C@@H](F)[C@@H]3O)cc2n1
REMARK SMILES IDX 11 1 10 4 9 5 3 6 4 7 37 8 5 9 36 11 6 12 35 14 7 15 8 17
REMARK SMILES IDX 2 20 1 22 12 26 13 27 33 28 14 30 31 31 32 34 34 36 15 38
REMARK SMILES IDX 16 39 30 40 17 41 24 43 29 44 25 45 28 46 27 47 18 49 19 50
REMARK SMILES IDX 23 51 20 52 21 54 22 56 26 60
REMARK H PARENT 11 2 11 3 4 10 5 13 35 16 7 18 8 19 2 21 1 23 1 24 1 25 12 29
REMARK H PARENT 33 32 14 33 31 35 34 37 16 42 28 48 19 53 20 55 22 57 22 58
REMARK H PARENT 22 59 26 61 26 62
REMARK Flexibility Score: inf
ROOT
ATOM      1  C   UNL     1     -46.627  35.786  26.542  1.00  0.00     0.117 C 
ATOM      2  H   UNL     1     -46.810  36.652  25.895  1.00  0.00     0.073 H 
ATOM      3  H   UNL     1     -45.782  35.245  26.098  1.00  0.00     0.073 H 
ENDROOT
BRANCH   1   4
ATOM      4  O   UNL     1     -47.726  34.870  26.513  1.00  0.00    -0.491 OA
BRANCH   4   5
ATOM      5  C   UNL     1     -47.584  33.691  25.834  1.00  0.00     0.121 A 
ATOM      6  C   UNL     1     -48.859  29.306  24.491  1.00  0.00     0.126 A 
ATOM      7  C   UNL     1     -47.728  29.170  23.692  1.00  0.00    -0.019 A 
ATOM      8  N   UNL     1     -49.098  30.434  25.189  1.00  0.00    -0.231 NA
ATOM      9  C   UNL     1     -46.809  30.211  23.626  1.00  0.00    -0.049 A 
ATOM     10  H   UNL     1     -47.568  28.265  23.115  1.00  0.00     0.066 H 
ATOM     11  C   UNL     1     -48.216  31.448  25.129  1.00  0.00     0.076 A 
ATOM     12  C   UNL     1     -47.042  31.380  24.355  1.00  0.00     0.001 A 
ATOM     13  H   UNL     1     -45.925  30.106  23.004  1.00  0.00     0.063 H 
ATOM     14  C   UNL     1     -48.465  32.607  25.856  1.00  0.00     0.007 A 
ATOM     15  C   UNL     1     -46.149  32.460  24.327  1.00  0.00    -0.049 A 
ATOM     16  H   UNL     1     -49.376  32.625  26.445  1.00  0.00     0.069 H 
ATOM     17  C   UNL     1     -46.422  33.608  25.068  1.00  0.00    -0.019 A 
ATOM     18  H   UNL     1     -45.239  32.416  23.732  1.00  0.00     0.063 H 
ATOM     19  H   UNL     1     -45.728  34.445  25.046  1.00  0.00     0.066 H 
BRANCH   6  20
ATOM     20  N   UNL     1     -49.779  28.242  24.512  1.00  0.00    -0.373 N 
ATOM     21  H   UNL     1     -50.311  28.250  23.648  1.00  0.00     0.161 HD
BRANCH  20  22
ATOM     22  C   UNL     1     -49.178  26.942  24.764  1.00  0.00     0.005 C 
ATOM     23  H   UNL     1     -49.746  26.436  25.552  1.00  0.00     0.045 H 
ATOM     24  H   UNL     1     -48.145  27.037  25.118  1.00  0.00     0.045 H 
ATOM     25  H   UNL     1     -49.207  26.303  23.874  1.00  0.00     0.045 H 
ENDBRANCH  20  22
ENDBRANCH   6  20
ENDBRANCH   4   5
ENDBRANCH   1   4
BRANCH   1  26
ATOM     26  C   UNL     1     -46.269  36.176  27.978  1.00  0.00     0.123 C 
ATOM     27  O   UNL     1     -44.961  36.783  28.038  1.00  0.00    -0.345 OA
ATOM     28  C   UNL     1     -47.220  37.214  28.548  1.00  0.00     0.119 C 
ATOM     29  H   UNL     1     -46.239  35.284  28.614  1.00  0.00     0.067 H 
ATOM     30  C   UNL     1     -44.983  37.774  29.097  1.00  0.00     0.169 C 
ATOM     31  C   UNL     1     -46.391  37.777  29.682  1.00  0.00     0.173 C 
ATOM     32  H   UNL     1     -47.457  37.999  27.820  1.00  0.00     0.066 H 
ATOM     33  H   UNL     1     -44.238  37.474  29.841  1.00  0.00     0.088 H 
ATOM     34  F   UNL     1     -46.852  39.005  30.015  1.00  0.00    -0.239 F 
ATOM     35  H   UNL     1     -46.456  37.139  30.571  1.00  0.00     0.074 H 
BRANCH  28  36
ATOM     36  O   UNL     1     -48.438  36.634  28.993  1.00  0.00    -0.387 OA
ATOM     37  H   UNL     1     -48.277  36.283  29.890  1.00  0.00     0.211 HD
ENDBRANCH  28  36
BRANCH  30  38
ATOM     38  N   UNL     1     -44.570  39.061  28.554  1.00  0.00    -0.302 N 
ATOM     39  C   UNL     1     -45.150  39.750  27.523  1.00  0.00     0.020 A 
ATOM     40  C   UNL     1     -43.509  39.784  29.041  1.00  0.00     0.148 A 
ATOM     41  C   UNL     1     -44.433  40.915  27.327  1.00  0.00     0.048 A 
ATOM     42  H   UNL     1     -45.988  39.344  26.970  1.00  0.00     0.083 H 
ATOM     43  C   UNL     1     -43.424  40.982  28.334  1.00  0.00     0.072 A 
ATOM     44  N   UNL     1     -42.720  39.386  30.054  1.00  0.00    -0.218 NA
ATOM     45  C   UNL     1     -42.447  41.884  28.789  1.00  0.00     0.137 A 
ATOM     46  C   UNL     1     -41.792  40.306  30.350  1.00  0.00     0.120 A 
ATOM     47  N   UNL     1     -41.623  41.515  29.792  1.00  0.00    -0.219 NA
ATOM     48  H   UNL     1     -41.099  40.048  31.145  1.00  0.00     0.106 H 
BRANCH  41  49
ATOM     49  C   UNL     1     -44.785  41.862  26.140  1.00  0.00     0.136 A 
ATOM     50  C   UNL     1     -45.989  42.474  25.852  1.00  0.00    -0.015 A 
ATOM     51  O   UNL     1     -43.858  42.255  25.209  1.00  0.00    -0.461 OA
ATOM     52  C   UNL     1     -45.796  43.247  24.679  1.00  0.00    -0.020 A 
ATOM     53  H   UNL     1     -46.898  42.421  26.431  1.00  0.00     0.066 H 
ATOM     54  C   UNL     1     -44.478  43.080  24.324  1.00  0.00     0.101 A 
ATOM     55  H   UNL     1     -46.524  43.865  24.173  1.00  0.00     0.066 H 
BRANCH  54  56
ATOM     56  C   UNL     1     -43.642  43.610  23.230  1.00  0.00    -0.006 C 
ATOM     57  H   UNL     1     -44.087  43.375  22.258  1.00  0.00     0.031 H 
ATOM     58  H   UNL     1     -43.541  44.697  23.304  1.00  0.00     0.031 H 
ATOM     59  H   UNL     1     -42.640  43.171  23.267  1.00  0.00     0.031 H 
ENDBRANCH  54  56
ENDBRANCH  41  49
BRANCH  45  60
ATOM     60  N   UNL     1     -42.300  43.195  28.348  1.00  0.00    -0.383 N 
ATOM     61  H   UNL     1     -43.042  43.393  27.684  1.00  0.00     0.158 HD
ATOM     62  H   UNL     1     -41.369  43.368  27.986  1.00  0.00     0.158 HD
ENDBRANCH  45  60
ENDBRANCH  30  38
ENDBRANCH   1  26
TORSDOF 10
ENDMDL
MODEL 2
REMARK VINA RESULT:      -9.1      2.920      4.796
REMARK SMILES CNc1ccc2ccc(OC[C@H]3O[C@@H](n4cc(-c5ccc(C)o5)c5c(N)ncnc54)[C@@H](F)[C@@H]3O)cc2n1
REMARK SMILES IDX 11 1 10 4 9 5 3 6 4 7 37 8 5 9 36 11 6 12 35 14 7 15 8 17
REMARK SMILES IDX 2 20 1 22 12 26 13 27 33 28 14 30 31 31 32 34 34 36 15 38
REMARK SMILES IDX 16 39 30 40 17 41 24 43 29 44 25 45 28 46 27 47 18 49 19 50
REMARK SMILES IDX 23 51 20 52 21 54 22 56 26 60
REMARK H PARENT 11 2 11 3 4 10 5 13 35 16 7 18 8 19 2 21 1 23 1 24 1 25 12 29
REMARK H PARENT 33 32 14 33 31 35 34 37 16 42 28 48 19 53 20 55 22 57 22 58
REMARK H PARENT 22 59 26 61 26 62
REMARK Flexibility Score: inf
ROOT
ATOM      1  C   UNL     1     -45.832  38.414  28.682  1.00  0.00     0.117 C 
ATOM      2  H   UNL     1     -45.671  37.478  29.231  1.00  0.00     0.073 H 
ATOM      3  H   UNL     1     -46.216  39.135  29.413  1.00  0.00     0.073 H 
ENDROOT
BRANCH   1   4
ATOM      4  O   UNL     1     -46.866  38.275  27.702  1.00  0.00    -0.491 OA
BRANCH   4   5
ATOM      5  C   UNL     1     -47.234  37.019  27.307  1.00  0.00     0.121 A 
ATOM      6  C   UNL     1     -46.555  32.756  25.300  1.00  0.00     0.126 A 
ATOM      7  C   UNL     1     -47.860  32.363  25.578  1.00  0.00    -0.019 A 
ATOM      8  N   UNL     1     -46.091  33.969  25.661  1.00  0.00    -0.231 NA
ATOM      9  C   UNL     1     -48.717  33.248  26.225  1.00  0.00    -0.049 A 
ATOM     10  H   UNL     1     -48.206  31.372  25.306  1.00  0.00     0.066 H 
ATOM     11  C   UNL     1     -46.911  34.830  26.290  1.00  0.00     0.076 A 
ATOM     12  C   UNL     1     -48.248  34.512  26.593  1.00  0.00     0.001 A 
ATOM     13  H   UNL     1     -49.736  32.943  26.443  1.00  0.00     0.063 H 
ATOM     14  C   UNL     1     -46.428  36.082  26.655  1.00  0.00     0.007 A 
ATOM     15  C   UNL     1     -49.068  35.444  27.245  1.00  0.00    -0.049 A 
ATOM     16  H   UNL     1     -45.395  36.297  26.401  1.00  0.00     0.069 H 
ATOM     17  C   UNL     1     -48.558  36.691  27.596  1.00  0.00    -0.019 A 
ATOM     18  H   UNL     1     -50.102  35.205  27.483  1.00  0.00     0.063 H 
ATOM     19  H   UNL     1     -49.196  37.414  28.101  1.00  0.00     0.066 H 
BRANCH   6  20
ATOM     20  N   UNL     1     -45.711  31.824  24.668  1.00  0.00    -0.373 N 
ATOM     21  H   UNL     1     -45.508  31.071  25.317  1.00  0.00     0.161 HD
BRANCH  20  22
ATOM     22  C   UNL     1     -46.220  31.325  23.401  1.00  0.00     0.005 C 
ATOM     23  H   UNL     1     -45.437  31.418  22.642  1.00  0.00     0.045 H 
ATOM     24  H   UNL     1     -47.080  31.909  23.053  1.00  0.00     0.045 H 
ATOM     25  H   UNL     1     -46.494  30.266  23.465  1.00  0.00     0.045 H 
ENDBRANCH  20  22
ENDBRANCH   6  20
ENDBRANCH   4   5
ENDBRANCH   1   4
BRANCH   1  26
ATOM     26  C   UNL     1     -44.550  38.971  28.059  1.00  0.00     0.123 C 
ATOM     27  O   UNL     1     -44.802  39.493  26.738  1.00  0.00    -0.345 OA
ATOM     28  C   UNL     1     -43.983  40.137  28.851  1.00  0.00     0.119 C 
ATOM     29  H   UNL     1     -43.806  38.173  27.953  1.00  0.00     0.067 H 
ATOM     30  C   UNL     1     -43.910  40.618  26.530  1.00  0.00     0.169 C 
ATOM     31  C   UNL     1     -43.100  40.793  27.811  1.00  0.00     0.173 C 
ATOM     32  H   UNL     1     -44.767  40.830  29.180  1.00  0.00     0.066 H 
ATOM     33  H   UNL     1     -43.267  40.373  25.678  1.00  0.00     0.088 H 
ATOM     34  F   UNL     1     -42.876  42.083  28.154  1.00  0.00    -0.239 F 
ATOM     35  H   UNL     1     -42.130  40.287  27.743  1.00  0.00     0.074 H 
BRANCH  28  36
ATOM     36  O   UNL     1     -43.259  39.704  29.993  1.00  0.00    -0.387 OA
ATOM     37  H   UNL     1     -43.342  38.732  30.034  1.00  0.00     0.211 HD
ENDBRANCH  28  36
BRANCH  30  38
ATOM     38  N   UNL     1     -44.696  41.788  26.167  1.00  0.00    -0.302 N 
ATOM     39  C   UNL     1     -46.014  42.023  26.455  1.00  0.00     0.020 A 
ATOM     40  C   UNL     1     -44.186  42.860  25.476  1.00  0.00     0.148 A 
ATOM     41  C   UNL     1     -46.361  43.246  25.912  1.00  0.00     0.048 A 
ATOM     42  H   UNL     1     -46.621  41.289  26.968  1.00  0.00     0.083 H 
ATOM     43  C   UNL     1     -45.185  43.822  25.344  1.00  0.00     0.072 A 
ATOM     44  N   UNL     1     -42.918  42.946  25.037  1.00  0.00    -0.218 NA
ATOM     45  C   UNL     1     -44.785  45.030  24.747  1.00  0.00     0.137 A 
ATOM     46  C   UNL     1     -42.682  44.118  24.432  1.00  0.00     0.120 A 
ATOM     47  N   UNL     1     -43.527  45.150  24.277  1.00  0.00    -0.219 NA
ATOM     48  H   UNL     1     -41.683  44.257  24.029  1.00  0.00     0.106 H 
BRANCH  41  49
ATOM     49  C   UNL     1     -47.838  43.741  25.976  1.00  0.00     0.136 A 
ATOM     50  C   UNL     1     -48.327  44.936  26.464  1.00  0.00    -0.015 A 
ATOM     51  O   UNL     1     -48.884  43.008  25.477  1.00  0.00    -0.461 OA
ATOM     52  C   UNL     1     -49.733  44.917  26.284  1.00  0.00    -0.020 A 
ATOM     53  H   UNL     1     -47.752  45.757  26.863  1.00  0.00     0.066 H 
ATOM     54  C   UNL     1     -50.025  43.718  25.678  1.00  0.00     0.101 A 
ATOM     55  H   UNL     1     -50.439  45.694  26.544  1.00  0.00     0.066 H 
BRANCH  54  56
ATOM     56  C   UNL     1     -51.276  43.090  25.211  1.00  0.00    -0.006 C 
ATOM     57  H   UNL     1     -51.059  42.182  24.640  1.00  0.00     0.031 H 
ATOM     58  H   UNL     1     -51.918  42.817  26.055  1.00  0.00     0.031 H 
ATOM     59  H   UNL     1     -51.834  43.778  24.567  1.00  0.00     0.031 H 
ENDBRANCH  54  56
ENDBRANCH  41  49
BRANCH  45  60
ATOM     60  N   UNL     1     -45.563  46.181  24.669  1.00  0.00    -0.383 N 
ATOM     61  H   UNL     1     -44.982  46.976  24.916  1.00  0.00     0.158 HD
ATOM     62  H   UNL     1     -46.407  46.102  25.225  1.00  0.00     0.158 HD
ENDBRANCH  45  60
ENDBRANCH  30  38
ENDBRANCH   1  26
TORSDOF 10
ENDMDL
MODEL 3
REMARK VINA RESULT:      -8.9      2.662      3.476
REMARK SMILES CNc1ccc2ccc(OC[C@H]3O[C@@H](n4cc(-c5ccc(C)o5)c5c(N)ncnc54)[C@@H](F)[C@@H]3O)cc2n1
REMARK SMILES IDX 11 1 10 4 9 5 3 6 4 7 37 8 5 9 36 11 6 12 35 14 7 15 8 17
REMARK SMILES IDX 2 20 1 22 12 26 13 27 33 28 14 30 31 31 32 34 34 36 15 38
REMARK SMILES IDX 16 39 30 40 17 41 24 43 29 44 25 45 28 46 27 47 18 49 19 50
REMARK SMILES IDX 23 51 20 52 21 54 22 56 26 60
REMARK H PARENT 11 2 11 3 4 10 5 13 35 16 7 18 8 19 2 21 1 23 1 24 1 25 12 29
REMARK H PARENT 33 32 14 33 31 35 34 37 16 42 28 48 19 53 20 55 22 57 22 58
REMARK H PARENT 22 59 26 61 26 62
REMARK Flexibility Score: inf
ROOT
ATOM      1  C   UNL     1     -47.504  35.405  28.278  1.00  0.00     0.117 C 
ATOM      2  H   UNL     1     -47.430  34.417  28.747  1.00  0.00     0.073 H 
ATOM      3  H   UNL     1     -48.251  35.963  28.856  1.00  0.00     0.073 H 
ENDROOT
BRANCH   1   4
ATOM      4  O   UNL     1     -48.033  35.318  26.951  1.00  0.00    -0.491 OA
BRANCH   4   5
ATOM      5  C   UNL     1     -47.809  34.180  26.226  1.00  0.00     0.121 A 
ATOM      6  C   UNL     1     -48.801  29.794  24.667  1.00  0.00     0.126 A 
ATOM      7  C   UNL     1     -47.649  29.757  23.889  1.00  0.00    -0.019 A 
ATOM      8  N   UNL     1     -49.120  30.874  25.408  1.00  0.00    -0.231 NA
ATOM      9  C   UNL     1     -46.790  30.851  23.889  1.00  0.00    -0.049 A 
ATOM     10  H   UNL     1     -47.426  28.890  23.278  1.00  0.00     0.066 H 
ATOM     11  C   UNL     1     -48.296  31.939  25.411  1.00  0.00     0.076 A 
ATOM     12  C   UNL     1     -47.105  31.971  24.662  1.00  0.00     0.001 A 
ATOM     13  H   UNL     1     -45.890  30.824  23.282  1.00  0.00     0.063 H 
ATOM     14  C   UNL     1     -48.627  33.048  26.181  1.00  0.00     0.007 A 
ATOM     15  C   UNL     1     -46.276  33.101  24.700  1.00  0.00    -0.049 A 
ATOM     16  H   UNL     1     -49.548  32.988  26.751  1.00  0.00     0.069 H 
ATOM     17  C   UNL     1     -46.630  34.197  25.483  1.00  0.00    -0.019 A 
ATOM     18  H   UNL     1     -45.354  33.135  24.125  1.00  0.00     0.063 H 
ATOM     19  H   UNL     1     -45.984  35.073  25.513  1.00  0.00     0.066 H 
BRANCH   6  20
ATOM     20  N   UNL     1     -49.659  28.678  24.623  1.00  0.00    -0.373 N 
ATOM     21  H   UNL     1     -50.444  28.842  25.245  1.00  0.00     0.161 HD
BRANCH  20  22
ATOM     22  C   UNL     1     -50.096  28.319  23.283  1.00  0.00     0.005 C 
ATOM     23  H   UNL     1     -49.428  28.789  22.554  1.00  0.00     0.045 H 
ATOM     24  H   UNL     1     -51.109  28.683  23.079  1.00  0.00     0.045 H 
ATOM     25  H   UNL     1     -50.052  27.236  23.121  1.00  0.00     0.045 H 
ENDBRANCH  20  22
ENDBRANCH   6  20
ENDBRANCH   4   5
ENDBRANCH   1   4
BRANCH   1  26
ATOM     26  C   UNL     1     -46.182  36.176  28.298  1.00  0.00     0.123 C 
ATOM     27  O   UNL     1     -46.052  37.010  27.127  1.00  0.00    -0.345 OA
ATOM     28  C   UNL     1     -46.086  37.126  29.480  1.00  0.00     0.119 C 
ATOM     29  H   UNL     1     -45.338  35.477  28.290  1.00  0.00     0.067 H 
ATOM     30  C   UNL     1     -45.314  38.198  27.511  1.00  0.00     0.169 C 
ATOM     31  C   UNL     1     -45.011  38.078  29.001  1.00  0.00     0.173 C 
ATOM     32  H   UNL     1     -47.025  37.663  29.654  1.00  0.00     0.066 H 
ATOM     33  H   UNL     1     -44.396  38.220  26.915  1.00  0.00     0.088 H 
ATOM     34  F   UNL     1     -45.102  39.244  29.682  1.00  0.00    -0.239 F 
ATOM     35  H   UNL     1     -44.012  37.663  29.174  1.00  0.00     0.074 H 
BRANCH  28  36
ATOM     36  O   UNL     1     -45.728  36.451  30.678  1.00  0.00    -0.387 OA
ATOM     37  H   UNL     1     -46.504  36.485  31.269  1.00  0.00     0.211 HD
ENDBRANCH  28  36
BRANCH  30  38
ATOM     38  N   UNL     1     -46.095  39.377  27.163  1.00  0.00    -0.302 N 
ATOM     39  C   UNL     1     -47.437  39.569  27.356  1.00  0.00     0.020 A 
ATOM     40  C   UNL     1     -45.555  40.502  26.590  1.00  0.00     0.148 A 
ATOM     41  C   UNL     1     -47.766  40.820  26.869  1.00  0.00     0.048 A 
ATOM     42  H   UNL     1     -48.067  38.791  27.767  1.00  0.00     0.083 H 
ATOM     43  C   UNL     1     -46.562  41.453  26.440  1.00  0.00     0.072 A 
ATOM     44  N   UNL     1     -44.257  40.640  26.264  1.00  0.00    -0.218 NA
ATOM     45  C   UNL     1     -46.143  42.706  25.960  1.00  0.00     0.137 A 
ATOM     46  C   UNL     1     -44.000  41.854  25.761  1.00  0.00     0.120 A 
ATOM     47  N   UNL     1     -44.853  42.880  25.605  1.00  0.00    -0.219 NA
ATOM     48  H   UNL     1     -42.976  42.038  25.452  1.00  0.00     0.106 H 
BRANCH  41  49
ATOM     49  C   UNL     1     -49.255  41.283  26.843  1.00  0.00     0.136 A 
ATOM     50  C   UNL     1     -50.280  40.942  27.702  1.00  0.00    -0.015 A 
ATOM     51  O   UNL     1     -49.731  42.181  25.923  1.00  0.00    -0.461 OA
ATOM     52  C   UNL     1     -51.438  41.636  27.269  1.00  0.00    -0.020 A 
ATOM     53  H   UNL     1     -50.213  40.307  28.572  1.00  0.00     0.066 H 
ATOM     54  C   UNL     1     -51.052  42.380  26.179  1.00  0.00     0.101 A 
ATOM     55  H   UNL     1     -52.423  41.612  27.713  1.00  0.00     0.066 H 
BRANCH  54  56
ATOM     56  C   UNL     1     -51.756  43.319  25.284  1.00  0.00    -0.006 C 
ATOM     57  H   UNL     1     -51.904  42.870  24.297  1.00  0.00     0.031 H 
ATOM     58  H   UNL     1     -52.738  43.586  25.688  1.00  0.00     0.031 H 
ATOM     59  H   UNL     1     -51.176  44.240  25.162  1.00  0.00     0.031 H 
ENDBRANCH  54  56
ENDBRANCH  41  49
BRANCH  45  60
ATOM     60  N   UNL     1     -46.938  43.846  25.895  1.00  0.00    -0.383 N 
ATOM     61  H   UNL     1     -47.828  43.639  26.338  1.00  0.00     0.158 HD
ATOM     62  H   UNL     1     -47.023  44.191  24.946  1.00  0.00     0.158 HD
ENDBRANCH  45  60
ENDBRANCH  30  38
ENDBRANCH   1  26
TORSDOF 10
ENDMDL
MODEL 4
REMARK VINA RESULT:      -8.7      1.650      2.236
REMARK SMILES CNc1ccc2ccc(OC[C@H]3O[C@@H](n4cc(-c5ccc(C)o5)c5c(N)ncnc54)[C@@H](F)[C@@H]3O)cc2n1
REMARK SMILES IDX 11 1 10 4 9 5 3 6 4 7 37 8 5 9 36 11 6 12 35 14 7 15 8 17
REMARK SMILES IDX 2 20 1 22 12 26 13 27 33 28 14 30 31 31 32 34 34 36 15 38
REMARK SMILES IDX 16 39 30 40 17 41 24 43 29 44 25 45 28 46 27 47 18 49 19 50
REMARK SMILES IDX 23 51 20 52 21 54 22 56 26 60
REMARK H PARENT 11 2 11 3 4 10 5 13 35 16 7 18 8 19 2 21 1 23 1 24 1 25 12 29
REMARK H PARENT 33 32 14 33 31 35 34 37 16 42 28 48 19 53 20 55 22 57 22 58
REMARK H PARENT 22 59 26 61 26 62
REMARK Flexibility Score: inf
ROOT
ATOM      1  C   UNL     1     -45.764  35.445  27.017  1.00  0.00     0.117 C 
ATOM      2  H   UNL     1     -46.075  35.736  26.007  1.00  0.00     0.073 H 
ATOM      3  H   UNL     1     -44.668  35.499  27.028  1.00  0.00     0.073 H 
ENDROOT
BRANCH   1   4
ATOM      4  O   UNL     1     -46.082  34.076  27.289  1.00  0.00    -0.491 OA
BRANCH   4   5
ATOM      5  C   UNL     1     -46.731  33.348  26.332  1.00  0.00     0.121 A 
ATOM      6  C   UNL     1     -47.098  31.010  22.201  1.00  0.00     0.126 A 
ATOM      7  C   UNL     1     -48.434  30.703  22.438  1.00  0.00    -0.019 A 
ATOM      8  N   UNL     1     -46.366  31.712  23.090  1.00  0.00    -0.231 NA
ATOM      9  C   UNL     1     -49.040  31.147  23.608  1.00  0.00    -0.049 A 
ATOM     10  H   UNL     1     -48.997  30.112  21.724  1.00  0.00     0.066 H 
ATOM     11  C   UNL     1     -46.943  32.143  24.227  1.00  0.00     0.076 A 
ATOM     12  C   UNL     1     -48.293  31.885  24.530  1.00  0.00     0.001 A 
ATOM     13  H   UNL     1     -50.083  30.909  23.795  1.00  0.00     0.063 H 
ATOM     14  C   UNL     1     -46.185  32.871  25.137  1.00  0.00     0.007 A 
ATOM     15  C   UNL     1     -48.853  32.360  25.725  1.00  0.00    -0.049 A 
ATOM     16  H   UNL     1     -45.150  33.057  24.869  1.00  0.00     0.069 H 
ATOM     17  C   UNL     1     -48.071  33.089  26.617  1.00  0.00    -0.019 A 
ATOM     18  H   UNL     1     -49.895  32.165  25.967  1.00  0.00     0.063 H 
ATOM     19  H   UNL     1     -48.507  33.458  27.543  1.00  0.00     0.066 H 
BRANCH   6  20
ATOM     20  N   UNL     1     -46.512  30.521  21.019  1.00  0.00    -0.373 N 
ATOM     21  H   UNL     1     -47.194  29.955  20.524  1.00  0.00     0.161 HD
BRANCH  20  22
ATOM     22  C   UNL     1     -45.945  31.553  20.166  1.00  0.00     0.005 C 
ATOM     23  H   UNL     1     -46.065  32.525  20.658  1.00  0.00     0.045 H 
ATOM     24  H   UNL     1     -46.466  31.611  19.203  1.00  0.00     0.045 H 
ATOM     25  H   UNL     1     -44.874  31.397  19.999  1.00  0.00     0.045 H 
ENDBRANCH  20  22
ENDBRANCH   6  20
ENDBRANCH   4   5
ENDBRANCH   1   4
BRANCH   1  26
ATOM     26  C   UNL     1     -46.318  36.370  28.103  1.00  0.00     0.123 C 
ATOM     27  O   UNL     1     -45.272  37.183  28.674  1.00  0.00    -0.345 OA
ATOM     28  C   UNL     1     -47.339  37.354  27.558  1.00  0.00     0.119 C 
ATOM     29  H   UNL     1     -46.746  35.777  28.920  1.00  0.00     0.067 H 
ATOM     30  C   UNL     1     -45.854  38.460  29.038  1.00  0.00     0.169 C 
ATOM     31  C   UNL     1     -47.324  38.416  28.636  1.00  0.00     0.173 C 
ATOM     32  H   UNL     1     -47.027  37.778  26.596  1.00  0.00     0.066 H 
ATOM     33  H   UNL     1     -45.737  38.577  30.120  1.00  0.00     0.088 H 
ATOM     34  F   UNL     1     -47.798  39.579  28.133  1.00  0.00    -0.239 F 
ATOM     35  H   UNL     1     -47.961  38.128  29.480  1.00  0.00     0.074 H 
BRANCH  28  36
ATOM     36  O   UNL     1     -48.618  36.758  27.390  1.00  0.00    -0.387 OA
ATOM     37  H   UNL     1     -48.761  36.651  26.430  1.00  0.00     0.211 HD
ENDBRANCH  28  36
BRANCH  30  38
ATOM     38  N   UNL     1     -45.101  39.527  28.394  1.00  0.00    -0.302 N 
ATOM     39  C   UNL     1     -45.464  40.247  27.288  1.00  0.00     0.020 A 
ATOM     40  C   UNL     1     -43.885  39.978  28.848  1.00  0.00     0.148 A 
ATOM     41  C   UNL     1     -44.453  41.148  27.010  1.00  0.00     0.048 A 
ATOM     42  H   UNL     1     -46.377  40.033  26.747  1.00  0.00     0.083 H 
ATOM     43  C   UNL     1     -43.471  41.034  28.039  1.00  0.00     0.072 A 
ATOM     44  N   UNL     1     -43.242  39.478  29.918  1.00  0.00    -0.218 NA
ATOM     45  C   UNL     1     -42.287  41.675  28.442  1.00  0.00     0.137 A 
ATOM     46  C   UNL     1     -42.099  40.135  30.159  1.00  0.00     0.120 A 
ATOM     47  N   UNL     1     -41.602  41.193  29.500  1.00  0.00    -0.219 NA
ATOM     48  H   UNL     1     -41.508  39.776  30.996  1.00  0.00     0.106 H 
BRANCH  41  49
ATOM     49  C   UNL     1     -44.526  42.038  25.732  1.00  0.00     0.136 A 
ATOM     50  C   UNL     1     -43.862  41.879  24.532  1.00  0.00    -0.015 A 
ATOM     51  O   UNL     1     -45.351  43.129  25.638  1.00  0.00    -0.461 OA
ATOM     52  C   UNL     1     -44.275  42.936  23.682  1.00  0.00    -0.020 A 
ATOM     53  H   UNL     1     -43.191  41.078  24.263  1.00  0.00     0.066 H 
ATOM     54  C   UNL     1     -45.185  43.673  24.403  1.00  0.00     0.101 A 
ATOM     55  H   UNL     1     -43.964  43.120  22.663  1.00  0.00     0.066 H 
BRANCH  54  56
ATOM     56  C   UNL     1     -45.990  44.874  24.106  1.00  0.00    -0.006 C 
ATOM     57  H   UNL     1     -46.942  44.840  24.643  1.00  0.00     0.031 H 
ATOM     58  H   UNL     1     -45.462  45.785  24.405  1.00  0.00     0.031 H 
ATOM     59  H   UNL     1     -46.200  44.938  23.033  1.00  0.00     0.031 H 
ENDBRANCH  54  56
ENDBRANCH  41  49
BRANCH  45  60
ATOM     60  N   UNL     1     -41.783  42.848  27.889  1.00  0.00    -0.383 N 
ATOM     61  H   UNL     1     -41.888  42.796  26.881  1.00  0.00     0.158 HD
ATOM     62  H   UNL     1     -40.834  43.029  28.193  1.00  0.00     0.158 HD
ENDBRANCH  45  60
ENDBRANCH  30  38
ENDBRANCH   1  26
TORSDOF 10
ENDMDL
MODEL 5
REMARK VINA RESULT:      -8.7      3.343     12.209
REMARK SMILES CNc1ccc2ccc(OC[C@H]3O[C@@H](n4cc(-c5ccc(C)o5)c5c(N)ncnc54)[C@@H](F)[C@@H]3O)cc2n1
REMARK SMILES IDX 11 1 10 4 9 5 3 6 4 7 37 8 5 9 36 11 6 12 35 14 7 15 8 17
REMARK SMILES IDX 2 20 1 22 12 26 13 27 33 28 14 30 31 31 32 34 34 36 15 38
REMARK SMILES IDX 16 39 30 40 17 41 24 43 29 44 25 45 28 46 27 47 18 49 19 50
REMARK SMILES IDX 23 51 20 52 21 54 22 56 26 60
REMARK H PARENT 11 2 11 3 4 10 5 13 35 16 7 18 8 19 2 21 1 23 1 24 1 25 12 29
REMARK H PARENT 33 32 14 33 31 35 34 37 16 42 28 48 19 53 20 55 22 57 22 58
REMARK H PARENT 22 59 26 61 26 62
REMARK Flexibility Score: inf
ROOT
ATOM      1  C   UNL     1     -46.648  32.726  26.670  1.00  0.00     0.117 C 
ATOM      2  H   UNL     1     -46.643  31.661  26.933  1.00  0.00     0.073 H 
ATOM      3  H   UNL     1     -45.640  32.956  26.304  1.00  0.00     0.073 H 
ENDROOT
BRANCH   1   4
ATOM      4  O   UNL     1     -46.832  33.549  27.826  1.00  0.00    -0.491 OA
BRANCH   4   5
ATOM      5  C   UNL     1     -46.502  34.874  27.751  1.00  0.00     0.121 A 
ATOM      6  C   UNL     1     -44.362  38.875  29.190  1.00  0.00     0.126 A 
ATOM      7  C   UNL     1     -44.892  39.598  28.127  1.00  0.00    -0.019 A 
ATOM      8  N   UNL     1     -44.615  37.560  29.346  1.00  0.00    -0.231 NA
ATOM      9  C   UNL     1     -45.722  38.959  27.213  1.00  0.00    -0.049 A 
ATOM     10  H   UNL     1     -44.653  40.649  28.004  1.00  0.00     0.066 H 
ATOM     11  C   UNL     1     -45.415  36.932  28.464  1.00  0.00     0.076 A 
ATOM     12  C   UNL     1     -46.001  37.599  27.372  1.00  0.00     0.001 A 
ATOM     13  H   UNL     1     -46.138  39.523  26.383  1.00  0.00     0.063 H 
ATOM     14  C   UNL     1     -45.677  35.577  28.633  1.00  0.00     0.007 A 
ATOM     15  C   UNL     1     -46.832  36.905  26.481  1.00  0.00    -0.049 A 
ATOM     16  H   UNL     1     -45.214  35.095  29.487  1.00  0.00     0.069 H 
ATOM     17  C   UNL     1     -47.080  35.549  26.676  1.00  0.00    -0.019 A 
ATOM     18  H   UNL     1     -47.288  37.413  25.635  1.00  0.00     0.063 H 
ATOM     19  H   UNL     1     -47.726  35.011  25.985  1.00  0.00     0.066 H 
BRANCH   6  20
ATOM     20  N   UNL     1     -43.505  39.549  30.081  1.00  0.00    -0.373 N 
ATOM     21  H   UNL     1     -42.960  38.865  30.594  1.00  0.00     0.161 HD
BRANCH  20  22
ATOM     22  C   UNL     1     -42.662  40.551  29.449  1.00  0.00     0.005 C 
ATOM     23  H   UNL     1     -42.575  41.414  30.118  1.00  0.00     0.045 H 
ATOM     24  H   UNL     1     -43.097  40.911  28.510  1.00  0.00     0.045 H 
ATOM     25  H   UNL     1     -41.650  40.171  29.267  1.00  0.00     0.045 H 
ENDBRANCH  20  22
ENDBRANCH   6  20
ENDBRANCH   4   5
ENDBRANCH   1   4
BRANCH   1  26
ATOM     26  C   UNL     1     -47.664  33.068  25.578  1.00  0.00     0.123 C 
ATOM     27  O   UNL     1     -47.419  32.296  24.384  1.00  0.00    -0.345 OA
ATOM     28  C   UNL     1     -49.087  32.732  25.989  1.00  0.00     0.119 C 
ATOM     29  H   UNL     1     -47.577  34.125  25.301  1.00  0.00     0.067 H 
ATOM     30  C   UNL     1     -48.701  32.037  23.756  1.00  0.00     0.169 C 
ATOM     31  C   UNL     1     -49.771  32.667  24.640  1.00  0.00     0.173 C 
ATOM     32  H   UNL     1     -49.151  31.764  26.499  1.00  0.00     0.066 H 
ATOM     33  H   UNL     1     -48.678  32.498  22.763  1.00  0.00     0.088 H 
ATOM     34  F   UNL     1     -50.907  31.937  24.743  1.00  0.00    -0.239 F 
ATOM     35  H   UNL     1     -50.043  33.668  24.288  1.00  0.00     0.074 H 
BRANCH  28  36
ATOM     36  O   UNL     1     -49.644  33.724  26.840  1.00  0.00    -0.387 OA
ATOM     37  H   UNL     1     -48.948  33.983  27.474  1.00  0.00     0.211 HD
ENDBRANCH  28  36
BRANCH  30  38
ATOM     38  N   UNL     1     -48.860  30.601  23.572  1.00  0.00    -0.302 N 
ATOM     39  C   UNL     1     -48.942  29.645  24.549  1.00  0.00     0.020 A 
ATOM     40  C   UNL     1     -48.970  30.001  22.342  1.00  0.00     0.148 A 
ATOM     41  C   UNL     1     -49.074  28.414  23.935  1.00  0.00     0.048 A 
ATOM     42  H   UNL     1     -48.844  29.896  25.598  1.00  0.00     0.083 H 
ATOM     43  C   UNL     1     -49.163  28.634  22.528  1.00  0.00     0.072 A 
ATOM     44  N   UNL     1     -48.924  30.659  21.170  1.00  0.00    -0.218 NA
ATOM     45  C   UNL     1     -49.400  27.892  21.358  1.00  0.00     0.137 A 
ATOM     46  C   UNL     1     -49.101  29.832  20.131  1.00  0.00     0.120 A 
ATOM     47  N   UNL     1     -49.345  28.512  20.161  1.00  0.00    -0.219 NA
ATOM     48  H   UNL     1     -49.055  30.284  19.145  1.00  0.00     0.106 H 
BRANCH  41  49
ATOM     49  C   UNL     1     -49.078  27.109  24.789  1.00  0.00     0.136 A 
ATOM     50  C   UNL     1     -50.113  26.220  25.003  1.00  0.00    -0.015 A 
ATOM     51  O   UNL     1     -47.959  26.644  25.431  1.00  0.00    -0.461 OA
ATOM     52  C   UNL     1     -49.612  25.188  25.836  1.00  0.00    -0.020 A 
ATOM     53  H   UNL     1     -51.104  26.267  24.580  1.00  0.00     0.066 H 
ATOM     54  C   UNL     1     -48.292  25.492  26.070  1.00  0.00     0.101 A 
ATOM     55  H   UNL     1     -50.145  24.320  26.198  1.00  0.00     0.066 H 
BRANCH  54  56
ATOM     56  C   UNL     1     -47.214  24.833  26.833  1.00  0.00    -0.006 C 
ATOM     57  H   UNL     1     -46.235  25.104  26.426  1.00  0.00     0.031 H 
ATOM     58  H   UNL     1     -47.239  25.129  27.886  1.00  0.00     0.031 H 
ATOM     59  H   UNL     1     -47.320  23.744  26.782  1.00  0.00     0.031 H 
ENDBRANCH  54  56
ENDBRANCH  41  49
BRANCH  45  60
ATOM     60  N   UNL     1     -49.784  26.556  21.321  1.00  0.00    -0.383 N 
ATOM     61  H   UNL     1     -49.289  26.061  22.057  1.00  0.00     0.158 HD
ATOM     62  H   UNL     1     -49.656  26.154  20.399  1.00  0.00     0.158 HD
ENDBRANCH  45  60
ENDBRANCH  30  38
ENDBRANCH   1  26
TORSDOF 10
ENDMDL
MODEL 6
REMARK VINA RESULT:      -8.6      3.210     11.969
REMARK SMILES CNc1ccc2ccc(OC[C@H]3O[C@@H](n4cc(-c5ccc(C)o5)c5c(N)ncnc54)[C@@H](F)[C@@H]3O)cc2n1
REMARK SMILES IDX 11 1 10 4 9 5 3 6 4 7 37 8 5 9 36 11 6 12 35 14 7 15 8 17
REMARK SMILES IDX 2 20 1 22 12 26 13 27 33 28 14 30 31 31 32 34 34 36 15 38
REMARK SMILES IDX 16 39 30 40 17 41 24 43 29 44 25 45 28 46 27 47 18 49 19 50
REMARK SMILES IDX 23 51 20 52 21 54 22 56 26 60
REMARK H PARENT 11 2 11 3 4 10 5 13 35 16 7 18 8 19 2 21 1 23 1 24 1 25 12 29
REMARK H PARENT 33 32 14 33 31 35 34 37 16 42 28 48 19 53 20 55 22 57 22 58
REMARK H PARENT 22 59 26 61 26 62
REMARK Flexibility Score: inf
ROOT
ATOM      1  C   UNL     1     -46.503  33.709  26.208  1.00  0.00     0.117 C 
ATOM      2  H   UNL     1     -46.006  32.826  26.626  1.00  0.00     0.073 H 
ATOM      3  H   UNL     1     -45.714  34.317  25.748  1.00  0.00     0.073 H 
ENDROOT
BRANCH   1   4
ATOM      4  O   UNL     1     -47.067  34.529  27.237  1.00  0.00    -0.491 OA
BRANCH   4   5
ATOM      5  C   UNL     1     -46.530  35.766  27.462  1.00  0.00     0.121 A 
ATOM      6  C   UNL     1     -45.826  40.390  26.574  1.00  0.00     0.126 A 
ATOM      7  C   UNL     1     -44.963  40.516  27.657  1.00  0.00    -0.019 A 
ATOM      8  N   UNL     1     -46.418  39.216  26.276  1.00  0.00    -0.231 NA
ATOM      9  C   UNL     1     -44.684  39.402  28.442  1.00  0.00    -0.049 A 
ATOM     10  H   UNL     1     -44.519  41.476  27.898  1.00  0.00     0.066 H 
ATOM     11  C   UNL     1     -46.157  38.133  27.031  1.00  0.00     0.076 A 
ATOM     12  C   UNL     1     -45.283  38.178  28.134  1.00  0.00     0.001 A 
ATOM     13  H   UNL     1     -44.010  39.499  29.288  1.00  0.00     0.063 H 
ATOM     14  C   UNL     1     -46.766  36.924  26.715  1.00  0.00     0.007 A 
ATOM     15  C   UNL     1     -45.037  37.023  28.890  1.00  0.00    -0.049 A 
ATOM     16  H   UNL     1     -47.428  36.923  25.856  1.00  0.00     0.069 H 
ATOM     17  C   UNL     1     -45.659  35.824  28.549  1.00  0.00    -0.019 A 
ATOM     18  H   UNL     1     -44.364  37.049  29.743  1.00  0.00     0.063 H 
ATOM     19  H   UNL     1     -45.466  34.928  29.135  1.00  0.00     0.066 H 
BRANCH   6  20
ATOM     20  N   UNL     1     -46.104  41.544  25.819  1.00  0.00    -0.373 N 
ATOM     21  H   UNL     1     -47.077  41.800  25.956  1.00  0.00     0.161 HD
BRANCH  20  22
ATOM     22  C   UNL     1     -45.209  42.659  26.086  1.00  0.00     0.005 C 
ATOM     23  H   UNL     1     -45.769  43.448  26.598  1.00  0.00     0.045 H 
ATOM     24  H   UNL     1     -44.815  43.090  25.158  1.00  0.00     0.045 H 
ATOM     25  H   UNL     1     -44.380  42.364  26.739  1.00  0.00     0.045 H 
ENDBRANCH  20  22
ENDBRANCH   6  20
ENDBRANCH   4   5
ENDBRANCH   1   4
BRANCH   1  26
ATOM     26  C   UNL     1     -47.546  33.360  25.144  1.00  0.00     0.123 C 
ATOM     27  O   UNL     1     -46.999  32.457  24.160  1.00  0.00    -0.345 OA
ATOM     28  C   UNL     1     -48.748  32.638  25.728  1.00  0.00     0.119 C 
ATOM     29  H   UNL     1     -47.857  34.266  24.610  1.00  0.00     0.067 H 
ATOM     30  C   UNL     1     -48.072  31.591  23.711  1.00  0.00     0.169 C 
ATOM     31  C   UNL     1     -49.323  31.982  24.491  1.00  0.00     0.173 C 
ATOM     32  H   UNL     1     -48.454  31.880  26.463  1.00  0.00     0.066 H 
ATOM     33  H   UNL     1     -48.199  31.758  22.637  1.00  0.00     0.088 H 
ATOM     34  F   UNL     1     -50.102  30.936  24.853  1.00  0.00    -0.239 F 
ATOM     35  H   UNL     1     -49.943  32.686  23.925  1.00  0.00     0.074 H 
BRANCH  28  36
ATOM     36  O   UNL     1     -49.658  33.535  26.348  1.00  0.00    -0.387 OA
ATOM     37  H   UNL     1     -50.454  33.573  25.783  1.00  0.00     0.211 HD
ENDBRANCH  28  36
BRANCH  30  38
ATOM     38  N   UNL     1     -47.674  30.203  23.898  1.00  0.00    -0.302 N 
ATOM     39  C   UNL     1     -48.343  29.235  24.599  1.00  0.00     0.020 A 
ATOM     40  C   UNL     1     -46.535  29.661  23.355  1.00  0.00     0.148 A 
ATOM     41  C   UNL     1     -47.607  28.068  24.531  1.00  0.00     0.048 A 
ATOM     42  H   UNL     1     -49.255  29.456  25.139  1.00  0.00     0.083 H 
ATOM     43  C   UNL     1     -46.485  28.307  23.682  1.00  0.00     0.072 A 
ATOM     44  N   UNL     1     -45.649  30.346  22.610  1.00  0.00    -0.218 NA
ATOM     45  C   UNL     1     -45.425  27.585  23.107  1.00  0.00     0.137 A 
ATOM     46  C   UNL     1     -44.656  29.559  22.174  1.00  0.00     0.120 A 
ATOM     47  N   UNL     1     -44.505  28.239  22.368  1.00  0.00    -0.219 NA
ATOM     48  H   UNL     1     -43.885  30.044  21.583  1.00  0.00     0.106 H 
BRANCH  41  49
ATOM     49  C   UNL     1     -48.057  26.809  25.333  1.00  0.00     0.136 A 
ATOM     50  C   UNL     1     -49.335  26.323  25.530  1.00  0.00    -0.015 A 
ATOM     51  O   UNL     1     -47.165  25.960  25.936  1.00  0.00    -0.461 OA
ATOM     52  C   UNL     1     -49.218  25.147  26.313  1.00  0.00    -0.020 A 
ATOM     53  H   UNL     1     -50.251  26.727  25.128  1.00  0.00     0.066 H 
ATOM     54  C   UNL     1     -47.874  24.967  26.536  1.00  0.00     0.101 A 
ATOM     55  H   UNL     1     -50.017  24.501  26.651  1.00  0.00     0.066 H 
BRANCH  54  56
ATOM     56  C   UNL     1     -47.087  23.945  27.252  1.00  0.00    -0.006 C 
ATOM     57  H   UNL     1     -46.455  23.388  26.554  1.00  0.00     0.031 H 
ATOM     58  H   UNL     1     -46.439  24.404  28.006  1.00  0.00     0.031 H 
ATOM     59  H   UNL     1     -47.751  23.236  27.759  1.00  0.00     0.031 H 
ENDBRANCH  54  56
ENDBRANCH  41  49
BRANCH  45  60
ATOM     60  N   UNL     1     -45.277  26.203  23.156  1.00  0.00    -0.383 N 
ATOM     61  H   UNL     1     -44.285  25.989  23.184  1.00  0.00     0.158 HD
ATOM     62  H   UNL     1     -45.775  25.745  22.402  1.00  0.00     0.158 HD
ENDBRANCH  45  60
ENDBRANCH  30  38
ENDBRANCH   1  26
TORSDOF 10
ENDMDL
MODEL 7
REMARK VINA RESULT:      -8.3      2.972      3.968
REMARK SMILES CNc1ccc2ccc(OC[C@H]3O[C@@H](n4cc(-c5ccc(C)o5)c5c(N)ncnc54)[C@@H](F)[C@@H]3O)cc2n1
REMARK SMILES IDX 11 1 10 4 9 5 3 6 4 7 37 8 5 9 36 11 6 12 35 14 7 15 8 17
REMARK SMILES IDX 2 20 1 22 12 26 13 27 33 28 14 30 31 31 32 34 34 36 15 38
REMARK SMILES IDX 16 39 30 40 17 41 24 43 29 44 25 45 28 46 27 47 18 49 19 50
REMARK SMILES IDX 23 51 20 52 21 54 22 56 26 60
REMARK H PARENT 11 2 11 3 4 10 5 13 35 16 7 18 8 19 2 21 1 23 1 24 1 25 12 29
REMARK H PARENT 33 32 14 33 31 35 34 37 16 42 28 48 19 53 20 55 22 57 22 58
REMARK H PARENT 22 59 26 61 26 62
REMARK Flexibility Score: inf
ROOT
ATOM      1  C   UNL     1     -46.458  35.478  26.513  1.00  0.00     0.117 C 
ATOM      2  H   UNL     1     -47.335  35.946  26.049  1.00  0.00     0.073 H 
ATOM      3  H   UNL     1     -45.732  35.321  25.706  1.00  0.00     0.073 H 
ENDROOT
BRANCH   1   4
ATOM      4  O   UNL     1     -46.765  34.172  27.011  1.00  0.00    -0.491 OA
BRANCH   4   5
ATOM      5  C   UNL     1     -47.001  33.164  26.118  1.00  0.00     0.121 A 
ATOM      6  C   UNL     1     -46.490  30.852  21.989  1.00  0.00     0.126 A 
ATOM      7  C   UNL     1     -47.379  29.857  22.380  1.00  0.00    -0.019 A 
ATOM      8  N   UNL     1     -46.179  31.881  22.802  1.00  0.00    -0.231 NA
ATOM      9  C   UNL     1     -47.981  29.932  23.631  1.00  0.00    -0.049 A 
ATOM     10  H   UNL     1     -47.594  29.021  21.722  1.00  0.00     0.066 H 
ATOM     11  C   UNL     1     -46.754  31.961  24.016  1.00  0.00     0.076 A 
ATOM     12  C   UNL     1     -47.674  31.001  24.477  1.00  0.00     0.001 A 
ATOM     13  H   UNL     1     -48.676  29.156  23.939  1.00  0.00     0.063 H 
ATOM     14  C   UNL     1     -46.433  33.028  24.849  1.00  0.00     0.007 A 
ATOM     15  C   UNL     1     -48.252  31.128  25.748  1.00  0.00    -0.049 A 
ATOM     16  H   UNL     1     -45.725  33.752  24.460  1.00  0.00     0.069 H 
ATOM     17  C   UNL     1     -47.915  32.209  26.560  1.00  0.00    -0.019 A 
ATOM     18  H   UNL     1     -48.964  30.392  26.112  1.00  0.00     0.063 H 
ATOM     19  H   UNL     1     -48.366  32.307  27.545  1.00  0.00     0.066 H 
BRANCH   6  20
ATOM     20  N   UNL     1     -45.881  30.728  20.726  1.00  0.00    -0.373 N 
ATOM     21  H   UNL     1     -46.194  29.864  20.294  1.00  0.00     0.161 HD
BRANCH  20  22
ATOM     22  C   UNL     1     -46.083  31.873  19.854  1.00  0.00     0.005 C 
ATOM     23  H   UNL     1     -46.142  31.524  18.817  1.00  0.00     0.045 H 
ATOM     24  H   UNL     1     -45.244  32.577  19.912  1.00  0.00     0.045 H 
ATOM     25  H   UNL     1     -47.020  32.394  20.081  1.00  0.00     0.045 H 
ENDBRANCH  20  22
ENDBRANCH   6  20
ENDBRANCH   4   5
ENDBRANCH   1   4
BRANCH   1  26
ATOM     26  C   UNL     1     -45.818  36.349  27.596  1.00  0.00     0.123 C 
ATOM     27  O   UNL     1     -45.321  37.584  27.040  1.00  0.00    -0.345 OA
ATOM     28  C   UNL     1     -46.812  36.761  28.668  1.00  0.00     0.119 C 
ATOM     29  H   UNL     1     -44.961  35.828  28.039  1.00  0.00     0.067 H 
ATOM     30  C   UNL     1     -45.466  38.613  28.052  1.00  0.00     0.169 C 
ATOM     31  C   UNL     1     -46.111  37.959  29.270  1.00  0.00     0.173 C 
ATOM     32  H   UNL     1     -47.778  37.056  28.241  1.00  0.00     0.066 H 
ATOM     33  H   UNL     1     -44.464  38.990  28.281  1.00  0.00     0.088 H 
ATOM     34  F   UNL     1     -47.014  38.741  29.907  1.00  0.00    -0.239 F 
ATOM     35  H   UNL     1     -45.357  37.647  30.002  1.00  0.00     0.074 H 
BRANCH  28  36
ATOM     36  O   UNL     1     -47.038  35.724  29.612  1.00  0.00    -0.387 OA
ATOM     37  H   UNL     1     -48.000  35.689  29.774  1.00  0.00     0.211 HD
ENDBRANCH  28  36
BRANCH  30  38
ATOM     38  N   UNL     1     -46.238  39.718  27.501  1.00  0.00    -0.302 N 
ATOM     39  C   UNL     1     -47.590  39.913  27.595  1.00  0.00     0.020 A 
ATOM     40  C   UNL     1     -45.679  40.760  26.802  1.00  0.00     0.148 A 
ATOM     41  C   UNL     1     -47.905  41.076  26.919  1.00  0.00     0.048 A 
ATOM     42  H   UNL     1     -48.235  39.190  28.079  1.00  0.00     0.083 H 
ATOM     43  C   UNL     1     -46.686  41.663  26.467  1.00  0.00     0.072 A 
ATOM     44  N   UNL     1     -44.367  40.872  26.527  1.00  0.00    -0.218 NA
ATOM     45  C   UNL     1     -46.253  42.843  25.837  1.00  0.00     0.137 A 
ATOM     46  C   UNL     1     -44.095  42.008  25.871  1.00  0.00     0.120 A 
ATOM     47  N   UNL     1     -44.948  42.987  25.528  1.00  0.00    -0.219 NA
ATOM     48  H   UNL     1     -43.057  42.163  25.592  1.00  0.00     0.106 H 
BRANCH  41  49
ATOM     49  C   UNL     1     -49.394  41.507  26.751  1.00  0.00     0.136 A 
ATOM     50  C   UNL     1     -50.490  41.136  27.505  1.00  0.00    -0.015 A 
ATOM     51  O   UNL     1     -49.800  42.401  25.795  1.00  0.00    -0.461 OA
ATOM     52  C   UNL     1     -51.616  41.807  26.965  1.00  0.00    -0.020 A 
ATOM     53  H   UNL     1     -50.493  40.496  28.373  1.00  0.00     0.066 H 
ATOM     54  C   UNL     1     -51.144  42.568  25.921  1.00  0.00     0.101 A 
ATOM     55  H   UNL     1     -52.639  41.758  27.312  1.00  0.00     0.066 H 
BRANCH  54  56
ATOM     56  C   UNL     1     -51.779  43.498  24.968  1.00  0.00    -0.006 C 
ATOM     57  H   UNL     1     -52.713  43.892  25.381  1.00  0.00     0.031 H 
ATOM     58  H   UNL     1     -51.121  44.343  24.745  1.00  0.00     0.031 H 
ATOM     59  H   UNL     1     -52.006  42.985  24.027  1.00  0.00     0.031 H 
ENDBRANCH  54  56
ENDBRANCH  41  49
BRANCH  45  60
ATOM     60  N   UNL     1     -47.054  43.949  25.570  1.00  0.00    -0.383 N 
ATOM     61  H   UNL     1     -47.988  43.758  25.921  1.00  0.00     0.158 HD
ATOM     62  H   UNL     1     -47.030  44.202  24.589  1.00  0.00     0.158 HD
ENDBRANCH  45  60
ENDBRANCH  30  38
ENDBRANCH   1  26
TORSDOF 10
ENDMDL
