MODEL 1
REMARK VINA RESULT:      -9.5      0.000      0.000
REMARK SMILES CNc1ccc2ccc(OC[C@H]3O[C@@H](n4cnc5c(N)ncnc54)[C@H](O)[C@@H]3O)cc2n1
REMARK SMILES IDX 11 1 10 4 9 5 3 6 4 7 31 8 5 9 30 11 6 12 29 14 7 15 8 17
REMARK SMILES IDX 2 20 1 22 12 26 13 27 27 28 14 30 25 31 28 35 15 37 16 38
REMARK SMILES IDX 24 39 17 40 18 42 23 43 19 44 22 45 21 46 20 48 26 51
REMARK H PARENT 11 2 11 3 4 10 5 13 29 16 7 18 8 19 2 21 1 23 1 24 1 25 12 29
REMARK H PARENT 27 32 14 33 25 34 28 36 16 41 22 47 20 49 20 50 26 52
REMARK Flexibility Score: inf
ROOT
ATOM      1  C   UNL     1     -45.866  35.974  27.719  1.00  0.00     0.117 C 
ATOM      2  H   UNL     1     -46.139  35.091  28.310  1.00  0.00     0.073 H 
ATOM      3  H   UNL     1     -44.779  36.037  27.600  1.00  0.00     0.073 H 
ENDROOT
BRANCH   1   4
ATOM      4  O   UNL     1     -46.481  35.890  26.430  1.00  0.00    -0.491 OA
BRANCH   4   5
ATOM      5  C   UNL     1     -47.007  34.683  26.065  1.00  0.00     0.121 A 
ATOM      6  C   UNL     1     -46.930  30.431  23.928  1.00  0.00     0.126 A 
ATOM      7  C   UNL     1     -48.219  30.139  24.359  1.00  0.00    -0.019 A 
ATOM      8  N   UNL     1     -46.326  31.595  24.246  1.00  0.00    -0.231 NA
ATOM      9  C   UNL     1     -48.916  31.073  25.118  1.00  0.00    -0.049 A 
ATOM     10  H   UNL     1     -48.676  29.185  24.118  1.00  0.00     0.066 H 
ATOM     11  C   UNL     1     -46.992  32.503  24.984  1.00  0.00     0.076 A 
ATOM     12  C   UNL     1     -48.304  32.285  25.445  1.00  0.00     0.001 A 
ATOM     13  H   UNL     1     -49.922  30.845  25.456  1.00  0.00     0.063 H 
ATOM     14  C   UNL     1     -46.366  33.702  25.306  1.00  0.00     0.007 A 
ATOM     15  C   UNL     1     -48.958  33.264  26.208  1.00  0.00    -0.049 A 
ATOM     16  H   UNL     1     -45.354  33.837  24.940  1.00  0.00     0.069 H 
ATOM     17  C   UNL     1     -48.307  34.457  26.513  1.00  0.00    -0.019 A 
ATOM     18  H   UNL     1     -49.971  33.103  26.570  1.00  0.00     0.063 H 
ATOM     19  H   UNL     1     -48.815  35.215  27.107  1.00  0.00     0.066 H 
BRANCH   6  20
ATOM     20  N   UNL     1     -46.247  29.451  23.186  1.00  0.00    -0.373 N 
ATOM     21  H   UNL     1     -46.887  28.690  22.977  1.00  0.00     0.161 HD
BRANCH  20  22
ATOM     22  C   UNL     1     -45.589  29.952  21.992  1.00  0.00     0.005 C 
ATOM     23  H   UNL     1     -45.033  29.161  21.477  1.00  0.00     0.045 H 
ATOM     24  H   UNL     1     -44.871  30.726  22.279  1.00  0.00     0.045 H 
ATOM     25  H   UNL     1     -46.304  30.410  21.300  1.00  0.00     0.045 H 
ENDBRANCH  20  22
ENDBRANCH   6  20
ENDBRANCH   4   5
ENDBRANCH   1   4
BRANCH   1  26
ATOM     26  C   UNL     1     -46.375  37.235  28.421  1.00  0.00     0.123 C 
ATOM     27  O   UNL     1     -45.265  38.015  28.918  1.00  0.00    -0.345 OA
ATOM     28  C   UNL     1     -47.133  38.162  27.478  1.00  0.00     0.114 C 
ATOM     29  H   UNL     1     -46.990  36.950  29.284  1.00  0.00     0.067 H 
ATOM     30  C   UNL     1     -45.603  39.421  28.789  1.00  0.00     0.165 C 
ATOM     31  C   UNL     1     -47.024  39.487  28.216  1.00  0.00     0.128 C 
ATOM     32  H   UNL     1     -46.639  38.236  26.502  1.00  0.00     0.066 H 
ATOM     33  H   UNL     1     -45.528  39.876  29.783  1.00  0.00     0.088 H 
ATOM     34  H   UNL     1     -47.227  40.345  27.569  1.00  0.00     0.068 H 
BRANCH  28  35
ATOM     35  O   UNL     1     -48.499  37.806  27.294  1.00  0.00    -0.387 OA
ATOM     36  H   UNL     1     -49.047  38.385  27.855  1.00  0.00     0.211 HD
ENDBRANCH  28  35
BRANCH  30  37
ATOM     37  N   UNL     1     -44.608  40.062  27.946  1.00  0.00    -0.285 N 
ATOM     38  C   UNL     1     -44.685  40.312  26.601  1.00  0.00     0.099 A 
ATOM     39  C   UNL     1     -43.389  40.513  28.376  1.00  0.00     0.167 A 
ATOM     40  N   UNL     1     -43.616  40.937  26.152  1.00  0.00    -0.231 NA
ATOM     41  H   UNL     1     -45.534  40.018  25.996  1.00  0.00     0.104 H 
ATOM     42  C   UNL     1     -42.794  41.066  27.254  1.00  0.00     0.150 A 
ATOM     43  N   UNL     1     -42.881  40.450  29.616  1.00  0.00    -0.216 NA
ATOM     44  C   UNL     1     -41.517  41.625  27.428  1.00  0.00     0.155 A 
ATOM     45  C   UNL     1     -41.650  40.999  29.661  1.00  0.00     0.120 A 
ATOM     46  N   UNL     1     -40.950  41.568  28.655  1.00  0.00    -0.217 NA
ATOM     47  H   UNL     1     -41.157  40.983  30.628  1.00  0.00     0.106 H 
BRANCH  44  48
ATOM     48  N   UNL     1     -40.798  42.217  26.397  1.00  0.00    -0.382 N 
ATOM     49  H   UNL     1     -40.736  41.616  25.586  1.00  0.00     0.158 HD
ATOM     50  H   UNL     1     -41.046  43.189  26.244  1.00  0.00     0.158 HD
ENDBRANCH  44  48
ENDBRANCH  30  37
BRANCH  31  51
ATOM     51  O   UNL     1     -48.000  39.518  29.272  1.00  0.00    -0.386 OA
ATOM     52  H   UNL     1     -48.849  39.286  28.842  1.00  0.00     0.211 HD
ENDBRANCH  31  51
ENDBRANCH   1  26
TORSDOF 9
ENDMDL
MODEL 2
REMARK VINA RESULT:      -9.4      1.612      2.215
REMARK SMILES CNc1ccc2ccc(OC[C@H]3O[C@@H](n4cnc5c(N)ncnc54)[C@H](O)[C@@H]3O)cc2n1
REMARK SMILES IDX 11 1 10 4 9 5 3 6 4 7 31 8 5 9 30 11 6 12 29 14 7 15 8 17
REMARK SMILES IDX 2 20 1 22 12 26 13 27 27 28 14 30 25 31 28 35 15 37 16 38
REMARK SMILES IDX 24 39 17 40 18 42 23 43 19 44 22 45 21 46 20 48 26 51
REMARK H PARENT 11 2 11 3 4 10 5 13 29 16 7 18 8 19 2 21 1 23 1 24 1 25 12 29
REMARK H PARENT 27 32 14 33 25 34 28 36 16 41 22 47 20 49 20 50 26 52
REMARK Flexibility Score: inf
ROOT
ATOM      1  C   UNL     1     -46.476  35.892  26.633  1.00  0.00     0.117 C 
ATOM      2  H   UNL     1     -45.626  35.346  26.208  1.00  0.00     0.073 H 
ATOM      3  H   UNL     1     -46.690  36.791  26.043  1.00  0.00     0.073 H 
ENDROOT
BRANCH   1   4
ATOM      4  O   UNL     1     -47.629  35.044  26.640  1.00  0.00    -0.491 OA
BRANCH   4   5
ATOM      5  C   UNL     1     -47.549  33.874  25.940  1.00  0.00     0.121 A 
ATOM      6  C   UNL     1     -49.173  29.681  24.378  1.00  0.00     0.126 A 
ATOM      7  C   UNL     1     -48.006  29.443  23.661  1.00  0.00    -0.019 A 
ATOM      8  N   UNL     1     -49.345  30.814  25.092  1.00  0.00    -0.231 NA
ATOM      9  C   UNL     1     -46.979  30.381  23.693  1.00  0.00    -0.049 A 
ATOM     10  H   UNL     1     -47.899  28.541  23.068  1.00  0.00     0.066 H 
ATOM     11  C   UNL     1     -48.357  31.728  25.125  1.00  0.00     0.076 A 
ATOM     12  C   UNL     1     -47.142  31.552  24.437  1.00  0.00     0.001 A 
ATOM     13  H   UNL     1     -46.068  30.196  23.133  1.00  0.00     0.063 H 
ATOM     14  C   UNL     1     -48.538  32.891  25.865  1.00  0.00     0.007 A 
ATOM     15  C   UNL     1     -46.141  32.532  24.505  1.00  0.00    -0.049 A 
ATOM     16  H   UNL     1     -49.487  32.998  26.380  1.00  0.00     0.069 H 
ATOM     17  C   UNL     1     -46.349  33.686  25.257  1.00  0.00    -0.019 A 
ATOM     18  H   UNL     1     -45.200  32.405  23.975  1.00  0.00     0.063 H 
ATOM     19  H   UNL     1     -45.573  34.447  25.308  1.00  0.00     0.066 H 
BRANCH   6  20
ATOM     20  N   UNL     1     -50.199  28.724  24.298  1.00  0.00    -0.373 N 
ATOM     21  H   UNL     1     -50.421  28.557  23.321  1.00  0.00     0.161 HD
BRANCH  20  22
ATOM     22  C   UNL     1     -49.924  27.488  25.011  1.00  0.00     0.005 C 
ATOM     23  H   UNL     1     -50.797  27.149  25.581  1.00  0.00     0.045 H 
ATOM     24  H   UNL     1     -49.112  27.661  25.724  1.00  0.00     0.045 H 
ATOM     25  H   UNL     1     -49.598  26.694  24.331  1.00  0.00     0.045 H 
ENDBRANCH  20  22
ENDBRANCH   6  20
ENDBRANCH   4   5
ENDBRANCH   1   4
BRANCH   1  26
ATOM     26  C   UNL     1     -46.158  36.294  28.075  1.00  0.00     0.123 C 
ATOM     27  O   UNL     1     -44.853  36.910  28.146  1.00  0.00    -0.345 OA
ATOM     28  C   UNL     1     -47.129  37.334  28.619  1.00  0.00     0.114 C 
ATOM     29  H   UNL     1     -46.133  35.397  28.706  1.00  0.00     0.067 H 
ATOM     30  C   UNL     1     -44.899  37.957  29.152  1.00  0.00     0.165 C 
ATOM     31  C   UNL     1     -46.312  37.939  29.749  1.00  0.00     0.128 C 
ATOM     32  H   UNL     1     -47.358  38.103  27.871  1.00  0.00     0.066 H 
ATOM     33  H   UNL     1     -44.124  37.741  29.896  1.00  0.00     0.088 H 
ATOM     34  H   UNL     1     -46.695  38.910  30.071  1.00  0.00     0.068 H 
BRANCH  28  35
ATOM     35  O   UNL     1     -48.342  36.783  29.122  1.00  0.00    -0.387 OA
ATOM     36  H   UNL     1     -48.146  35.912  29.513  1.00  0.00     0.211 HD
ENDBRANCH  28  35
BRANCH  30  37
ATOM     37  N   UNL     1     -44.553  39.220  28.523  1.00  0.00    -0.285 N 
ATOM     38  C   UNL     1     -45.150  39.808  27.439  1.00  0.00     0.099 A 
ATOM     39  C   UNL     1     -43.527  40.037  28.916  1.00  0.00     0.167 A 
ATOM     40  N   UNL     1     -44.606  40.971  27.144  1.00  0.00    -0.231 NA
ATOM     41  H   UNL     1     -45.972  39.351  26.900  1.00  0.00     0.104 H 
ATOM     42  C   UNL     1     -43.585  41.125  28.060  1.00  0.00     0.150 A 
ATOM     43  N   UNL     1     -42.661  39.841  29.922  1.00  0.00    -0.216 NA
ATOM     44  C   UNL     1     -42.633  42.138  28.263  1.00  0.00     0.155 A 
ATOM     45  C   UNL     1     -41.787  40.864  30.011  1.00  0.00     0.120 A 
ATOM     46  N   UNL     1     -41.722  41.979  29.250  1.00  0.00    -0.217 NA
ATOM     47  H   UNL     1     -41.040  40.785  30.795  1.00  0.00     0.106 H 
BRANCH  44  48
ATOM     48  N   UNL     1     -42.569  43.288  27.487  1.00  0.00    -0.382 N 
ATOM     49  H   UNL     1     -41.795  43.262  26.835  1.00  0.00     0.158 HD
ATOM     50  H   UNL     1     -43.472  43.582  27.132  1.00  0.00     0.158 HD
ENDBRANCH  44  48
ENDBRANCH  30  37
BRANCH  31  51
ATOM     51  O   UNL     1     -46.371  37.066  30.891  1.00  0.00    -0.386 OA
ATOM     52  H   UNL     1     -45.897  37.543  31.603  1.00  0.00     0.211 HD
ENDBRANCH  31  51
ENDBRANCH   1  26
TORSDOF 9
ENDMDL
MODEL 3
REMARK VINA RESULT:      -8.8      5.366     11.696
REMARK SMILES CNc1ccc2ccc(OC[C@H]3O[C@@H](n4cnc5c(N)ncnc54)[C@H](O)[C@@H]3O)cc2n1
REMARK SMILES IDX 11 1 10 4 9 5 3 6 4 7 31 8 5 9 30 11 6 12 29 14 7 15 8 17
REMARK SMILES IDX 2 20 1 22 12 26 13 27 27 28 14 30 25 31 28 35 15 37 16 38
REMARK SMILES IDX 24 39 17 40 18 42 23 43 19 44 22 45 21 46 20 48 26 51
REMARK H PARENT 11 2 11 3 4 10 5 13 29 16 7 18 8 19 2 21 1 23 1 24 1 25 12 29
REMARK H PARENT 27 32 14 33 25 34 28 36 16 41 22 47 20 49 20 50 26 52
REMARK Flexibility Score: inf
ROOT
ATOM      1  C   UNL     1     -47.099  30.799  23.975  1.00  0.00     0.117 C 
ATOM      2  H   UNL     1     -46.393  31.545  23.591  1.00  0.00     0.073 H 
ATOM      3  H   UNL     1     -46.608  30.141  24.701  1.00  0.00     0.073 H 
ENDROOT
BRANCH   1   4
ATOM      4  O   UNL     1     -48.198  31.465  24.605  1.00  0.00    -0.491 OA
BRANCH   4   5
ATOM      5  C   UNL     1     -47.935  32.653  25.227  1.00  0.00     0.121 A 
ATOM      6  C   UNL     1     -49.040  36.465  27.854  1.00  0.00     0.126 A 
ATOM      7  C   UNL     1     -47.751  36.974  27.743  1.00  0.00    -0.019 A 
ATOM      8  N   UNL     1     -49.389  35.294  27.281  1.00  0.00    -0.231 NA
ATOM      9  C   UNL     1     -46.800  36.275  27.007  1.00  0.00    -0.049 A 
ATOM     10  H   UNL     1     -47.482  37.902  28.237  1.00  0.00     0.066 H 
ATOM     11  C   UNL     1     -48.473  34.610  26.570  1.00  0.00     0.076 A 
ATOM     12  C   UNL     1     -47.153  35.067  26.401  1.00  0.00     0.001 A 
ATOM     13  H   UNL     1     -45.793  36.671  26.921  1.00  0.00     0.063 H 
ATOM     14  C   UNL     1     -48.839  33.406  25.979  1.00  0.00     0.007 A 
ATOM     15  C   UNL     1     -46.236  34.320  25.648  1.00  0.00    -0.049 A 
ATOM     16  H   UNL     1     -49.863  33.079  26.131  1.00  0.00     0.069 H 
ATOM     17  C   UNL     1     -46.631  33.118  25.064  1.00  0.00    -0.019 A 
ATOM     18  H   UNL     1     -45.213  34.665  25.514  1.00  0.00     0.063 H 
ATOM     19  H   UNL     1     -45.918  32.539  24.482  1.00  0.00     0.066 H 
BRANCH   6  20
ATOM     20  N   UNL     1     -49.966  37.185  28.630  1.00  0.00    -0.373 N 
ATOM     21  H   UNL     1     -49.783  38.179  28.525  1.00  0.00     0.161 HD
BRANCH  20  22
ATOM     22  C   UNL     1     -51.356  36.857  28.363  1.00  0.00     0.005 C 
ATOM     23  H   UNL     1     -51.832  37.611  27.726  1.00  0.00     0.045 H 
ATOM     24  H   UNL     1     -51.903  36.832  29.310  1.00  0.00     0.045 H 
ATOM     25  H   UNL     1     -51.456  35.869  27.902  1.00  0.00     0.045 H 
ENDBRANCH  20  22
ENDBRANCH   6  20
ENDBRANCH   4   5
ENDBRANCH   1   4
BRANCH   1  26
ATOM     26  C   UNL     1     -47.639  29.961  22.814  1.00  0.00     0.123 C 
ATOM     27  O   UNL     1     -47.920  28.615  23.256  1.00  0.00    -0.345 OA
ATOM     28  C   UNL     1     -48.959  30.495  22.273  1.00  0.00     0.114 C 
ATOM     29  H   UNL     1     -46.878  29.897  22.025  1.00  0.00     0.067 H 
ATOM     30  C   UNL     1     -49.094  28.139  22.547  1.00  0.00     0.165 C 
ATOM     31  C   UNL     1     -49.521  29.258  21.589  1.00  0.00     0.128 C 
ATOM     32  H   UNL     1     -49.629  30.810  23.082  1.00  0.00     0.066 H 
ATOM     33  H   UNL     1     -48.819  27.217  22.022  1.00  0.00     0.088 H 
ATOM     34  H   UNL     1     -50.596  29.332  21.406  1.00  0.00     0.068 H 
BRANCH  28  35
ATOM     35  O   UNL     1     -48.812  31.558  21.337  1.00  0.00    -0.387 OA
ATOM     36  H   UNL     1     -49.464  31.432  20.623  1.00  0.00     0.211 HD
ENDBRANCH  28  35
BRANCH  30  37
ATOM     37  N   UNL     1     -50.115  27.791  23.521  1.00  0.00    -0.285 N 
ATOM     38  C   UNL     1     -51.408  28.242  23.579  1.00  0.00     0.099 A 
ATOM     39  C   UNL     1     -49.931  26.946  24.582  1.00  0.00     0.167 A 
ATOM     40  N   UNL     1     -52.076  27.702  24.577  1.00  0.00    -0.231 NA
ATOM     41  H   UNL     1     -51.811  28.961  22.876  1.00  0.00     0.104 H 
ATOM     42  C   UNL     1     -51.161  26.891  25.217  1.00  0.00     0.150 A 
ATOM     43  N   UNL     1     -48.808  26.297  24.929  1.00  0.00    -0.216 NA
ATOM     44  C   UNL     1     -51.250  26.064  26.349  1.00  0.00     0.155 A 
ATOM     45  C   UNL     1     -49.007  25.550  26.035  1.00  0.00     0.120 A 
ATOM     46  N   UNL     1     -50.141  25.404  26.755  1.00  0.00    -0.217 NA
ATOM     47  H   UNL     1     -48.146  24.995  26.395  1.00  0.00     0.106 H 
BRANCH  44  48
ATOM     48  N   UNL     1     -52.417  25.906  27.086  1.00  0.00    -0.382 N 
ATOM     49  H   UNL     1     -52.763  26.788  27.440  1.00  0.00     0.158 HD
ATOM     50  H   UNL     1     -53.084  25.281  26.648  1.00  0.00     0.158 HD
ENDBRANCH  44  48
ENDBRANCH  30  37
BRANCH  31  51
ATOM     51  O   UNL     1     -48.886  29.102  20.307  1.00  0.00    -0.386 OA
ATOM     52  H   UNL     1     -49.572  29.346  19.652  1.00  0.00     0.211 HD
ENDBRANCH  31  51
ENDBRANCH   1  26
TORSDOF 9
ENDMDL
MODEL 4
REMARK VINA RESULT:      -8.7      1.765      9.760
REMARK SMILES CNc1ccc2ccc(OC[C@H]3O[C@@H](n4cnc5c(N)ncnc54)[C@H](O)[C@@H]3O)cc2n1
REMARK SMILES IDX 11 1 10 4 9 5 3 6 4 7 31 8 5 9 30 11 6 12 29 14 7 15 8 17
REMARK SMILES IDX 2 20 1 22 12 26 13 27 27 28 14 30 25 31 28 35 15 37 16 38
REMARK SMILES IDX 24 39 17 40 18 42 23 43 19 44 22 45 21 46 20 48 26 51
REMARK H PARENT 11 2 11 3 4 10 5 13 29 16 7 18 8 19 2 21 1 23 1 24 1 25 12 29
REMARK H PARENT 27 32 14 33 25 34 28 36 16 41 22 47 20 49 20 50 26 52
REMARK Flexibility Score: inf
ROOT
ATOM      1  C   UNL     1     -47.718  36.140  26.981  1.00  0.00     0.117 C 
ATOM      2  H   UNL     1     -48.770  36.090  26.677  1.00  0.00     0.073 H 
ATOM      3  H   UNL     1     -47.080  36.378  26.122  1.00  0.00     0.073 H 
ENDROOT
BRANCH   1   4
ATOM      4  O   UNL     1     -47.561  37.149  27.983  1.00  0.00    -0.491 OA
BRANCH   4   5
ATOM      5  C   UNL     1     -46.796  38.235  27.662  1.00  0.00     0.121 A 
ATOM      6  C   UNL     1     -43.069  41.156  28.140  1.00  0.00     0.126 A 
ATOM      7  C   UNL     1     -43.503  41.959  27.091  1.00  0.00    -0.019 A 
ATOM      8  N   UNL     1     -43.755  40.058  28.522  1.00  0.00    -0.231 NA
ATOM      9  C   UNL     1     -44.685  41.640  26.430  1.00  0.00    -0.049 A 
ATOM     10  H   UNL     1     -42.921  42.819  26.780  1.00  0.00     0.066 H 
ATOM     11  C   UNL     1     -44.898  39.742  27.884  1.00  0.00     0.076 A 
ATOM     12  C   UNL     1     -45.408  40.513  26.823  1.00  0.00     0.001 A 
ATOM     13  H   UNL     1     -45.024  42.266  25.610  1.00  0.00     0.063 H 
ATOM     14  C   UNL     1     -45.603  38.613  28.283  1.00  0.00     0.007 A 
ATOM     15  C   UNL     1     -46.605  40.143  26.192  1.00  0.00    -0.049 A 
ATOM     16  H   UNL     1     -45.180  38.038  29.101  1.00  0.00     0.069 H 
ATOM     17  C   UNL     1     -47.293  39.008  26.615  1.00  0.00    -0.019 A 
ATOM     18  H   UNL     1     -47.006  40.732  25.370  1.00  0.00     0.063 H 
ATOM     19  H   UNL     1     -48.221  38.721  26.123  1.00  0.00     0.066 H 
BRANCH   6  20
ATOM     20  N   UNL     1     -41.856  41.493  28.766  1.00  0.00    -0.373 N 
ATOM     21  H   UNL     1     -41.795  42.504  28.847  1.00  0.00     0.161 HD
BRANCH  20  22
ATOM     22  C   UNL     1     -41.634  40.832  30.042  1.00  0.00     0.005 C 
ATOM     23  H   UNL     1     -40.671  41.117  30.480  1.00  0.00     0.045 H 
ATOM     24  H   UNL     1     -41.617  39.750  29.883  1.00  0.00     0.045 H 
ATOM     25  H   UNL     1     -42.440  41.046  30.751  1.00  0.00     0.045 H 
ENDBRANCH  20  22
ENDBRANCH   6  20
ENDBRANCH   4   5
ENDBRANCH   1   4
BRANCH   1  26
ATOM     26  C   UNL     1     -47.292  34.795  27.573  1.00  0.00     0.123 C 
ATOM     27  O   UNL     1     -48.055  33.721  26.979  1.00  0.00    -0.345 OA
ATOM     28  C   UNL     1     -45.833  34.466  27.285  1.00  0.00     0.114 C 
ATOM     29  H   UNL     1     -47.500  34.789  28.651  1.00  0.00     0.067 H 
ATOM     30  C   UNL     1     -47.189  32.562  26.856  1.00  0.00     0.165 C 
ATOM     31  C   UNL     1     -45.832  32.955  27.453  1.00  0.00     0.128 C 
ATOM     32  H   UNL     1     -45.557  34.726  26.255  1.00  0.00     0.066 H 
ATOM     33  H   UNL     1     -47.662  31.733  27.394  1.00  0.00     0.088 H 
ATOM     34  H   UNL     1     -44.964  32.481  26.989  1.00  0.00     0.068 H 
BRANCH  28  35
ATOM     35  O   UNL     1     -44.915  35.068  28.191  1.00  0.00    -0.387 OA
ATOM     36  H   UNL     1     -44.023  35.024  27.801  1.00  0.00     0.211 HD
ENDBRANCH  28  35
BRANCH  30  37
ATOM     37  N   UNL     1     -47.117  32.183  25.455  1.00  0.00    -0.285 N 
ATOM     38  C   UNL     1     -46.345  32.745  24.473  1.00  0.00     0.099 A 
ATOM     39  C   UNL     1     -47.851  31.184  24.875  1.00  0.00     0.167 A 
ATOM     40  N   UNL     1     -46.499  32.139  23.314  1.00  0.00    -0.231 NA
ATOM     41  H   UNL     1     -45.691  33.591  24.651  1.00  0.00     0.104 H 
ATOM     42  C   UNL     1     -47.444  31.161  23.551  1.00  0.00     0.150 A 
ATOM     43  N   UNL     1     -48.759  30.386  25.459  1.00  0.00    -0.216 NA
ATOM     44  C   UNL     1     -48.044  30.197  22.723  1.00  0.00     0.155 A 
ATOM     45  C   UNL     1     -49.278  29.516  24.569  1.00  0.00     0.120 A 
ATOM     46  N   UNL     1     -48.981  29.381  23.258  1.00  0.00    -0.217 NA
ATOM     47  H   UNL     1     -50.030  28.834  24.954  1.00  0.00     0.106 H 
BRANCH  44  48
ATOM     48  N   UNL     1     -47.735  30.051  21.377  1.00  0.00    -0.382 N 
ATOM     49  H   UNL     1     -47.607  30.945  20.920  1.00  0.00     0.158 HD
ATOM     50  H   UNL     1     -47.044  29.330  21.201  1.00  0.00     0.158 HD
ENDBRANCH  44  48
ENDBRANCH  30  37
BRANCH  31  51
ATOM     51  O   UNL     1     -45.782  32.639  28.856  1.00  0.00    -0.386 OA
ATOM     52  H   UNL     1     -45.297  33.384  29.268  1.00  0.00     0.211 HD
ENDBRANCH  31  51
ENDBRANCH   1  26
TORSDOF 9
ENDMDL
MODEL 5
REMARK VINA RESULT:      -8.7      3.911     11.095
REMARK SMILES CNc1ccc2ccc(OC[C@H]3O[C@@H](n4cnc5c(N)ncnc54)[C@H](O)[C@@H]3O)cc2n1
REMARK SMILES IDX 11 1 10 4 9 5 3 6 4 7 31 8 5 9 30 11 6 12 29 14 7 15 8 17
REMARK SMILES IDX 2 20 1 22 12 26 13 27 27 28 14 30 25 31 28 35 15 37 16 38
REMARK SMILES IDX 24 39 17 40 18 42 23 43 19 44 22 45 21 46 20 48 26 51
REMARK H PARENT 11 2 11 3 4 10 5 13 29 16 7 18 8 19 2 21 1 23 1 24 1 25 12 29
REMARK H PARENT 27 32 14 33 25 34 28 36 16 41 22 47 20 49 20 50 26 52
REMARK Flexibility Score: inf
ROOT
ATOM      1  C   UNL     1     -46.345  32.094  24.477  1.00  0.00     0.117 C 
ATOM      2  H   UNL     1     -45.373  32.011  23.976  1.00  0.00     0.073 H 
ATOM      3  H   UNL     1     -46.296  31.669  25.486  1.00  0.00     0.073 H 
ENDROOT
BRANCH   1   4
ATOM      4  O   UNL     1     -46.721  33.472  24.560  1.00  0.00    -0.491 OA
BRANCH   4   5
ATOM      5  C   UNL     1     -46.610  34.078  25.780  1.00  0.00     0.121 A 
ATOM      6  C   UNL     1     -46.741  37.782  28.765  1.00  0.00     0.126 A 
ATOM      7  C   UNL     1     -46.405  36.979  29.850  1.00  0.00    -0.019 A 
ATOM      8  N   UNL     1     -46.881  37.270  27.524  1.00  0.00    -0.231 NA
ATOM      9  C   UNL     1     -46.186  35.620  29.654  1.00  0.00    -0.049 A 
ATOM     10  H   UNL     1     -46.328  37.405  30.845  1.00  0.00     0.066 H 
ATOM     11  C   UNL     1     -46.674  35.954  27.328  1.00  0.00     0.076 A 
ATOM     12  C   UNL     1     -46.318  35.082  28.373  1.00  0.00     0.001 A 
ATOM     13  H   UNL     1     -45.924  34.993  30.501  1.00  0.00     0.063 H 
ATOM     14  C   UNL     1     -46.816  35.433  26.047  1.00  0.00     0.007 A 
ATOM     15  C   UNL     1     -46.109  33.718  28.116  1.00  0.00    -0.049 A 
ATOM     16  H   UNL     1     -47.095  36.131  25.264  1.00  0.00     0.069 H 
ATOM     17  C   UNL     1     -46.255  33.224  26.822  1.00  0.00    -0.019 A 
ATOM     18  H   UNL     1     -45.835  33.037  28.918  1.00  0.00     0.063 H 
ATOM     19  H   UNL     1     -46.094  32.166  26.625  1.00  0.00     0.066 H 
BRANCH   6  20
ATOM     20  N   UNL     1     -46.983  39.145  29.007  1.00  0.00    -0.373 N 
ATOM     21  H   UNL     1     -46.099  39.611  29.189  1.00  0.00     0.161 HD
BRANCH  20  22
ATOM     22  C   UNL     1     -47.746  39.814  27.967  1.00  0.00     0.005 C 
ATOM     23  H   UNL     1     -47.486  40.876  27.896  1.00  0.00     0.045 H 
ATOM     24  H   UNL     1     -48.811  39.751  28.210  1.00  0.00     0.045 H 
ATOM     25  H   UNL     1     -47.604  39.334  26.992  1.00  0.00     0.045 H 
ENDBRANCH  20  22
ENDBRANCH   6  20
ENDBRANCH   4   5
ENDBRANCH   1   4
BRANCH   1  26
ATOM     26  C   UNL     1     -47.404  31.348  23.661  1.00  0.00     0.123 C 
ATOM     27  O   UNL     1     -46.854  30.124  23.126  1.00  0.00    -0.345 OA
ATOM     28  C   UNL     1     -48.598  30.922  24.506  1.00  0.00     0.114 C 
ATOM     29  H   UNL     1     -47.714  31.969  22.812  1.00  0.00     0.067 H 
ATOM     30  C   UNL     1     -47.900  29.116  23.129  1.00  0.00     0.165 C 
ATOM     31  C   UNL     1     -49.168  29.792  23.664  1.00  0.00     0.128 C 
ATOM     32  H   UNL     1     -48.284  30.537  25.484  1.00  0.00     0.066 H 
ATOM     33  H   UNL     1     -48.017  28.752  22.103  1.00  0.00     0.088 H 
ATOM     34  H   UNL     1     -49.839  29.143  24.232  1.00  0.00     0.068 H 
BRANCH  28  35
ATOM     35  O   UNL     1     -49.570  31.946  24.689  1.00  0.00    -0.387 OA
ATOM     36  H   UNL     1     -50.456  31.545  24.625  1.00  0.00     0.211 HD
ENDBRANCH  28  35
BRANCH  30  37
ATOM     37  N   UNL     1     -47.458  27.993  23.938  1.00  0.00    -0.285 N 
ATOM     38  C   UNL     1     -46.197  27.463  24.020  1.00  0.00     0.099 A 
ATOM     39  C   UNL     1     -48.266  27.249  24.756  1.00  0.00     0.167 A 
ATOM     40  N   UNL     1     -46.135  26.462  24.874  1.00  0.00    -0.231 NA
ATOM     41  H   UNL     1     -45.363  27.839  23.439  1.00  0.00     0.104 H 
ATOM     42  C   UNL     1     -47.426  26.315  25.339  1.00  0.00     0.150 A 
ATOM     43  N   UNL     1     -49.584  27.397  24.963  1.00  0.00    -0.216 NA
ATOM     44  C   UNL     1     -48.013  25.422  26.251  1.00  0.00     0.155 A 
ATOM     45  C   UNL     1     -50.039  26.479  25.839  1.00  0.00     0.120 A 
ATOM     46  N   UNL     1     -49.343  25.514  26.480  1.00  0.00    -0.217 NA
ATOM     47  H   UNL     1     -51.101  26.519  26.061  1.00  0.00     0.106 H 
BRANCH  44  48
ATOM     48  N   UNL     1     -47.298  24.434  26.916  1.00  0.00    -0.382 N 
ATOM     49  H   UNL     1     -47.803  23.558  26.948  1.00  0.00     0.158 HD
ATOM     50  H   UNL     1     -46.319  24.403  26.652  1.00  0.00     0.158 HD
ENDBRANCH  44  48
ENDBRANCH  30  37
BRANCH  31  51
ATOM     51  O   UNL     1     -49.940  30.354  22.587  1.00  0.00    -0.386 OA
ATOM     52  H   UNL     1     -50.843  29.995  22.706  1.00  0.00     0.211 HD
ENDBRANCH  31  51
ENDBRANCH   1  26
TORSDOF 9
ENDMDL
MODEL 6
REMARK VINA RESULT:      -8.7      2.457      3.401
REMARK SMILES CNc1ccc2ccc(OC[C@H]3O[C@@H](n4cnc5c(N)ncnc54)[C@H](O)[C@@H]3O)cc2n1
REMARK SMILES IDX 11 1 10 4 9 5 3 6 4 7 31 8 5 9 30 11 6 12 29 14 7 15 8 17
REMARK SMILES IDX 2 20 1 22 12 26 13 27 27 28 14 30 25 31 28 35 15 37 16 38
REMARK SMILES IDX 24 39 17 40 18 42 23 43 19 44 22 45 21 46 20 48 26 51
REMARK H PARENT 11 2 11 3 4 10 5 13 29 16 7 18 8 19 2 21 1 23 1 24 1 25 12 29
REMARK H PARENT 27 32 14 33 25 34 28 36 16 41 22 47 20 49 20 50 26 52
REMARK Flexibility Score: inf
ROOT
ATOM      1  C   UNL     1     -46.102  34.341  27.289  1.00  0.00     0.117 C 
ATOM      2  H   UNL     1     -45.104  34.440  27.732  1.00  0.00     0.073 H 
ATOM      3  H   UNL     1     -46.085  34.634  26.233  1.00  0.00     0.073 H 
ENDROOT
BRANCH   1   4
ATOM      4  O   UNL     1     -46.538  32.982  27.398  1.00  0.00    -0.491 OA
BRANCH   4   5
ATOM      5  C   UNL     1     -46.973  32.372  26.255  1.00  0.00     0.121 A 
ATOM      6  C   UNL     1     -46.625  31.024  21.704  1.00  0.00     0.126 A 
ATOM      7  C   UNL     1     -47.862  30.390  21.748  1.00  0.00    -0.019 A 
ATOM      8  N   UNL     1     -46.110  31.645  22.786  1.00  0.00    -0.231 NA
ATOM      9  C   UNL     1     -48.601  30.413  22.927  1.00  0.00    -0.049 A 
ATOM     10  H   UNL     1     -48.245  29.870  20.876  1.00  0.00     0.066 H 
ATOM     11  C   UNL     1     -46.818  31.667  23.931  1.00  0.00     0.076 A 
ATOM     12  C   UNL     1     -48.083  31.061  24.049  1.00  0.00     0.001 A 
ATOM     13  H   UNL     1     -49.567  29.918  22.962  1.00  0.00     0.063 H 
ATOM     14  C   UNL     1     -46.285  32.312  25.041  1.00  0.00     0.007 A 
ATOM     15  C   UNL     1     -48.783  31.115  25.263  1.00  0.00    -0.049 A 
ATOM     16  H   UNL     1     -45.307  32.766  24.919  1.00  0.00     0.069 H 
ATOM     17  C   UNL     1     -48.226  31.770  26.359  1.00  0.00    -0.019 A 
ATOM     18  H   UNL     1     -49.760  30.648  25.364  1.00  0.00     0.063 H 
ATOM     19  H   UNL     1     -48.769  31.810  27.301  1.00  0.00     0.066 H 
BRANCH   6  20
ATOM     20  N   UNL     1     -45.895  30.956  20.504  1.00  0.00    -0.373 N 
ATOM     21  H   UNL     1     -45.980  30.020  20.119  1.00  0.00     0.161 HD
BRANCH  20  22
ATOM     22  C   UNL     1     -46.242  31.978  19.532  1.00  0.00     0.005 C 
ATOM     23  H   UNL     1     -47.249  32.373  19.704  1.00  0.00     0.045 H 
ATOM     24  H   UNL     1     -46.228  31.536  18.531  1.00  0.00     0.045 H 
ATOM     25  H   UNL     1     -45.518  32.799  19.535  1.00  0.00     0.045 H 
ENDBRANCH  20  22
ENDBRANCH   6  20
ENDBRANCH   4   5
ENDBRANCH   1   4
BRANCH   1  26
ATOM     26  C   UNL     1     -47.089  35.231  28.047  1.00  0.00     0.123 C 
ATOM     27  O   UNL     1     -46.391  36.328  28.679  1.00  0.00    -0.345 OA
ATOM     28  C   UNL     1     -48.116  35.879  27.128  1.00  0.00     0.114 C 
ATOM     29  H   UNL     1     -47.571  34.647  28.841  1.00  0.00     0.067 H 
ATOM     30  C   UNL     1     -47.249  37.498  28.635  1.00  0.00     0.165 C 
ATOM     31  C   UNL     1     -48.561  37.065  27.970  1.00  0.00     0.128 C 
ATOM     32  H   UNL     1     -47.657  36.235  26.197  1.00  0.00     0.066 H 
ATOM     33  H   UNL     1     -47.393  37.847  29.664  1.00  0.00     0.088 H 
ATOM     34  H   UNL     1     -49.062  37.835  27.379  1.00  0.00     0.068 H 
BRANCH  28  35
ATOM     35  O   UNL     1     -49.226  35.042  26.821  1.00  0.00    -0.387 OA
ATOM     36  H   UNL     1     -49.090  34.662  25.935  1.00  0.00     0.211 HD
ENDBRANCH  28  35
BRANCH  30  37
ATOM     37  N   UNL     1     -46.557  38.554  27.916  1.00  0.00    -0.285 N 
ATOM     38  C   UNL     1     -45.232  38.602  27.567  1.00  0.00     0.099 A 
ATOM     39  C   UNL     1     -47.135  39.715  27.478  1.00  0.00     0.167 A 
ATOM     40  N   UNL     1     -44.937  39.693  26.891  1.00  0.00    -0.231 NA
ATOM     41  H   UNL     1     -44.527  37.822  27.829  1.00  0.00     0.104 H 
ATOM     42  C   UNL     1     -46.120  40.402  26.832  1.00  0.00     0.150 A 
ATOM     43  N   UNL     1     -48.411  40.103  27.626  1.00  0.00    -0.216 NA
ATOM     44  C   UNL     1     -46.459  41.642  26.266  1.00  0.00     0.155 A 
ATOM     45  C   UNL     1     -48.616  41.310  27.060  1.00  0.00     0.120 A 
ATOM     46  N   UNL     1     -47.728  42.090  26.405  1.00  0.00    -0.217 NA
ATOM     47  H   UNL     1     -49.623  41.708  27.140  1.00  0.00     0.106 H 
BRANCH  44  48
ATOM     48  N   UNL     1     -45.550  42.442  25.586  1.00  0.00    -0.382 N 
ATOM     49  H   UNL     1     -45.600  42.305  24.585  1.00  0.00     0.158 HD
ATOM     50  H   UNL     1     -45.522  43.396  25.928  1.00  0.00     0.158 HD
ENDBRANCH  44  48
ENDBRANCH  30  37
BRANCH  31  51
ATOM     51  O   UNL     1     -49.507  36.611  28.955  1.00  0.00    -0.386 OA
ATOM     52  H   UNL     1     -48.968  36.385  29.741  1.00  0.00     0.211 HD
ENDBRANCH  31  51
ENDBRANCH   1  26
TORSDOF 9
ENDMDL
MODEL 7
REMARK VINA RESULT:      -8.6      2.184      9.691
REMARK SMILES CNc1ccc2ccc(OC[C@H]3O[C@@H](n4cnc5c(N)ncnc54)[C@H](O)[C@@H]3O)cc2n1
REMARK SMILES IDX 11 1 10 4 9 5 3 6 4 7 31 8 5 9 30 11 6 12 29 14 7 15 8 17
REMARK SMILES IDX 2 20 1 22 12 26 13 27 27 28 14 30 25 31 28 35 15 37 16 38
REMARK SMILES IDX 24 39 17 40 18 42 23 43 19 44 22 45 21 46 20 48 26 51
REMARK H PARENT 11 2 11 3 4 10 5 13 29 16 7 18 8 19 2 21 1 23 1 24 1 25 12 29
REMARK H PARENT 27 32 14 33 25 34 28 36 16 41 22 47 20 49 20 50 26 52
REMARK Flexibility Score: inf
ROOT
ATOM      1  C   UNL     1     -46.830  37.856  26.628  1.00  0.00     0.117 C 
ATOM      2  H   UNL     1     -47.679  37.903  25.935  1.00  0.00     0.073 H 
ATOM      3  H   UNL     1     -45.887  37.770  26.077  1.00  0.00     0.073 H 
ENDROOT
BRANCH   1   4
ATOM      4  O   UNL     1     -46.805  39.042  27.428  1.00  0.00    -0.491 OA
BRANCH   4   5
ATOM      5  C   UNL     1     -45.784  39.923  27.208  1.00  0.00     0.121 A 
ATOM      6  C   UNL     1     -43.647  43.561  25.006  1.00  0.00     0.126 A 
ATOM      7  C   UNL     1     -42.522  43.453  25.817  1.00  0.00    -0.019 A 
ATOM      8  N   UNL     1     -44.708  42.741  25.156  1.00  0.00    -0.231 NA
ATOM      9  C   UNL     1     -42.475  42.463  26.793  1.00  0.00    -0.049 A 
ATOM     10  H   UNL     1     -41.692  44.142  25.701  1.00  0.00     0.066 H 
ATOM     11  C   UNL     1     -44.671  41.783  26.101  1.00  0.00     0.076 A 
ATOM     12  C   UNL     1     -43.563  41.602  26.950  1.00  0.00     0.001 A 
ATOM     13  H   UNL     1     -41.598  42.379  27.428  1.00  0.00     0.063 H 
ATOM     14  C   UNL     1     -45.765  40.938  26.248  1.00  0.00     0.007 A 
ATOM     15  C   UNL     1     -43.571  40.587  27.918  1.00  0.00    -0.049 A 
ATOM     16  H   UNL     1     -46.604  41.106  25.582  1.00  0.00     0.069 H 
ATOM     17  C   UNL     1     -44.680  39.753  28.041  1.00  0.00    -0.019 A 
ATOM     18  H   UNL     1     -42.720  40.441  28.579  1.00  0.00     0.063 H 
ATOM     19  H   UNL     1     -44.685  38.966  28.794  1.00  0.00     0.066 H 
BRANCH   6  20
ATOM     20  N   UNL     1     -43.670  44.592  24.050  1.00  0.00    -0.373 N 
ATOM     21  H   UNL     1     -42.733  44.973  23.952  1.00  0.00     0.161 HD
BRANCH  20  22
ATOM     22  C   UNL     1     -44.237  44.208  22.768  1.00  0.00     0.005 C 
ATOM     23  H   UNL     1     -45.332  44.221  22.793  1.00  0.00     0.045 H 
ATOM     24  H   UNL     1     -43.923  43.187  22.531  1.00  0.00     0.045 H 
ATOM     25  H   UNL     1     -43.879  44.855  21.960  1.00  0.00     0.045 H 
ENDBRANCH  20  22
ENDBRANCH   6  20
ENDBRANCH   4   5
ENDBRANCH   1   4
BRANCH   1  26
ATOM     26  C   UNL     1     -46.991  36.648  27.553  1.00  0.00     0.123 C 
ATOM     27  O   UNL     1     -47.866  35.668  26.950  1.00  0.00    -0.345 OA
ATOM     28  C   UNL     1     -45.675  35.922  27.799  1.00  0.00     0.114 C 
ATOM     29  H   UNL     1     -47.456  36.969  28.494  1.00  0.00     0.067 H 
ATOM     30  C   UNL     1     -47.386  34.347  27.313  1.00  0.00     0.165 C 
ATOM     31  C   UNL     1     -46.170  34.549  28.225  1.00  0.00     0.128 C 
ATOM     32  H   UNL     1     -45.084  35.835  26.880  1.00  0.00     0.066 H 
ATOM     33  H   UNL     1     -48.206  33.819  27.814  1.00  0.00     0.088 H 
ATOM     34  H   UNL     1     -45.396  33.781  28.149  1.00  0.00     0.068 H 
BRANCH  28  35
ATOM     35  O   UNL     1     -44.878  36.504  28.825  1.00  0.00    -0.387 OA
ATOM     36  H   UNL     1     -45.007  35.991  29.644  1.00  0.00     0.211 HD
ENDBRANCH  28  35
BRANCH  30  37
ATOM     37  N   UNL     1     -47.081  33.613  26.096  1.00  0.00    -0.285 N 
ATOM     38  C   UNL     1     -46.281  34.010  25.057  1.00  0.00     0.099 A 
ATOM     39  C   UNL     1     -47.581  32.379  25.778  1.00  0.00     0.167 A 
ATOM     40  N   UNL     1     -46.196  33.089  24.119  1.00  0.00    -0.231 NA
ATOM     41  H   UNL     1     -45.786  34.973  25.030  1.00  0.00     0.104 H 
ATOM     42  C   UNL     1     -47.009  32.064  24.556  1.00  0.00     0.150 A 
ATOM     43  N   UNL     1     -48.429  31.627  26.496  1.00  0.00    -0.216 NA
ATOM     44  C   UNL     1     -47.351  30.818  24.004  1.00  0.00     0.155 A 
ATOM     45  C   UNL     1     -48.697  30.467  25.863  1.00  0.00     0.120 A 
ATOM     46  N   UNL     1     -48.219  30.029  24.677  1.00  0.00    -0.217 NA
ATOM     47  H   UNL     1     -49.385  29.796  26.369  1.00  0.00     0.106 H 
BRANCH  44  48
ATOM     48  N   UNL     1     -46.855  30.363  22.788  1.00  0.00    -0.382 N 
ATOM     49  H   UNL     1     -47.393  29.586  22.427  1.00  0.00     0.158 HD
ATOM     50  H   UNL     1     -46.622  31.112  22.146  1.00  0.00     0.158 HD
ENDBRANCH  44  48
ENDBRANCH  30  37
BRANCH  31  51
ATOM     51  O   UNL     1     -46.572  34.603  29.606  1.00  0.00    -0.386 OA
ATOM     52  H   UNL     1     -46.305  35.493  29.915  1.00  0.00     0.211 HD
ENDBRANCH  31  51
ENDBRANCH   1  26
TORSDOF 9
ENDMDL
