MODEL 1
REMARK VINA RESULT:     -10.2      0.000      0.000
REMARK SMILES Nc1ncnc2c1ccn2[C@@H]1C[C@H](CCc2ccc3[nH]cnc3c2)[C@@H](O)[C@H]1O
REMARK SMILES IDX 11 1 12 2 13 3 25 4 27 5 10 12 2 13 3 14 7 15 4 16 6 17 8 18
REMARK SMILES IDX 5 19 9 21 1 24 28 27 14 29 15 32 16 35 17 36 24 37 18 38
REMARK SMILES IDX 23 40 19 42 22 44 20 45 21 46 26 49
REMARK H PARENT 11 6 12 7 12 8 13 9 25 10 27 11 4 20 8 22 9 23 1 25 1 26 28 28
REMARK H PARENT 14 30 14 31 15 33 15 34 17 39 24 41 18 43 20 47 21 48 26 50
REMARK Flexibility Score: inf
ROOT
ATOM      1  C   UNL     1     -45.686  39.195  28.725  1.00  0.00     0.064 C 
ATOM      2  C   UNL     1     -45.374  37.688  28.777  1.00  0.00    -0.024 C 
ATOM      3  C   UNL     1     -46.743  36.996  28.803  1.00  0.00    -0.010 C 
ATOM      4  C   UNL     1     -47.567  37.889  27.870  1.00  0.00     0.085 C 
ATOM      5  C   UNL     1     -47.159  39.311  28.288  1.00  0.00     0.101 C 
ATOM      6  H   UNL     1     -45.582  39.600  29.741  1.00  0.00     0.056 H 
ATOM      7  H   UNL     1     -44.786  37.436  29.667  1.00  0.00     0.029 H 
ATOM      8  H   UNL     1     -44.790  37.362  27.908  1.00  0.00     0.029 H 
ATOM      9  H   UNL     1     -47.149  37.042  29.821  1.00  0.00     0.033 H 
ATOM     10  H   UNL     1     -47.315  37.689  26.823  1.00  0.00     0.063 H 
ATOM     11  H   UNL     1     -47.345  40.037  27.490  1.00  0.00     0.065 H 
ENDROOT
BRANCH   1  12
ATOM     12  N   UNL     1     -44.757  39.943  27.894  1.00  0.00    -0.327 N 
ATOM     13  C   UNL     1     -41.723  41.702  27.404  1.00  0.00     0.136 A 
ATOM     14  N   UNL     1     -41.154  41.625  28.622  1.00  0.00    -0.219 NA
ATOM     15  C   UNL     1     -42.975  41.104  27.200  1.00  0.00     0.061 A 
ATOM     16  C   UNL     1     -41.813  40.962  29.591  1.00  0.00     0.120 A 
ATOM     17  C   UNL     1     -43.544  40.457  28.290  1.00  0.00     0.145 A 
ATOM     18  C   UNL     1     -43.882  40.963  26.115  1.00  0.00    -0.031 A 
ATOM     19  N   UNL     1     -43.008  40.350  29.518  1.00  0.00    -0.218 NA
ATOM     20  H   UNL     1     -41.314  40.918  30.554  1.00  0.00     0.106 H 
ATOM     21  C   UNL     1     -44.970  40.250  26.570  1.00  0.00     0.007 A 
ATOM     22  H   UNL     1     -43.751  41.338  25.109  1.00  0.00     0.065 H 
ATOM     23  H   UNL     1     -45.870  39.929  26.058  1.00  0.00     0.082 H 
BRANCH  13  24
ATOM     24  N   UNL     1     -41.032  42.393  26.420  1.00  0.00    -0.383 N 
ATOM     25  H   UNL     1     -40.682  41.822  25.664  1.00  0.00     0.158 HD
ATOM     26  H   UNL     1     -41.528  43.237  26.157  1.00  0.00     0.158 HD
ENDBRANCH  13  24
ENDBRANCH   1  12
BRANCH   5  27
ATOM     27  O   UNL     1     -47.951  39.728  29.414  1.00  0.00    -0.388 OA
ATOM     28  H   UNL     1     -47.380  40.324  29.944  1.00  0.00     0.211 HD
ENDBRANCH   5  27
BRANCH   3  29
ATOM     29  C   UNL     1     -46.642  35.529  28.362  1.00  0.00    -0.044 C 
ATOM     30  H   UNL     1     -45.943  35.000  29.024  1.00  0.00     0.027 H 
ATOM     31  H   UNL     1     -47.619  35.048  28.507  1.00  0.00     0.027 H 
BRANCH  29  32
ATOM     32  C   UNL     1     -46.182  35.312  26.915  1.00  0.00    -0.027 C 
ATOM     33  H   UNL     1     -46.251  36.243  26.342  1.00  0.00     0.032 H 
ATOM     34  H   UNL     1     -45.113  35.059  26.920  1.00  0.00     0.032 H 
BRANCH  32  35
ATOM     35  C   UNL     1     -46.916  34.197  26.207  1.00  0.00    -0.046 A 
ATOM     36  C   UNL     1     -48.251  33.907  26.532  1.00  0.00    -0.057 A 
ATOM     37  C   UNL     1     -46.263  33.449  25.209  1.00  0.00    -0.031 A 
ATOM     38  C   UNL     1     -48.964  32.886  25.889  1.00  0.00    -0.036 A 
ATOM     39  H   UNL     1     -48.754  34.485  27.306  1.00  0.00     0.063 H 
ATOM     40  C   UNL     1     -46.961  32.424  24.554  1.00  0.00     0.088 A 
ATOM     41  H   UNL     1     -45.233  33.652  24.932  1.00  0.00     0.065 H 
ATOM     42  C   UNL     1     -48.281  32.170  24.905  1.00  0.00     0.065 A 
ATOM     43  H   UNL     1     -49.995  32.671  26.149  1.00  0.00     0.065 H 
ATOM     44  N   UNL     1     -46.545  31.571  23.559  1.00  0.00    -0.237 NA
ATOM     45  N   UNL     1     -48.653  31.132  24.090  1.00  0.00    -0.345 N 
ATOM     46  C   UNL     1     -47.583  30.808  23.304  1.00  0.00     0.093 A 
ATOM     47  H   UNL     1     -49.557  30.684  24.073  1.00  0.00     0.168 HD
ATOM     48  H   UNL     1     -47.620  30.015  22.569  1.00  0.00     0.104 H 
ENDBRANCH  32  35
ENDBRANCH  29  32
ENDBRANCH   3  29
BRANCH   4  49
ATOM     49  O   UNL     1     -48.965  37.709  28.053  1.00  0.00    -0.390 OA
ATOM     50  H   UNL     1     -49.089  36.833  28.463  1.00  0.00     0.211 HD
ENDBRANCH   4  49
TORSDOF 7
ENDMDL
MODEL 2
REMARK VINA RESULT:      -9.3      1.701      8.895
REMARK SMILES Nc1ncnc2c1ccn2[C@@H]1C[C@H](CCc2ccc3[nH]cnc3c2)[C@@H](O)[C@H]1O
REMARK SMILES IDX 11 1 12 2 13 3 25 4 27 5 10 12 2 13 3 14 7 15 4 16 6 17 8 18
REMARK SMILES IDX 5 19 9 21 1 24 28 27 14 29 15 32 16 35 17 36 24 37 18 38
REMARK SMILES IDX 23 40 19 42 22 44 20 45 21 46 26 49
REMARK H PARENT 11 6 12 7 12 8 13 9 25 10 27 11 4 20 8 22 9 23 1 25 1 26 28 28
REMARK H PARENT 14 30 14 31 15 33 15 34 17 39 24 41 18 43 20 47 21 48 26 50
REMARK Flexibility Score: inf
ROOT
ATOM      1  C   UNL     1     -47.332  35.091  27.838  1.00  0.00     0.064 C 
ATOM      2  C   UNL     1     -47.819  36.498  27.445  1.00  0.00    -0.024 C 
ATOM      3  C   UNL     1     -47.119  37.452  28.421  1.00  0.00    -0.010 C 
ATOM      4  C   UNL     1     -45.742  36.797  28.571  1.00  0.00     0.085 C 
ATOM      5  C   UNL     1     -46.074  35.301  28.701  1.00  0.00     0.101 C 
ATOM      6  H   UNL     1     -48.112  34.619  28.452  1.00  0.00     0.056 H 
ATOM      7  H   UNL     1     -48.909  36.577  27.527  1.00  0.00     0.029 H 
ATOM      8  H   UNL     1     -47.561  36.745  26.407  1.00  0.00     0.029 H 
ATOM      9  H   UNL     1     -47.649  37.435  29.381  1.00  0.00     0.033 H 
ATOM     10  H   UNL     1     -45.122  36.997  27.691  1.00  0.00     0.063 H 
ATOM     11  H   UNL     1     -45.220  34.672  28.429  1.00  0.00     0.065 H 
ENDROOT
BRANCH   1  12
ATOM     12  N   UNL     1     -47.132  34.215  26.694  1.00  0.00    -0.327 N 
ATOM     13  C   UNL     1     -48.305  31.886  24.300  1.00  0.00     0.136 A 
ATOM     14  N   UNL     1     -49.604  31.766  24.638  1.00  0.00    -0.219 NA
ATOM     15  C   UNL     1     -47.487  32.747  25.044  1.00  0.00     0.061 A 
ATOM     16  C   UNL     1     -50.061  32.493  25.675  1.00  0.00     0.120 A 
ATOM     17  C   UNL     1     -48.090  33.432  26.092  1.00  0.00     0.145 A 
ATOM     18  C   UNL     1     -46.123  33.143  25.020  1.00  0.00    -0.031 A 
ATOM     19  N   UNL     1     -49.380  33.348  26.459  1.00  0.00    -0.218 NA
ATOM     20  H   UNL     1     -51.114  32.371  25.907  1.00  0.00     0.106 H 
ATOM     21  C   UNL     1     -45.930  34.043  26.048  1.00  0.00     0.007 A 
ATOM     22  H   UNL     1     -45.364  32.812  24.324  1.00  0.00     0.065 H 
ATOM     23  H   UNL     1     -45.042  34.577  26.362  1.00  0.00     0.082 H 
BRANCH  13  24
ATOM     24  N   UNL     1     -47.852  31.125  23.233  1.00  0.00    -0.383 N 
ATOM     25  H   UNL     1     -47.214  30.381  23.481  1.00  0.00     0.158 HD
ATOM     26  H   UNL     1     -48.617  30.877  22.617  1.00  0.00     0.158 HD
ENDBRANCH  13  24
ENDBRANCH   1  12
BRANCH   5  27
ATOM     27  O   UNL     1     -46.388  34.994  30.071  1.00  0.00    -0.388 OA
ATOM     28  H   UNL     1     -46.282  35.831  30.570  1.00  0.00     0.211 HD
ENDBRANCH   5  27
BRANCH   3  29
ATOM     29  C   UNL     1     -47.089  38.889  27.882  1.00  0.00    -0.044 C 
ATOM     30  H   UNL     1     -48.106  39.187  27.591  1.00  0.00     0.027 H 
ATOM     31  H   UNL     1     -46.797  39.566  28.696  1.00  0.00     0.027 H 
BRANCH  29  32
ATOM     32  C   UNL     1     -46.165  39.117  26.679  1.00  0.00    -0.027 C 
ATOM     33  H   UNL     1     -45.861  38.162  26.238  1.00  0.00     0.032 H 
ATOM     34  H   UNL     1     -46.735  39.627  25.890  1.00  0.00     0.032 H 
BRANCH  32  35
ATOM     35  C   UNL     1     -44.956  39.965  26.996  1.00  0.00    -0.046 A 
ATOM     36  C   UNL     1     -44.431  40.842  26.033  1.00  0.00    -0.057 A 
ATOM     37  C   UNL     1     -44.354  39.883  28.266  1.00  0.00    -0.031 A 
ATOM     38  C   UNL     1     -43.316  41.650  26.297  1.00  0.00    -0.036 A 
ATOM     39  H   UNL     1     -44.896  40.903  25.050  1.00  0.00     0.063 H 
ATOM     40  C   UNL     1     -43.238  40.684  28.549  1.00  0.00     0.088 A 
ATOM     41  H   UNL     1     -44.739  39.219  29.033  1.00  0.00     0.065 H 
ATOM     42  C   UNL     1     -42.751  41.540  27.568  1.00  0.00     0.065 A 
ATOM     43  H   UNL     1     -42.920  42.323  25.545  1.00  0.00     0.065 H 
ATOM     44  N   UNL     1     -42.491  40.782  29.699  1.00  0.00    -0.237 NA
ATOM     45  N   UNL     1     -41.682  42.159  28.162  1.00  0.00    -0.345 N 
ATOM     46  C   UNL     1     -41.566  41.675  29.434  1.00  0.00     0.093 A 
ATOM     47  H   UNL     1     -41.085  42.853  27.736  1.00  0.00     0.168 HD
ATOM     48  H   UNL     1     -40.795  42.008  30.115  1.00  0.00     0.104 H 
ENDBRANCH  32  35
ENDBRANCH  29  32
ENDBRANCH   3  29
BRANCH   4  49
ATOM     49  O   UNL     1     -45.058  37.247  29.733  1.00  0.00    -0.390 OA
ATOM     50  H   UNL     1     -45.734  37.585  30.349  1.00  0.00     0.211 HD
ENDBRANCH   4  49
TORSDOF 7
ENDMDL
MODEL 3
REMARK VINA RESULT:      -9.3      2.121      9.646
REMARK SMILES Nc1ncnc2c1ccn2[C@@H]1C[C@H](CCc2ccc3[nH]cnc3c2)[C@@H](O)[C@H]1O
REMARK SMILES IDX 11 1 12 2 13 3 25 4 27 5 10 12 2 13 3 14 7 15 4 16 6 17 8 18
REMARK SMILES IDX 5 19 9 21 1 24 28 27 14 29 15 32 16 35 17 36 24 37 18 38
REMARK SMILES IDX 23 40 19 42 22 44 20 45 21 46 26 49
REMARK H PARENT 11 6 12 7 12 8 13 9 25 10 27 11 4 20 8 22 9 23 1 25 1 26 28 28
REMARK H PARENT 14 30 14 31 15 33 15 34 17 39 24 41 18 43 20 47 21 48 26 50
REMARK Flexibility Score: inf
ROOT
ATOM      1  C   UNL     1     -47.472  32.441  26.141  1.00  0.00     0.064 C 
ATOM      2  C   UNL     1     -48.228  33.782  26.104  1.00  0.00    -0.024 C 
ATOM      3  C   UNL     1     -47.487  34.687  27.097  1.00  0.00    -0.010 C 
ATOM      4  C   UNL     1     -46.029  34.272  26.877  1.00  0.00     0.085 C 
ATOM      5  C   UNL     1     -46.106  32.739  26.790  1.00  0.00     0.101 C 
ATOM      6  H   UNL     1     -48.031  31.752  26.788  1.00  0.00     0.056 H 
ATOM      7  H   UNL     1     -49.277  33.653  26.393  1.00  0.00     0.029 H 
ATOM      8  H   UNL     1     -48.227  34.224  25.101  1.00  0.00     0.029 H 
ATOM      9  H   UNL     1     -47.800  34.432  28.117  1.00  0.00     0.033 H 
ATOM     10  H   UNL     1     -45.639  34.709  25.953  1.00  0.00     0.063 H 
ATOM     11  H   UNL     1     -45.245  32.320  26.259  1.00  0.00     0.065 H 
ENDROOT
BRANCH   1  12
ATOM     12  N   UNL     1     -47.386  31.797  24.840  1.00  0.00    -0.327 N 
ATOM     13  C   UNL     1     -48.815  30.002  22.143  1.00  0.00     0.136 A 
ATOM     14  N   UNL     1     -50.089  29.849  22.551  1.00  0.00    -0.219 NA
ATOM     15  C   UNL     1     -47.913  30.683  22.973  1.00  0.00     0.061 A 
ATOM     16  C   UNL     1     -50.444  30.374  23.740  1.00  0.00     0.120 A 
ATOM     17  C   UNL     1     -48.413  31.168  24.175  1.00  0.00     0.145 A 
ATOM     18  C   UNL     1     -46.540  31.044  22.920  1.00  0.00    -0.031 A 
ATOM     19  N   UNL     1     -49.676  31.046  24.617  1.00  0.00    -0.218 NA
ATOM     20  H   UNL     1     -51.481  30.235  24.025  1.00  0.00     0.106 H 
ATOM     21  C   UNL     1     -46.241  31.724  24.082  1.00  0.00     0.007 A 
ATOM     22  H   UNL     1     -45.846  30.835  22.117  1.00  0.00     0.065 H 
ATOM     23  H   UNL     1     -45.313  32.167  24.423  1.00  0.00     0.082 H 
BRANCH  13  24
ATOM     24  N   UNL     1     -48.467  29.450  20.919  1.00  0.00    -0.383 N 
ATOM     25  H   UNL     1     -49.197  28.913  20.472  1.00  0.00     0.158 HD
ATOM     26  H   UNL     1     -47.987  30.129  20.341  1.00  0.00     0.158 HD
ENDBRANCH  13  24
ENDBRANCH   1  12
BRANCH   5  27
ATOM     27  O   UNL     1     -46.084  32.178  28.114  1.00  0.00    -0.388 OA
ATOM     28  H   UNL     1     -46.934  32.430  28.532  1.00  0.00     0.211 HD
ENDBRANCH   5  27
BRANCH   3  29
ATOM     29  C   UNL     1     -47.777  36.171  26.833  1.00  0.00    -0.044 C 
ATOM     30  H   UNL     1     -47.064  36.552  26.090  1.00  0.00     0.027 H 
ATOM     31  H   UNL     1     -48.771  36.261  26.373  1.00  0.00     0.027 H 
BRANCH  29  32
ATOM     32  C   UNL     1     -47.708  37.080  28.067  1.00  0.00    -0.027 C 
ATOM     33  H   UNL     1     -48.653  37.615  28.208  1.00  0.00     0.032 H 
ATOM     34  H   UNL     1     -47.600  36.451  28.961  1.00  0.00     0.032 H 
BRANCH  32  35
ATOM     35  C   UNL     1     -46.548  38.048  28.042  1.00  0.00    -0.046 A 
ATOM     36  C   UNL     1     -46.338  38.876  26.927  1.00  0.00    -0.057 A 
ATOM     37  C   UNL     1     -45.676  38.127  29.144  1.00  0.00    -0.031 A 
ATOM     38  C   UNL     1     -45.277  39.791  26.875  1.00  0.00    -0.036 A 
ATOM     39  H   UNL     1     -47.012  38.811  26.075  1.00  0.00     0.063 H 
ATOM     40  C   UNL     1     -44.609  39.038  29.110  1.00  0.00     0.088 A 
ATOM     41  H   UNL     1     -45.815  37.504  30.022  1.00  0.00     0.065 H 
ATOM     42  C   UNL     1     -44.438  39.840  27.988  1.00  0.00     0.065 A 
ATOM     43  H   UNL     1     -45.125  40.425  26.008  1.00  0.00     0.065 H 
ATOM     44  N   UNL     1     -43.641  39.297  30.051  1.00  0.00    -0.237 NA
ATOM     45  N   UNL     1     -43.330  40.594  28.280  1.00  0.00    -0.345 N 
ATOM     46  C   UNL     1     -42.890  40.235  29.522  1.00  0.00     0.093 A 
ATOM     47  H   UNL     1     -42.913  41.293  27.683  1.00  0.00     0.168 HD
ATOM     48  H   UNL     1     -42.024  40.688  29.986  1.00  0.00     0.104 H 
ENDBRANCH  32  35
ENDBRANCH  29  32
ENDBRANCH   3  29
BRANCH   4  49
ATOM     49  O   UNL     1     -45.193  34.656  27.961  1.00  0.00    -0.390 OA
ATOM     50  H   UNL     1     -44.534  35.281  27.606  1.00  0.00     0.211 HD
ENDBRANCH   4  49
TORSDOF 7
ENDMDL
MODEL 4
REMARK VINA RESULT:      -9.2      2.184      9.393
REMARK SMILES Nc1ncnc2c1ccn2[C@@H]1C[C@H](CCc2ccc3[nH]cnc3c2)[C@@H](O)[C@H]1O
REMARK SMILES IDX 11 1 12 2 13 3 25 4 27 5 10 12 2 13 3 14 7 15 4 16 6 17 8 18
REMARK SMILES IDX 5 19 9 21 1 24 28 27 14 29 15 32 16 35 17 36 24 37 18 38
REMARK SMILES IDX 23 40 19 42 22 44 20 45 21 46 26 49
REMARK H PARENT 11 6 12 7 12 8 13 9 25 10 27 11 4 20 8 22 9 23 1 25 1 26 28 28
REMARK H PARENT 14 30 14 31 15 33 15 34 17 39 24 41 18 43 20 47 21 48 26 50
REMARK Flexibility Score: inf
ROOT
ATOM      1  C   UNL     1     -48.208  32.360  26.017  1.00  0.00     0.064 C 
ATOM      2  C   UNL     1     -48.907  33.704  26.294  1.00  0.00    -0.024 C 
ATOM      3  C   UNL     1     -47.851  34.568  26.995  1.00  0.00    -0.010 C 
ATOM      4  C   UNL     1     -46.569  34.156  26.263  1.00  0.00     0.085 C 
ATOM      5  C   UNL     1     -46.697  32.628  26.156  1.00  0.00     0.101 C 
ATOM      6  H   UNL     1     -48.517  31.648  26.795  1.00  0.00     0.056 H 
ATOM      7  H   UNL     1     -49.790  33.567  26.928  1.00  0.00     0.029 H 
ATOM      8  H   UNL     1     -49.251  34.184  25.370  1.00  0.00     0.029 H 
ATOM      9  H   UNL     1     -47.790  34.275  28.050  1.00  0.00     0.033 H 
ATOM     10  H   UNL     1     -46.520  34.628  25.277  1.00  0.00     0.063 H 
ATOM     11  H   UNL     1     -46.083  32.227  25.343  1.00  0.00     0.065 H 
ENDROOT
BRANCH   1  12
ATOM     12  N   UNL     1     -48.594  31.766  24.747  1.00  0.00    -0.327 N 
ATOM     13  C   UNL     1     -47.821  30.202  21.666  1.00  0.00     0.136 A 
ATOM     14  N   UNL     1     -46.477  30.129  21.719  1.00  0.00    -0.219 NA
ATOM     15  C   UNL     1     -48.511  30.781  22.740  1.00  0.00     0.061 A 
ATOM     16  C   UNL     1     -45.855  30.605  22.814  1.00  0.00     0.120 A 
ATOM     17  C   UNL     1     -47.743  31.237  23.805  1.00  0.00     0.145 A 
ATOM     18  C   UNL     1     -49.869  31.043  23.067  1.00  0.00    -0.031 A 
ATOM     19  N   UNL     1     -46.404  31.176  23.901  1.00  0.00    -0.218 NA
ATOM     20  H   UNL     1     -44.774  30.518  22.817  1.00  0.00     0.106 H 
ATOM     21  C   UNL     1     -49.891  31.653  24.303  1.00  0.00     0.007 A 
ATOM     22  H   UNL     1     -50.737  30.807  22.466  1.00  0.00     0.065 H 
ATOM     23  H   UNL     1     -50.722  32.005  24.903  1.00  0.00     0.082 H 
BRANCH  13  24
ATOM     24  N   UNL     1     -48.442  29.711  20.528  1.00  0.00    -0.383 N 
ATOM     25  H   UNL     1     -49.068  28.934  20.685  1.00  0.00     0.158 HD
ATOM     26  H   UNL     1     -48.797  30.469  19.956  1.00  0.00     0.158 HD
ENDBRANCH  13  24
ENDBRANCH   1  12
BRANCH   5  27
ATOM     27  O   UNL     1     -46.221  32.017  27.368  1.00  0.00    -0.388 OA
ATOM     28  H   UNL     1     -46.986  31.994  27.980  1.00  0.00     0.211 HD
ENDBRANCH   5  27
BRANCH   3  29
ATOM     29  C   UNL     1     -48.191  36.062  26.901  1.00  0.00    -0.044 C 
ATOM     30  H   UNL     1     -47.556  36.529  26.136  1.00  0.00     0.027 H 
ATOM     31  H   UNL     1     -49.224  36.168  26.544  1.00  0.00     0.027 H 
BRANCH  29  32
ATOM     32  C   UNL     1     -48.023  36.853  28.204  1.00  0.00    -0.027 C 
ATOM     33  H   UNL     1     -48.941  37.399  28.447  1.00  0.00     0.032 H 
ATOM     34  H   UNL     1     -47.885  36.143  29.031  1.00  0.00     0.032 H 
BRANCH  32  35
ATOM     35  C   UNL     1     -46.836  37.788  28.197  1.00  0.00    -0.046 A 
ATOM     36  C   UNL     1     -45.873  37.721  29.217  1.00  0.00    -0.057 A 
ATOM     37  C   UNL     1     -46.688  38.727  27.159  1.00  0.00    -0.031 A 
ATOM     38  C   UNL     1     -44.755  38.567  29.236  1.00  0.00    -0.036 A 
ATOM     39  H   UNL     1     -45.990  36.996  30.021  1.00  0.00     0.063 H 
ATOM     40  C   UNL     1     -45.576  39.581  27.160  1.00  0.00     0.088 A 
ATOM     41  H   UNL     1     -47.413  38.800  26.354  1.00  0.00     0.065 H 
ATOM     42  C   UNL     1     -44.645  39.482  28.188  1.00  0.00     0.065 A 
ATOM     43  H   UNL     1     -44.018  38.506  30.029  1.00  0.00     0.065 H 
ATOM     44  N   UNL     1     -45.217  40.563  26.267  1.00  0.00    -0.237 NA
ATOM     45  N   UNL     1     -43.709  40.438  27.889  1.00  0.00    -0.345 N 
ATOM     46  C   UNL     1     -44.093  41.058  26.733  1.00  0.00     0.093 A 
ATOM     47  H   UNL     1     -42.881  40.648  28.426  1.00  0.00     0.168 HD
ATOM     48  H   UNL     1     -43.518  41.855  26.282  1.00  0.00     0.104 H 
ENDBRANCH  32  35
ENDBRANCH  29  32
ENDBRANCH   3  29
BRANCH   4  49
ATOM     49  O   UNL     1     -45.400  34.497  26.998  1.00  0.00    -0.390 OA
ATOM     50  H   UNL     1     -44.655  34.487  26.369  1.00  0.00     0.211 HD
ENDBRANCH   4  49
TORSDOF 7
ENDMDL
MODEL 5
REMARK VINA RESULT:      -9.2      1.306      2.304
REMARK SMILES Nc1ncnc2c1ccn2[C@@H]1C[C@H](CCc2ccc3[nH]cnc3c2)[C@@H](O)[C@H]1O
REMARK SMILES IDX 11 1 12 2 13 3 25 4 27 5 10 12 2 13 3 14 7 15 4 16 6 17 8 18
REMARK SMILES IDX 5 19 9 21 1 24 28 27 14 29 15 32 16 35 17 36 24 37 18 38
REMARK SMILES IDX 23 40 19 42 22 44 20 45 21 46 26 49
REMARK H PARENT 11 6 12 7 12 8 13 9 25 10 27 11 4 20 8 22 9 23 1 25 1 26 28 28
REMARK H PARENT 14 30 14 31 15 33 15 34 17 39 24 41 18 43 20 47 21 48 26 50
REMARK Flexibility Score: inf
ROOT
ATOM      1  C   UNL     1     -44.800  38.393  29.067  1.00  0.00     0.064 C 
ATOM      2  C   UNL     1     -44.893  37.398  27.896  1.00  0.00    -0.024 C 
ATOM      3  C   UNL     1     -46.325  36.850  27.949  1.00  0.00    -0.010 C 
ATOM      4  C   UNL     1     -47.123  38.089  28.369  1.00  0.00     0.085 C 
ATOM      5  C   UNL     1     -46.252  38.714  29.470  1.00  0.00     0.101 C 
ATOM      6  H   UNL     1     -44.300  37.889  29.905  1.00  0.00     0.056 H 
ATOM      7  H   UNL     1     -44.157  36.592  28.002  1.00  0.00     0.029 H 
ATOM      8  H   UNL     1     -44.697  37.881  26.932  1.00  0.00     0.029 H 
ATOM      9  H   UNL     1     -46.387  36.082  28.729  1.00  0.00     0.033 H 
ATOM     10  H   UNL     1     -47.252  38.770  27.521  1.00  0.00     0.063 H 
ATOM     11  H   UNL     1     -46.468  39.780  29.600  1.00  0.00     0.065 H 
ENDROOT
BRANCH   1  12
ATOM     12  N   UNL     1     -43.994  39.564  28.759  1.00  0.00    -0.327 N 
ATOM     13  C   UNL     1     -43.091  42.272  26.665  1.00  0.00     0.136 A 
ATOM     14  N   UNL     1     -43.943  42.124  25.631  1.00  0.00    -0.219 NA
ATOM     15  C   UNL     1     -43.146  41.358  27.725  1.00  0.00     0.061 A 
ATOM     16  C   UNL     1     -44.822  41.105  25.673  1.00  0.00     0.120 A 
ATOM     17  C   UNL     1     -44.099  40.351  27.635  1.00  0.00     0.145 A 
ATOM     18  C   UNL     1     -42.454  41.164  28.952  1.00  0.00    -0.031 A 
ATOM     19  N   UNL     1     -44.971  40.171  26.629  1.00  0.00    -0.218 NA
ATOM     20  H   UNL     1     -45.494  41.028  24.824  1.00  0.00     0.106 H 
ATOM     21  C   UNL     1     -42.993  40.053  29.565  1.00  0.00     0.007 A 
ATOM     22  H   UNL     1     -41.653  41.775  29.347  1.00  0.00     0.065 H 
ATOM     23  H   UNL     1     -42.751  39.579  30.509  1.00  0.00     0.082 H 
BRANCH  13  24
ATOM     24  N   UNL     1     -42.190  43.324  26.601  1.00  0.00    -0.383 N 
ATOM     25  H   UNL     1     -41.745  43.557  27.478  1.00  0.00     0.158 HD
ATOM     26  H   UNL     1     -41.581  43.227  25.797  1.00  0.00     0.158 HD
ENDBRANCH  13  24
ENDBRANCH   1  12
BRANCH   5  27
ATOM     27  O   UNL     1     -46.540  38.082  30.730  1.00  0.00    -0.388 OA
ATOM     28  H   UNL     1     -46.499  38.790  31.406  1.00  0.00     0.211 HD
ENDBRANCH   5  27
BRANCH   3  29
ATOM     29  C   UNL     1     -46.747  36.242  26.603  1.00  0.00    -0.044 C 
ATOM     30  H   UNL     1     -47.020  37.050  25.912  1.00  0.00     0.027 H 
ATOM     31  H   UNL     1     -45.879  35.740  26.155  1.00  0.00     0.027 H 
BRANCH  29  32
ATOM     32  C   UNL     1     -47.921  35.257  26.671  1.00  0.00    -0.027 C 
ATOM     33  H   UNL     1     -48.227  35.090  27.708  1.00  0.00     0.032 H 
ATOM     34  H   UNL     1     -48.793  35.717  26.186  1.00  0.00     0.032 H 
BRANCH  32  35
ATOM     35  C   UNL     1     -47.649  33.942  25.978  1.00  0.00    -0.046 A 
ATOM     36  C   UNL     1     -46.449  33.745  25.275  1.00  0.00    -0.057 A 
ATOM     37  C   UNL     1     -48.598  32.905  26.043  1.00  0.00    -0.031 A 
ATOM     38  C   UNL     1     -46.161  32.535  24.629  1.00  0.00    -0.036 A 
ATOM     39  H   UNL     1     -45.717  34.549  25.224  1.00  0.00     0.063 H 
ATOM     40  C   UNL     1     -48.327  31.687  25.404  1.00  0.00     0.088 A 
ATOM     41  H   UNL     1     -49.532  33.026  26.583  1.00  0.00     0.065 H 
ATOM     42  C   UNL     1     -47.127  31.532  24.720  1.00  0.00     0.065 A 
ATOM     43  H   UNL     1     -45.231  32.394  24.089  1.00  0.00     0.065 H 
ATOM     44  N   UNL     1     -49.085  30.542  25.329  1.00  0.00    -0.237 NA
ATOM     45  N   UNL     1     -47.183  30.254  24.226  1.00  0.00    -0.345 N 
ATOM     46  C   UNL     1     -48.371  29.702  24.616  1.00  0.00     0.093 A 
ATOM     47  H   UNL     1     -46.473  29.799  23.672  1.00  0.00     0.168 HD
ATOM     48  H   UNL     1     -48.658  28.693  24.353  1.00  0.00     0.104 H 
ENDBRANCH  32  35
ENDBRANCH  29  32
ENDBRANCH   3  29
BRANCH   4  49
ATOM     49  O   UNL     1     -48.402  37.751  28.891  1.00  0.00    -0.390 OA
ATOM     50  H   UNL     1     -49.066  38.133  28.288  1.00  0.00     0.211 HD
ENDBRANCH   4  49
TORSDOF 7
ENDMDL
MODEL 6
REMARK VINA RESULT:      -9.1      1.654      2.700
REMARK SMILES Nc1ncnc2c1ccn2[C@@H]1C[C@H](CCc2ccc3[nH]cnc3c2)[C@@H](O)[C@H]1O
REMARK SMILES IDX 11 1 12 2 13 3 25 4 27 5 10 12 2 13 3 14 7 15 4 16 6 17 8 18
REMARK SMILES IDX 5 19 9 21 1 24 28 27 14 29 15 32 16 35 17 36 24 37 18 38
REMARK SMILES IDX 23 40 19 42 22 44 20 45 21 46 26 49
REMARK H PARENT 11 6 12 7 12 8 13 9 25 10 27 11 4 20 8 22 9 23 1 25 1 26 28 28
REMARK H PARENT 14 30 14 31 15 33 15 34 17 39 24 41 18 43 20 47 21 48 26 50
REMARK Flexibility Score: inf
ROOT
ATOM      1  C   UNL     1     -46.665  36.943  28.325  1.00  0.00     0.064 C 
ATOM      2  C   UNL     1     -45.889  35.652  28.003  1.00  0.00    -0.024 C 
ATOM      3  C   UNL     1     -46.966  34.604  27.694  1.00  0.00    -0.010 C 
ATOM      4  C   UNL     1     -48.016  35.438  26.952  1.00  0.00     0.085 C 
ATOM      5  C   UNL     1     -48.090  36.732  27.779  1.00  0.00     0.101 C 
ATOM      6  H   UNL     1     -46.713  37.049  29.417  1.00  0.00     0.056 H 
ATOM      7  H   UNL     1     -45.267  35.343  28.850  1.00  0.00     0.029 H 
ATOM      8  H   UNL     1     -45.217  35.782  27.146  1.00  0.00     0.029 H 
ATOM      9  H   UNL     1     -47.383  34.230  28.637  1.00  0.00     0.033 H 
ATOM     10  H   UNL     1     -47.696  35.634  25.924  1.00  0.00     0.063 H 
ATOM     11  H   UNL     1     -48.485  37.566  27.190  1.00  0.00     0.065 H 
ENDROOT
BRANCH   1  12
ATOM     12  N   UNL     1     -46.009  38.143  27.830  1.00  0.00    -0.327 N 
ATOM     13  C   UNL     1     -43.601  40.724  28.102  1.00  0.00     0.136 A 
ATOM     14  N   UNL     1     -42.991  40.418  29.263  1.00  0.00    -0.219 NA
ATOM     15  C   UNL     1     -44.644  39.906  27.646  1.00  0.00     0.061 A 
ATOM     16  C   UNL     1     -43.406  39.325  29.931  1.00  0.00     0.120 A 
ATOM     17  C   UNL     1     -44.973  38.812  28.439  1.00  0.00     0.145 A 
ATOM     18  C   UNL     1     -45.513  39.879  26.522  1.00  0.00    -0.031 A 
ATOM     19  N   UNL     1     -44.387  38.467  29.598  1.00  0.00    -0.218 NA
ATOM     20  H   UNL     1     -42.882  39.112  30.857  1.00  0.00     0.106 H 
ATOM     21  C   UNL     1     -46.344  38.788  26.663  1.00  0.00     0.007 A 
ATOM     22  H   UNL     1     -45.526  40.578  25.697  1.00  0.00     0.065 H 
ATOM     23  H   UNL     1     -47.137  38.417  26.024  1.00  0.00     0.082 H 
BRANCH  13  24
ATOM     24  N   UNL     1     -43.163  41.856  27.432  1.00  0.00    -0.383 N 
ATOM     25  H   UNL     1     -42.356  42.308  27.840  1.00  0.00     0.158 HD
ATOM     26  H   UNL     1     -43.132  41.693  26.432  1.00  0.00     0.158 HD
ENDBRANCH  13  24
ENDBRANCH   1  12
BRANCH   5  27
ATOM     27  O   UNL     1     -48.993  36.548  28.884  1.00  0.00    -0.388 OA
ATOM     28  H   UNL     1     -48.984  35.589  29.087  1.00  0.00     0.211 HD
ENDBRANCH   5  27
BRANCH   3  29
ATOM     29  C   UNL     1     -46.395  33.428  26.888  1.00  0.00    -0.044 C 
ATOM     30  H   UNL     1     -45.347  33.269  27.176  1.00  0.00     0.027 H 
ATOM     31  H   UNL     1     -46.930  32.512  27.172  1.00  0.00     0.027 H 
BRANCH  29  32
ATOM     32  C   UNL     1     -46.449  33.593  25.364  1.00  0.00    -0.027 C 
ATOM     33  H   UNL     1     -46.999  34.501  25.092  1.00  0.00     0.032 H 
ATOM     34  H   UNL     1     -45.429  33.755  24.992  1.00  0.00     0.032 H 
BRANCH  32  35
ATOM     35  C   UNL     1     -47.018  32.393  24.645  1.00  0.00    -0.046 A 
ATOM     36  C   UNL     1     -46.204  31.618  23.803  1.00  0.00    -0.057 A 
ATOM     37  C   UNL     1     -48.370  32.043  24.824  1.00  0.00    -0.031 A 
ATOM     38  C   UNL     1     -46.696  30.493  23.128  1.00  0.00    -0.036 A 
ATOM     39  H   UNL     1     -45.159  31.891  23.664  1.00  0.00     0.063 H 
ATOM     40  C   UNL     1     -48.881  30.919  24.157  1.00  0.00     0.088 A 
ATOM     41  H   UNL     1     -49.023  32.618  25.471  1.00  0.00     0.065 H 
ATOM     42  C   UNL     1     -48.040  30.178  23.334  1.00  0.00     0.065 A 
ATOM     43  H   UNL     1     -46.058  29.902  22.480  1.00  0.00     0.065 H 
ATOM     44  N   UNL     1     -50.147  30.384  24.174  1.00  0.00    -0.237 NA
ATOM     45  N   UNL     1     -48.841  29.175  22.851  1.00  0.00    -0.345 N 
ATOM     46  C   UNL     1     -50.090  29.339  23.381  1.00  0.00     0.093 A 
ATOM     47  H   UNL     1     -48.558  28.443  22.216  1.00  0.00     0.168 HD
ATOM     48  H   UNL     1     -50.909  28.671  23.155  1.00  0.00     0.104 H 
ENDBRANCH  32  35
ENDBRANCH  29  32
ENDBRANCH   3  29
BRANCH   4  49
ATOM     49  O   UNL     1     -49.287  34.801  26.928  1.00  0.00    -0.390 OA
ATOM     50  H   UNL     1     -49.162  33.930  26.509  1.00  0.00     0.211 HD
ENDBRANCH   4  49
TORSDOF 7
ENDMDL
MODEL 7
REMARK VINA RESULT:      -9.0      3.393      5.424
REMARK SMILES Nc1ncnc2c1ccn2[C@@H]1C[C@H](CCc2ccc3[nH]cnc3c2)[C@@H](O)[C@H]1O
REMARK SMILES IDX 11 1 12 2 13 3 25 4 27 5 10 12 2 13 3 14 7 15 4 16 6 17 8 18
REMARK SMILES IDX 5 19 9 21 1 24 28 27 14 29 15 32 16 35 17 36 24 37 18 38
REMARK SMILES IDX 23 40 19 42 22 44 20 45 21 46 26 49
REMARK H PARENT 11 6 12 7 12 8 13 9 25 10 27 11 4 20 8 22 9 23 1 25 1 26 28 28
REMARK H PARENT 14 30 14 31 15 33 15 34 17 39 24 41 18 43 20 47 21 48 26 50
REMARK Flexibility Score: inf
ROOT
ATOM      1  C   UNL     1     -46.465  35.515  27.019  1.00  0.00     0.064 C 
ATOM      2  C   UNL     1     -46.627  34.992  25.580  1.00  0.00    -0.024 C 
ATOM      3  C   UNL     1     -46.246  33.507  25.648  1.00  0.00    -0.010 C 
ATOM      4  C   UNL     1     -46.817  33.096  27.009  1.00  0.00     0.085 C 
ATOM      5  C   UNL     1     -46.430  34.269  27.924  1.00  0.00     0.101 C 
ATOM      6  H   UNL     1     -45.499  36.033  27.087  1.00  0.00     0.056 H 
ATOM      7  H   UNL     1     -45.977  35.536  24.885  1.00  0.00     0.029 H 
ATOM      8  H   UNL     1     -47.654  35.113  25.214  1.00  0.00     0.029 H 
ATOM      9  H   UNL     1     -45.153  33.417  25.657  1.00  0.00     0.033 H 
ATOM     10  H   UNL     1     -47.903  32.972  26.950  1.00  0.00     0.063 H 
ATOM     11  H   UNL     1     -47.076  34.324  28.806  1.00  0.00     0.065 H 
ENDROOT
BRANCH   1  12
ATOM     12  N   UNL     1     -47.476  36.493  27.389  1.00  0.00    -0.327 N 
ATOM     13  C   UNL     1     -48.501  39.801  28.122  1.00  0.00     0.136 A 
ATOM     14  N   UNL     1     -47.352  40.490  27.976  1.00  0.00    -0.219 NA
ATOM     15  C   UNL     1     -48.493  38.416  27.909  1.00  0.00     0.061 A 
ATOM     16  C   UNL     1     -46.245  39.812  27.617  1.00  0.00     0.120 A 
ATOM     17  C   UNL     1     -47.279  37.845  27.548  1.00  0.00     0.145 A 
ATOM     18  C   UNL     1     -49.447  37.364  27.959  1.00  0.00    -0.031 A 
ATOM     19  N   UNL     1     -46.114  38.494  27.385  1.00  0.00    -0.218 NA
ATOM     20  H   UNL     1     -45.345  40.408  27.503  1.00  0.00     0.106 H 
ATOM     21  C   UNL     1     -48.794  36.192  27.639  1.00  0.00     0.007 A 
ATOM     22  H   UNL     1     -50.499  37.454  28.197  1.00  0.00     0.065 H 
ATOM     23  H   UNL     1     -49.163  35.177  27.561  1.00  0.00     0.082 H 
BRANCH  13  24
ATOM     24  N   UNL     1     -49.628  40.516  28.497  1.00  0.00    -0.383 N 
ATOM     25  H   UNL     1     -50.267  40.018  29.102  1.00  0.00     0.158 HD
ATOM     26  H   UNL     1     -49.380  41.457  28.779  1.00  0.00     0.158 HD
ENDBRANCH  13  24
ENDBRANCH   1  12
BRANCH   5  27
ATOM     27  O   UNL     1     -45.090  34.080  28.410  1.00  0.00    -0.388 OA
ATOM     28  H   UNL     1     -44.598  33.632  27.690  1.00  0.00     0.211 HD
ENDBRANCH   5  27
BRANCH   3  29
ATOM     29  C   UNL     1     -46.810  32.724  24.453  1.00  0.00    -0.044 C 
ATOM     30  H   UNL     1     -46.948  33.409  23.606  1.00  0.00     0.027 H 
ATOM     31  H   UNL     1     -46.063  31.987  24.129  1.00  0.00     0.027 H 
BRANCH  29  32
ATOM     32  C   UNL     1     -48.144  32.013  24.710  1.00  0.00    -0.027 C 
ATOM     33  H   UNL     1     -48.580  32.337  25.661  1.00  0.00     0.032 H 
ATOM     34  H   UNL     1     -48.865  32.329  23.944  1.00  0.00     0.032 H 
BRANCH  32  35
ATOM     35  C   UNL     1     -48.047  30.506  24.657  1.00  0.00    -0.046 A 
ATOM     36  C   UNL     1     -47.221  29.881  23.709  1.00  0.00    -0.057 A 
ATOM     37  C   UNL     1     -48.782  29.723  25.566  1.00  0.00    -0.031 A 
ATOM     38  C   UNL     1     -47.100  28.486  23.638  1.00  0.00    -0.036 A 
ATOM     39  H   UNL     1     -46.655  30.488  23.005  1.00  0.00     0.063 H 
ATOM     40  C   UNL     1     -48.674  28.325  25.511  1.00  0.00     0.088 A 
ATOM     41  H   UNL     1     -49.425  30.176  26.314  1.00  0.00     0.065 H 
ATOM     42  C   UNL     1     -47.843  27.746  24.558  1.00  0.00     0.065 A 
ATOM     43  H   UNL     1     -46.459  28.015  22.901  1.00  0.00     0.065 H 
ATOM     44  N   UNL     1     -49.281  27.362  26.283  1.00  0.00    -0.237 NA
ATOM     45  N   UNL     1     -47.968  26.399  24.777  1.00  0.00    -0.345 N 
ATOM     46  C   UNL     1     -48.836  26.218  25.817  1.00  0.00     0.093 A 
ATOM     47  H   UNL     1     -47.501  25.667  24.262  1.00  0.00     0.168 HD
ATOM     48  H   UNL     1     -49.104  25.238  26.187  1.00  0.00     0.104 H 
ENDBRANCH  32  35
ENDBRANCH  29  32
ENDBRANCH   3  29
BRANCH   4  49
ATOM     49  O   UNL     1     -46.238  31.890  27.490  1.00  0.00    -0.390 OA
ATOM     50  H   UNL     1     -45.318  31.866  27.167  1.00  0.00     0.211 HD
ENDBRANCH   4  49
TORSDOF 7
ENDMDL
