MODEL 1
REMARK VINA RESULT:     -10.1      0.000      0.000
REMARK SMILES CCc1cc(OC)c2ccc(OCc3cncc(-n4cc([C@@H]5CCCO5)c5c(N)ncnc54)c3)cc2n1
REMARK SMILES IDX 13 1 12 4 11 5 3 6 4 7 37 8 5 9 36 11 8 12 35 13 9 14 10 16
REMARK SMILES IDX 2 19 1 22 6 26 7 27 14 31 15 32 34 33 16 34 18 36 17 38
REMARK SMILES IDX 19 40 20 41 33 42 21 43 27 45 32 46 28 47 31 48 30 49 22 51
REMARK SMILES IDX 23 52 26 53 24 55 25 58 29 63
REMARK H PARENT 13 2 13 3 4 10 35 15 9 17 10 18 2 20 2 21 1 23 1 24 1 25 7 28
REMARK H PARENT 7 29 7 30 15 35 34 37 17 39 20 44 31 50 22 54 23 56 23 57
REMARK H PARENT 24 59 24 60 25 61 25 62 29 64 29 65
REMARK Flexibility Score: inf
ROOT
ATOM      1  C   UNL     1     -46.848  34.545  27.203  1.00  0.00     0.115 C 
ATOM      2  H   UNL     1     -46.512  34.092  28.145  1.00  0.00     0.076 H 
ATOM      3  H   UNL     1     -46.008  34.412  26.512  1.00  0.00     0.076 H 
ENDROOT
BRANCH   1   4
ATOM      4  O   UNL     1     -48.009  33.813  26.788  1.00  0.00    -0.489 OA
BRANCH   4   5
ATOM      5  C   UNL     1     -47.782  32.779  25.919  1.00  0.00     0.122 A 
ATOM      6  C   UNL     1     -48.632  28.409  24.269  1.00  0.00     0.045 A 
ATOM      7  C   UNL     1     -47.599  28.474  23.344  1.00  0.00     0.002 A 
ATOM      8  N   UNL     1     -48.930  29.429  25.107  1.00  0.00    -0.252 NA
ATOM      9  C   UNL     1     -46.846  29.641  23.263  1.00  0.00     0.130 A 
ATOM     10  H   UNL     1     -47.408  27.617  22.711  1.00  0.00     0.068 H 
ATOM     11  C   UNL     1     -48.208  30.558  25.030  1.00  0.00     0.078 A 
ATOM     12  C   UNL     1     -47.143  30.722  24.121  1.00  0.00     0.043 A 
ATOM     13  C   UNL     1     -48.524  31.597  25.895  1.00  0.00     0.007 A 
ATOM     14  C   UNL     1     -46.431  31.941  24.114  1.00  0.00    -0.045 A 
ATOM     15  H   UNL     1     -49.371  31.458  26.559  1.00  0.00     0.069 H 
ATOM     16  C   UNL     1     -46.753  32.963  25.006  1.00  0.00    -0.019 A 
ATOM     17  H   UNL     1     -45.611  32.093  23.417  1.00  0.00     0.063 H 
ATOM     18  H   UNL     1     -46.184  33.889  25.001  1.00  0.00     0.066 H 
BRANCH   6  19
ATOM     19  C   UNL     1     -49.461  27.158  24.407  1.00  0.00    -0.013 C 
ATOM     20  H   UNL     1     -50.524  27.428  24.378  1.00  0.00     0.033 H 
ATOM     21  H   UNL     1     -49.284  26.493  23.555  1.00  0.00     0.033 H 
BRANCH  19  22
ATOM     22  C   UNL     1     -49.157  26.432  25.709  1.00  0.00    -0.060 C 
ATOM     23  H   UNL     1     -48.314  25.744  25.593  1.00  0.00     0.023 H 
ATOM     24  H   UNL     1     -48.905  27.141  26.506  1.00  0.00     0.023 H 
ATOM     25  H   UNL     1     -50.027  25.853  26.032  1.00  0.00     0.023 H 
ENDBRANCH  19  22
ENDBRANCH   6  19
BRANCH   9  26
ATOM     26  O   UNL     1     -45.801  29.830  22.391  1.00  0.00    -0.496 OA
BRANCH  26  27
ATOM     27  C   UNL     1     -44.784  28.836  22.352  1.00  0.00     0.078 C 
ATOM     28  H   UNL     1     -45.166  27.868  22.695  1.00  0.00     0.067 H 
ATOM     29  H   UNL     1     -44.346  28.758  21.352  1.00  0.00     0.067 H 
ATOM     30  H   UNL     1     -43.991  29.143  23.041  1.00  0.00     0.067 H 
ENDBRANCH  26  27
ENDBRANCH   9  26
ENDBRANCH   4   5
ENDBRANCH   1   4
BRANCH   1  31
ATOM     31  C   UNL     1     -47.150  35.999  27.449  1.00  0.00     0.010 A 
ATOM     32  C   UNL     1     -48.453  36.438  27.624  1.00  0.00     0.034 A 
ATOM     33  C   UNL     1     -46.135  36.967  27.458  1.00  0.00    -0.028 A 
ATOM     34  N   UNL     1     -48.791  37.729  27.825  1.00  0.00    -0.262 NA
ATOM     35  H   UNL     1     -49.292  35.747  27.606  1.00  0.00     0.084 H 
ATOM     36  C   UNL     1     -46.443  38.323  27.630  1.00  0.00     0.066 A 
ATOM     37  H   UNL     1     -45.111  36.630  27.332  1.00  0.00     0.065 H 
ATOM     38  C   UNL     1     -47.784  38.641  27.821  1.00  0.00     0.051 A 
ATOM     39  H   UNL     1     -48.142  39.657  27.949  1.00  0.00     0.086 H 
BRANCH  36  40
ATOM     40  N   UNL     1     -45.422  39.322  27.580  1.00  0.00    -0.299 N 
ATOM     41  C   UNL     1     -45.293  40.270  26.580  1.00  0.00     0.018 A 
ATOM     42  C   UNL     1     -44.396  39.549  28.492  1.00  0.00     0.150 A 
ATOM     43  C   UNL     1     -44.215  41.104  26.835  1.00  0.00     0.012 A 
ATOM     44  H   UNL     1     -45.994  40.320  25.758  1.00  0.00     0.083 H 
ATOM     45  C   UNL     1     -43.643  40.645  28.064  1.00  0.00     0.067 A 
ATOM     46  N   UNL     1     -44.145  38.819  29.597  1.00  0.00    -0.218 NA
ATOM     47  C   UNL     1     -42.566  41.017  28.890  1.00  0.00     0.136 A 
ATOM     48  C   UNL     1     -43.092  39.264  30.289  1.00  0.00     0.120 A 
ATOM     49  N   UNL     1     -42.309  40.314  30.007  1.00  0.00    -0.219 NA
ATOM     50  H   UNL     1     -42.842  38.712  31.191  1.00  0.00     0.106 H 
BRANCH  43  51
ATOM     51  C   UNL     1     -43.808  42.228  25.924  1.00  0.00     0.085 C 
ATOM     52  C   UNL     1     -44.247  43.602  26.433  1.00  0.00    -0.020 C 
ATOM     53  O   UNL     1     -44.299  42.097  24.572  1.00  0.00    -0.373 OA
ATOM     54  H   UNL     1     -42.713  42.212  25.848  1.00  0.00     0.066 H 
ATOM     55  C   UNL     1     -45.273  44.050  25.420  1.00  0.00    -0.027 C 
ATOM     56  H   UNL     1     -43.391  44.288  26.409  1.00  0.00     0.030 H 
ATOM     57  H   UNL     1     -44.634  43.606  27.456  1.00  0.00     0.030 H 
ATOM     58  C   UNL     1     -44.769  43.391  24.160  1.00  0.00     0.048 C 
ATOM     59  H   UNL     1     -45.356  45.136  25.334  1.00  0.00     0.029 H 
ATOM     60  H   UNL     1     -46.255  43.646  25.691  1.00  0.00     0.029 H 
ATOM     61  H   UNL     1     -45.545  43.280  23.399  1.00  0.00     0.057 H 
ATOM     62  H   UNL     1     -43.925  43.940  23.728  1.00  0.00     0.057 H 
ENDBRANCH  43  51
BRANCH  47  63
ATOM     63  N   UNL     1     -41.742  42.108  28.650  1.00  0.00    -0.383 N 
ATOM     64  H   UNL     1     -40.758  41.853  28.724  1.00  0.00     0.158 HD
ATOM     65  H   UNL     1     -42.014  42.565  27.788  1.00  0.00     0.158 HD
ENDBRANCH  47  63
ENDBRANCH  36  40
ENDBRANCH   1  31
TORSDOF 10
ENDMDL
MODEL 2
REMARK VINA RESULT:      -9.9      2.226     11.582
REMARK SMILES CCc1cc(OC)c2ccc(OCc3cncc(-n4cc([C@@H]5CCCO5)c5c(N)ncnc54)c3)cc2n1
REMARK SMILES IDX 13 1 12 4 11 5 3 6 4 7 37 8 5 9 36 11 8 12 35 13 9 14 10 16
REMARK SMILES IDX 2 19 1 22 6 26 7 27 14 31 15 32 34 33 16 34 18 36 17 38
REMARK SMILES IDX 19 40 20 41 33 42 21 43 27 45 32 46 28 47 31 48 30 49 22 51
REMARK SMILES IDX 23 52 26 53 24 55 25 58 29 63
REMARK H PARENT 13 2 13 3 4 10 35 15 9 17 10 18 2 20 2 21 1 23 1 24 1 25 7 28
REMARK H PARENT 7 29 7 30 15 35 34 37 17 39 20 44 31 50 22 54 23 56 23 57
REMARK H PARENT 24 59 24 60 25 61 25 62 29 64 29 65
REMARK Flexibility Score: inf
ROOT
ATOM      1  C   UNL     1     -48.131  36.305  27.220  1.00  0.00     0.115 C 
ATOM      2  H   UNL     1     -49.185  36.268  27.524  1.00  0.00     0.076 H 
ATOM      3  H   UNL     1     -48.136  36.816  26.250  1.00  0.00     0.076 H 
ENDROOT
BRANCH   1   4
ATOM      4  O   UNL     1     -47.441  37.061  28.225  1.00  0.00    -0.489 OA
BRANCH   4   5
ATOM      5  C   UNL     1     -46.708  38.125  27.770  1.00  0.00     0.122 A 
ATOM      6  C   UNL     1     -43.058  41.147  28.059  1.00  0.00     0.045 A 
ATOM      7  C   UNL     1     -43.499  41.903  26.981  1.00  0.00     0.002 A 
ATOM      8  N   UNL     1     -43.719  40.054  28.504  1.00  0.00    -0.252 NA
ATOM      9  C   UNL     1     -44.661  41.514  26.321  1.00  0.00     0.130 A 
ATOM     10  H   UNL     1     -42.928  42.774  26.682  1.00  0.00     0.068 H 
ATOM     11  C   UNL     1     -44.838  39.673  27.869  1.00  0.00     0.078 A 
ATOM     12  C   UNL     1     -45.363  40.372  26.763  1.00  0.00     0.043 A 
ATOM     13  C   UNL     1     -45.506  38.549  28.337  1.00  0.00     0.007 A 
ATOM     14  C   UNL     1     -46.551  39.905  26.160  1.00  0.00    -0.045 A 
ATOM     15  H   UNL     1     -45.061  38.010  29.167  1.00  0.00     0.069 H 
ATOM     16  C   UNL     1     -47.216  38.787  26.659  1.00  0.00    -0.019 A 
ATOM     17  H   UNL     1     -46.970  40.424  25.301  1.00  0.00     0.063 H 
ATOM     18  H   UNL     1     -48.139  38.450  26.196  1.00  0.00     0.066 H 
BRANCH   6  19
ATOM     19  C   UNL     1     -41.817  41.542  28.816  1.00  0.00    -0.013 C 
ATOM     20  H   UNL     1     -40.936  41.319  28.202  1.00  0.00     0.033 H 
ATOM     21  H   UNL     1     -41.810  42.624  28.991  1.00  0.00     0.033 H 
BRANCH  19  22
ATOM     22  C   UNL     1     -41.715  40.798  30.139  1.00  0.00    -0.060 C 
ATOM     23  H   UNL     1     -41.071  39.917  30.051  1.00  0.00     0.023 H 
ATOM     24  H   UNL     1     -41.300  41.442  30.922  1.00  0.00     0.023 H 
ATOM     25  H   UNL     1     -42.705  40.464  30.463  1.00  0.00     0.023 H 
ENDBRANCH  19  22
ENDBRANCH   6  19
BRANCH   9  26
ATOM     26  O   UNL     1     -45.198  42.176  25.243  1.00  0.00    -0.496 OA
BRANCH  26  27
ATOM     27  C   UNL     1     -44.308  42.888  24.394  1.00  0.00     0.078 C 
ATOM     28  H   UNL     1     -43.556  43.432  24.976  1.00  0.00     0.067 H 
ATOM     29  H   UNL     1     -43.838  42.219  23.665  1.00  0.00     0.067 H 
ATOM     30  H   UNL     1     -44.895  43.626  23.838  1.00  0.00     0.067 H 
ENDBRANCH  26  27
ENDBRANCH   9  26
ENDBRANCH   4   5
ENDBRANCH   1   4
BRANCH   1  31
ATOM     31  C   UNL     1     -47.613  34.895  27.112  1.00  0.00     0.010 A 
ATOM     32  C   UNL     1     -46.571  34.455  27.913  1.00  0.00     0.034 A 
ATOM     33  C   UNL     1     -48.125  33.997  26.165  1.00  0.00    -0.028 A 
ATOM     34  N   UNL     1     -46.047  33.213  27.849  1.00  0.00    -0.262 NA
ATOM     35  H   UNL     1     -46.110  35.104  28.653  1.00  0.00     0.084 H 
ATOM     36  C   UNL     1     -47.589  32.709  26.041  1.00  0.00     0.066 A 
ATOM     37  H   UNL     1     -48.947  34.332  25.541  1.00  0.00     0.065 H 
ATOM     38  C   UNL     1     -46.563  32.370  26.916  1.00  0.00     0.051 A 
ATOM     39  H   UNL     1     -46.062  31.408  26.902  1.00  0.00     0.086 H 
BRANCH  36  40
ATOM     40  N   UNL     1     -48.064  31.807  25.037  1.00  0.00    -0.299 N 
ATOM     41  C   UNL     1     -49.265  31.122  25.095  1.00  0.00     0.018 A 
ATOM     42  C   UNL     1     -47.451  31.456  23.839  1.00  0.00     0.150 A 
ATOM     43  C   UNL     1     -49.439  30.348  23.959  1.00  0.00     0.012 A 
ATOM     44  H   UNL     1     -49.945  31.246  25.927  1.00  0.00     0.083 H 
ATOM     45  C   UNL     1     -48.279  30.566  23.150  1.00  0.00     0.067 A 
ATOM     46  N   UNL     1     -46.244  31.879  23.414  1.00  0.00    -0.218 NA
ATOM     47  C   UNL     1     -47.807  30.121  21.901  1.00  0.00     0.136 A 
ATOM     48  C   UNL     1     -45.903  31.377  22.223  1.00  0.00     0.120 A 
ATOM     49  N   UNL     1     -46.613  30.544  21.451  1.00  0.00    -0.219 NA
ATOM     50  H   UNL     1     -44.938  31.684  21.832  1.00  0.00     0.106 H 
BRANCH  43  51
ATOM     51  C   UNL     1     -50.642  29.475  23.731  1.00  0.00     0.085 C 
ATOM     52  C   UNL     1     -50.466  28.056  24.276  1.00  0.00    -0.020 C 
ATOM     53  O   UNL     1     -51.028  29.355  22.345  1.00  0.00    -0.373 OA
ATOM     54  H   UNL     1     -51.494  29.946  24.240  1.00  0.00     0.066 H 
ATOM     55  C   UNL     1     -50.444  27.196  23.036  1.00  0.00    -0.027 C 
ATOM     56  H   UNL     1     -51.338  27.791  24.886  1.00  0.00     0.030 H 
ATOM     57  H   UNL     1     -49.580  27.916  24.902  1.00  0.00     0.030 H 
ATOM     58  C   UNL     1     -51.342  27.973  22.106  1.00  0.00     0.048 C 
ATOM     59  H   UNL     1     -50.787  26.173  23.209  1.00  0.00     0.029 H 
ATOM     60  H   UNL     1     -49.425  27.158  22.633  1.00  0.00     0.029 H 
ATOM     61  H   UNL     1     -51.177  27.731  21.053  1.00  0.00     0.057 H 
ATOM     62  H   UNL     1     -52.401  27.818  22.343  1.00  0.00     0.057 H 
ENDBRANCH  43  51
BRANCH  47  63
ATOM     63  N   UNL     1     -48.515  29.276  21.058  1.00  0.00    -0.383 N 
ATOM     64  H   UNL     1     -47.960  29.015  20.243  1.00  0.00     0.158 HD
ATOM     65  H   UNL     1     -48.908  28.507  21.587  1.00  0.00     0.158 HD
ENDBRANCH  47  63
ENDBRANCH  36  40
ENDBRANCH   1  31
TORSDOF 10
ENDMDL
MODEL 3
REMARK VINA RESULT:      -9.9      2.159     11.981
REMARK SMILES CCc1cc(OC)c2ccc(OCc3cncc(-n4cc([C@@H]5CCCO5)c5c(N)ncnc54)c3)cc2n1
REMARK SMILES IDX 13 1 12 4 11 5 3 6 4 7 37 8 5 9 36 11 8 12 35 13 9 14 10 16
REMARK SMILES IDX 2 19 1 22 6 26 7 27 14 31 15 32 34 33 16 34 18 36 17 38
REMARK SMILES IDX 19 40 20 41 33 42 21 43 27 45 32 46 28 47 31 48 30 49 22 51
REMARK SMILES IDX 23 52 26 53 24 55 25 58 29 63
REMARK H PARENT 13 2 13 3 4 10 35 15 9 17 10 18 2 20 2 21 1 23 1 24 1 25 7 28
REMARK H PARENT 7 29 7 30 15 35 34 37 17 39 20 44 31 50 22 54 23 56 23 57
REMARK H PARENT 24 59 24 60 25 61 25 62 29 64 29 65
REMARK Flexibility Score: inf
ROOT
ATOM      1  C   UNL     1     -48.618  35.562  27.208  1.00  0.00     0.115 C 
ATOM      2  H   UNL     1     -49.517  35.133  27.669  1.00  0.00     0.076 H 
ATOM      3  H   UNL     1     -48.990  36.363  26.558  1.00  0.00     0.076 H 
ENDROOT
BRANCH   1   4
ATOM      4  O   UNL     1     -47.809  36.067  28.279  1.00  0.00    -0.489 OA
BRANCH   4   5
ATOM      5  C   UNL     1     -47.036  37.157  27.978  1.00  0.00     0.122 A 
ATOM      6  C   UNL     1     -43.450  40.140  28.859  1.00  0.00     0.045 A 
ATOM      7  C   UNL     1     -43.776  40.969  27.793  1.00  0.00     0.002 A 
ATOM      8  N   UNL     1     -44.150  39.022  29.157  1.00  0.00    -0.252 NA
ATOM      9  C   UNL     1     -44.859  40.629  26.988  1.00  0.00     0.130 A 
ATOM     10  H   UNL     1     -43.179  41.855  27.617  1.00  0.00     0.068 H 
ATOM     11  C   UNL     1     -45.193  38.688  28.381  1.00  0.00     0.078 A 
ATOM     12  C   UNL     1     -45.599  39.461  27.275  1.00  0.00     0.043 A 
ATOM     13  C   UNL     1     -45.904  37.538  28.698  1.00  0.00     0.007 A 
ATOM     14  C   UNL     1     -46.714  39.040  26.517  1.00  0.00    -0.045 A 
ATOM     15  H   UNL     1     -45.548  36.942  29.532  1.00  0.00     0.069 H 
ATOM     16  C   UNL     1     -47.424  37.893  26.866  1.00  0.00    -0.019 A 
ATOM     17  H   UNL     1     -47.041  39.617  25.655  1.00  0.00     0.063 H 
ATOM     18  H   UNL     1     -48.291  37.591  26.285  1.00  0.00     0.066 H 
BRANCH   6  19
ATOM     19  C   UNL     1     -42.299  40.480  29.770  1.00  0.00    -0.013 C 
ATOM     20  H   UNL     1     -42.632  40.400  30.812  1.00  0.00     0.033 H 
ATOM     21  H   UNL     1     -41.490  39.751  29.644  1.00  0.00     0.033 H 
BRANCH  19  22
ATOM     22  C   UNL     1     -41.781  41.886  29.509  1.00  0.00    -0.060 C 
ATOM     23  H   UNL     1     -40.799  42.040  29.967  1.00  0.00     0.023 H 
ATOM     24  H   UNL     1     -41.685  42.077  28.435  1.00  0.00     0.023 H 
ATOM     25  H   UNL     1     -42.471  42.627  29.925  1.00  0.00     0.023 H 
ENDBRANCH  19  22
ENDBRANCH   6  19
BRANCH   9  26
ATOM     26  O   UNL     1     -45.280  41.363  25.906  1.00  0.00    -0.496 OA
BRANCH  26  27
ATOM     27  C   UNL     1     -44.292  42.050  25.148  1.00  0.00     0.078 C 
ATOM     28  H   UNL     1     -44.398  43.135  25.252  1.00  0.00     0.067 H 
ATOM     29  H   UNL     1     -43.285  41.722  25.424  1.00  0.00     0.067 H 
ATOM     30  H   UNL     1     -44.447  41.801  24.094  1.00  0.00     0.067 H 
ENDBRANCH  26  27
ENDBRANCH   9  26
ENDBRANCH   4   5
ENDBRANCH   1   4
BRANCH   1  31
ATOM     31  C   UNL     1     -47.918  34.482  26.425  1.00  0.00     0.010 A 
ATOM     32  C   UNL     1     -46.668  34.701  25.868  1.00  0.00     0.034 A 
ATOM     33  C   UNL     1     -48.524  33.240  26.187  1.00  0.00    -0.028 A 
ATOM     34  N   UNL     1     -46.000  33.784  25.137  1.00  0.00    -0.262 NA
ATOM     35  H   UNL     1     -46.150  35.649  25.991  1.00  0.00     0.084 H 
ATOM     36  C   UNL     1     -47.880  32.270  25.407  1.00  0.00     0.066 A 
ATOM     37  H   UNL     1     -49.498  33.057  26.629  1.00  0.00     0.065 H 
ATOM     38  C   UNL     1     -46.618  32.594  24.921  1.00  0.00     0.051 A 
ATOM     39  H   UNL     1     -46.034  31.929  24.294  1.00  0.00     0.086 H 
BRANCH  36  40
ATOM     40  N   UNL     1     -48.516  31.024  25.109  1.00  0.00    -0.299 N 
ATOM     41  C   UNL     1     -48.418  29.882  25.883  1.00  0.00     0.018 A 
ATOM     42  C   UNL     1     -49.341  30.717  24.032  1.00  0.00     0.150 A 
ATOM     43  C   UNL     1     -49.167  28.854  25.333  1.00  0.00     0.012 A 
ATOM     44  H   UNL     1     -47.845  29.871  26.801  1.00  0.00     0.083 H 
ATOM     45  C   UNL     1     -49.764  29.392  24.148  1.00  0.00     0.067 A 
ATOM     46  N   UNL     1     -49.664  31.549  23.021  1.00  0.00    -0.218 NA
ATOM     47  C   UNL     1     -50.624  28.924  23.136  1.00  0.00     0.136 A 
ATOM     48  C   UNL     1     -50.474  30.986  22.119  1.00  0.00     0.120 A 
ATOM     49  N   UNL     1     -50.973  29.743  22.128  1.00  0.00    -0.219 NA
ATOM     50  H   UNL     1     -50.767  31.611  21.281  1.00  0.00     0.106 H 
BRANCH  43  51
ATOM     51  C   UNL     1     -49.252  27.480  25.936  1.00  0.00     0.085 C 
ATOM     52  C   UNL     1     -48.361  27.309  27.167  1.00  0.00    -0.020 C 
ATOM     53  O   UNL     1     -48.923  26.414  25.019  1.00  0.00    -0.373 OA
ATOM     54  H   UNL     1     -50.297  27.311  26.229  1.00  0.00     0.066 H 
ATOM     55  C   UNL     1     -47.317  26.315  26.720  1.00  0.00    -0.027 C 
ATOM     56  H   UNL     1     -48.950  26.873  27.984  1.00  0.00     0.030 H 
ATOM     57  H   UNL     1     -47.924  28.238  27.545  1.00  0.00     0.030 H 
ATOM     58  C   UNL     1     -48.090  25.481  25.729  1.00  0.00     0.048 C 
ATOM     59  H   UNL     1     -46.895  25.727  27.539  1.00  0.00     0.029 H 
ATOM     60  H   UNL     1     -46.500  26.843  26.214  1.00  0.00     0.029 H 
ATOM     61  H   UNL     1     -47.446  24.949  25.026  1.00  0.00     0.057 H 
ATOM     62  H   UNL     1     -48.741  24.756  26.231  1.00  0.00     0.057 H 
ENDBRANCH  43  51
BRANCH  47  63
ATOM     63  N   UNL     1     -51.182  27.654  23.115  1.00  0.00    -0.383 N 
ATOM     64  H   UNL     1     -51.971  27.606  22.470  1.00  0.00     0.158 HD
ATOM     65  H   UNL     1     -50.458  26.960  22.975  1.00  0.00     0.158 HD
ENDBRANCH  47  63
ENDBRANCH  36  40
ENDBRANCH   1  31
TORSDOF 10
ENDMDL
MODEL 4
REMARK VINA RESULT:      -9.7      2.441     11.806
REMARK SMILES CCc1cc(OC)c2ccc(OCc3cncc(-n4cc([C@@H]5CCCO5)c5c(N)ncnc54)c3)cc2n1
REMARK SMILES IDX 13 1 12 4 11 5 3 6 4 7 37 8 5 9 36 11 8 12 35 13 9 14 10 16
REMARK SMILES IDX 2 19 1 22 6 26 7 27 14 31 15 32 34 33 16 34 18 36 17 38
REMARK SMILES IDX 19 40 20 41 33 42 21 43 27 45 32 46 28 47 31 48 30 49 22 51
REMARK SMILES IDX 23 52 26 53 24 55 25 58 29 63
REMARK H PARENT 13 2 13 3 4 10 35 15 9 17 10 18 2 20 2 21 1 23 1 24 1 25 7 28
REMARK H PARENT 7 29 7 30 15 35 34 37 17 39 20 44 31 50 22 54 23 56 23 57
REMARK H PARENT 24 59 24 60 25 61 25 62 29 64 29 65
REMARK Flexibility Score: inf
ROOT
ATOM      1  C   UNL     1     -48.936  35.658  27.124  1.00  0.00     0.115 C 
ATOM      2  H   UNL     1     -49.922  35.191  27.247  1.00  0.00     0.076 H 
ATOM      3  H   UNL     1     -49.113  36.519  26.469  1.00  0.00     0.076 H 
ENDROOT
BRANCH   1   4
ATOM      4  O   UNL     1     -48.504  36.055  28.433  1.00  0.00    -0.489 OA
BRANCH   4   5
ATOM      5  C   UNL     1     -47.500  36.985  28.471  1.00  0.00     0.122 A 
ATOM      6  C   UNL     1     -45.230  40.795  26.777  1.00  0.00     0.045 A 
ATOM      7  C   UNL     1     -44.204  40.693  27.706  1.00  0.00     0.002 A 
ATOM      8  N   UNL     1     -46.272  39.933  26.740  1.00  0.00    -0.252 NA
ATOM      9  C   UNL     1     -44.255  39.671  28.650  1.00  0.00     0.130 A 
ATOM     10  H   UNL     1     -43.393  41.410  27.674  1.00  0.00     0.068 H 
ATOM     11  C   UNL     1     -46.327  38.948  27.649  1.00  0.00     0.078 A 
ATOM     12  C   UNL     1     -45.337  38.765  28.636  1.00  0.00     0.043 A 
ATOM     13  C   UNL     1     -47.402  38.070  27.600  1.00  0.00     0.007 A 
ATOM     14  C   UNL     1     -45.470  37.696  29.549  1.00  0.00    -0.045 A 
ATOM     15  H   UNL     1     -48.168  38.256  26.854  1.00  0.00     0.069 H 
ATOM     16  C   UNL     1     -46.548  36.815  29.468  1.00  0.00    -0.019 A 
ATOM     17  H   UNL     1     -44.722  37.540  30.323  1.00  0.00     0.063 H 
ATOM     18  H   UNL     1     -46.627  35.986  30.166  1.00  0.00     0.066 H 
BRANCH   6  19
ATOM     19  C   UNL     1     -45.206  41.872  25.723  1.00  0.00    -0.013 C 
ATOM     20  H   UNL     1     -44.247  42.400  25.773  1.00  0.00     0.033 H 
ATOM     21  H   UNL     1     -45.266  41.425  24.724  1.00  0.00     0.033 H 
BRANCH  19  22
ATOM     22  C   UNL     1     -46.343  42.865  25.920  1.00  0.00    -0.060 C 
ATOM     23  H   UNL     1     -47.108  42.464  26.593  1.00  0.00     0.023 H 
ATOM     24  H   UNL     1     -45.976  43.804  26.348  1.00  0.00     0.023 H 
ATOM     25  H   UNL     1     -46.818  43.091  24.961  1.00  0.00     0.023 H 
ENDBRANCH  19  22
ENDBRANCH   6  19
BRANCH   9  26
ATOM     26  O   UNL     1     -43.304  39.465  29.620  1.00  0.00    -0.496 OA
BRANCH  26  27
ATOM     27  C   UNL     1     -42.308  40.465  29.792  1.00  0.00     0.078 C 
ATOM     28  H   UNL     1     -42.338  41.197  28.978  1.00  0.00     0.067 H 
ATOM     29  H   UNL     1     -42.402  40.952  30.768  1.00  0.00     0.067 H 
ATOM     30  H   UNL     1     -41.331  39.972  29.760  1.00  0.00     0.067 H 
ENDBRANCH  26  27
ENDBRANCH   9  26
ENDBRANCH   4   5
ENDBRANCH   1   4
BRANCH   1  31
ATOM     31  C   UNL     1     -48.004  34.655  26.497  1.00  0.00     0.010 A 
ATOM     32  C   UNL     1     -46.709  35.005  26.149  1.00  0.00     0.034 A 
ATOM     33  C   UNL     1     -48.427  33.353  26.193  1.00  0.00    -0.028 A 
ATOM     34  N   UNL     1     -45.834  34.160  25.563  1.00  0.00    -0.262 NA
ATOM     35  H   UNL     1     -46.322  36.003  26.333  1.00  0.00     0.084 H 
ATOM     36  C   UNL     1     -47.563  32.453  25.555  1.00  0.00     0.066 A 
ATOM     37  H   UNL     1     -49.437  33.069  26.471  1.00  0.00     0.065 H 
ATOM     38  C   UNL     1     -46.279  32.908  25.277  1.00  0.00     0.051 A 
ATOM     39  H   UNL     1     -45.530  32.306  24.773  1.00  0.00     0.086 H 
BRANCH  36  40
ATOM     40  N   UNL     1     -48.004  31.144  25.187  1.00  0.00    -0.299 N 
ATOM     41  C   UNL     1     -48.498  30.199  26.069  1.00  0.00     0.018 A 
ATOM     42  C   UNL     1     -48.041  30.574  23.918  1.00  0.00     0.150 A 
ATOM     43  C   UNL     1     -48.858  29.043  25.395  1.00  0.00     0.012 A 
ATOM     44  H   UNL     1     -48.596  30.411  27.125  1.00  0.00     0.083 H 
ATOM     45  C   UNL     1     -48.570  29.286  24.014  1.00  0.00     0.067 A 
ATOM     46  N   UNL     1     -47.613  31.155  22.779  1.00  0.00    -0.218 NA
ATOM     47  C   UNL     1     -48.688  28.573  22.806  1.00  0.00     0.136 A 
ATOM     48  C   UNL     1     -47.766  30.374  21.704  1.00  0.00     0.120 A 
ATOM     49  N   UNL     1     -48.283  29.139  21.656  1.00  0.00    -0.219 NA
ATOM     50  H   UNL     1     -47.437  30.791  20.758  1.00  0.00     0.106 H 
BRANCH  43  51
ATOM     51  C   UNL     1     -49.416  27.827  26.080  1.00  0.00     0.085 C 
ATOM     52  C   UNL     1     -48.332  26.902  26.638  1.00  0.00    -0.020 C 
ATOM     53  O   UNL     1     -50.274  27.022  25.243  1.00  0.00    -0.373 OA
ATOM     54  H   UNL     1     -50.046  28.174  26.909  1.00  0.00     0.066 H 
ATOM     55  C   UNL     1     -48.455  25.656  25.796  1.00  0.00    -0.027 C 
ATOM     56  H   UNL     1     -48.565  26.659  27.682  1.00  0.00     0.030 H 
ATOM     57  H   UNL     1     -47.322  27.324  26.623  1.00  0.00     0.030 H 
ATOM     58  C   UNL     1     -49.928  25.646  25.474  1.00  0.00     0.048 C 
ATOM     59  H   UNL     1     -48.121  24.749  26.307  1.00  0.00     0.029 H 
ATOM     60  H   UNL     1     -47.868  25.774  24.877  1.00  0.00     0.029 H 
ATOM     61  H   UNL     1     -50.167  25.050  24.590  1.00  0.00     0.057 H 
ATOM     62  H   UNL     1     -50.524  25.281  26.318  1.00  0.00     0.057 H 
ENDBRANCH  43  51
BRANCH  47  63
ATOM     63  N   UNL     1     -49.236  27.302  22.703  1.00  0.00    -0.383 N 
ATOM     64  H   UNL     1     -50.136  27.324  22.225  1.00  0.00     0.158 HD
ATOM     65  H   UNL     1     -48.552  26.659  22.323  1.00  0.00     0.158 HD
ENDBRANCH  47  63
ENDBRANCH  36  40
ENDBRANCH   1  31
TORSDOF 10
ENDMDL
MODEL 5
REMARK VINA RESULT:      -9.6      2.624     11.562
REMARK SMILES CCc1cc(OC)c2ccc(OCc3cncc(-n4cc([C@@H]5CCCO5)c5c(N)ncnc54)c3)cc2n1
REMARK SMILES IDX 13 1 12 4 11 5 3 6 4 7 37 8 5 9 36 11 8 12 35 13 9 14 10 16
REMARK SMILES IDX 2 19 1 22 6 26 7 27 14 31 15 32 34 33 16 34 18 36 17 38
REMARK SMILES IDX 19 40 20 41 33 42 21 43 27 45 32 46 28 47 31 48 30 49 22 51
REMARK SMILES IDX 23 52 26 53 24 55 25 58 29 63
REMARK H PARENT 13 2 13 3 4 10 35 15 9 17 10 18 2 20 2 21 1 23 1 24 1 25 7 28
REMARK H PARENT 7 29 7 30 15 35 34 37 17 39 20 44 31 50 22 54 23 56 23 57
REMARK H PARENT 24 59 24 60 25 61 25 62 29 64 29 65
REMARK Flexibility Score: inf
ROOT
ATOM      1  C   UNL     1     -47.883  36.325  27.564  1.00  0.00     0.115 C 
ATOM      2  H   UNL     1     -47.466  36.635  28.531  1.00  0.00     0.076 H 
ATOM      3  H   UNL     1     -48.968  36.434  27.678  1.00  0.00     0.076 H 
ENDROOT
BRANCH   1   4
ATOM      4  O   UNL     1     -47.350  37.222  26.581  1.00  0.00    -0.489 OA
BRANCH   4   5
ATOM      5  C   UNL     1     -46.415  38.114  27.035  1.00  0.00     0.122 A 
ATOM      6  C   UNL     1     -43.679  41.960  26.525  1.00  0.00     0.045 A 
ATOM      7  C   UNL     1     -43.037  41.759  27.739  1.00  0.00     0.002 A 
ATOM      8  N   UNL     1     -44.649  41.137  26.065  1.00  0.00    -0.252 NA
ATOM      9  C   UNL     1     -43.416  40.675  28.526  1.00  0.00     0.130 A 
ATOM     10  H   UNL     1     -42.261  42.451  28.043  1.00  0.00     0.068 H 
ATOM     11  C   UNL     1     -45.020  40.092  26.821  1.00  0.00     0.078 A 
ATOM     12  C   UNL     1     -44.432  39.807  28.070  1.00  0.00     0.043 A 
ATOM     13  C   UNL     1     -46.017  39.255  26.337  1.00  0.00     0.007 A 
ATOM     14  C   UNL     1     -44.878  38.681  28.795  1.00  0.00    -0.045 A 
ATOM     15  H   UNL     1     -46.477  39.518  25.390  1.00  0.00     0.069 H 
ATOM     16  C   UNL     1     -45.866  37.844  28.281  1.00  0.00    -0.019 A 
ATOM     17  H   UNL     1     -44.444  38.446  29.765  1.00  0.00     0.063 H 
ATOM     18  H   UNL     1     -46.187  36.970  28.842  1.00  0.00     0.066 H 
BRANCH   6  19
ATOM     19  C   UNL     1     -43.287  43.108  25.631  1.00  0.00    -0.013 C 
ATOM     20  H   UNL     1     -42.198  43.106  25.502  1.00  0.00     0.033 H 
ATOM     21  H   UNL     1     -43.720  42.975  24.633  1.00  0.00     0.033 H 
BRANCH  19  22
ATOM     22  C   UNL     1     -43.726  44.442  26.218  1.00  0.00    -0.060 C 
ATOM     23  H   UNL     1     -44.307  44.301  27.135  1.00  0.00     0.023 H 
ATOM     24  H   UNL     1     -42.862  45.069  26.459  1.00  0.00     0.023 H 
ATOM     25  H   UNL     1     -44.350  44.984  25.500  1.00  0.00     0.023 H 
ENDBRANCH  19  22
ENDBRANCH   6  19
BRANCH   9  26
ATOM     26  O   UNL     1     -42.860  40.370  29.745  1.00  0.00    -0.496 OA
BRANCH  26  27
ATOM     27  C   UNL     1     -41.589  40.929  30.050  1.00  0.00     0.078 C 
ATOM     28  H   UNL     1     -41.162  40.473  30.949  1.00  0.00     0.067 H 
ATOM     29  H   UNL     1     -40.905  40.843  29.199  1.00  0.00     0.067 H 
ATOM     30  H   UNL     1     -41.733  41.995  30.254  1.00  0.00     0.067 H 
ENDBRANCH  26  27
ENDBRANCH   9  26
ENDBRANCH   4   5
ENDBRANCH   1   4
BRANCH   1  31
ATOM     31  C   UNL     1     -47.485  34.895  27.306  1.00  0.00     0.010 A 
ATOM     32  C   UNL     1     -46.493  34.284  28.056  1.00  0.00     0.034 A 
ATOM     33  C   UNL     1     -48.063  34.151  26.267  1.00  0.00    -0.028 A 
ATOM     34  N   UNL     1     -46.076  33.016  27.859  1.00  0.00    -0.262 NA
ATOM     35  H   UNL     1     -45.986  34.810  28.861  1.00  0.00     0.084 H 
ATOM     36  C   UNL     1     -47.637  32.842  26.006  1.00  0.00     0.066 A 
ATOM     37  H   UNL     1     -48.847  34.619  25.682  1.00  0.00     0.065 H 
ATOM     38  C   UNL     1     -46.651  32.325  26.840  1.00  0.00     0.051 A 
ATOM     39  H   UNL     1     -46.233  31.331  26.724  1.00  0.00     0.086 H 
BRANCH  36  40
ATOM     40  N   UNL     1     -48.176  32.096  24.911  1.00  0.00    -0.299 N 
ATOM     41  C   UNL     1     -49.526  31.900  24.679  1.00  0.00     0.018 A 
ATOM     42  C   UNL     1     -47.488  31.452  23.888  1.00  0.00     0.150 A 
ATOM     43  C   UNL     1     -49.718  31.152  23.527  1.00  0.00     0.012 A 
ATOM     44  H   UNL     1     -50.278  32.328  25.327  1.00  0.00     0.083 H 
ATOM     45  C   UNL     1     -48.411  30.870  23.017  1.00  0.00     0.067 A 
ATOM     46  N   UNL     1     -46.148  31.374  23.764  1.00  0.00    -0.218 NA
ATOM     47  C   UNL     1     -47.873  30.186  21.911  1.00  0.00     0.136 A 
ATOM     48  C   UNL     1     -45.761  30.688  22.683  1.00  0.00     0.120 A 
ATOM     49  N   UNL     1     -46.539  30.110  21.759  1.00  0.00    -0.219 NA
ATOM     50  H   UNL     1     -44.691  30.593  22.533  1.00  0.00     0.106 H 
BRANCH  43  51
ATOM     51  C   UNL     1     -51.075  30.760  23.015  1.00  0.00     0.085 C 
ATOM     52  C   UNL     1     -51.560  29.418  23.567  1.00  0.00    -0.020 C 
ATOM     53  O   UNL     1     -51.162  30.684  21.575  1.00  0.00    -0.373 OA
ATOM     54  H   UNL     1     -51.783  31.543  23.317  1.00  0.00     0.066 H 
ATOM     55  C   UNL     1     -51.585  28.518  22.356  1.00  0.00    -0.027 C 
ATOM     56  H   UNL     1     -52.581  29.532  23.954  1.00  0.00     0.030 H 
ATOM     57  H   UNL     1     -50.950  29.014  24.381  1.00  0.00     0.030 H 
ATOM     58  C   UNL     1     -51.903  29.496  21.252  1.00  0.00     0.048 C 
ATOM     59  H   UNL     1     -52.310  27.704  22.431  1.00  0.00     0.029 H 
ATOM     60  H   UNL     1     -50.590  28.084  22.201  1.00  0.00     0.029 H 
ATOM     61  H   UNL     1     -51.611  29.133  20.264  1.00  0.00     0.057 H 
ATOM     62  H   UNL     1     -52.968  29.752  21.234  1.00  0.00     0.057 H 
ENDBRANCH  43  51
BRANCH  47  63
ATOM     63  N   UNL     1     -48.638  29.590  20.917  1.00  0.00    -0.383 N 
ATOM     64  H   UNL     1     -48.538  28.575  20.931  1.00  0.00     0.158 HD
ATOM     65  H   UNL     1     -49.587  29.939  20.954  1.00  0.00     0.158 HD
ENDBRANCH  47  63
ENDBRANCH  36  40
ENDBRANCH   1  31
TORSDOF 10
ENDMDL
MODEL 6
REMARK VINA RESULT:      -9.5      1.962     11.842
REMARK SMILES CCc1cc(OC)c2ccc(OCc3cncc(-n4cc([C@@H]5CCCO5)c5c(N)ncnc54)c3)cc2n1
REMARK SMILES IDX 13 1 12 4 11 5 3 6 4 7 37 8 5 9 36 11 8 12 35 13 9 14 10 16
REMARK SMILES IDX 2 19 1 22 6 26 7 27 14 31 15 32 34 33 16 34 18 36 17 38
REMARK SMILES IDX 19 40 20 41 33 42 21 43 27 45 32 46 28 47 31 48 30 49 22 51
REMARK SMILES IDX 23 52 26 53 24 55 25 58 29 63
REMARK H PARENT 13 2 13 3 4 10 35 15 9 17 10 18 2 20 2 21 1 23 1 24 1 25 7 28
REMARK H PARENT 7 29 7 30 15 35 34 37 17 39 20 44 31 50 22 54 23 56 23 57
REMARK H PARENT 24 59 24 60 25 61 25 62 29 64 29 65
REMARK Flexibility Score: inf
ROOT
ATOM      1  C   UNL     1     -46.145  35.510  27.291  1.00  0.00     0.115 C 
ATOM      2  H   UNL     1     -45.651  35.935  26.407  1.00  0.00     0.076 H 
ATOM      3  H   UNL     1     -45.378  34.889  27.769  1.00  0.00     0.076 H 
ENDROOT
BRANCH   1   4
ATOM      4  O   UNL     1     -46.535  36.617  28.115  1.00  0.00    -0.489 OA
BRANCH   4   5
ATOM      5  C   UNL     1     -46.087  37.846  27.711  1.00  0.00     0.122 A 
ATOM      6  C   UNL     1     -43.145  41.559  28.022  1.00  0.00     0.045 A 
ATOM      7  C   UNL     1     -43.830  42.281  27.054  1.00  0.00     0.002 A 
ATOM      8  N   UNL     1     -43.517  40.318  28.409  1.00  0.00    -0.252 NA
ATOM      9  C   UNL     1     -44.938  41.700  26.444  1.00  0.00     0.130 A 
ATOM     10  H   UNL     1     -43.484  43.275  26.798  1.00  0.00     0.068 H 
ATOM     11  C   UNL     1     -44.583  39.752  27.822  1.00  0.00     0.078 A 
ATOM     12  C   UNL     1     -45.340  40.402  26.827  1.00  0.00     0.043 A 
ATOM     13  C   UNL     1     -44.955  38.477  28.229  1.00  0.00     0.007 A 
ATOM     14  C   UNL     1     -46.452  39.735  26.268  1.00  0.00    -0.045 A 
ATOM     15  H   UNL     1     -44.334  37.986  28.971  1.00  0.00     0.069 H 
ATOM     16  C   UNL     1     -46.819  38.464  26.707  1.00  0.00    -0.019 A 
ATOM     17  H   UNL     1     -47.047  40.214  25.493  1.00  0.00     0.063 H 
ATOM     18  H   UNL     1     -47.689  37.970  26.281  1.00  0.00     0.066 H 
BRANCH   6  19
ATOM     19  C   UNL     1     -41.952  42.156  28.723  1.00  0.00    -0.013 C 
ATOM     20  H   UNL     1     -41.117  42.224  28.015  1.00  0.00     0.033 H 
ATOM     21  H   UNL     1     -42.176  43.181  29.042  1.00  0.00     0.033 H 
BRANCH  19  22
ATOM     22  C   UNL     1     -41.535  41.316  29.921  1.00  0.00    -0.060 C 
ATOM     23  H   UNL     1     -42.400  41.039  30.532  1.00  0.00     0.023 H 
ATOM     24  H   UNL     1     -41.040  40.393  29.601  1.00  0.00     0.023 H 
ATOM     25  H   UNL     1     -40.838  41.875  30.551  1.00  0.00     0.023 H 
ENDBRANCH  19  22
ENDBRANCH   6  19
BRANCH   9  26
ATOM     26  O   UNL     1     -45.697  42.309  25.474  1.00  0.00    -0.496 OA
BRANCH  26  27
ATOM     27  C   UNL     1     -46.484  43.429  25.857  1.00  0.00     0.078 C 
ATOM     28  H   UNL     1     -47.376  43.519  25.227  1.00  0.00     0.067 H 
ATOM     29  H   UNL     1     -46.751  43.379  26.918  1.00  0.00     0.067 H 
ATOM     30  H   UNL     1     -45.880  44.329  25.708  1.00  0.00     0.067 H 
ENDBRANCH  26  27
ENDBRANCH   9  26
ENDBRANCH   4   5
ENDBRANCH   1   4
BRANCH   1  31
ATOM     31  C   UNL     1     -47.327  34.695  26.835  1.00  0.00     0.010 A 
ATOM     32  C   UNL     1     -48.622  35.146  27.032  1.00  0.00     0.034 A 
ATOM     33  C   UNL     1     -47.163  33.433  26.247  1.00  0.00    -0.028 A 
ATOM     34  N   UNL     1     -49.722  34.453  26.669  1.00  0.00    -0.262 NA
ATOM     35  H   UNL     1     -48.824  36.104  27.504  1.00  0.00     0.084 H 
ATOM     36  C   UNL     1     -48.277  32.665  25.884  1.00  0.00     0.066 A 
ATOM     37  H   UNL     1     -46.151  33.078  26.081  1.00  0.00     0.065 H 
ATOM     38  C   UNL     1     -49.528  33.231  26.107  1.00  0.00     0.051 A 
ATOM     39  H   UNL     1     -50.459  32.724  25.881  1.00  0.00     0.086 H 
BRANCH  36  40
ATOM     40  N   UNL     1     -48.121  31.352  25.339  1.00  0.00    -0.299 N 
ATOM     41  C   UNL     1     -48.623  30.196  25.908  1.00  0.00     0.018 A 
ATOM     42  C   UNL     1     -47.469  30.980  24.167  1.00  0.00     0.150 A 
ATOM     43  C   UNL     1     -48.318  29.094  25.125  1.00  0.00     0.012 A 
ATOM     44  H   UNL     1     -49.198  30.222  26.824  1.00  0.00     0.083 H 
ATOM     45  C   UNL     1     -47.582  29.598  24.005  1.00  0.00     0.067 A 
ATOM     46  N   UNL     1     -46.811  31.808  23.331  1.00  0.00    -0.218 NA
ATOM     47  C   UNL     1     -46.984  29.058  22.851  1.00  0.00     0.136 A 
ATOM     48  C   UNL     1     -46.277  31.176  22.282  1.00  0.00     0.120 A 
ATOM     49  N   UNL     1     -46.338  29.869  21.995  1.00  0.00    -0.219 NA
ATOM     50  H   UNL     1     -45.734  31.795  21.575  1.00  0.00     0.106 H 
BRANCH  43  51
ATOM     51  C   UNL     1     -48.716  27.690  25.484  1.00  0.00     0.085 C 
ATOM     52  C   UNL     1     -48.563  27.385  26.975  1.00  0.00    -0.020 C 
ATOM     53  O   UNL     1     -47.990  26.670  24.764  1.00  0.00    -0.373 OA
ATOM     54  H   UNL     1     -49.770  27.562  25.203  1.00  0.00     0.066 H 
ATOM     55  C   UNL     1     -47.452  26.365  27.022  1.00  0.00    -0.027 C 
ATOM     56  H   UNL     1     -49.489  26.930  27.350  1.00  0.00     0.030 H 
ATOM     57  H   UNL     1     -48.359  28.260  27.600  1.00  0.00     0.030 H 
ATOM     58  C   UNL     1     -47.639  25.646  25.709  1.00  0.00     0.048 C 
ATOM     59  H   UNL     1     -47.506  25.700  27.887  1.00  0.00     0.029 H 
ATOM     60  H   UNL     1     -46.483  26.878  27.037  1.00  0.00     0.029 H 
ATOM     61  H   UNL     1     -46.738  25.125  25.376  1.00  0.00     0.057 H 
ATOM     62  H   UNL     1     -48.466  24.927  25.757  1.00  0.00     0.057 H 
ENDBRANCH  43  51
BRANCH  47  63
ATOM     63  N   UNL     1     -47.039  27.716  22.501  1.00  0.00    -0.383 N 
ATOM     64  H   UNL     1     -48.002  27.383  22.456  1.00  0.00     0.158 HD
ATOM     65  H   UNL     1     -46.478  27.551  21.674  1.00  0.00     0.158 HD
ENDBRANCH  47  63
ENDBRANCH  36  40
ENDBRANCH   1  31
TORSDOF 10
ENDMDL
MODEL 7
REMARK VINA RESULT:      -9.4      2.740      4.513
REMARK SMILES CCc1cc(OC)c2ccc(OCc3cncc(-n4cc([C@@H]5CCCO5)c5c(N)ncnc54)c3)cc2n1
REMARK SMILES IDX 13 1 12 4 11 5 3 6 4 7 37 8 5 9 36 11 8 12 35 13 9 14 10 16
REMARK SMILES IDX 2 19 1 22 6 26 7 27 14 31 15 32 34 33 16 34 18 36 17 38
REMARK SMILES IDX 19 40 20 41 33 42 21 43 27 45 32 46 28 47 31 48 30 49 22 51
REMARK SMILES IDX 23 52 26 53 24 55 25 58 29 63
REMARK H PARENT 13 2 13 3 4 10 35 15 9 17 10 18 2 20 2 21 1 23 1 24 1 25 7 28
REMARK H PARENT 7 29 7 30 15 35 34 37 17 39 20 44 31 50 22 54 23 56 23 57
REMARK H PARENT 24 59 24 60 25 61 25 62 29 64 29 65
REMARK Flexibility Score: inf
ROOT
ATOM      1  C   UNL     1     -46.995  32.523  24.756  1.00  0.00     0.115 C 
ATOM      2  H   UNL     1     -46.659  31.484  24.864  1.00  0.00     0.076 H 
ATOM      3  H   UNL     1     -46.409  32.924  23.921  1.00  0.00     0.076 H 
ENDROOT
BRANCH   1   4
ATOM      4  O   UNL     1     -48.396  32.471  24.456  1.00  0.00    -0.489 OA
BRANCH   4   5
ATOM      5  C   UNL     1     -48.954  31.221  24.435  1.00  0.00     0.122 A 
ATOM      6  C   UNL     1     -49.021  26.626  25.626  1.00  0.00     0.045 A 
ATOM      7  C   UNL     1     -50.134  26.359  24.841  1.00  0.00     0.002 A 
ATOM      8  N   UNL     1     -48.472  27.859  25.723  1.00  0.00    -0.252 NA
ATOM      9  C   UNL     1     -50.721  27.404  24.134  1.00  0.00     0.130 A 
ATOM     10  H   UNL     1     -50.517  25.346  24.799  1.00  0.00     0.068 H 
ATOM     11  C   UNL     1     -49.037  28.871  25.046  1.00  0.00     0.078 A 
ATOM     12  C   UNL     1     -50.171  28.702  24.227  1.00  0.00     0.043 A 
ATOM     13  C   UNL     1     -48.464  30.131  25.154  1.00  0.00     0.007 A 
ATOM     14  C   UNL     1     -50.695  29.821  23.544  1.00  0.00    -0.045 A 
ATOM     15  H   UNL     1     -47.614  30.240  25.820  1.00  0.00     0.069 H 
ATOM     16  C   UNL     1     -50.091  31.072  23.651  1.00  0.00    -0.019 A 
ATOM     17  H   UNL     1     -51.574  29.715  22.911  1.00  0.00     0.063 H 
ATOM     18  H   UNL     1     -50.494  31.920  23.105  1.00  0.00     0.066 H 
BRANCH   6  19
ATOM     19  C   UNL     1     -48.340  25.521  26.392  1.00  0.00    -0.013 C 
ATOM     20  H   UNL     1     -48.885  25.345  27.327  1.00  0.00     0.033 H 
ATOM     21  H   UNL     1     -48.384  24.585  25.823  1.00  0.00     0.033 H 
BRANCH  19  22
ATOM     22  C   UNL     1     -46.894  25.874  26.706  1.00  0.00    -0.060 C 
ATOM     23  H   UNL     1     -46.352  26.171  25.803  1.00  0.00     0.023 H 
ATOM     24  H   UNL     1     -46.837  26.702  27.421  1.00  0.00     0.023 H 
ATOM     25  H   UNL     1     -46.380  25.013  27.143  1.00  0.00     0.023 H 
ENDBRANCH  19  22
ENDBRANCH   6  19
BRANCH   9  26
ATOM     26  O   UNL     1     -51.824  27.270  23.326  1.00  0.00    -0.496 OA
BRANCH  26  27
ATOM     27  C   UNL     1     -51.636  26.685  22.043  1.00  0.00     0.078 C 
ATOM     28  H   UNL     1     -51.541  27.454  21.269  1.00  0.00     0.067 H 
ATOM     29  H   UNL     1     -50.775  26.010  22.041  1.00  0.00     0.067 H 
ATOM     30  H   UNL     1     -52.526  26.091  21.814  1.00  0.00     0.067 H 
ENDBRANCH  26  27
ENDBRANCH   9  26
ENDBRANCH   4   5
ENDBRANCH   1   4
BRANCH   1  31
ATOM     31  C   UNL     1     -46.715  33.254  26.043  1.00  0.00     0.010 A 
ATOM     32  C   UNL     1     -46.251  32.578  27.160  1.00  0.00     0.034 A 
ATOM     33  C   UNL     1     -46.963  34.628  26.174  1.00  0.00    -0.028 A 
ATOM     34  N   UNL     1     -46.002  33.170  28.348  1.00  0.00    -0.262 NA
ATOM     35  H   UNL     1     -46.059  31.509  27.138  1.00  0.00     0.084 H 
ATOM     36  C   UNL     1     -46.751  35.277  27.398  1.00  0.00     0.066 A 
ATOM     37  H   UNL     1     -47.317  35.166  25.301  1.00  0.00     0.065 H 
ATOM     38  C   UNL     1     -46.260  34.502  28.442  1.00  0.00     0.051 A 
ATOM     39  H   UNL     1     -46.073  34.891  29.437  1.00  0.00     0.086 H 
BRANCH  36  40
ATOM     40  N   UNL     1     -47.059  36.665  27.558  1.00  0.00    -0.299 N 
ATOM     41  C   UNL     1     -46.136  37.693  27.479  1.00  0.00     0.018 A 
ATOM     42  C   UNL     1     -48.298  37.247  27.802  1.00  0.00     0.150 A 
ATOM     43  C   UNL     1     -46.756  38.919  27.659  1.00  0.00     0.012 A 
ATOM     44  H   UNL     1     -45.093  37.499  27.269  1.00  0.00     0.083 H 
ATOM     45  C   UNL     1     -48.145  38.633  27.860  1.00  0.00     0.067 A 
ATOM     46  N   UNL     1     -49.460  36.587  27.982  1.00  0.00    -0.218 NA
ATOM     47  C   UNL     1     -49.316  39.378  28.089  1.00  0.00     0.136 A 
ATOM     48  C   UNL     1     -50.496  37.402  28.203  1.00  0.00     0.120 A 
ATOM     49  N   UNL     1     -50.489  38.741  28.254  1.00  0.00    -0.219 NA
ATOM     50  H   UNL     1     -51.459  36.925  28.356  1.00  0.00     0.106 H 
BRANCH  43  51
ATOM     51  C   UNL     1     -46.018  40.228  27.642  1.00  0.00     0.085 C 
ATOM     52  C   UNL     1     -45.878  40.820  26.238  1.00  0.00    -0.020 C 
ATOM     53  O   UNL     1     -44.692  40.163  28.211  1.00  0.00    -0.373 OA
ATOM     54  H   UNL     1     -46.579  40.934  28.268  1.00  0.00     0.066 H 
ATOM     55  C   UNL     1     -44.395  40.749  25.964  1.00  0.00    -0.027 C 
ATOM     56  H   UNL     1     -46.194  41.871  26.254  1.00  0.00     0.030 H 
ATOM     57  H   UNL     1     -46.473  40.316  25.470  1.00  0.00     0.030 H 
ATOM     58  C   UNL     1     -43.819  40.910  27.348  1.00  0.00     0.048 C 
ATOM     59  H   UNL     1     -44.045  41.509  25.261  1.00  0.00     0.029 H 
ATOM     60  H   UNL     1     -44.143  39.761  25.562  1.00  0.00     0.029 H 
ATOM     61  H   UNL     1     -42.798  40.528  27.432  1.00  0.00     0.057 H 
ATOM     62  H   UNL     1     -43.832  41.957  27.672  1.00  0.00     0.057 H 
ENDBRANCH  43  51
BRANCH  47  63
ATOM     63  N   UNL     1     -49.363  40.765  28.128  1.00  0.00    -0.383 N 
ATOM     64  H   UNL     1     -48.984  41.173  27.274  1.00  0.00     0.158 HD
ATOM     65  H   UNL     1     -50.291  41.074  28.389  1.00  0.00     0.158 HD
ENDBRANCH  47  63
ENDBRANCH  36  40
ENDBRANCH   1  31
TORSDOF 10
ENDMDL
