MODEL 1
REMARK VINA RESULT:      -9.6      0.000      0.000
REMARK SMILES CNc1ccc2sc(CC[C@H]3O[C@@H](n4cc(-c5ccn(C)n5)c5c(N)ncnc54)[C@@H](F)[C@@H]3O)cc2n1
REMARK SMILES IDX 10 1 9 4 8 7 3 8 4 9 36 10 5 11 35 13 6 14 34 16 7 17 2 19
REMARK SMILES IDX 1 21 11 25 12 26 32 27 13 29 30 30 31 33 33 35 14 37 15 38
REMARK SMILES IDX 29 39 16 40 23 42 28 43 24 44 27 45 26 46 17 48 18 49 22 50
REMARK SMILES IDX 19 51 20 53 21 55 25 59
REMARK H PARENT 10 2 10 3 9 5 9 6 4 12 5 15 34 18 2 20 1 22 1 23 1 24 11 28
REMARK H PARENT 32 31 13 32 30 34 33 36 15 41 27 47 18 52 19 54 21 56 21 57
REMARK H PARENT 21 58 25 60 25 61
REMARK Flexibility Score: inf
ROOT
ATOM      1  C   UNL     1     -46.309  35.585  26.742  1.00  0.00    -0.019 C 
ATOM      2  H   UNL     1     -47.308  35.663  26.295  1.00  0.00     0.030 H 
ATOM      3  H   UNL     1     -45.661  36.184  26.088  1.00  0.00     0.030 H 
ENDROOT
BRANCH   1   4
ATOM      4  C   UNL     1     -45.847  34.128  26.749  1.00  0.00    -0.016 C 
ATOM      5  H   UNL     1     -44.784  34.069  26.483  1.00  0.00     0.033 H 
ATOM      6  H   UNL     1     -45.941  33.709  27.758  1.00  0.00     0.033 H 
BRANCH   4   7
ATOM      7  C   UNL     1     -46.668  33.289  25.813  1.00  0.00     0.007 A 
ATOM      8  C   UNL     1     -48.287  30.630  22.391  1.00  0.00     0.126 A 
ATOM      9  C   UNL     1     -49.513  30.678  23.051  1.00  0.00    -0.018 A 
ATOM     10  N   UNL     1     -47.187  31.243  22.856  1.00  0.00    -0.230 NA
ATOM     11  C   UNL     1     -49.651  31.400  24.235  1.00  0.00    -0.039 A 
ATOM     12  H   UNL     1     -50.367  30.140  22.652  1.00  0.00     0.066 H 
ATOM     13  C   UNL     1     -47.312  31.947  24.012  1.00  0.00     0.084 A 
ATOM     14  C   UNL     1     -48.510  32.047  24.715  1.00  0.00     0.053 A 
ATOM     15  H   UNL     1     -50.597  31.446  24.763  1.00  0.00     0.064 H 
ATOM     16  C   UNL     1     -46.261  32.665  24.652  1.00  0.00    -0.022 A 
ATOM     17  S   UNL     1     -48.327  33.008  26.125  1.00  0.00    -0.139 S 
ATOM     18  H   UNL     1     -45.251  32.710  24.267  1.00  0.00     0.066 H 
BRANCH   8  19
ATOM     19  N   UNL     1     -48.225  29.859  21.210  1.00  0.00    -0.373 N 
ATOM     20  H   UNL     1     -48.777  29.016  21.341  1.00  0.00     0.161 HD
BRANCH  19  21
ATOM     21  C   UNL     1     -48.613  30.578  20.007  1.00  0.00     0.005 C 
ATOM     22  H   UNL     1     -48.748  31.635  20.254  1.00  0.00     0.045 H 
ATOM     23  H   UNL     1     -47.840  30.515  19.233  1.00  0.00     0.045 H 
ATOM     24  H   UNL     1     -49.566  30.212  19.609  1.00  0.00     0.045 H 
ENDBRANCH  19  21
ENDBRANCH   8  19
ENDBRANCH   4   7
ENDBRANCH   1   4
BRANCH   1  25
ATOM     25  C   UNL     1     -46.314  36.223  28.132  1.00  0.00     0.090 C 
ATOM     26  O   UNL     1     -45.077  36.940  28.321  1.00  0.00    -0.349 OA
ATOM     27  C   UNL     1     -47.444  37.219  28.375  1.00  0.00     0.116 C 
ATOM     28  H   UNL     1     -46.344  35.424  28.885  1.00  0.00     0.063 H 
ATOM     29  C   UNL     1     -45.359  38.096  29.138  1.00  0.00     0.169 C 
ATOM     30  C   UNL     1     -46.850  38.108  29.445  1.00  0.00     0.173 C 
ATOM     31  H   UNL     1     -47.704  37.786  27.478  1.00  0.00     0.066 H 
ATOM     32  H   UNL     1     -44.802  37.958  30.073  1.00  0.00     0.088 H 
ATOM     33  F   UNL     1     -47.406  39.340  29.415  1.00  0.00    -0.239 F 
ATOM     34  H   UNL     1     -47.041  37.688  30.440  1.00  0.00     0.074 H 
BRANCH  27  35
ATOM     35  O   UNL     1     -48.630  36.570  28.832  1.00  0.00    -0.387 OA
ATOM     36  H   UNL     1     -48.401  35.631  28.963  1.00  0.00     0.211 HD
ENDBRANCH  27  35
BRANCH  29  37
ATOM     37  N   UNL     1     -44.817  39.285  28.500  1.00  0.00    -0.302 N 
ATOM     38  C   UNL     1     -45.392  39.899  27.409  1.00  0.00     0.019 A 
ATOM     39  C   UNL     1     -43.690  39.979  28.868  1.00  0.00     0.148 A 
ATOM     40  C   UNL     1     -44.629  41.003  27.081  1.00  0.00     0.033 A 
ATOM     41  H   UNL     1     -46.306  39.516  26.974  1.00  0.00     0.083 H 
ATOM     42  C   UNL     1     -43.529  41.051  27.992  1.00  0.00     0.071 A 
ATOM     43  N   UNL     1     -42.885  39.665  29.897  1.00  0.00    -0.218 NA
ATOM     44  C   UNL     1     -42.398  41.861  28.208  1.00  0.00     0.137 A 
ATOM     45  C   UNL     1     -41.868  40.532  30.020  1.00  0.00     0.120 A 
ATOM     46  N   UNL     1     -41.586  41.594  29.250  1.00  0.00    -0.219 NA
ATOM     47  H   UNL     1     -41.185  40.352  30.845  1.00  0.00     0.106 H 
BRANCH  40  48
ATOM     48  C   UNL     1     -44.913  41.958  26.004  1.00  0.00     0.095 A 
ATOM     49  C   UNL     1     -46.111  42.702  25.892  1.00  0.00    -0.016 A 
ATOM     50  N   UNL     1     -44.056  42.252  25.017  1.00  0.00    -0.173 NA
ATOM     51  C   UNL     1     -45.950  43.471  24.763  1.00  0.00     0.025 A 
ATOM     52  H   UNL     1     -46.976  42.678  26.537  1.00  0.00     0.066 H 
ATOM     53  N   UNL     1     -44.714  43.166  24.278  1.00  0.00    -0.275 N 
ATOM     54  H   UNL     1     -46.598  44.189  24.280  1.00  0.00     0.084 H 
BRANCH  53  55
ATOM     55  C   UNL     1     -44.085  43.711  23.100  1.00  0.00     0.030 C 
ATOM     56  H   UNL     1     -43.795  42.882  22.449  1.00  0.00     0.048 H 
ATOM     57  H   UNL     1     -44.789  44.365  22.580  1.00  0.00     0.048 H 
ATOM     58  H   UNL     1     -43.205  44.281  23.412  1.00  0.00     0.048 H 
ENDBRANCH  53  55
ENDBRANCH  40  48
BRANCH  44  59
ATOM     59  N   UNL     1     -42.052  42.945  27.413  1.00  0.00    -0.383 N 
ATOM     60  H   UNL     1     -41.549  42.659  26.567  1.00  0.00     0.158 HD
ATOM     61  H   UNL     1     -42.834  43.573  27.287  1.00  0.00     0.158 HD
ENDBRANCH  44  59
ENDBRANCH  29  37
ENDBRANCH   1  25
TORSDOF 10
ENDMDL
MODEL 2
REMARK VINA RESULT:      -8.9      2.181      3.214
REMARK SMILES CNc1ccc2sc(CC[C@H]3O[C@@H](n4cc(-c5ccn(C)n5)c5c(N)ncnc54)[C@@H](F)[C@@H]3O)cc2n1
REMARK SMILES IDX 10 1 9 4 8 7 3 8 4 9 36 10 5 11 35 13 6 14 34 16 7 17 2 19
REMARK SMILES IDX 1 21 11 25 12 26 32 27 13 29 30 30 31 33 33 35 14 37 15 38
REMARK SMILES IDX 29 39 16 40 23 42 28 43 24 44 27 45 26 46 17 48 18 49 22 50
REMARK SMILES IDX 19 51 20 53 21 55 25 59
REMARK H PARENT 10 2 10 3 9 5 9 6 4 12 5 15 34 18 2 20 1 22 1 23 1 24 11 28
REMARK H PARENT 32 31 13 32 30 34 33 36 15 41 27 47 18 52 19 54 21 56 21 57
REMARK H PARENT 21 58 25 60 25 61
REMARK Flexibility Score: inf
ROOT
ATOM      1  C   UNL     1     -47.654  35.981  28.591  1.00  0.00    -0.019 C 
ATOM      2  H   UNL     1     -47.741  34.959  28.979  1.00  0.00     0.030 H 
ATOM      3  H   UNL     1     -48.249  36.595  29.281  1.00  0.00     0.030 H 
ENDROOT
BRANCH   1   4
ATOM      4  C   UNL     1     -48.234  36.061  27.180  1.00  0.00    -0.016 C 
ATOM      5  H   UNL     1     -49.308  36.286  27.227  1.00  0.00     0.033 H 
ATOM      6  H   UNL     1     -47.767  36.884  26.627  1.00  0.00     0.033 H 
BRANCH   4   7
ATOM      7  C   UNL     1     -48.000  34.789  26.418  1.00  0.00     0.007 A 
ATOM      8  C   UNL     1     -46.355  31.327  23.829  1.00  0.00     0.126 A 
ATOM      9  C   UNL     1     -47.546  30.662  24.117  1.00  0.00    -0.018 A 
ATOM     10  N   UNL     1     -46.071  32.548  24.307  1.00  0.00    -0.230 NA
ATOM     11  C   UNL     1     -48.518  31.264  24.912  1.00  0.00    -0.039 A 
ATOM     12  H   UNL     1     -47.716  29.661  23.732  1.00  0.00     0.066 H 
ATOM     13  C   UNL     1     -47.013  33.142  25.086  1.00  0.00     0.084 A 
ATOM     14  C   UNL     1     -48.228  32.540  25.402  1.00  0.00     0.053 A 
ATOM     15  H   UNL     1     -49.449  30.761  25.148  1.00  0.00     0.064 H 
ATOM     16  C   UNL     1     -46.894  34.434  25.676  1.00  0.00    -0.022 A 
ATOM     17  S   UNL     1     -49.188  33.557  26.398  1.00  0.00    -0.139 S 
ATOM     18  H   UNL     1     -46.023  35.065  25.553  1.00  0.00     0.066 H 
BRANCH   8  19
ATOM     19  N   UNL     1     -45.413  30.638  23.035  1.00  0.00    -0.373 N 
ATOM     20  H   UNL     1     -44.542  30.561  23.553  1.00  0.00     0.161 HD
BRANCH  19  21
ATOM     21  C   UNL     1     -45.871  29.346  22.552  1.00  0.00     0.005 C 
ATOM     22  H   UNL     1     -46.496  29.499  21.667  1.00  0.00     0.045 H 
ATOM     23  H   UNL     1     -45.033  28.704  22.258  1.00  0.00     0.045 H 
ATOM     24  H   UNL     1     -46.486  28.831  23.299  1.00  0.00     0.045 H 
ENDBRANCH  19  21
ENDBRANCH   8  19
ENDBRANCH   4   7
ENDBRANCH   1   4
BRANCH   1  25
ATOM     25  C   UNL     1     -46.197  36.441  28.671  1.00  0.00     0.090 C 
ATOM     26  O   UNL     1     -45.866  37.152  27.461  1.00  0.00    -0.349 OA
ATOM     27  C   UNL     1     -45.884  37.379  29.834  1.00  0.00     0.116 C 
ATOM     28  H   UNL     1     -45.550  35.554  28.714  1.00  0.00     0.063 H 
ATOM     29  C   UNL     1     -44.925  38.192  27.804  1.00  0.00     0.169 C 
ATOM     30  C   UNL     1     -44.688  38.139  29.307  1.00  0.00     0.173 C 
ATOM     31  H   UNL     1     -46.716  38.048  30.068  1.00  0.00     0.066 H 
ATOM     32  H   UNL     1     -43.990  37.949  27.285  1.00  0.00     0.088 H 
ATOM     33  F   UNL     1     -44.591  39.354  29.890  1.00  0.00    -0.239 F 
ATOM     34  H   UNL     1     -43.761  37.595  29.530  1.00  0.00     0.074 H 
BRANCH  27  35
ATOM     35  O   UNL     1     -45.565  36.656  31.023  1.00  0.00    -0.387 OA
ATOM     36  H   UNL     1     -44.716  36.208  30.856  1.00  0.00     0.211 HD
ENDBRANCH  27  35
BRANCH  29  37
ATOM     37  N   UNL     1     -45.387  39.461  27.264  1.00  0.00    -0.302 N 
ATOM     38  C   UNL     1     -44.585  40.330  26.558  1.00  0.00     0.019 A 
ATOM     39  C   UNL     1     -46.653  39.985  27.354  1.00  0.00     0.148 A 
ATOM     40  C   UNL     1     -45.350  41.419  26.184  1.00  0.00     0.033 A 
ATOM     41  H   UNL     1     -43.548  40.093  26.359  1.00  0.00     0.083 H 
ATOM     42  C   UNL     1     -46.666  41.218  26.705  1.00  0.00     0.071 A 
ATOM     43  N   UNL     1     -47.695  39.399  27.969  1.00  0.00    -0.218 NA
ATOM     44  C   UNL     1     -47.890  41.913  26.723  1.00  0.00     0.137 A 
ATOM     45  C   UNL     1     -48.809  40.142  27.884  1.00  0.00     0.120 A 
ATOM     46  N   UNL     1     -48.963  41.342  27.304  1.00  0.00    -0.219 NA
ATOM     47  H   UNL     1     -49.699  39.722  28.343  1.00  0.00     0.106 H 
BRANCH  40  48
ATOM     48  C   UNL     1     -44.893  42.559  25.382  1.00  0.00     0.095 A 
ATOM     49  C   UNL     1     -44.202  42.445  24.154  1.00  0.00    -0.016 A 
ATOM     50  N   UNL     1     -45.104  43.840  25.712  1.00  0.00    -0.173 NA
ATOM     51  C   UNL     1     -43.984  43.740  23.744  1.00  0.00     0.025 A 
ATOM     52  H   UNL     1     -43.897  41.546  23.638  1.00  0.00     0.066 H 
ATOM     53  N   UNL     1     -44.536  44.532  24.706  1.00  0.00    -0.275 N 
ATOM     54  H   UNL     1     -43.493  44.149  22.872  1.00  0.00     0.084 H 
BRANCH  53  55
ATOM     55  C   UNL     1     -44.561  45.973  24.733  1.00  0.00     0.030 C 
ATOM     56  H   UNL     1     -43.699  46.322  25.309  1.00  0.00     0.048 H 
ATOM     57  H   UNL     1     -44.509  46.359  23.712  1.00  0.00     0.048 H 
ATOM     58  H   UNL     1     -45.494  46.293  25.206  1.00  0.00     0.048 H 
ENDBRANCH  53  55
ENDBRANCH  40  48
BRANCH  44  59
ATOM     59  N   UNL     1     -48.080  43.170  26.166  1.00  0.00    -0.383 N 
ATOM     60  H   UNL     1     -47.763  43.921  26.788  1.00  0.00     0.158 HD
ATOM     61  H   UNL     1     -47.753  43.203  25.211  1.00  0.00     0.158 HD
ENDBRANCH  44  59
ENDBRANCH  29  37
ENDBRANCH   1  25
TORSDOF 10
ENDMDL
MODEL 3
REMARK VINA RESULT:      -8.8      2.553      3.691
REMARK SMILES CNc1ccc2sc(CC[C@H]3O[C@@H](n4cc(-c5ccn(C)n5)c5c(N)ncnc54)[C@@H](F)[C@@H]3O)cc2n1
REMARK SMILES IDX 10 1 9 4 8 7 3 8 4 9 36 10 5 11 35 13 6 14 34 16 7 17 2 19
REMARK SMILES IDX 1 21 11 25 12 26 32 27 13 29 30 30 31 33 33 35 14 37 15 38
REMARK SMILES IDX 29 39 16 40 23 42 28 43 24 44 27 45 26 46 17 48 18 49 22 50
REMARK SMILES IDX 19 51 20 53 21 55 25 59
REMARK H PARENT 10 2 10 3 9 5 9 6 4 12 5 15 34 18 2 20 1 22 1 23 1 24 11 28
REMARK H PARENT 32 31 13 32 30 34 33 36 15 41 27 47 18 52 19 54 21 56 21 57
REMARK H PARENT 21 58 25 60 25 61
REMARK Flexibility Score: inf
ROOT
ATOM      1  C   UNL     1     -47.607  36.078  28.638  1.00  0.00    -0.019 C 
ATOM      2  H   UNL     1     -47.509  35.074  29.068  1.00  0.00     0.030 H 
ATOM      3  H   UNL     1     -48.115  36.668  29.413  1.00  0.00     0.030 H 
ENDROOT
BRANCH   1   4
ATOM      4  C   UNL     1     -48.460  36.028  27.371  1.00  0.00    -0.016 C 
ATOM      5  H   UNL     1     -49.524  36.088  27.631  1.00  0.00     0.033 H 
ATOM      6  H   UNL     1     -48.244  36.896  26.737  1.00  0.00     0.033 H 
BRANCH   4   7
ATOM      7  C   UNL     1     -48.185  34.785  26.575  1.00  0.00     0.007 A 
ATOM      8  C   UNL     1     -46.392  31.403  23.977  1.00  0.00     0.126 A 
ATOM      9  C   UNL     1     -47.613  30.751  24.138  1.00  0.00    -0.018 A 
ATOM     10  N   UNL     1     -46.128  32.597  24.530  1.00  0.00    -0.230 NA
ATOM     11  C   UNL     1     -48.637  31.338  24.878  1.00  0.00    -0.039 A 
ATOM     12  H   UNL     1     -47.768  29.771  23.697  1.00  0.00     0.066 H 
ATOM     13  C   UNL     1     -47.121  33.176  25.256  1.00  0.00     0.084 A 
ATOM     14  C   UNL     1     -48.367  32.586  25.446  1.00  0.00     0.053 A 
ATOM     15  H   UNL     1     -49.592  30.844  25.016  1.00  0.00     0.064 H 
ATOM     16  C   UNL     1     -47.028  34.440  25.910  1.00  0.00    -0.022 A 
ATOM     17  S   UNL     1     -49.388  33.579  26.405  1.00  0.00    -0.139 S 
ATOM     18  H   UNL     1     -46.140  35.058  25.886  1.00  0.00     0.066 H 
BRANCH   8  19
ATOM     19  N   UNL     1     -45.400  30.730  23.232  1.00  0.00    -0.373 N 
ATOM     20  H   UNL     1     -44.792  30.229  23.873  1.00  0.00     0.161 HD
BRANCH  19  21
ATOM     21  C   UNL     1     -45.923  29.860  22.191  1.00  0.00     0.005 C 
ATOM     22  H   UNL     1     -45.211  29.834  21.360  1.00  0.00     0.045 H 
ATOM     23  H   UNL     1     -46.051  28.833  22.550  1.00  0.00     0.045 H 
ATOM     24  H   UNL     1     -46.873  30.234  21.794  1.00  0.00     0.045 H 
ENDBRANCH  19  21
ENDBRANCH   8  19
ENDBRANCH   4   7
ENDBRANCH   1   4
BRANCH   1  25
ATOM     25  C   UNL     1     -46.219  36.678  28.408  1.00  0.00     0.090 C 
ATOM     26  O   UNL     1     -46.242  37.452  27.191  1.00  0.00    -0.349 OA
ATOM     27  C   UNL     1     -45.732  37.609  29.515  1.00  0.00     0.116 C 
ATOM     28  H   UNL     1     -45.503  35.859  28.258  1.00  0.00     0.063 H 
ATOM     29  C   UNL     1     -45.346  38.571  27.364  1.00  0.00     0.169 C 
ATOM     30  C   UNL     1     -44.763  38.499  28.769  1.00  0.00     0.173 C 
ATOM     31  H   UNL     1     -46.544  38.186  29.966  1.00  0.00     0.066 H 
ATOM     32  H   UNL     1     -44.538  38.437  26.634  1.00  0.00     0.088 H 
ATOM     33  F   UNL     1     -44.644  39.701  29.376  1.00  0.00    -0.239 F 
ATOM     34  H   UNL     1     -43.765  38.044  28.748  1.00  0.00     0.074 H 
BRANCH  27  35
ATOM     35  O   UNL     1     -45.083  36.888  30.562  1.00  0.00    -0.387 OA
ATOM     36  H   UNL     1     -44.361  37.458  30.886  1.00  0.00     0.211 HD
ENDBRANCH  27  35
BRANCH  29  37
ATOM     37  N   UNL     1     -46.032  39.803  27.008  1.00  0.00    -0.302 N 
ATOM     38  C   UNL     1     -47.370  40.029  27.242  1.00  0.00     0.019 A 
ATOM     39  C   UNL     1     -45.483  40.911  26.411  1.00  0.00     0.148 A 
ATOM     40  C   UNL     1     -47.678  41.301  26.796  1.00  0.00     0.033 A 
ATOM     41  H   UNL     1     -47.985  39.281  27.725  1.00  0.00     0.083 H 
ATOM     42  C   UNL     1     -46.486  41.864  26.245  1.00  0.00     0.071 A 
ATOM     43  N   UNL     1     -44.195  41.041  26.048  1.00  0.00    -0.218 NA
ATOM     44  C   UNL     1     -46.102  43.065  25.619  1.00  0.00     0.137 A 
ATOM     45  C   UNL     1     -43.948  42.240  25.498  1.00  0.00     0.120 A 
ATOM     46  N   UNL     1     -44.812  43.241  25.270  1.00  0.00    -0.219 NA
ATOM     47  H   UNL     1     -42.922  42.424  25.198  1.00  0.00     0.106 H 
BRANCH  40  48
ATOM     48  C   UNL     1     -48.989  41.953  26.893  1.00  0.00     0.095 A 
ATOM     49  C   UNL     1     -49.646  42.248  28.110  1.00  0.00    -0.016 A 
ATOM     50  N   UNL     1     -49.700  42.369  25.836  1.00  0.00    -0.173 NA
ATOM     51  C   UNL     1     -50.820  42.864  27.743  1.00  0.00     0.025 A 
ATOM     52  H   UNL     1     -49.318  42.036  29.117  1.00  0.00     0.066 H 
ATOM     53  N   UNL     1     -50.806  42.909  26.381  1.00  0.00    -0.275 N 
ATOM     54  H   UNL     1     -51.641  43.260  28.325  1.00  0.00     0.084 H 
BRANCH  53  55
ATOM     55  C   UNL     1     -51.824  43.460  25.521  1.00  0.00     0.030 C 
ATOM     56  H   UNL     1     -52.263  42.643  24.941  1.00  0.00     0.048 H 
ATOM     57  H   UNL     1     -52.594  43.941  26.129  1.00  0.00     0.048 H 
ATOM     58  H   UNL     1     -51.357  44.193  24.859  1.00  0.00     0.048 H 
ENDBRANCH  53  55
ENDBRANCH  40  48
BRANCH  44  59
ATOM     59  N   UNL     1     -46.971  44.107  25.333  1.00  0.00    -0.383 N 
ATOM     60  H   UNL     1     -46.667  44.991  25.753  1.00  0.00     0.158 HD
ATOM     61  H   UNL     1     -47.210  44.129  24.351  1.00  0.00     0.158 HD
ENDBRANCH  44  59
ENDBRANCH  29  37
ENDBRANCH   1  25
TORSDOF 10
ENDMDL
MODEL 4
REMARK VINA RESULT:      -8.8      2.082      2.646
REMARK SMILES CNc1ccc2sc(CC[C@H]3O[C@@H](n4cc(-c5ccn(C)n5)c5c(N)ncnc54)[C@@H](F)[C@@H]3O)cc2n1
REMARK SMILES IDX 10 1 9 4 8 7 3 8 4 9 36 10 5 11 35 13 6 14 34 16 7 17 2 19
REMARK SMILES IDX 1 21 11 25 12 26 32 27 13 29 30 30 31 33 33 35 14 37 15 38
REMARK SMILES IDX 29 39 16 40 23 42 28 43 24 44 27 45 26 46 17 48 18 49 22 50
REMARK SMILES IDX 19 51 20 53 21 55 25 59
REMARK H PARENT 10 2 10 3 9 5 9 6 4 12 5 15 34 18 2 20 1 22 1 23 1 24 11 28
REMARK H PARENT 32 31 13 32 30 34 33 36 15 41 27 47 18 52 19 54 21 56 21 57
REMARK H PARENT 21 58 25 60 25 61
REMARK Flexibility Score: inf
ROOT
ATOM      1  C   UNL     1     -46.112  34.033  26.661  1.00  0.00    -0.019 C 
ATOM      2  H   UNL     1     -45.135  34.526  26.585  1.00  0.00     0.030 H 
ATOM      3  H   UNL     1     -45.892  33.032  27.057  1.00  0.00     0.030 H 
ENDROOT
BRANCH   1   4
ATOM      4  C   UNL     1     -46.754  33.923  25.278  1.00  0.00    -0.016 C 
ATOM      5  H   UNL     1     -47.625  34.587  25.214  1.00  0.00     0.033 H 
ATOM      6  H   UNL     1     -46.049  34.258  24.508  1.00  0.00     0.033 H 
BRANCH   4   7
ATOM      7  C   UNL     1     -47.151  32.509  24.969  1.00  0.00     0.007 A 
ATOM      8  C   UNL     1     -49.064  28.300  24.806  1.00  0.00     0.126 A 
ATOM      9  C   UNL     1     -48.188  28.038  23.754  1.00  0.00    -0.018 A 
ATOM     10  N   UNL     1     -49.106  29.483  25.439  1.00  0.00    -0.230 NA
ATOM     11  C   UNL     1     -47.286  29.010  23.326  1.00  0.00    -0.039 A 
ATOM     12  H   UNL     1     -48.213  27.076  23.253  1.00  0.00     0.066 H 
ATOM     13  C   UNL     1     -48.231  30.437  25.026  1.00  0.00     0.084 A 
ATOM     14  C   UNL     1     -47.321  30.238  23.992  1.00  0.00     0.053 A 
ATOM     15  H   UNL     1     -46.598  28.824  22.509  1.00  0.00     0.064 H 
ATOM     16  C   UNL     1     -48.124  31.746  25.580  1.00  0.00    -0.022 A 
ATOM     17  S   UNL     1     -46.363  31.637  23.725  1.00  0.00    -0.139 S 
ATOM     18  H   UNL     1     -48.744  32.100  26.392  1.00  0.00     0.066 H 
BRANCH   8  19
ATOM     19  N   UNL     1     -49.961  27.271  25.163  1.00  0.00    -0.373 N 
ATOM     20  H   UNL     1     -50.047  27.248  26.175  1.00  0.00     0.161 HD
BRANCH  19  21
ATOM     21  C   UNL     1     -51.258  27.357  24.512  1.00  0.00     0.005 C 
ATOM     22  H   UNL     1     -51.377  28.359  24.090  1.00  0.00     0.045 H 
ATOM     23  H   UNL     1     -51.347  26.638  23.690  1.00  0.00     0.045 H 
ATOM     24  H   UNL     1     -52.077  27.206  25.225  1.00  0.00     0.045 H 
ENDBRANCH  19  21
ENDBRANCH   8  19
ENDBRANCH   4   7
ENDBRANCH   1   4
BRANCH   1  25
ATOM     25  C   UNL     1     -46.986  34.772  27.674  1.00  0.00     0.090 C 
ATOM     26  O   UNL     1     -46.147  35.616  28.488  1.00  0.00    -0.349 OA
ATOM     27  C   UNL     1     -48.056  35.671  27.061  1.00  0.00     0.116 C 
ATOM     28  H   UNL     1     -47.449  34.034  28.343  1.00  0.00     0.063 H 
ATOM     29  C   UNL     1     -46.903  36.799  28.822  1.00  0.00     0.169 C 
ATOM     30  C   UNL     1     -48.268  36.692  28.157  1.00  0.00     0.173 C 
ATOM     31  H   UNL     1     -47.727  36.141  26.131  1.00  0.00     0.066 H 
ATOM     32  H   UNL     1     -47.034  36.787  29.911  1.00  0.00     0.088 H 
ATOM     33  F   UNL     1     -48.724  37.859  27.649  1.00  0.00    -0.239 F 
ATOM     34  H   UNL     1     -49.018  36.334  28.873  1.00  0.00     0.074 H 
BRANCH  27  35
ATOM     35  O   UNL     1     -49.254  34.949  26.778  1.00  0.00    -0.387 OA
ATOM     36  H   UNL     1     -49.598  35.299  25.936  1.00  0.00     0.211 HD
ENDBRANCH  27  35
BRANCH  29  37
ATOM     37  N   UNL     1     -46.119  37.982  28.508  1.00  0.00    -0.302 N 
ATOM     38  C   UNL     1     -46.404  38.837  27.465  1.00  0.00     0.019 A 
ATOM     39  C   UNL     1     -45.008  38.438  29.175  1.00  0.00     0.148 A 
ATOM     40  C   UNL     1     -45.470  39.855  27.472  1.00  0.00     0.033 A 
ATOM     41  H   UNL     1     -47.258  38.664  26.823  1.00  0.00     0.083 H 
ATOM     42  C   UNL     1     -44.563  39.599  28.546  1.00  0.00     0.071 A 
ATOM     43  N   UNL     1     -44.452  37.853  30.249  1.00  0.00    -0.218 NA
ATOM     44  C   UNL     1     -43.407  40.192  29.089  1.00  0.00     0.137 A 
ATOM     45  C   UNL     1     -43.383  38.532  30.693  1.00  0.00     0.120 A 
ATOM     46  N   UNL     1     -42.841  39.649  30.184  1.00  0.00    -0.219 NA
ATOM     47  H   UNL     1     -42.893  38.128  31.573  1.00  0.00     0.106 H 
BRANCH  40  48
ATOM     48  C   UNL     1     -45.436  40.998  26.553  1.00  0.00     0.095 A 
ATOM     49  C   UNL     1     -44.470  41.177  25.536  1.00  0.00    -0.016 A 
ATOM     50  N   UNL     1     -46.336  41.991  26.558  1.00  0.00    -0.173 NA
ATOM     51  C   UNL     1     -44.819  42.353  24.914  1.00  0.00     0.025 A 
ATOM     52  H   UNL     1     -43.631  40.543  25.291  1.00  0.00     0.066 H 
ATOM     53  N   UNL     1     -45.932  42.800  25.560  1.00  0.00    -0.275 N 
ATOM     54  H   UNL     1     -44.375  42.893  24.089  1.00  0.00     0.084 H 
BRANCH  53  55
ATOM     55  C   UNL     1     -46.675  44.003  25.278  1.00  0.00     0.030 C 
ATOM     56  H   UNL     1     -46.325  44.790  25.952  1.00  0.00     0.048 H 
ATOM     57  H   UNL     1     -46.507  44.301  24.239  1.00  0.00     0.048 H 
ATOM     58  H   UNL     1     -47.736  43.800  25.441  1.00  0.00     0.048 H 
ENDBRANCH  53  55
ENDBRANCH  40  48
BRANCH  44  59
ATOM     59  N   UNL     1     -42.796  41.325  28.570  1.00  0.00    -0.383 N 
ATOM     60  H   UNL     1     -42.628  42.037  29.288  1.00  0.00     0.158 HD
ATOM     61  H   UNL     1     -42.014  41.083  27.978  1.00  0.00     0.158 HD
ENDBRANCH  44  59
ENDBRANCH  29  37
ENDBRANCH   1  25
TORSDOF 10
ENDMDL
MODEL 5
REMARK VINA RESULT:      -8.4      3.767      5.168
REMARK SMILES CNc1ccc2sc(CC[C@H]3O[C@@H](n4cc(-c5ccn(C)n5)c5c(N)ncnc54)[C@@H](F)[C@@H]3O)cc2n1
REMARK SMILES IDX 10 1 9 4 8 7 3 8 4 9 36 10 5 11 35 13 6 14 34 16 7 17 2 19
REMARK SMILES IDX 1 21 11 25 12 26 32 27 13 29 30 30 31 33 33 35 14 37 15 38
REMARK SMILES IDX 29 39 16 40 23 42 28 43 24 44 27 45 26 46 17 48 18 49 22 50
REMARK SMILES IDX 19 51 20 53 21 55 25 59
REMARK H PARENT 10 2 10 3 9 5 9 6 4 12 5 15 34 18 2 20 1 22 1 23 1 24 11 28
REMARK H PARENT 32 31 13 32 30 34 33 36 15 41 27 47 18 52 19 54 21 56 21 57
REMARK H PARENT 21 58 25 60 25 61
REMARK Flexibility Score: inf
ROOT
ATOM      1  C   UNL     1     -46.861  34.658  25.768  1.00  0.00    -0.019 C 
ATOM      2  H   UNL     1     -47.260  35.397  25.062  1.00  0.00     0.030 H 
ATOM      3  H   UNL     1     -46.137  34.074  25.184  1.00  0.00     0.030 H 
ENDROOT
BRANCH   1   4
ATOM      4  C   UNL     1     -47.983  33.752  26.274  1.00  0.00    -0.016 C 
ATOM      5  H   UNL     1     -47.917  33.645  27.364  1.00  0.00     0.033 H 
ATOM      6  H   UNL     1     -48.958  34.208  26.063  1.00  0.00     0.033 H 
BRANCH   4   7
ATOM      7  C   UNL     1     -47.940  32.406  25.613  1.00  0.00     0.007 A 
ATOM      8  C   UNL     1     -48.661  28.069  24.171  1.00  0.00     0.126 A 
ATOM      9  C   UNL     1     -47.548  28.250  23.351  1.00  0.00    -0.018 A 
ATOM     10  N   UNL     1     -49.128  29.031  24.983  1.00  0.00    -0.230 NA
ATOM     11  C   UNL     1     -46.849  29.455  23.362  1.00  0.00    -0.039 A 
ATOM     12  H   UNL     1     -47.226  27.452  22.689  1.00  0.00     0.066 H 
ATOM     13  C   UNL     1     -48.454  30.211  24.997  1.00  0.00     0.084 A 
ATOM     14  C   UNL     1     -47.328  30.453  24.215  1.00  0.00     0.053 A 
ATOM     15  H   UNL     1     -45.983  29.613  22.730  1.00  0.00     0.064 H 
ATOM     16  C   UNL     1     -48.796  31.340  25.796  1.00  0.00    -0.022 A 
ATOM     17  S   UNL     1     -46.718  32.036  24.473  1.00  0.00    -0.139 S 
ATOM     18  H   UNL     1     -49.641  31.357  26.473  1.00  0.00     0.066 H 
BRANCH   8  19
ATOM     19  N   UNL     1     -49.326  26.827  24.084  1.00  0.00    -0.373 N 
ATOM     20  H   UNL     1     -48.767  26.196  23.517  1.00  0.00     0.161 HD
BRANCH  19  21
ATOM     21  C   UNL     1     -49.665  26.241  25.370  1.00  0.00     0.005 C 
ATOM     22  H   UNL     1     -49.840  27.045  26.091  1.00  0.00     0.045 H 
ATOM     23  H   UNL     1     -50.582  25.643  25.312  1.00  0.00     0.045 H 
ATOM     24  H   UNL     1     -48.847  25.626  25.761  1.00  0.00     0.045 H 
ENDBRANCH  19  21
ENDBRANCH   8  19
ENDBRANCH   4   7
ENDBRANCH   1   4
BRANCH   1  25
ATOM     25  C   UNL     1     -46.110  35.372  26.892  1.00  0.00     0.090 C 
ATOM     26  O   UNL     1     -46.277  36.796  26.736  1.00  0.00    -0.349 OA
ATOM     27  C   UNL     1     -46.584  35.024  28.301  1.00  0.00     0.116 C 
ATOM     28  H   UNL     1     -45.037  35.159  26.790  1.00  0.00     0.063 H 
ATOM     29  C   UNL     1     -46.313  37.383  28.054  1.00  0.00     0.169 C 
ATOM     30  C   UNL     1     -46.191  36.262  29.076  1.00  0.00     0.173 C 
ATOM     31  H   UNL     1     -47.661  34.844  28.348  1.00  0.00     0.066 H 
ATOM     32  H   UNL     1     -45.433  38.033  28.128  1.00  0.00     0.088 H 
ATOM     33  F   UNL     1     -46.978  36.422  30.164  1.00  0.00    -0.239 F 
ATOM     34  H   UNL     1     -45.156  36.178  29.432  1.00  0.00     0.074 H 
BRANCH  27  35
ATOM     35  O   UNL     1     -45.930  33.860  28.805  1.00  0.00    -0.387 OA
ATOM     36  H   UNL     1     -46.232  33.747  29.725  1.00  0.00     0.211 HD
ENDBRANCH  27  35
BRANCH  29  37
ATOM     37  N   UNL     1     -47.480  38.244  28.170  1.00  0.00    -0.302 N 
ATOM     38  C   UNL     1     -47.413  39.596  28.426  1.00  0.00     0.019 A 
ATOM     39  C   UNL     1     -48.796  37.872  28.041  1.00  0.00     0.148 A 
ATOM     40  C   UNL     1     -48.701  40.095  28.452  1.00  0.00     0.033 A 
ATOM     41  H   UNL     1     -46.459  40.093  28.544  1.00  0.00     0.083 H 
ATOM     42  C   UNL     1     -49.592  39.001  28.228  1.00  0.00     0.071 A 
ATOM     43  N   UNL     1     -49.230  36.627  27.781  1.00  0.00    -0.218 NA
ATOM     44  C   UNL     1     -50.983  38.796  28.154  1.00  0.00     0.137 A 
ATOM     45  C   UNL     1     -50.568  36.570  27.699  1.00  0.00     0.120 A 
ATOM     46  N   UNL     1     -51.452  37.566  27.866  1.00  0.00    -0.219 NA
ATOM     47  H   UNL     1     -50.991  35.596  27.472  1.00  0.00     0.106 H 
BRANCH  40  48
ATOM     48  C   UNL     1     -49.076  41.500  28.653  1.00  0.00     0.095 A 
ATOM     49  C   UNL     1     -49.705  42.000  29.816  1.00  0.00    -0.016 A 
ATOM     50  N   UNL     1     -48.838  42.474  27.764  1.00  0.00    -0.173 NA
ATOM     51  C   UNL     1     -49.857  43.348  29.590  1.00  0.00     0.025 A 
ATOM     52  H   UNL     1     -50.014  41.456  30.696  1.00  0.00     0.066 H 
ATOM     53  N   UNL     1     -49.328  43.579  28.355  1.00  0.00    -0.275 N 
ATOM     54  H   UNL     1     -50.287  44.138  30.190  1.00  0.00     0.084 H 
BRANCH  53  55
ATOM     55  C   UNL     1     -49.254  44.844  27.666  1.00  0.00     0.030 C 
ATOM     56  H   UNL     1     -49.770  44.745  26.707  1.00  0.00     0.048 H 
ATOM     57  H   UNL     1     -49.735  45.618  28.270  1.00  0.00     0.048 H 
ATOM     58  H   UNL     1     -48.201  45.092  27.512  1.00  0.00     0.048 H 
ENDBRANCH  53  55
ENDBRANCH  40  48
BRANCH  44  59
ATOM     59  N   UNL     1     -51.928  39.791  28.356  1.00  0.00    -0.383 N 
ATOM     60  H   UNL     1     -51.612  40.701  28.009  1.00  0.00     0.158 HD
ATOM     61  H   UNL     1     -52.848  39.489  28.066  1.00  0.00     0.158 HD
ENDBRANCH  44  59
ENDBRANCH  29  37
ENDBRANCH   1  25
TORSDOF 10
ENDMDL
MODEL 6
REMARK VINA RESULT:      -8.2      2.026      3.113
REMARK SMILES CNc1ccc2sc(CC[C@H]3O[C@@H](n4cc(-c5ccn(C)n5)c5c(N)ncnc54)[C@@H](F)[C@@H]3O)cc2n1
REMARK SMILES IDX 10 1 9 4 8 7 3 8 4 9 36 10 5 11 35 13 6 14 34 16 7 17 2 19
REMARK SMILES IDX 1 21 11 25 12 26 32 27 13 29 30 30 31 33 33 35 14 37 15 38
REMARK SMILES IDX 29 39 16 40 23 42 28 43 24 44 27 45 26 46 17 48 18 49 22 50
REMARK SMILES IDX 19 51 20 53 21 55 25 59
REMARK H PARENT 10 2 10 3 9 5 9 6 4 12 5 15 34 18 2 20 1 22 1 23 1 24 11 28
REMARK H PARENT 32 31 13 32 30 34 33 36 15 41 27 47 18 52 19 54 21 56 21 57
REMARK H PARENT 21 58 25 60 25 61
REMARK Flexibility Score: inf
ROOT
ATOM      1  C   UNL     1     -47.347  35.606  26.387  1.00  0.00    -0.019 C 
ATOM      2  H   UNL     1     -47.951  36.424  25.974  1.00  0.00     0.030 H 
ATOM      3  H   UNL     1     -46.653  35.334  25.580  1.00  0.00     0.030 H 
ENDROOT
BRANCH   1   4
ATOM      4  C   UNL     1     -48.240  34.417  26.737  1.00  0.00    -0.016 C 
ATOM      5  H   UNL     1     -48.144  34.175  27.803  1.00  0.00     0.033 H 
ATOM      6  H   UNL     1     -49.293  34.675  26.569  1.00  0.00     0.033 H 
BRANCH   4   7
ATOM      7  C   UNL     1     -47.910  33.218  25.897  1.00  0.00     0.007 A 
ATOM      8  C   UNL     1     -47.780  29.134  23.727  1.00  0.00     0.126 A 
ATOM      9  C   UNL     1     -46.606  29.587  23.129  1.00  0.00    -0.018 A 
ATOM     10  N   UNL     1     -48.490  29.878  24.590  1.00  0.00    -0.230 NA
ATOM     11  C   UNL     1     -46.101  30.851  23.430  1.00  0.00    -0.039 A 
ATOM     12  H   UNL     1     -46.083  28.960  22.413  1.00  0.00     0.066 H 
ATOM     13  C   UNL     1     -48.006  31.112  24.887  1.00  0.00     0.084 A 
ATOM     14  C   UNL     1     -46.833  31.622  24.336  1.00  0.00     0.053 A 
ATOM     15  H   UNL     1     -45.190  31.220  22.972  1.00  0.00     0.064 H 
ATOM     16  C   UNL     1     -48.615  32.039  25.782  1.00  0.00    -0.022 A 
ATOM     17  S   UNL     1     -46.503  33.202  24.921  1.00  0.00    -0.139 S 
ATOM     18  H   UNL     1     -49.537  31.835  26.312  1.00  0.00     0.066 H 
BRANCH   8  19
ATOM     19  N   UNL     1     -48.236  27.852  23.352  1.00  0.00    -0.373 N 
ATOM     20  H   UNL     1     -47.432  27.257  23.176  1.00  0.00     0.161 HD
BRANCH  19  21
ATOM     21  C   UNL     1     -49.159  27.246  24.298  1.00  0.00     0.005 C 
ATOM     22  H   UNL     1     -48.602  26.569  24.952  1.00  0.00     0.045 H 
ATOM     23  H   UNL     1     -49.639  27.999  24.932  1.00  0.00     0.045 H 
ATOM     24  H   UNL     1     -49.924  26.650  23.788  1.00  0.00     0.045 H 
ENDBRANCH  19  21
ENDBRANCH   8  19
ENDBRANCH   4   7
ENDBRANCH   1   4
BRANCH   1  25
ATOM     25  C   UNL     1     -46.530  36.117  27.574  1.00  0.00     0.090 C 
ATOM     26  O   UNL     1     -45.482  36.978  27.085  1.00  0.00    -0.349 OA
ATOM     27  C   UNL     1     -47.324  36.925  28.597  1.00  0.00     0.116 C 
ATOM     28  H   UNL     1     -46.045  35.260  28.062  1.00  0.00     0.063 H 
ATOM     29  C   UNL     1     -45.264  38.010  28.069  1.00  0.00     0.169 C 
ATOM     30  C   UNL     1     -46.248  37.793  29.210  1.00  0.00     0.173 C 
ATOM     31  H   UNL     1     -48.112  37.526  28.137  1.00  0.00     0.066 H 
ATOM     32  H   UNL     1     -44.243  37.871  28.445  1.00  0.00     0.088 H 
ATOM     33  F   UNL     1     -46.772  38.935  29.709  1.00  0.00    -0.239 F 
ATOM     34  H   UNL     1     -45.761  37.268  30.042  1.00  0.00     0.074 H 
BRANCH  27  35
ATOM     35  O   UNL     1     -47.938  36.083  29.572  1.00  0.00    -0.387 OA
ATOM     36  H   UNL     1     -47.362  36.101  30.359  1.00  0.00     0.211 HD
ENDBRANCH  27  35
BRANCH  29  37
ATOM     37  N   UNL     1     -45.297  39.313  27.423  1.00  0.00    -0.302 N 
ATOM     38  C   UNL     1     -44.177  39.971  26.965  1.00  0.00     0.019 A 
ATOM     39  C   UNL     1     -46.409  40.075  27.158  1.00  0.00     0.148 A 
ATOM     40  C   UNL     1     -44.579  41.164  26.395  1.00  0.00     0.033 A 
ATOM     41  H   UNL     1     -43.194  39.528  27.061  1.00  0.00     0.083 H 
ATOM     42  C   UNL     1     -45.999  41.249  26.531  1.00  0.00     0.071 A 
ATOM     43  N   UNL     1     -47.674  39.736  27.462  1.00  0.00    -0.218 NA
ATOM     44  C   UNL     1     -47.016  42.167  26.209  1.00  0.00     0.137 A 
ATOM     45  C   UNL     1     -48.551  40.673  27.072  1.00  0.00     0.120 A 
ATOM     46  N   UNL     1     -48.298  41.846  26.471  1.00  0.00    -0.219 NA
ATOM     47  H   UNL     1     -49.597  40.458  27.267  1.00  0.00     0.106 H 
BRANCH  40  48
ATOM     48  C   UNL     1     -43.702  42.148  25.750  1.00  0.00     0.095 A 
ATOM     49  C   UNL     1     -42.518  42.663  26.327  1.00  0.00    -0.016 A 
ATOM     50  N   UNL     1     -43.912  42.651  24.526  1.00  0.00    -0.173 NA
ATOM     51  C   UNL     1     -42.009  43.529  25.388  1.00  0.00     0.025 A 
ATOM     52  H   UNL     1     -42.095  42.441  27.296  1.00  0.00     0.066 H 
ATOM     53  N   UNL     1     -42.876  43.489  24.337  1.00  0.00    -0.275 N 
ATOM     54  H   UNL     1     -41.128  44.155  25.385  1.00  0.00     0.084 H 
BRANCH  53  55
ATOM     55  C   UNL     1     -42.779  44.231  23.104  1.00  0.00     0.030 C 
ATOM     56  H   UNL     1     -43.605  43.928  22.454  1.00  0.00     0.048 H 
ATOM     57  H   UNL     1     -42.844  45.301  23.316  1.00  0.00     0.048 H 
ATOM     58  H   UNL     1     -41.818  44.000  22.638  1.00  0.00     0.048 H 
ENDBRANCH  53  55
ENDBRANCH  40  48
BRANCH  44  59
ATOM     59  N   UNL     1     -46.792  43.404  25.622  1.00  0.00    -0.383 N 
ATOM     60  H   UNL     1     -47.373  43.548  24.790  1.00  0.00     0.158 HD
ATOM     61  H   UNL     1     -46.793  44.144  26.310  1.00  0.00     0.158 HD
ENDBRANCH  44  59
ENDBRANCH  29  37
ENDBRANCH   1  25
TORSDOF 10
ENDMDL
MODEL 7
REMARK VINA RESULT:      -7.9      2.830      5.154
REMARK SMILES CNc1ccc2sc(CC[C@H]3O[C@@H](n4cc(-c5ccn(C)n5)c5c(N)ncnc54)[C@@H](F)[C@@H]3O)cc2n1
REMARK SMILES IDX 10 1 9 4 8 7 3 8 4 9 36 10 5 11 35 13 6 14 34 16 7 17 2 19
REMARK SMILES IDX 1 21 11 25 12 26 32 27 13 29 30 30 31 33 33 35 14 37 15 38
REMARK SMILES IDX 29 39 16 40 23 42 28 43 24 44 27 45 26 46 17 48 18 49 22 50
REMARK SMILES IDX 19 51 20 53 21 55 25 59
REMARK H PARENT 10 2 10 3 9 5 9 6 4 12 5 15 34 18 2 20 1 22 1 23 1 24 11 28
REMARK H PARENT 32 31 13 32 30 34 33 36 15 41 27 47 18 52 19 54 21 56 21 57
REMARK H PARENT 21 58 25 60 25 61
REMARK Flexibility Score: inf
ROOT
ATOM      1  C   UNL     1     -45.614  39.056  28.428  1.00  0.00    -0.019 C 
ATOM      2  H   UNL     1     -45.922  39.789  29.184  1.00  0.00     0.030 H 
ATOM      3  H   UNL     1     -46.465  38.991  27.737  1.00  0.00     0.030 H 
ENDROOT
BRANCH   1   4
ATOM      4  C   UNL     1     -45.363  37.698  29.083  1.00  0.00    -0.016 C 
ATOM      5  H   UNL     1     -44.286  37.491  29.118  1.00  0.00     0.033 H 
ATOM      6  H   UNL     1     -45.713  37.712  30.123  1.00  0.00     0.033 H 
BRANCH   4   7
ATOM      7  C   UNL     1     -46.084  36.599  28.359  1.00  0.00     0.007 A 
ATOM      8  C   UNL     1     -47.350  32.758  26.113  1.00  0.00     0.126 A 
ATOM      9  C   UNL     1     -48.638  33.292  26.103  1.00  0.00    -0.018 A 
ATOM     10  N   UNL     1     -46.307  33.386  26.678  1.00  0.00    -0.230 NA
ATOM     11  C   UNL     1     -48.890  34.538  26.673  1.00  0.00    -0.039 A 
ATOM     12  H   UNL     1     -49.455  32.733  25.660  1.00  0.00     0.066 H 
ATOM     13  C   UNL     1     -46.546  34.600  27.239  1.00  0.00     0.084 A 
ATOM     14  C   UNL     1     -47.803  35.198  27.253  1.00  0.00     0.053 A 
ATOM     15  H   UNL     1     -49.885  34.968  26.676  1.00  0.00     0.064 H 
ATOM     16  C   UNL     1     -45.566  35.415  27.878  1.00  0.00    -0.022 A 
ATOM     17  S   UNL     1     -47.760  36.726  28.033  1.00  0.00    -0.139 S 
ATOM     18  H   UNL     1     -44.527  35.129  27.975  1.00  0.00     0.066 H 
BRANCH   8  19
ATOM     19  N   UNL     1     -47.183  31.481  25.534  1.00  0.00    -0.373 N 
ATOM     20  H   UNL     1     -48.011  30.924  25.726  1.00  0.00     0.161 HD
BRANCH  19  21
ATOM     21  C   UNL     1     -46.865  31.506  24.116  1.00  0.00     0.005 C 
ATOM     22  H   UNL     1     -45.834  31.164  23.979  1.00  0.00     0.045 H 
ATOM     23  H   UNL     1     -47.515  30.835  23.544  1.00  0.00     0.045 H 
ATOM     24  H   UNL     1     -46.928  32.520  23.707  1.00  0.00     0.045 H 
ENDBRANCH  19  21
ENDBRANCH   8  19
ENDBRANCH   4   7
ENDBRANCH   1   4
BRANCH   1  25
ATOM     25  C   UNL     1     -44.405  39.586  27.657  1.00  0.00     0.090 C 
ATOM     26  O   UNL     1     -44.838  40.027  26.355  1.00  0.00    -0.349 OA
ATOM     27  C   UNL     1     -43.696  40.769  28.311  1.00  0.00     0.116 C 
ATOM     28  H   UNL     1     -43.698  38.760  27.500  1.00  0.00     0.063 H 
ATOM     29  C   UNL     1     -44.024  41.158  25.978  1.00  0.00     0.169 C 
ATOM     30  C   UNL     1     -43.058  41.447  27.119  1.00  0.00     0.173 C 
ATOM     31  H   UNL     1     -44.388  41.436  28.832  1.00  0.00     0.066 H 
ATOM     32  H   UNL     1     -43.452  40.849  25.095  1.00  0.00     0.088 H 
ATOM     33  F   UNL     1     -42.867  42.764  27.357  1.00  0.00    -0.239 F 
ATOM     34  H   UNL     1     -42.075  41.007  26.911  1.00  0.00     0.074 H 
BRANCH  27  35
ATOM     35  O   UNL     1     -42.718  40.340  29.257  1.00  0.00    -0.387 OA
ATOM     36  H   UNL     1     -42.371  39.488  28.932  1.00  0.00     0.211 HD
ENDBRANCH  27  35
BRANCH  29  37
ATOM     37  N   UNL     1     -44.880  42.256  25.559  1.00  0.00    -0.302 N 
ATOM     38  C   UNL     1     -46.126  42.503  26.093  1.00  0.00     0.019 A 
ATOM     39  C   UNL     1     -44.601  43.203  24.605  1.00  0.00     0.148 A 
ATOM     40  C   UNL     1     -46.645  43.627  25.478  1.00  0.00     0.033 A 
ATOM     41  H   UNL     1     -46.528  41.877  26.880  1.00  0.00     0.083 H 
ATOM     42  C   UNL     1     -45.689  44.069  24.512  1.00  0.00     0.071 A 
ATOM     43  N   UNL     1     -43.468  43.271  23.885  1.00  0.00    -0.218 NA
ATOM     44  C   UNL     1     -45.584  45.095  23.554  1.00  0.00     0.137 A 
ATOM     45  C   UNL     1     -43.475  44.311  23.037  1.00  0.00     0.120 A 
ATOM     46  N   UNL     1     -44.450  45.211  22.837  1.00  0.00    -0.219 NA
ATOM     47  H   UNL     1     -42.581  44.441  22.434  1.00  0.00     0.106 H 
BRANCH  40  48
ATOM     48  C   UNL     1     -47.935  44.256  25.782  1.00  0.00     0.095 A 
ATOM     49  C   UNL     1     -49.158  43.556  25.898  1.00  0.00    -0.016 A 
ATOM     50  N   UNL     1     -48.094  45.566  26.012  1.00  0.00    -0.173 NA
ATOM     51  C   UNL     1     -50.094  44.517  26.203  1.00  0.00     0.025 A 
ATOM     52  H   UNL     1     -49.339  42.498  25.771  1.00  0.00     0.066 H 
ATOM     53  N   UNL     1     -49.412  45.695  26.256  1.00  0.00    -0.275 N 
ATOM     54  H   UNL     1     -51.159  44.458  26.378  1.00  0.00     0.084 H 
BRANCH  53  55
ATOM     55  C   UNL     1     -49.957  47.001  26.538  1.00  0.00     0.030 C 
ATOM     56  H   UNL     1     -50.963  47.053  26.112  1.00  0.00     0.048 H 
ATOM     57  H   UNL     1     -50.001  47.152  27.619  1.00  0.00     0.048 H 
ATOM     58  H   UNL     1     -49.307  47.752  26.081  1.00  0.00     0.048 H 
ENDBRANCH  53  55
ENDBRANCH  40  48
BRANCH  44  59
ATOM     59  N   UNL     1     -46.583  46.022  23.293  1.00  0.00    -0.383 N 
ATOM     60  H   UNL     1     -46.705  46.187  22.289  1.00  0.00     0.158 HD
ATOM     61  H   UNL     1     -47.418  45.823  23.826  1.00  0.00     0.158 HD
ENDBRANCH  44  59
ENDBRANCH  29  37
ENDBRANCH   1  25
TORSDOF 10
ENDMDL
