MODEL 1
REMARK VINA RESULT:     -10.7      0.000      0.000
REMARK SMILES CNc1ccc2ccc(OCc3cncc(-n4cc(C5CCC(F)(F)CC5)c5c(N)ncnc54)c3)cc2n1
REMARK SMILES IDX 11 1 10 4 9 5 3 6 4 7 38 8 5 9 37 11 6 12 36 14 7 15 8 17
REMARK SMILES IDX 2 20 1 22 12 26 13 27 35 28 14 29 16 31 15 33 17 35 18 36
REMARK SMILES IDX 34 37 19 38 28 40 33 41 29 42 32 43 31 44 20 46 21 47 27 48
REMARK SMILES IDX 22 50 26 53 23 56 24 61 25 62 30 63
REMARK H PARENT 11 2 11 3 4 10 5 13 36 16 7 18 8 19 2 21 1 23 1 24 1 25 13 30
REMARK H PARENT 35 32 15 34 18 39 32 45 20 49 21 51 21 52 27 54 27 55 22 57
REMARK H PARENT 22 58 26 59 26 60 30 64 30 65
REMARK Flexibility Score: inf
ROOT
ATOM      1  C   UNL     1     -48.553  35.367  27.155  1.00  0.00     0.115 C 
ATOM      2  H   UNL     1     -48.503  36.285  26.557  1.00  0.00     0.076 H 
ATOM      3  H   UNL     1     -49.617  35.208  27.372  1.00  0.00     0.076 H 
ENDROOT
BRANCH   1   4
ATOM      4  O   UNL     1     -47.822  35.627  28.357  1.00  0.00    -0.489 OA
BRANCH   4   5
ATOM      5  C   UNL     1     -46.907  36.642  28.365  1.00  0.00     0.122 A 
ATOM      6  C   UNL     1     -44.827  40.580  26.684  1.00  0.00     0.126 A 
ATOM      7  C   UNL     1     -43.914  40.604  27.731  1.00  0.00    -0.019 A 
ATOM      8  N   UNL     1     -45.759  39.611  26.582  1.00  0.00    -0.231 NA
ATOM      9  C   UNL     1     -43.973  39.619  28.712  1.00  0.00    -0.049 A 
ATOM     10  H   UNL     1     -43.153  41.374  27.779  1.00  0.00     0.066 H 
ATOM     11  C   UNL     1     -45.824  38.654  27.525  1.00  0.00     0.076 A 
ATOM     12  C   UNL     1     -44.943  38.619  28.622  1.00  0.00     0.001 A 
ATOM     13  H   UNL     1     -43.260  39.636  29.531  1.00  0.00     0.063 H 
ATOM     14  C   UNL     1     -46.794  37.663  27.419  1.00  0.00     0.007 A 
ATOM     15  C   UNL     1     -45.052  37.602  29.583  1.00  0.00    -0.049 A 
ATOM     16  H   UNL     1     -47.463  37.729  26.569  1.00  0.00     0.069 H 
ATOM     17  C   UNL     1     -46.032  36.622  29.451  1.00  0.00    -0.019 A 
ATOM     18  H   UNL     1     -44.376  37.568  30.435  1.00  0.00     0.063 H 
ATOM     19  H   UNL     1     -46.116  35.836  30.198  1.00  0.00     0.066 H 
BRANCH   6  20
ATOM     20  N   UNL     1     -44.723  41.578  25.697  1.00  0.00    -0.373 N 
ATOM     21  H   UNL     1     -43.765  41.915  25.673  1.00  0.00     0.161 HD
BRANCH  20  22
ATOM     22  C   UNL     1     -45.672  42.668  25.849  1.00  0.00     0.005 C 
ATOM     23  H   UNL     1     -46.130  42.668  26.844  1.00  0.00     0.045 H 
ATOM     24  H   UNL     1     -46.479  42.540  25.121  1.00  0.00     0.045 H 
ATOM     25  H   UNL     1     -45.205  43.641  25.658  1.00  0.00     0.045 H 
ENDBRANCH  20  22
ENDBRANCH   6  20
ENDBRANCH   4   5
ENDBRANCH   1   4
BRANCH   1  26
ATOM     26  C   UNL     1     -47.961  34.257  26.327  1.00  0.00     0.010 A 
ATOM     27  C   UNL     1     -46.635  34.322  25.919  1.00  0.00     0.034 A 
ATOM     28  C   UNL     1     -48.689  33.108  25.986  1.00  0.00    -0.028 A 
ATOM     29  N   UNL     1     -46.024  33.362  25.197  1.00  0.00    -0.262 NA
ATOM     30  H   UNL     1     -46.005  35.173  26.163  1.00  0.00     0.084 H 
ATOM     31  C   UNL     1     -48.096  32.087  25.234  1.00  0.00     0.066 A 
ATOM     32  H   UNL     1     -49.725  33.058  26.304  1.00  0.00     0.065 H 
ATOM     33  C   UNL     1     -46.765  32.274  24.869  1.00  0.00     0.051 A 
ATOM     34  H   UNL     1     -46.197  31.547  24.298  1.00  0.00     0.086 H 
BRANCH  31  35
ATOM     35  N   UNL     1     -48.807  30.904  24.847  1.00  0.00    -0.299 N 
ATOM     36  C   UNL     1     -48.339  29.609  25.002  1.00  0.00     0.015 A 
ATOM     37  C   UNL     1     -50.067  30.810  24.256  1.00  0.00     0.150 A 
ATOM     38  C   UNL     1     -49.261  28.693  24.528  1.00  0.00    -0.013 A 
ATOM     39  H   UNL     1     -47.369  29.419  25.435  1.00  0.00     0.083 H 
ATOM     40  C   UNL     1     -50.357  29.465  24.020  1.00  0.00     0.065 A 
ATOM     41  N   UNL     1     -50.894  31.836  23.967  1.00  0.00    -0.218 NA
ATOM     42  C   UNL     1     -51.585  29.188  23.389  1.00  0.00     0.136 A 
ATOM     43  C   UNL     1     -52.039  31.446  23.400  1.00  0.00     0.120 A 
ATOM     44  N   UNL     1     -52.419  30.198  23.090  1.00  0.00    -0.219 NA
ATOM     45  H   UNL     1     -52.744  32.233  23.153  1.00  0.00     0.106 H 
BRANCH  38  46
ATOM     46  C   UNL     1     -49.131  27.184  24.537  1.00  0.00    -0.013 C 
ATOM     47  C   UNL     1     -49.679  26.518  25.820  1.00  0.00    -0.041 C 
ATOM     48  C   UNL     1     -47.693  26.744  24.213  1.00  0.00    -0.041 C 
ATOM     49  H   UNL     1     -49.767  26.812  23.724  1.00  0.00     0.035 H 
ATOM     50  C   UNL     1     -48.649  25.673  26.568  1.00  0.00     0.012 C 
ATOM     51  H   UNL     1     -50.519  25.864  25.549  1.00  0.00     0.027 H 
ATOM     52  H   UNL     1     -50.105  27.257  26.510  1.00  0.00     0.027 H 
ATOM     53  C   UNL     1     -46.728  26.868  25.394  1.00  0.00     0.012 C 
ATOM     54  H   UNL     1     -47.717  25.692  23.899  1.00  0.00     0.027 H 
ATOM     55  H   UNL     1     -47.293  27.304  23.359  1.00  0.00     0.027 H 
ATOM     56  C   UNL     1     -47.329  26.403  26.714  1.00  0.00     0.248 C 
ATOM     57  H   UNL     1     -49.042  25.416  27.559  1.00  0.00     0.033 H 
ATOM     58  H   UNL     1     -48.490  24.722  26.046  1.00  0.00     0.033 H 
ATOM     59  H   UNL     1     -46.404  27.911  25.491  1.00  0.00     0.033 H 
ATOM     60  H   UNL     1     -45.827  26.285  25.169  1.00  0.00     0.033 H 
ATOM     61  F   UNL     1     -47.512  27.481  27.525  1.00  0.00    -0.207 F 
ATOM     62  F   UNL     1     -46.440  25.602  27.355  1.00  0.00    -0.207 F 
ENDBRANCH  38  46
BRANCH  42  63
ATOM     63  N   UNL     1     -52.012  27.919  23.013  1.00  0.00    -0.383 N 
ATOM     64  H   UNL     1     -51.278  27.226  23.032  1.00  0.00     0.158 HD
ATOM     65  H   UNL     1     -52.503  27.989  22.127  1.00  0.00     0.158 HD
ENDBRANCH  42  63
ENDBRANCH  31  35
ENDBRANCH   1  26
TORSDOF 8
ENDMDL
MODEL 2
REMARK VINA RESULT:     -10.2      4.642     11.730
REMARK SMILES CNc1ccc2ccc(OCc3cncc(-n4cc(C5CCC(F)(F)CC5)c5c(N)ncnc54)c3)cc2n1
REMARK SMILES IDX 11 1 10 4 9 5 3 6 4 7 38 8 5 9 37 11 6 12 36 14 7 15 8 17
REMARK SMILES IDX 2 20 1 22 12 26 13 27 35 28 14 29 16 31 15 33 17 35 18 36
REMARK SMILES IDX 34 37 19 38 28 40 33 41 29 42 32 43 31 44 20 46 21 47 27 48
REMARK SMILES IDX 22 50 26 53 23 56 24 61 25 62 30 63
REMARK H PARENT 11 2 11 3 4 10 5 13 36 16 7 18 8 19 2 21 1 23 1 24 1 25 13 30
REMARK H PARENT 35 32 15 34 18 39 32 45 20 49 21 51 21 52 27 54 27 55 22 57
REMARK H PARENT 22 58 26 59 26 60 30 64 30 65
REMARK Flexibility Score: inf
ROOT
ATOM      1  C   UNL     1     -47.838  35.050  26.848  1.00  0.00     0.115 C 
ATOM      2  H   UNL     1     -48.738  35.047  27.473  1.00  0.00     0.076 H 
ATOM      3  H   UNL     1     -48.188  35.176  25.816  1.00  0.00     0.076 H 
ENDROOT
BRANCH   1   4
ATOM      4  O   UNL     1     -47.219  33.773  27.024  1.00  0.00    -0.489 OA
BRANCH   4   5
ATOM      5  C   UNL     1     -47.362  32.830  26.045  1.00  0.00     0.122 A 
ATOM      6  C   UNL     1     -46.438  30.825  21.828  1.00  0.00     0.126 A 
ATOM      7  C   UNL     1     -47.342  29.796  22.065  1.00  0.00    -0.019 A 
ATOM      8  N   UNL     1     -46.238  31.809  22.728  1.00  0.00    -0.231 NA
ATOM      9  C   UNL     1     -48.041  29.763  23.267  1.00  0.00    -0.049 A 
ATOM     10  H   UNL     1     -47.512  29.030  21.316  1.00  0.00     0.066 H 
ATOM     11  C   UNL     1     -46.910  31.786  23.893  1.00  0.00     0.076 A 
ATOM     12  C   UNL     1     -47.831  30.770  24.211  1.00  0.00     0.001 A 
ATOM     13  H   UNL     1     -48.748  28.960  23.454  1.00  0.00     0.063 H 
ATOM     14  C   UNL     1     -46.691  32.799  24.821  1.00  0.00     0.007 A 
ATOM     15  C   UNL     1     -48.506  30.788  25.440  1.00  0.00    -0.049 A 
ATOM     16  H   UNL     1     -45.965  33.557  24.549  1.00  0.00     0.069 H 
ATOM     17  C   UNL     1     -48.267  31.814  26.351  1.00  0.00    -0.019 A 
ATOM     18  H   UNL     1     -49.218  30.006  25.695  1.00  0.00     0.063 H 
ATOM     19  H   UNL     1     -48.790  31.825  27.304  1.00  0.00     0.066 H 
BRANCH   6  20
ATOM     20  N   UNL     1     -45.767  30.839  20.592  1.00  0.00    -0.373 N 
ATOM     21  H   UNL     1     -44.766  30.866  20.764  1.00  0.00     0.161 HD
BRANCH  20  22
ATOM     22  C   UNL     1     -46.187  31.906  19.698  1.00  0.00     0.005 C 
ATOM     23  H   UNL     1     -45.585  32.811  19.841  1.00  0.00     0.045 H 
ATOM     24  H   UNL     1     -47.225  32.168  19.921  1.00  0.00     0.045 H 
ATOM     25  H   UNL     1     -46.142  31.595  18.648  1.00  0.00     0.045 H 
ENDBRANCH  20  22
ENDBRANCH   6  20
ENDBRANCH   4   5
ENDBRANCH   1   4
BRANCH   1  26
ATOM     26  C   UNL     1     -46.975  36.197  27.308  1.00  0.00     0.010 A 
ATOM     27  C   UNL     1     -45.877  35.962  28.124  1.00  0.00     0.034 A 
ATOM     28  C   UNL     1     -47.205  37.519  26.895  1.00  0.00    -0.028 A 
ATOM     29  N   UNL     1     -45.044  36.927  28.559  1.00  0.00    -0.262 NA
ATOM     30  H   UNL     1     -45.627  34.961  28.467  1.00  0.00     0.084 H 
ATOM     31  C   UNL     1     -46.368  38.554  27.325  1.00  0.00     0.066 A 
ATOM     32  H   UNL     1     -48.064  37.702  26.258  1.00  0.00     0.065 H 
ATOM     33  C   UNL     1     -45.309  38.195  28.156  1.00  0.00     0.051 A 
ATOM     34  H   UNL     1     -44.588  38.908  28.540  1.00  0.00     0.086 H 
BRANCH  31  35
ATOM     35  N   UNL     1     -46.576  39.920  26.944  1.00  0.00    -0.299 N 
ATOM     36  C   UNL     1     -45.632  40.725  26.326  1.00  0.00     0.015 A 
ATOM     37  C   UNL     1     -47.723  40.697  27.109  1.00  0.00     0.150 A 
ATOM     38  C   UNL     1     -46.142  41.989  26.092  1.00  0.00    -0.013 A 
ATOM     39  H   UNL     1     -44.647  40.348  26.097  1.00  0.00     0.083 H 
ATOM     40  C   UNL     1     -47.473  41.981  26.623  1.00  0.00     0.065 A 
ATOM     41  N   UNL     1     -48.896  40.288  27.633  1.00  0.00    -0.218 NA
ATOM     42  C   UNL     1     -48.521  42.914  26.746  1.00  0.00     0.136 A 
ATOM     43  C   UNL     1     -49.821  41.252  27.669  1.00  0.00     0.120 A 
ATOM     44  N   UNL     1     -49.695  42.526  27.270  1.00  0.00    -0.219 NA
ATOM     45  H   UNL     1     -50.787  40.974  28.076  1.00  0.00     0.106 H 
BRANCH  38  46
ATOM     46  C   UNL     1     -45.432  43.147  25.420  1.00  0.00    -0.013 C 
ATOM     47  C   UNL     1     -44.474  42.716  24.285  1.00  0.00    -0.041 C 
ATOM     48  C   UNL     1     -44.748  44.059  26.453  1.00  0.00    -0.041 C 
ATOM     49  H   UNL     1     -46.209  43.747  24.932  1.00  0.00     0.035 H 
ATOM     50  C   UNL     1     -43.030  43.170  24.487  1.00  0.00     0.012 C 
ATOM     51  H   UNL     1     -44.832  43.143  23.338  1.00  0.00     0.027 H 
ATOM     52  H   UNL     1     -44.491  41.631  24.131  1.00  0.00     0.027 H 
ATOM     53  C   UNL     1     -43.421  43.509  26.983  1.00  0.00     0.012 C 
ATOM     54  H   UNL     1     -44.551  45.029  25.978  1.00  0.00     0.027 H 
ATOM     55  H   UNL     1     -45.416  44.268  27.298  1.00  0.00     0.027 H 
ATOM     56  C   UNL     1     -42.549  42.891  25.897  1.00  0.00     0.248 C 
ATOM     57  H   UNL     1     -42.384  42.654  23.767  1.00  0.00     0.033 H 
ATOM     58  H   UNL     1     -42.935  44.241  24.269  1.00  0.00     0.033 H 
ATOM     59  H   UNL     1     -43.623  42.758  27.756  1.00  0.00     0.033 H 
ATOM     60  H   UNL     1     -42.880  44.324  27.478  1.00  0.00     0.033 H 
ATOM     61  F   UNL     1     -42.493  41.545  26.082  1.00  0.00    -0.207 F 
ATOM     62  F   UNL     1     -41.276  43.340  26.036  1.00  0.00    -0.207 F 
ENDBRANCH  38  46
BRANCH  42  63
ATOM     63  N   UNL     1     -48.433  44.253  26.382  1.00  0.00    -0.383 N 
ATOM     64  H   UNL     1     -48.797  44.444  25.460  1.00  0.00     0.158 HD
ATOM     65  H   UNL     1     -47.481  44.571  26.535  1.00  0.00     0.158 HD
ENDBRANCH  42  63
ENDBRANCH  31  35
ENDBRANCH   1  26
TORSDOF 8
ENDMDL
MODEL 3
REMARK VINA RESULT:     -10.1      1.984      2.916
REMARK SMILES CNc1ccc2ccc(OCc3cncc(-n4cc(C5CCC(F)(F)CC5)c5c(N)ncnc54)c3)cc2n1
REMARK SMILES IDX 11 1 10 4 9 5 3 6 4 7 38 8 5 9 37 11 6 12 36 14 7 15 8 17
REMARK SMILES IDX 2 20 1 22 12 26 13 27 35 28 14 29 16 31 15 33 17 35 18 36
REMARK SMILES IDX 34 37 19 38 28 40 33 41 29 42 32 43 31 44 20 46 21 47 27 48
REMARK SMILES IDX 22 50 26 53 23 56 24 61 25 62 30 63
REMARK H PARENT 11 2 11 3 4 10 5 13 36 16 7 18 8 19 2 21 1 23 1 24 1 25 13 30
REMARK H PARENT 35 32 15 34 18 39 32 45 20 49 21 51 21 52 27 54 27 55 22 57
REMARK H PARENT 22 58 26 59 26 60 30 64 30 65
REMARK Flexibility Score: inf
ROOT
ATOM      1  C   UNL     1     -46.064  35.989  27.185  1.00  0.00     0.115 C 
ATOM      2  H   UNL     1     -45.326  35.383  27.722  1.00  0.00     0.076 H 
ATOM      3  H   UNL     1     -45.551  36.368  26.292  1.00  0.00     0.076 H 
ENDROOT
BRANCH   1   4
ATOM      4  O   UNL     1     -46.421  37.062  28.060  1.00  0.00    -0.489 OA
BRANCH   4   5
ATOM      5  C   UNL     1     -45.453  37.947  28.447  1.00  0.00     0.122 A 
ATOM      6  C   UNL     1     -42.678  41.782  27.955  1.00  0.00     0.126 A 
ATOM      7  C   UNL     1     -42.063  41.556  29.181  1.00  0.00    -0.019 A 
ATOM      8  N   UNL     1     -43.634  40.957  27.481  1.00  0.00    -0.231 NA
ATOM      9  C   UNL     1     -42.457  40.466  29.951  1.00  0.00    -0.049 A 
ATOM     10  H   UNL     1     -41.275  42.213  29.531  1.00  0.00     0.066 H 
ATOM     11  C   UNL     1     -44.020  39.901  28.219  1.00  0.00     0.076 A 
ATOM     12  C   UNL     1     -43.456  39.614  29.476  1.00  0.00     0.001 A 
ATOM     13  H   UNL     1     -41.978  40.287  30.909  1.00  0.00     0.063 H 
ATOM     14  C   UNL     1     -45.014  39.061  27.729  1.00  0.00     0.007 A 
ATOM     15  C   UNL     1     -43.894  38.502  30.209  1.00  0.00    -0.049 A 
ATOM     16  H   UNL     1     -45.435  39.320  26.764  1.00  0.00     0.069 H 
ATOM     17  C   UNL     1     -44.890  37.676  29.694  1.00  0.00    -0.019 A 
ATOM     18  H   UNL     1     -43.464  38.273  31.182  1.00  0.00     0.063 H 
ATOM     19  H   UNL     1     -45.230  36.816  30.266  1.00  0.00     0.066 H 
BRANCH   6  20
ATOM     20  N   UNL     1     -42.238  42.879  27.192  1.00  0.00    -0.373 N 
ATOM     21  H   UNL     1     -41.722  43.512  27.796  1.00  0.00     0.161 HD
BRANCH  20  22
ATOM     22  C   UNL     1     -43.297  43.568  26.472  1.00  0.00     0.005 C 
ATOM     23  H   UNL     1     -42.903  44.392  25.868  1.00  0.00     0.045 H 
ATOM     24  H   UNL     1     -43.995  44.000  27.196  1.00  0.00     0.045 H 
ATOM     25  H   UNL     1     -43.865  42.880  25.835  1.00  0.00     0.045 H 
ENDBRANCH  20  22
ENDBRANCH   6  20
ENDBRANCH   4   5
ENDBRANCH   1   4
BRANCH   1  26
ATOM     26  C   UNL     1     -47.224  35.089  26.844  1.00  0.00     0.010 A 
ATOM     27  C   UNL     1     -48.513  35.438  27.224  1.00  0.00     0.034 A 
ATOM     28  C   UNL     1     -47.064  33.913  26.097  1.00  0.00    -0.028 A 
ATOM     29  N   UNL     1     -49.605  34.702  26.939  1.00  0.00    -0.262 NA
ATOM     30  H   UNL     1     -48.715  36.345  27.788  1.00  0.00     0.084 H 
ATOM     31  C   UNL     1     -48.169  33.114  25.781  1.00  0.00     0.066 A 
ATOM     32  H   UNL     1     -46.056  33.640  25.802  1.00  0.00     0.065 H 
ATOM     33  C   UNL     1     -49.409  33.561  26.232  1.00  0.00     0.051 A 
ATOM     34  H   UNL     1     -50.337  33.034  26.037  1.00  0.00     0.086 H 
BRANCH  31  35
ATOM     35  N   UNL     1     -48.050  31.896  25.036  1.00  0.00    -0.299 N 
ATOM     36  C   UNL     1     -48.809  30.756  25.251  1.00  0.00     0.015 A 
ATOM     37  C   UNL     1     -47.181  31.610  23.983  1.00  0.00     0.150 A 
ATOM     38  C   UNL     1     -48.450  29.754  24.368  1.00  0.00    -0.013 A 
ATOM     39  H   UNL     1     -49.556  30.726  26.030  1.00  0.00     0.083 H 
ATOM     40  C   UNL     1     -47.384  30.291  23.575  1.00  0.00     0.065 A 
ATOM     41  N   UNL     1     -46.295  32.460  23.424  1.00  0.00    -0.218 NA
ATOM     42  C   UNL     1     -46.557  29.821  22.536  1.00  0.00     0.136 A 
ATOM     43  C   UNL     1     -45.592  31.909  22.431  1.00  0.00     0.120 A 
ATOM     44  N   UNL     1     -45.666  30.652  21.972  1.00  0.00    -0.219 NA
ATOM     45  H   UNL     1     -44.869  32.553  21.942  1.00  0.00     0.106 H 
BRANCH  38  46
ATOM     46  C   UNL     1     -49.056  28.369  24.269  1.00  0.00    -0.013 C 
ATOM     47  C   UNL     1     -50.124  28.077  25.348  1.00  0.00    -0.041 C 
ATOM     48  C   UNL     1     -47.968  27.284  24.209  1.00  0.00    -0.041 C 
ATOM     49  H   UNL     1     -49.594  28.332  23.313  1.00  0.00     0.035 H 
ATOM     50  C   UNL     1     -49.814  26.857  26.214  1.00  0.00     0.012 C 
ATOM     51  H   UNL     1     -51.090  27.903  24.854  1.00  0.00     0.027 H 
ATOM     52  H   UNL     1     -50.291  28.945  25.999  1.00  0.00     0.027 H 
ATOM     53  C   UNL     1     -47.349  26.953  25.569  1.00  0.00     0.012 C 
ATOM     54  H   UNL     1     -48.417  26.368  23.805  1.00  0.00     0.027 H 
ATOM     55  H   UNL     1     -47.171  27.563  23.508  1.00  0.00     0.027 H 
ATOM     56  C   UNL     1     -48.375  26.864  26.692  1.00  0.00     0.248 C 
ATOM     57  H   UNL     1     -50.490  26.842  27.076  1.00  0.00     0.033 H 
ATOM     58  H   UNL     1     -50.013  25.935  25.653  1.00  0.00     0.033 H 
ATOM     59  H   UNL     1     -46.601  27.713  25.823  1.00  0.00     0.033 H 
ATOM     60  H   UNL     1     -46.808  26.003  25.483  1.00  0.00     0.033 H 
ATOM     61  F   UNL     1     -48.201  27.913  27.540  1.00  0.00    -0.207 F 
ATOM     62  F   UNL     1     -48.140  25.747  27.427  1.00  0.00    -0.207 F 
ENDBRANCH  38  46
BRANCH  42  63
ATOM     63  N   UNL     1     -46.567  28.519  22.046  1.00  0.00    -0.383 N 
ATOM     64  H   UNL     1     -47.380  27.990  22.326  1.00  0.00     0.158 HD
ATOM     65  H   UNL     1     -45.680  28.079  22.271  1.00  0.00     0.158 HD
ENDBRANCH  42  63
ENDBRANCH  31  35
ENDBRANCH   1  26
TORSDOF 8
ENDMDL
MODEL 4
REMARK VINA RESULT:     -10.1      4.577     12.535
REMARK SMILES CNc1ccc2ccc(OCc3cncc(-n4cc(C5CCC(F)(F)CC5)c5c(N)ncnc54)c3)cc2n1
REMARK SMILES IDX 11 1 10 4 9 5 3 6 4 7 38 8 5 9 37 11 6 12 36 14 7 15 8 17
REMARK SMILES IDX 2 20 1 22 12 26 13 27 35 28 14 29 16 31 15 33 17 35 18 36
REMARK SMILES IDX 34 37 19 38 28 40 33 41 29 42 32 43 31 44 20 46 21 47 27 48
REMARK SMILES IDX 22 50 26 53 23 56 24 61 25 62 30 63
REMARK H PARENT 11 2 11 3 4 10 5 13 36 16 7 18 8 19 2 21 1 23 1 24 1 25 13 30
REMARK H PARENT 35 32 15 34 18 39 32 45 20 49 21 51 21 52 27 54 27 55 22 57
REMARK H PARENT 22 58 26 59 26 60 30 64 30 65
REMARK Flexibility Score: inf
ROOT
ATOM      1  C   UNL     1     -47.156  34.951  27.677  1.00  0.00     0.115 C 
ATOM      2  H   UNL     1     -46.242  34.738  27.111  1.00  0.00     0.076 H 
ATOM      3  H   UNL     1     -46.997  34.525  28.676  1.00  0.00     0.076 H 
ENDROOT
BRANCH   1   4
ATOM      4  O   UNL     1     -48.219  34.276  26.999  1.00  0.00    -0.489 OA
BRANCH   4   5
ATOM      5  C   UNL     1     -47.914  33.244  26.157  1.00  0.00     0.122 A 
ATOM      6  C   UNL     1     -48.544  28.950  24.203  1.00  0.00     0.126 A 
ATOM      7  C   UNL     1     -47.433  29.106  23.382  1.00  0.00    -0.019 A 
ATOM      8  N   UNL     1     -48.917  29.907  25.077  1.00  0.00    -0.231 NA
ATOM      9  C   UNL     1     -46.699  30.286  23.444  1.00  0.00    -0.049 A 
ATOM     10  H   UNL     1     -47.132  28.312  22.708  1.00  0.00     0.066 H 
ATOM     11  C   UNL     1     -48.212  31.051  25.144  1.00  0.00     0.076 A 
ATOM     12  C   UNL     1     -47.084  31.289  24.336  1.00  0.00     0.001 A 
ATOM     13  H   UNL     1     -45.831  30.410  22.804  1.00  0.00     0.063 H 
ATOM     14  C   UNL     1     -48.608  32.038  26.040  1.00  0.00     0.007 A 
ATOM     15  C   UNL     1     -46.384  32.499  24.440  1.00  0.00    -0.049 A 
ATOM     16  H   UNL     1     -49.488  31.826  26.636  1.00  0.00     0.069 H 
ATOM     17  C   UNL     1     -46.802  33.470  25.346  1.00  0.00    -0.019 A 
ATOM     18  H   UNL     1     -45.512  32.692  23.818  1.00  0.00     0.063 H 
ATOM     19  H   UNL     1     -46.258  34.409  25.424  1.00  0.00     0.066 H 
BRANCH   6  20
ATOM     20  N   UNL     1     -49.249  27.734  24.131  1.00  0.00    -0.373 N 
ATOM     21  H   UNL     1     -48.991  27.256  23.273  1.00  0.00     0.161 HD
BRANCH  20  22
ATOM     22  C   UNL     1     -50.691  27.873  24.255  1.00  0.00     0.005 C 
ATOM     23  H   UNL     1     -51.212  26.970  23.922  1.00  0.00     0.045 H 
ATOM     24  H   UNL     1     -51.024  28.696  23.616  1.00  0.00     0.045 H 
ATOM     25  H   UNL     1     -50.986  28.112  25.283  1.00  0.00     0.045 H 
ENDBRANCH  20  22
ENDBRANCH   6  20
ENDBRANCH   4   5
ENDBRANCH   1   4
BRANCH   1  26
ATOM     26  C   UNL     1     -47.326  36.447  27.710  1.00  0.00     0.010 A 
ATOM     27  C   UNL     1     -48.590  37.003  27.848  1.00  0.00     0.034 A 
ATOM     28  C   UNL     1     -46.233  37.326  27.658  1.00  0.00    -0.028 A 
ATOM     29  N   UNL     1     -48.826  38.329  27.909  1.00  0.00    -0.262 NA
ATOM     30  H   UNL     1     -49.481  36.383  27.913  1.00  0.00     0.084 H 
ATOM     31  C   UNL     1     -46.430  38.711  27.714  1.00  0.00     0.066 A 
ATOM     32  H   UNL     1     -45.245  36.891  27.549  1.00  0.00     0.065 H 
ATOM     33  C   UNL     1     -47.747  39.148  27.836  1.00  0.00     0.051 A 
ATOM     34  H   UNL     1     -48.021  40.195  27.902  1.00  0.00     0.086 H 
BRANCH  31  35
ATOM     35  N   UNL     1     -45.346  39.645  27.647  1.00  0.00    -0.299 N 
ATOM     36  C   UNL     1     -45.181  40.601  26.656  1.00  0.00     0.015 A 
ATOM     37  C   UNL     1     -44.271  39.784  28.524  1.00  0.00     0.150 A 
ATOM     38  C   UNL     1     -44.035  41.343  26.877  1.00  0.00    -0.013 A 
ATOM     39  H   UNL     1     -45.890  40.688  25.847  1.00  0.00     0.083 H 
ATOM     40  C   UNL     1     -43.434  40.798  28.058  1.00  0.00     0.065 A 
ATOM     41  N   UNL     1     -44.064  39.076  29.654  1.00  0.00    -0.218 NA
ATOM     42  C   UNL     1     -42.270  41.049  28.811  1.00  0.00     0.136 A 
ATOM     43  C   UNL     1     -42.946  39.424  30.296  1.00  0.00     0.120 A 
ATOM     44  N   UNL     1     -42.046  40.350  29.936  1.00  0.00    -0.219 NA
ATOM     45  H   UNL     1     -42.735  38.889  31.216  1.00  0.00     0.106 H 
BRANCH  38  46
ATOM     46  C   UNL     1     -43.519  42.491  26.033  1.00  0.00    -0.013 C 
ATOM     47  C   UNL     1     -43.447  43.838  26.789  1.00  0.00    -0.041 C 
ATOM     48  C   UNL     1     -44.290  42.601  24.707  1.00  0.00    -0.041 C 
ATOM     49  H   UNL     1     -42.481  42.247  25.777  1.00  0.00     0.035 H 
ATOM     50  C   UNL     1     -44.258  44.958  26.139  1.00  0.00     0.012 C 
ATOM     51  H   UNL     1     -42.399  44.164  26.835  1.00  0.00     0.027 H 
ATOM     52  H   UNL     1     -43.758  43.732  27.836  1.00  0.00     0.027 H 
ATOM     53  C   UNL     1     -45.659  43.271  24.840  1.00  0.00     0.012 C 
ATOM     54  H   UNL     1     -43.686  43.193  24.006  1.00  0.00     0.027 H 
ATOM     55  H   UNL     1     -44.413  41.616  24.239  1.00  0.00     0.027 H 
ATOM     56  C   UNL     1     -45.647  44.490  25.754  1.00  0.00     0.248 C 
ATOM     57  H   UNL     1     -44.332  45.802  26.834  1.00  0.00     0.033 H 
ATOM     58  H   UNL     1     -43.736  45.337  25.252  1.00  0.00     0.033 H 
ATOM     59  H   UNL     1     -46.385  42.542  25.219  1.00  0.00     0.033 H 
ATOM     60  H   UNL     1     -46.005  43.558  23.840  1.00  0.00     0.033 H 
ATOM     61  F   UNL     1     -46.343  44.204  26.887  1.00  0.00    -0.207 F 
ATOM     62  F   UNL     1     -46.314  45.508  25.153  1.00  0.00    -0.207 F 
ENDBRANCH  38  46
BRANCH  42  63
ATOM     63  N   UNL     1     -41.288  41.970  28.464  1.00  0.00    -0.383 N 
ATOM     64  H   UNL     1     -41.530  42.534  27.662  1.00  0.00     0.158 HD
ATOM     65  H   UNL     1     -40.399  41.486  28.386  1.00  0.00     0.158 HD
ENDBRANCH  42  63
ENDBRANCH  31  35
ENDBRANCH   1  26
TORSDOF 8
ENDMDL
MODEL 5
REMARK VINA RESULT:      -9.9      4.252     12.005
REMARK SMILES CNc1ccc2ccc(OCc3cncc(-n4cc(C5CCC(F)(F)CC5)c5c(N)ncnc54)c3)cc2n1
REMARK SMILES IDX 11 1 10 4 9 5 3 6 4 7 38 8 5 9 37 11 6 12 36 14 7 15 8 17
REMARK SMILES IDX 2 20 1 22 12 26 13 27 35 28 14 29 16 31 15 33 17 35 18 36
REMARK SMILES IDX 34 37 19 38 28 40 33 41 29 42 32 43 31 44 20 46 21 47 27 48
REMARK SMILES IDX 22 50 26 53 23 56 24 61 25 62 30 63
REMARK H PARENT 11 2 11 3 4 10 5 13 36 16 7 18 8 19 2 21 1 23 1 24 1 25 13 30
REMARK H PARENT 35 32 15 34 18 39 32 45 20 49 21 51 21 52 27 54 27 55 22 57
REMARK H PARENT 22 58 26 59 26 60 30 64 30 65
REMARK Flexibility Score: inf
ROOT
ATOM      1  C   UNL     1     -47.910  34.854  26.580  1.00  0.00     0.115 C 
ATOM      2  H   UNL     1     -48.918  34.979  26.992  1.00  0.00     0.076 H 
ATOM      3  H   UNL     1     -48.021  34.911  25.490  1.00  0.00     0.076 H 
ENDROOT
BRANCH   1   4
ATOM      4  O   UNL     1     -47.468  33.553  26.978  1.00  0.00    -0.489 OA
BRANCH   4   5
ATOM      5  C   UNL     1     -47.466  32.546  26.054  1.00  0.00     0.122 A 
ATOM      6  C   UNL     1     -48.972  28.460  24.131  1.00  0.00     0.126 A 
ATOM      7  C   UNL     1     -48.049  28.550  23.097  1.00  0.00    -0.019 A 
ATOM      8  N   UNL     1     -49.042  29.398  25.098  1.00  0.00    -0.231 NA
ATOM      9  C   UNL     1     -47.190  29.643  23.040  1.00  0.00    -0.049 A 
ATOM     10  H   UNL     1     -47.987  27.771  22.345  1.00  0.00     0.066 H 
ATOM     11  C   UNL     1     -48.215  30.458  25.052  1.00  0.00     0.076 A 
ATOM     12  C   UNL     1     -47.264  30.626  24.029  1.00  0.00     0.001 A 
ATOM     13  H   UNL     1     -46.468  29.715  22.232  1.00  0.00     0.063 H 
ATOM     14  C   UNL     1     -48.300  31.426  26.047  1.00  0.00     0.007 A 
ATOM     15  C   UNL     1     -46.425  31.750  24.022  1.00  0.00    -0.049 A 
ATOM     16  H   UNL     1     -49.053  31.271  26.812  1.00  0.00     0.069 H 
ATOM     17  C   UNL     1     -46.531  32.704  25.031  1.00  0.00    -0.019 A 
ATOM     18  H   UNL     1     -45.688  31.889  23.234  1.00  0.00     0.063 H 
ATOM     19  H   UNL     1     -45.881  33.576  25.023  1.00  0.00     0.066 H 
BRANCH   6  20
ATOM     20  N   UNL     1     -49.808  27.329  24.170  1.00  0.00    -0.373 N 
ATOM     21  H   UNL     1     -50.774  27.638  24.227  1.00  0.00     0.161 HD
BRANCH  20  22
ATOM     22  C   UNL     1     -49.484  26.385  25.227  1.00  0.00     0.005 C 
ATOM     23  H   UNL     1     -49.172  26.897  26.143  1.00  0.00     0.045 H 
ATOM     24  H   UNL     1     -48.645  25.762  24.901  1.00  0.00     0.045 H 
ATOM     25  H   UNL     1     -50.326  25.718  25.445  1.00  0.00     0.045 H 
ENDBRANCH  20  22
ENDBRANCH   6  20
ENDBRANCH   4   5
ENDBRANCH   1   4
BRANCH   1  26
ATOM     26  C   UNL     1     -47.057  35.966  27.133  1.00  0.00     0.010 A 
ATOM     27  C   UNL     1     -45.990  35.676  27.973  1.00  0.00     0.034 A 
ATOM     28  C   UNL     1     -47.262  37.310  26.786  1.00  0.00    -0.028 A 
ATOM     29  N   UNL     1     -45.166  36.608  28.491  1.00  0.00    -0.262 NA
ATOM     30  H   UNL     1     -45.760  34.656  28.269  1.00  0.00     0.084 H 
ATOM     31  C   UNL     1     -46.434  38.313  27.302  1.00  0.00     0.066 A 
ATOM     32  H   UNL     1     -48.096  37.535  26.130  1.00  0.00     0.065 H 
ATOM     33  C   UNL     1     -45.408  37.899  28.149  1.00  0.00     0.051 A 
ATOM     34  H   UNL     1     -44.696  38.583  28.598  1.00  0.00     0.086 H 
BRANCH  31  35
ATOM     35  N   UNL     1     -46.618  39.699  26.989  1.00  0.00    -0.299 N 
ATOM     36  C   UNL     1     -45.669  40.511  26.388  1.00  0.00     0.015 A 
ATOM     37  C   UNL     1     -47.743  40.492  27.216  1.00  0.00     0.150 A 
ATOM     38  C   UNL     1     -46.155  41.796  26.225  1.00  0.00    -0.013 A 
ATOM     39  H   UNL     1     -44.698  40.123  26.119  1.00  0.00     0.083 H 
ATOM     40  C   UNL     1     -47.474  41.792  26.786  1.00  0.00     0.065 A 
ATOM     41  N   UNL     1     -48.914  40.085  27.748  1.00  0.00    -0.218 NA
ATOM     42  C   UNL     1     -48.497  42.741  26.975  1.00  0.00     0.136 A 
ATOM     43  C   UNL     1     -49.815  41.067  27.849  1.00  0.00     0.120 A 
ATOM     44  N   UNL     1     -49.669  42.355  27.508  1.00  0.00    -0.219 NA
ATOM     45  H   UNL     1     -50.779  40.791  28.265  1.00  0.00     0.106 H 
BRANCH  38  46
ATOM     46  C   UNL     1     -45.433  42.968  25.592  1.00  0.00    -0.013 C 
ATOM     47  C   UNL     1     -44.476  42.565  24.447  1.00  0.00    -0.041 C 
ATOM     48  C   UNL     1     -44.745  43.841  26.655  1.00  0.00    -0.041 C 
ATOM     49  H   UNL     1     -46.203  43.590  25.120  1.00  0.00     0.035 H 
ATOM     50  C   UNL     1     -43.028  43.000  24.667  1.00  0.00     0.012 C 
ATOM     51  H   UNL     1     -44.827  43.024  23.513  1.00  0.00     0.027 H 
ATOM     52  H   UNL     1     -44.501  41.485  24.258  1.00  0.00     0.027 H 
ATOM     53  C   UNL     1     -43.425  43.264  27.171  1.00  0.00     0.012 C 
ATOM     54  H   UNL     1     -44.538  44.824  26.211  1.00  0.00     0.027 H 
ATOM     55  H   UNL     1     -45.414  44.029  27.504  1.00  0.00     0.027 H 
ATOM     56  C   UNL     1     -42.554  42.673  26.069  1.00  0.00     0.248 C 
ATOM     57  H   UNL     1     -42.384  42.501  23.933  1.00  0.00     0.033 H 
ATOM     58  H   UNL     1     -42.924  44.076  24.483  1.00  0.00     0.033 H 
ATOM     59  H   UNL     1     -43.635  42.490  27.919  1.00  0.00     0.033 H 
ATOM     60  H   UNL     1     -42.878  44.058  27.693  1.00  0.00     0.033 H 
ATOM     61  F   UNL     1     -42.510  41.321  26.212  1.00  0.00    -0.207 F 
ATOM     62  F   UNL     1     -41.277  43.107  26.225  1.00  0.00    -0.207 F 
ENDBRANCH  38  46
BRANCH  42  63
ATOM     63  N   UNL     1     -48.387  44.094  26.673  1.00  0.00    -0.383 N 
ATOM     64  H   UNL     1     -47.771  44.596  27.296  1.00  0.00     0.158 HD
ATOM     65  H   UNL     1     -49.319  44.488  26.592  1.00  0.00     0.158 HD
ENDBRANCH  42  63
ENDBRANCH  31  35
ENDBRANCH   1  26
TORSDOF 8
ENDMDL
MODEL 6
REMARK VINA RESULT:      -9.7      1.717      2.262
REMARK SMILES CNc1ccc2ccc(OCc3cncc(-n4cc(C5CCC(F)(F)CC5)c5c(N)ncnc54)c3)cc2n1
REMARK SMILES IDX 11 1 10 4 9 5 3 6 4 7 38 8 5 9 37 11 6 12 36 14 7 15 8 17
REMARK SMILES IDX 2 20 1 22 12 26 13 27 35 28 14 29 16 31 15 33 17 35 18 36
REMARK SMILES IDX 34 37 19 38 28 40 33 41 29 42 32 43 31 44 20 46 21 47 27 48
REMARK SMILES IDX 22 50 26 53 23 56 24 61 25 62 30 63
REMARK H PARENT 11 2 11 3 4 10 5 13 36 16 7 18 8 19 2 21 1 23 1 24 1 25 13 30
REMARK H PARENT 35 32 15 34 18 39 32 45 20 49 21 51 21 52 27 54 27 55 22 57
REMARK H PARENT 22 58 26 59 26 60 30 64 30 65
REMARK Flexibility Score: inf
ROOT
ATOM      1  C   UNL     1     -46.084  34.310  27.131  1.00  0.00     0.115 C 
ATOM      2  H   UNL     1     -45.504  33.509  27.604  1.00  0.00     0.076 H 
ATOM      3  H   UNL     1     -45.470  34.675  26.299  1.00  0.00     0.076 H 
ENDROOT
BRANCH   1   4
ATOM      4  O   UNL     1     -46.254  35.326  28.122  1.00  0.00    -0.489 OA
BRANCH   4   5
ATOM      5  C   UNL     1     -45.997  36.626  27.785  1.00  0.00     0.122 A 
ATOM      6  C   UNL     1     -43.732  40.798  28.131  1.00  0.00     0.126 A 
ATOM      7  C   UNL     1     -44.498  41.354  27.114  1.00  0.00    -0.019 A 
ATOM      8  N   UNL     1     -43.920  39.528  28.544  1.00  0.00    -0.231 NA
ATOM      9  C   UNL     1     -45.468  40.578  26.487  1.00  0.00    -0.049 A 
ATOM     10  H   UNL     1     -44.352  42.387  26.817  1.00  0.00     0.066 H 
ATOM     11  C   UNL     1     -44.856  38.771  27.944  1.00  0.00     0.076 A 
ATOM     12  C   UNL     1     -45.661  39.258  26.897  1.00  0.00     0.001 A 
ATOM     13  H   UNL     1     -46.067  41.011  25.691  1.00  0.00     0.063 H 
ATOM     14  C   UNL     1     -45.039  37.458  28.367  1.00  0.00     0.007 A 
ATOM     15  C   UNL     1     -46.623  38.429  26.301  1.00  0.00    -0.049 A 
ATOM     16  H   UNL     1     -44.392  37.113  29.166  1.00  0.00     0.069 H 
ATOM     17  C   UNL     1     -46.784  37.119  26.745  1.00  0.00    -0.019 A 
ATOM     18  H   UNL     1     -47.248  38.796  25.490  1.00  0.00     0.063 H 
ATOM     19  H   UNL     1     -47.529  36.477  26.280  1.00  0.00     0.066 H 
BRANCH   6  20
ATOM     20  N   UNL     1     -42.777  41.619  28.759  1.00  0.00    -0.373 N 
ATOM     21  H   UNL     1     -43.049  42.590  28.638  1.00  0.00     0.161 HD
BRANCH  20  22
ATOM     22  C   UNL     1     -41.410  41.386  28.320  1.00  0.00     0.005 C 
ATOM     23  H   UNL     1     -41.163  40.319  28.322  1.00  0.00     0.045 H 
ATOM     24  H   UNL     1     -40.725  41.880  29.015  1.00  0.00     0.045 H 
ATOM     25  H   UNL     1     -41.230  41.805  27.323  1.00  0.00     0.045 H 
ENDBRANCH  20  22
ENDBRANCH   6  20
ENDBRANCH   4   5
ENDBRANCH   1   4
BRANCH   1  26
ATOM     26  C   UNL     1     -47.385  33.709  26.666  1.00  0.00     0.010 A 
ATOM     27  C   UNL     1     -48.581  34.378  26.888  1.00  0.00     0.034 A 
ATOM     28  C   UNL     1     -47.440  32.500  25.956  1.00  0.00    -0.028 A 
ATOM     29  N   UNL     1     -49.784  33.921  26.485  1.00  0.00    -0.262 NA
ATOM     30  H   UNL     1     -48.614  35.328  27.415  1.00  0.00     0.084 H 
ATOM     31  C   UNL     1     -48.666  31.985  25.521  1.00  0.00     0.066 A 
ATOM     32  H   UNL     1     -46.505  31.978  25.784  1.00  0.00     0.065 H 
ATOM     33  C   UNL     1     -49.799  32.739  25.818  1.00  0.00     0.051 A 
ATOM     34  H   UNL     1     -50.801  32.448  25.521  1.00  0.00     0.086 H 
BRANCH  31  35
ATOM     35  N   UNL     1     -48.771  30.746  24.809  1.00  0.00    -0.299 N 
ATOM     36  C   UNL     1     -48.693  29.488  25.386  1.00  0.00     0.015 A 
ATOM     37  C   UNL     1     -48.963  30.551  23.441  1.00  0.00     0.150 A 
ATOM     38  C   UNL     1     -48.830  28.499  24.429  1.00  0.00    -0.013 A 
ATOM     39  H   UNL     1     -48.536  29.375  26.448  1.00  0.00     0.083 H 
ATOM     40  C   UNL     1     -48.971  29.181  23.176  1.00  0.00     0.065 A 
ATOM     41  N   UNL     1     -49.133  31.514  22.512  1.00  0.00    -0.218 NA
ATOM     42  C   UNL     1     -49.120  28.802  21.828  1.00  0.00     0.136 A 
ATOM     43  C   UNL     1     -49.294  31.031  21.277  1.00  0.00     0.120 A 
ATOM     44  N   UNL     1     -49.285  29.748  20.889  1.00  0.00    -0.219 NA
ATOM     45  H   UNL     1     -49.441  31.765  20.491  1.00  0.00     0.106 H 
BRANCH  38  46
ATOM     46  C   UNL     1     -48.821  27.002  24.661  1.00  0.00    -0.013 C 
ATOM     47  C   UNL     1     -49.375  26.582  26.042  1.00  0.00    -0.041 C 
ATOM     48  C   UNL     1     -47.435  26.400  24.374  1.00  0.00    -0.041 C 
ATOM     49  H   UNL     1     -49.513  26.570  23.928  1.00  0.00     0.035 H 
ATOM     50  C   UNL     1     -48.390  25.772  26.884  1.00  0.00     0.012 C 
ATOM     51  H   UNL     1     -50.274  25.968  25.892  1.00  0.00     0.027 H 
ATOM     52  H   UNL     1     -49.716  27.448  26.622  1.00  0.00     0.027 H 
ATOM     53  C   UNL     1     -46.422  26.614  25.501  1.00  0.00     0.012 C 
ATOM     54  H   UNL     1     -47.555  25.319  24.222  1.00  0.00     0.027 H 
ATOM     55  H   UNL     1     -47.021  26.791  23.437  1.00  0.00     0.027 H 
ATOM     56  C   UNL     1     -47.011  26.402  26.889  1.00  0.00     0.248 C 
ATOM     57  H   UNL     1     -48.767  25.698  27.911  1.00  0.00     0.033 H 
ATOM     58  H   UNL     1     -48.326  24.744  26.508  1.00  0.00     0.033 H 
ATOM     59  H   UNL     1     -46.012  27.628  25.433  1.00  0.00     0.033 H 
ATOM     60  H   UNL     1     -45.579  25.930  25.345  1.00  0.00     0.033 H 
ATOM     61  F   UNL     1     -47.079  27.598  27.533  1.00  0.00    -0.207 F 
ATOM     62  F   UNL     1     -46.168  25.631  27.622  1.00  0.00    -0.207 F 
ENDBRANCH  38  46
BRANCH  42  63
ATOM     63  N   UNL     1     -49.082  27.491  21.367  1.00  0.00    -0.383 N 
ATOM     64  H   UNL     1     -48.343  26.940  21.779  1.00  0.00     0.158 HD
ATOM     65  H   UNL     1     -49.084  27.502  20.351  1.00  0.00     0.158 HD
ENDBRANCH  42  63
ENDBRANCH  31  35
ENDBRANCH   1  26
TORSDOF 8
ENDMDL
MODEL 7
REMARK VINA RESULT:      -9.3      4.081     12.092
REMARK SMILES CNc1ccc2ccc(OCc3cncc(-n4cc(C5CCC(F)(F)CC5)c5c(N)ncnc54)c3)cc2n1
REMARK SMILES IDX 11 1 10 4 9 5 3 6 4 7 38 8 5 9 37 11 6 12 36 14 7 15 8 17
REMARK SMILES IDX 2 20 1 22 12 26 13 27 35 28 14 29 16 31 15 33 17 35 18 36
REMARK SMILES IDX 34 37 19 38 28 40 33 41 29 42 32 43 31 44 20 46 21 47 27 48
REMARK SMILES IDX 22 50 26 53 23 56 24 61 25 62 30 63
REMARK H PARENT 11 2 11 3 4 10 5 13 36 16 7 18 8 19 2 21 1 23 1 24 1 25 13 30
REMARK H PARENT 35 32 15 34 18 39 32 45 20 49 21 51 21 52 27 54 27 55 22 57
REMARK H PARENT 22 58 26 59 26 60 30 64 30 65
REMARK Flexibility Score: inf
ROOT
ATOM      1  C   UNL     1     -46.930  35.622  27.079  1.00  0.00     0.115 C 
ATOM      2  H   UNL     1     -46.422  35.629  26.108  1.00  0.00     0.076 H 
ATOM      3  H   UNL     1     -46.163  35.362  27.818  1.00  0.00     0.076 H 
ENDROOT
BRANCH   1   4
ATOM      4  O   UNL     1     -47.932  34.604  27.004  1.00  0.00    -0.489 OA
BRANCH   4   5
ATOM      5  C   UNL     1     -47.731  33.542  26.167  1.00  0.00     0.122 A 
ATOM      6  C   UNL     1     -48.848  29.380  24.146  1.00  0.00     0.126 A 
ATOM      7  C   UNL     1     -47.690  29.387  23.377  1.00  0.00    -0.019 A 
ATOM      8  N   UNL     1     -49.127  30.376  25.012  1.00  0.00    -0.231 NA
ATOM      9  C   UNL     1     -46.807  30.456  23.482  1.00  0.00    -0.049 A 
ATOM     10  H   UNL     1     -47.469  28.562  22.709  1.00  0.00     0.066 H 
ATOM     11  C   UNL     1     -48.278  31.413  25.121  1.00  0.00     0.076 A 
ATOM     12  C   UNL     1     -47.093  31.499  24.366  1.00  0.00     0.001 A 
ATOM     13  H   UNL     1     -45.902  30.464  22.882  1.00  0.00     0.063 H 
ATOM     14  C   UNL     1     -48.576  32.442  26.008  1.00  0.00     0.007 A 
ATOM     15  C   UNL     1     -46.240  32.603  24.512  1.00  0.00    -0.049 A 
ATOM     16  H   UNL     1     -49.503  32.349  26.563  1.00  0.00     0.069 H 
ATOM     17  C   UNL     1     -46.563  33.619  25.408  1.00  0.00    -0.019 A 
ATOM     18  H   UNL     1     -45.323  32.678  23.931  1.00  0.00     0.063 H 
ATOM     19  H   UNL     1     -45.902  34.474  25.519  1.00  0.00     0.066 H 
BRANCH   6  20
ATOM     20  N   UNL     1     -49.707  28.271  24.032  1.00  0.00    -0.373 N 
ATOM     21  H   UNL     1     -49.530  27.639  24.807  1.00  0.00     0.161 HD
BRANCH  20  22
ATOM     22  C   UNL     1     -49.629  27.587  22.751  1.00  0.00     0.005 C 
ATOM     23  H   UNL     1     -49.614  26.499  22.877  1.00  0.00     0.045 H 
ATOM     24  H   UNL     1     -48.696  27.869  22.254  1.00  0.00     0.045 H 
ATOM     25  H   UNL     1     -50.456  27.871  22.090  1.00  0.00     0.045 H 
ENDBRANCH  20  22
ENDBRANCH   6  20
ENDBRANCH   4   5
ENDBRANCH   1   4
BRANCH   1  26
ATOM     26  C   UNL     1     -47.499  37.000  27.299  1.00  0.00     0.010 A 
ATOM     27  C   UNL     1     -48.725  37.156  27.931  1.00  0.00     0.034 A 
ATOM     28  C   UNL     1     -46.804  38.163  26.934  1.00  0.00    -0.028 A 
ATOM     29  N   UNL     1     -49.292  38.352  28.186  1.00  0.00    -0.262 NA
ATOM     30  H   UNL     1     -49.311  36.301  28.258  1.00  0.00     0.084 H 
ATOM     31  C   UNL     1     -47.356  39.427  27.176  1.00  0.00     0.066 A 
ATOM     32  H   UNL     1     -45.846  38.040  26.440  1.00  0.00     0.065 H 
ATOM     33  C   UNL     1     -48.601  39.454  27.800  1.00  0.00     0.051 A 
ATOM     34  H   UNL     1     -49.120  40.373  28.051  1.00  0.00     0.086 H 
BRANCH  31  35
ATOM     35  N   UNL     1     -46.691  40.640  26.804  1.00  0.00    -0.299 N 
ATOM     36  C   UNL     1     -45.316  40.821  26.789  1.00  0.00     0.015 A 
ATOM     37  C   UNL     1     -47.260  41.847  26.398  1.00  0.00     0.150 A 
ATOM     38  C   UNL     1     -44.994  42.104  26.385  1.00  0.00    -0.013 A 
ATOM     39  H   UNL     1     -44.649  40.022  27.075  1.00  0.00     0.083 H 
ATOM     40  C   UNL     1     -46.242  42.772  26.165  1.00  0.00     0.065 A 
ATOM     41  N   UNL     1     -48.576  42.094  26.234  1.00  0.00    -0.218 NA
ATOM     42  C   UNL     1     -46.645  44.066  25.780  1.00  0.00     0.136 A 
ATOM     43  C   UNL     1     -48.831  43.345  25.838  1.00  0.00     0.120 A 
ATOM     44  N   UNL     1     -47.951  44.332  25.617  1.00  0.00    -0.219 NA
ATOM     45  H   UNL     1     -49.876  43.595  25.684  1.00  0.00     0.106 H 
BRANCH  38  46
ATOM     46  C   UNL     1     -43.604  42.683  26.221  1.00  0.00    -0.013 C 
ATOM     47  C   UNL     1     -42.513  41.620  25.956  1.00  0.00    -0.041 C 
ATOM     48  C   UNL     1     -43.245  43.617  27.389  1.00  0.00    -0.041 C 
ATOM     49  H   UNL     1     -43.630  43.302  25.316  1.00  0.00     0.035 H 
ATOM     50  C   UNL     1     -41.377  41.629  26.978  1.00  0.00     0.012 C 
ATOM     51  H   UNL     1     -42.075  41.800  24.965  1.00  0.00     0.027 H 
ATOM     52  H   UNL     1     -42.936  40.610  25.900  1.00  0.00     0.027 H 
ATOM     53  C   UNL     1     -42.824  42.881  28.663  1.00  0.00     0.012 C 
ATOM     54  H   UNL     1     -42.412  44.258  27.073  1.00  0.00     0.027 H 
ATOM     55  H   UNL     1     -44.075  44.295  27.621  1.00  0.00     0.027 H 
ATOM     56  C   UNL     1     -41.905  41.696  28.398  1.00  0.00     0.248 C 
ATOM     57  H   UNL     1     -40.768  40.727  26.852  1.00  0.00     0.033 H 
ATOM     58  H   UNL     1     -40.708  42.479  26.792  1.00  0.00     0.033 H 
ATOM     59  H   UNL     1     -43.718  42.534  29.194  1.00  0.00     0.033 H 
ATOM     60  H   UNL     1     -42.327  43.596  29.329  1.00  0.00     0.033 H 
ATOM     61  F   UNL     1     -42.574  40.543  28.670  1.00  0.00    -0.207 F 
ATOM     62  F   UNL     1     -40.861  41.734  29.264  1.00  0.00    -0.207 F 
ENDBRANCH  38  46
BRANCH  42  63
ATOM     63  N   UNL     1     -45.779  45.134  25.572  1.00  0.00    -0.383 N 
ATOM     64  H   UNL     1     -44.912  45.054  26.084  1.00  0.00     0.158 HD
ATOM     65  H   UNL     1     -46.285  46.000  25.732  1.00  0.00     0.158 HD
ENDBRANCH  42  63
ENDBRANCH  31  35
ENDBRANCH   1  26
TORSDOF 8
ENDMDL
