MODEL 1
REMARK VINA RESULT:     -10.1      0.000      0.000
REMARK SMILES CNc1ccc2ccc(OC[C@H]3O[C@@H](n4cc(-c5ccn(C6CCC6)n5)c5c(N)ncnc54)[C@H](O)[C@@H]3O)cc2n1
REMARK SMILES IDX 11 1 10 4 9 5 3 6 4 7 40 8 5 9 39 11 6 12 38 14 7 15 8 17
REMARK SMILES IDX 2 20 1 22 12 26 13 27 36 28 14 30 34 31 37 35 15 37 16 38
REMARK SMILES IDX 33 39 17 40 27 42 32 43 28 44 31 45 30 46 18 48 19 49 26 50
REMARK SMILES IDX 20 51 21 53 22 55 23 56 25 57 24 59 29 66 35 69
REMARK H PARENT 11 2 11 3 4 10 5 13 38 16 7 18 8 19 2 21 1 23 1 24 1 25 12 29
REMARK H PARENT 36 32 14 33 34 34 37 36 16 41 31 47 19 52 20 54 22 58 23 60
REMARK H PARENT 23 61 25 62 25 63 24 64 24 65 29 67 29 68 35 70
REMARK Flexibility Score: inf
ROOT
ATOM      1  C   UNL     1     -46.583  36.649  26.942  1.00  0.00     0.117 C 
ATOM      2  H   UNL     1     -46.103  36.223  26.052  1.00  0.00     0.073 H 
ATOM      3  H   UNL     1     -46.560  37.742  26.881  1.00  0.00     0.073 H 
ENDROOT
BRANCH   1   4
ATOM      4  O   UNL     1     -47.950  36.227  27.029  1.00  0.00    -0.491 OA
BRANCH   4   5
ATOM      5  C   UNL     1     -48.211  34.979  26.532  1.00  0.00     0.121 A 
ATOM      6  C   UNL     1     -46.445  31.438  23.886  1.00  0.00     0.126 A 
ATOM      7  C   UNL     1     -47.601  30.682  24.048  1.00  0.00    -0.019 A 
ATOM      8  N   UNL     1     -46.308  32.650  24.460  1.00  0.00    -0.231 NA
ATOM      9  C   UNL     1     -48.651  31.192  24.804  1.00  0.00    -0.049 A 
ATOM     10  H   UNL     1     -47.680  29.695  23.603  1.00  0.00     0.066 H 
ATOM     11  C   UNL     1     -47.318  33.149  25.197  1.00  0.00     0.076 A 
ATOM     12  C   UNL     1     -48.524  32.451  25.397  1.00  0.00     0.001 A 
ATOM     13  H   UNL     1     -49.554  30.601  24.933  1.00  0.00     0.063 H 
ATOM     14  C   UNL     1     -47.184  34.400  25.782  1.00  0.00     0.007 A 
ATOM     15  C   UNL     1     -49.550  33.011  26.177  1.00  0.00    -0.049 A 
ATOM     16  H   UNL     1     -46.256  34.950  25.636  1.00  0.00     0.069 H 
ATOM     17  C   UNL     1     -49.390  34.272  26.750  1.00  0.00    -0.019 A 
ATOM     18  H   UNL     1     -50.475  32.465  26.345  1.00  0.00     0.063 H 
ATOM     19  H   UNL     1     -50.186  34.675  27.366  1.00  0.00     0.066 H 
BRANCH   6  20
ATOM     20  N   UNL     1     -45.393  30.878  23.139  1.00  0.00    -0.373 N 
ATOM     21  H   UNL     1     -45.134  29.982  23.540  1.00  0.00     0.161 HD
BRANCH  20  22
ATOM     22  C   UNL     1     -45.659  30.782  21.713  1.00  0.00     0.005 C 
ATOM     23  H   UNL     1     -46.126  31.695  21.328  1.00  0.00     0.045 H 
ATOM     24  H   UNL     1     -44.710  30.654  21.183  1.00  0.00     0.045 H 
ATOM     25  H   UNL     1     -46.288  29.917  21.478  1.00  0.00     0.045 H 
ENDBRANCH  20  22
ENDBRANCH   6  20
ENDBRANCH   4   5
ENDBRANCH   1   4
BRANCH   1  26
ATOM     26  C   UNL     1     -45.838  36.171  28.201  1.00  0.00     0.123 C 
ATOM     27  O   UNL     1     -44.587  36.894  28.310  1.00  0.00    -0.345 OA
ATOM     28  C   UNL     1     -46.604  36.491  29.480  1.00  0.00     0.114 C 
ATOM     29  H   UNL     1     -45.587  35.108  28.116  1.00  0.00     0.067 H 
ATOM     30  C   UNL     1     -44.752  37.969  29.260  1.00  0.00     0.164 C 
ATOM     31  C   UNL     1     -46.208  37.932  29.746  1.00  0.00     0.128 C 
ATOM     32  H   UNL     1     -47.685  36.347  29.400  1.00  0.00     0.066 H 
ATOM     33  H   UNL     1     -44.030  37.829  30.072  1.00  0.00     0.088 H 
ATOM     34  H   UNL     1     -46.847  38.607  29.166  1.00  0.00     0.068 H 
BRANCH  28  35
ATOM     35  O   UNL     1     -46.143  35.665  30.557  1.00  0.00    -0.387 OA
ATOM     36  H   UNL     1     -45.268  36.030  30.806  1.00  0.00     0.211 HD
ENDBRANCH  28  35
BRANCH  30  37
ATOM     37  N   UNL     1     -44.418  39.238  28.614  1.00  0.00    -0.303 N 
ATOM     38  C   UNL     1     -45.079  39.824  27.565  1.00  0.00     0.019 A 
ATOM     39  C   UNL     1     -43.386  40.054  29.013  1.00  0.00     0.148 A 
ATOM     40  C   UNL     1     -44.499  41.054  27.319  1.00  0.00     0.033 A 
ATOM     41  H   UNL     1     -45.925  39.335  27.097  1.00  0.00     0.083 H 
ATOM     42  C   UNL     1     -43.397  41.197  28.219  1.00  0.00     0.071 A 
ATOM     43  N   UNL     1     -42.538  39.780  30.024  1.00  0.00    -0.218 NA
ATOM     44  C   UNL     1     -42.394  42.145  28.487  1.00  0.00     0.137 A 
ATOM     45  C   UNL     1     -41.636  40.766  30.184  1.00  0.00     0.120 A 
ATOM     46  N   UNL     1     -41.527  41.912  29.495  1.00  0.00    -0.219 NA
ATOM     47  H   UNL     1     -40.903  40.620  30.974  1.00  0.00     0.106 H 
BRANCH  40  48
ATOM     48  C   UNL     1     -44.955  42.032  26.329  1.00  0.00     0.095 A 
ATOM     49  C   UNL     1     -44.463  42.118  25.007  1.00  0.00    -0.016 A 
ATOM     50  N   UNL     1     -45.921  42.933  26.561  1.00  0.00    -0.173 NA
ATOM     51  C   UNL     1     -45.179  43.139  24.428  1.00  0.00     0.026 A 
ATOM     52  H   UNL     1     -43.691  41.525  24.536  1.00  0.00     0.066 H 
ATOM     53  N   UNL     1     -46.061  43.561  25.380  1.00  0.00    -0.269 N 
ATOM     54  H   UNL     1     -45.148  43.570  23.439  1.00  0.00     0.084 H 
BRANCH  53  55
ATOM     55  C   UNL     1     -47.005  44.674  25.171  1.00  0.00     0.052 C 
ATOM     56  C   UNL     1     -47.190  45.050  23.677  1.00  0.00    -0.030 C 
ATOM     57  C   UNL     1     -48.498  44.251  25.149  1.00  0.00    -0.030 C 
ATOM     58  H   UNL     1     -46.798  45.530  25.825  1.00  0.00     0.055 H 
ATOM     59  C   UNL     1     -48.684  45.263  23.998  1.00  0.00    -0.049 C 
ATOM     60  H   UNL     1     -46.651  45.940  23.341  1.00  0.00     0.029 H 
ATOM     61  H   UNL     1     -47.013  44.236  22.962  1.00  0.00     0.029 H 
ATOM     62  H   UNL     1     -49.064  44.466  26.059  1.00  0.00     0.029 H 
ATOM     63  H   UNL     1     -48.696  43.216  24.843  1.00  0.00     0.029 H 
ATOM     64  H   UNL     1     -49.387  44.970  23.215  1.00  0.00     0.027 H 
ATOM     65  H   UNL     1     -48.924  46.278  24.336  1.00  0.00     0.027 H 
ENDBRANCH  53  55
ENDBRANCH  40  48
BRANCH  44  66
ATOM     66  N   UNL     1     -42.231  43.325  27.780  1.00  0.00    -0.383 N 
ATOM     67  H   UNL     1     -43.112  43.788  27.604  1.00  0.00     0.158 HD
ATOM     68  H   UNL     1     -41.590  43.229  26.988  1.00  0.00     0.158 HD
ENDBRANCH  44  66
ENDBRANCH  30  37
BRANCH  31  69
ATOM     69  O   UNL     1     -46.370  38.248  31.131  1.00  0.00    -0.386 OA
ATOM     70  H   UNL     1     -46.462  39.226  31.172  1.00  0.00     0.211 HD
ENDBRANCH  31  69
ENDBRANCH   1  26
TORSDOF 11
ENDMDL
MODEL 2
REMARK VINA RESULT:      -9.9      3.604      8.514
REMARK SMILES CNc1ccc2ccc(OC[C@H]3O[C@@H](n4cc(-c5ccn(C6CCC6)n5)c5c(N)ncnc54)[C@H](O)[C@@H]3O)cc2n1
REMARK SMILES IDX 11 1 10 4 9 5 3 6 4 7 40 8 5 9 39 11 6 12 38 14 7 15 8 17
REMARK SMILES IDX 2 20 1 22 12 26 13 27 36 28 14 30 34 31 37 35 15 37 16 38
REMARK SMILES IDX 33 39 17 40 27 42 32 43 28 44 31 45 30 46 18 48 19 49 26 50
REMARK SMILES IDX 20 51 21 53 22 55 23 56 25 57 24 59 29 66 35 69
REMARK H PARENT 11 2 11 3 4 10 5 13 38 16 7 18 8 19 2 21 1 23 1 24 1 25 12 29
REMARK H PARENT 36 32 14 33 34 34 37 36 16 41 31 47 19 52 20 54 22 58 23 60
REMARK H PARENT 23 61 25 62 25 63 24 64 24 65 29 67 29 68 35 70
REMARK Flexibility Score: inf
ROOT
ATOM      1  C   UNL     1     -45.402  45.198  26.587  1.00  0.00     0.117 C 
ATOM      2  H   UNL     1     -45.325  45.922  27.407  1.00  0.00     0.073 H 
ATOM      3  H   UNL     1     -45.703  44.224  26.987  1.00  0.00     0.073 H 
ENDROOT
BRANCH   1   4
ATOM      4  O   UNL     1     -46.384  45.621  25.631  1.00  0.00    -0.491 OA
BRANCH   4   5
ATOM      5  C   UNL     1     -47.547  44.901  25.629  1.00  0.00     0.121 A 
ATOM      6  C   UNL     1     -50.108  41.706  28.058  1.00  0.00     0.126 A 
ATOM      7  C   UNL     1     -51.102  41.700  27.087  1.00  0.00    -0.019 A 
ATOM      8  N   UNL     1     -49.018  42.493  27.948  1.00  0.00    -0.231 NA
ATOM      9  C   UNL     1     -50.965  42.509  25.963  1.00  0.00    -0.049 A 
ATOM     10  H   UNL     1     -51.986  41.083  27.209  1.00  0.00     0.066 H 
ATOM     11  C   UNL     1     -48.880  43.282  26.866  1.00  0.00     0.076 A 
ATOM     12  C   UNL     1     -49.837  43.322  25.834  1.00  0.00     0.001 A 
ATOM     13  H   UNL     1     -51.743  42.506  25.204  1.00  0.00     0.063 H 
ATOM     14  C   UNL     1     -47.755  44.086  26.745  1.00  0.00     0.007 A 
ATOM     15  C   UNL     1     -49.651  44.163  24.724  1.00  0.00    -0.049 A 
ATOM     16  H   UNL     1     -47.009  44.065  27.536  1.00  0.00     0.069 H 
ATOM     17  C   UNL     1     -48.509  44.957  24.626  1.00  0.00    -0.019 A 
ATOM     18  H   UNL     1     -50.397  44.206  23.934  1.00  0.00     0.063 H 
ATOM     19  H   UNL     1     -48.399  45.616  23.771  1.00  0.00     0.066 H 
BRANCH   6  20
ATOM     20  N   UNL     1     -50.293  40.899  29.195  1.00  0.00    -0.373 N 
ATOM     21  H   UNL     1     -50.644  41.467  29.959  1.00  0.00     0.161 HD
BRANCH  20  22
ATOM     22  C   UNL     1     -51.119  39.725  28.964  1.00  0.00     0.005 C 
ATOM     23  H   UNL     1     -50.942  38.952  29.720  1.00  0.00     0.045 H 
ATOM     24  H   UNL     1     -52.173  40.014  29.035  1.00  0.00     0.045 H 
ATOM     25  H   UNL     1     -50.957  39.309  27.963  1.00  0.00     0.045 H 
ENDBRANCH  20  22
ENDBRANCH   6  20
ENDBRANCH   4   5
ENDBRANCH   1   4
BRANCH   1  26
ATOM     26  C   UNL     1     -44.041  45.084  25.877  1.00  0.00     0.123 C 
ATOM     27  O   UNL     1     -43.248  44.070  26.543  1.00  0.00    -0.345 OA
ATOM     28  C   UNL     1     -44.181  44.607  24.436  1.00  0.00     0.114 C 
ATOM     29  H   UNL     1     -43.488  46.026  25.957  1.00  0.00     0.067 H 
ATOM     30  C   UNL     1     -43.335  42.842  25.788  1.00  0.00     0.164 C 
ATOM     31  C   UNL     1     -44.268  43.101  24.596  1.00  0.00     0.128 C 
ATOM     32  H   UNL     1     -45.037  45.036  23.906  1.00  0.00     0.066 H 
ATOM     33  H   UNL     1     -42.323  42.552  25.480  1.00  0.00     0.088 H 
ATOM     34  H   UNL     1     -45.300  42.809  24.819  1.00  0.00     0.068 H 
BRANCH  28  35
ATOM     35  O   UNL     1     -43.006  44.938  23.685  1.00  0.00    -0.387 OA
ATOM     36  H   UNL     1     -42.492  45.542  24.261  1.00  0.00     0.211 HD
ENDBRANCH  28  35
BRANCH  30  37
ATOM     37  N   UNL     1     -43.831  41.776  26.657  1.00  0.00    -0.303 N 
ATOM     38  C   UNL     1     -44.953  41.012  26.459  1.00  0.00     0.019 A 
ATOM     39  C   UNL     1     -43.196  41.361  27.804  1.00  0.00     0.148 A 
ATOM     40  C   UNL     1     -45.013  40.062  27.461  1.00  0.00     0.033 A 
ATOM     41  H   UNL     1     -45.601  41.184  25.609  1.00  0.00     0.083 H 
ATOM     42  C   UNL     1     -43.912  40.296  28.343  1.00  0.00     0.071 A 
ATOM     43  N   UNL     1     -42.058  41.898  28.288  1.00  0.00    -0.218 NA
ATOM     44  C   UNL     1     -43.403  39.749  29.534  1.00  0.00     0.137 A 
ATOM     45  C   UNL     1     -41.673  41.283  29.420  1.00  0.00     0.120 A 
ATOM     46  N   UNL     1     -42.263  40.254  30.050  1.00  0.00    -0.219 NA
ATOM     47  H   UNL     1     -40.767  41.662  29.886  1.00  0.00     0.106 H 
BRANCH  40  48
ATOM     48  C   UNL     1     -46.016  39.000  27.573  1.00  0.00     0.095 A 
ATOM     49  C   UNL     1     -47.394  39.224  27.790  1.00  0.00    -0.016 A 
ATOM     50  N   UNL     1     -45.736  37.695  27.447  1.00  0.00    -0.173 NA
ATOM     51  C   UNL     1     -47.959  37.971  27.797  1.00  0.00     0.026 A 
ATOM     52  H   UNL     1     -47.911  40.164  27.924  1.00  0.00     0.066 H 
ATOM     53  N   UNL     1     -46.939  37.100  27.548  1.00  0.00    -0.269 N 
ATOM     54  H   UNL     1     -48.978  37.641  27.935  1.00  0.00     0.084 H 
BRANCH  53  55
ATOM     55  C   UNL     1     -47.117  35.637  27.501  1.00  0.00     0.052 C 
ATOM     56  C   UNL     1     -48.526  35.205  27.017  1.00  0.00    -0.030 C 
ATOM     57  C   UNL     1     -46.575  34.968  26.210  1.00  0.00    -0.030 C 
ATOM     58  H   UNL     1     -46.790  35.144  28.425  1.00  0.00     0.055 H 
ATOM     59  C   UNL     1     -47.825  34.065  26.250  1.00  0.00    -0.049 C 
ATOM     60  H   UNL     1     -49.221  34.887  27.799  1.00  0.00     0.029 H 
ATOM     61  H   UNL     1     -49.036  35.920  26.359  1.00  0.00     0.029 H 
ATOM     62  H   UNL     1     -45.618  34.450  26.312  1.00  0.00     0.029 H 
ATOM     63  H   UNL     1     -46.539  35.608  25.320  1.00  0.00     0.029 H 
ATOM     64  H   UNL     1     -48.258  33.805  25.281  1.00  0.00     0.027 H 
ATOM     65  H   UNL     1     -47.692  33.150  26.841  1.00  0.00     0.027 H 
ENDBRANCH  53  55
ENDBRANCH  40  48
BRANCH  44  66
ATOM     66  N   UNL     1     -43.999  38.709  30.228  1.00  0.00    -0.383 N 
ATOM     67  H   UNL     1     -43.532  37.827  30.065  1.00  0.00     0.158 HD
ATOM     68  H   UNL     1     -45.019  38.715  30.156  1.00  0.00     0.158 HD
ENDBRANCH  44  66
ENDBRANCH  30  37
BRANCH  31  69
ATOM     69  O   UNL     1     -43.870  42.444  23.390  1.00  0.00    -0.386 OA
ATOM     70  H   UNL     1     -43.371  41.646  23.673  1.00  0.00     0.211 HD
ENDBRANCH  31  69
ENDBRANCH   1  26
TORSDOF 11
ENDMDL
MODEL 3
REMARK VINA RESULT:      -9.2      3.716      8.797
REMARK SMILES CNc1ccc2ccc(OC[C@H]3O[C@@H](n4cc(-c5ccn(C6CCC6)n5)c5c(N)ncnc54)[C@H](O)[C@@H]3O)cc2n1
REMARK SMILES IDX 11 1 10 4 9 5 3 6 4 7 40 8 5 9 39 11 6 12 38 14 7 15 8 17
REMARK SMILES IDX 2 20 1 22 12 26 13 27 36 28 14 30 34 31 37 35 15 37 16 38
REMARK SMILES IDX 33 39 17 40 27 42 32 43 28 44 31 45 30 46 18 48 19 49 26 50
REMARK SMILES IDX 20 51 21 53 22 55 23 56 25 57 24 59 29 66 35 69
REMARK H PARENT 11 2 11 3 4 10 5 13 38 16 7 18 8 19 2 21 1 23 1 24 1 25 12 29
REMARK H PARENT 36 32 14 33 34 34 37 36 16 41 31 47 19 52 20 54 22 58 23 60
REMARK H PARENT 23 61 25 62 25 63 24 64 24 65 29 67 29 68 35 70
REMARK Flexibility Score: inf
ROOT
ATOM      1  C   UNL     1     -45.107  45.342  26.564  1.00  0.00     0.117 C 
ATOM      2  H   UNL     1     -44.985  46.158  27.288  1.00  0.00     0.073 H 
ATOM      3  H   UNL     1     -45.371  44.421  27.094  1.00  0.00     0.073 H 
ENDROOT
BRANCH   1   4
ATOM      4  O   UNL     1     -46.154  45.647  25.633  1.00  0.00    -0.491 OA
BRANCH   4   5
ATOM      5  C   UNL     1     -47.296  44.905  25.772  1.00  0.00     0.121 A 
ATOM      6  C   UNL     1     -51.347  43.627  23.624  1.00  0.00     0.126 A 
ATOM      7  C   UNL     1     -51.738  42.865  24.719  1.00  0.00    -0.019 A 
ATOM      8  N   UNL     1     -50.173  44.290  23.609  1.00  0.00    -0.231 NA
ATOM      9  C   UNL     1     -50.910  42.796  25.834  1.00  0.00    -0.049 A 
ATOM     10  H   UNL     1     -52.673  42.314  24.700  1.00  0.00     0.066 H 
ATOM     11  C   UNL     1     -49.364  44.225  24.682  1.00  0.00     0.076 A 
ATOM     12  C   UNL     1     -49.695  43.485  25.833  1.00  0.00     0.001 A 
ATOM     13  H   UNL     1     -51.214  42.199  26.690  1.00  0.00     0.063 H 
ATOM     14  C   UNL     1     -48.159  44.913  24.673  1.00  0.00     0.007 A 
ATOM     15  C   UNL     1     -48.818  43.444  26.930  1.00  0.00    -0.049 A 
ATOM     16  H   UNL     1     -47.891  45.489  23.789  1.00  0.00     0.069 H 
ATOM     17  C   UNL     1     -47.615  44.149  26.895  1.00  0.00    -0.019 A 
ATOM     18  H   UNL     1     -49.066  42.860  27.813  1.00  0.00     0.063 H 
ATOM     19  H   UNL     1     -46.943  44.085  27.745  1.00  0.00     0.066 H 
BRANCH   6  20
ATOM     20  N   UNL     1     -52.195  43.651  22.502  1.00  0.00    -0.373 N 
ATOM     21  H   UNL     1     -52.183  44.578  22.089  1.00  0.00     0.161 HD
BRANCH  20  22
ATOM     22  C   UNL     1     -51.916  42.614  21.523  1.00  0.00     0.005 C 
ATOM     23  H   UNL     1     -51.092  41.967  21.844  1.00  0.00     0.045 H 
ATOM     24  H   UNL     1     -52.803  41.980  21.415  1.00  0.00     0.045 H 
ATOM     25  H   UNL     1     -51.692  43.039  20.538  1.00  0.00     0.045 H 
ENDBRANCH  20  22
ENDBRANCH   6  20
ENDBRANCH   4   5
ENDBRANCH   1   4
BRANCH   1  26
ATOM     26  C   UNL     1     -43.795  45.150  25.785  1.00  0.00     0.123 C 
ATOM     27  O   UNL     1     -43.025  44.094  26.413  1.00  0.00    -0.345 OA
ATOM     28  C   UNL     1     -44.037  44.680  24.355  1.00  0.00     0.114 C 
ATOM     29  H   UNL     1     -43.186  46.060  25.831  1.00  0.00     0.067 H 
ATOM     30  C   UNL     1     -43.220  42.872  25.669  1.00  0.00     0.164 C 
ATOM     31  C   UNL     1     -44.199  43.181  24.527  1.00  0.00     0.128 C 
ATOM     32  H   UNL     1     -44.894  45.155  23.869  1.00  0.00     0.066 H 
ATOM     33  H   UNL     1     -42.245  42.525  25.310  1.00  0.00     0.088 H 
ATOM     34  H   UNL     1     -45.234  42.947  24.805  1.00  0.00     0.068 H 
BRANCH  28  35
ATOM     35  O   UNL     1     -42.887  44.942  23.542  1.00  0.00    -0.387 OA
ATOM     36  H   UNL     1     -42.296  44.171  23.672  1.00  0.00     0.211 HD
ENDBRANCH  28  35
BRANCH  30  37
ATOM     37  N   UNL     1     -43.729  41.837  26.568  1.00  0.00    -0.303 N 
ATOM     38  C   UNL     1     -44.864  41.085  26.396  1.00  0.00     0.019 A 
ATOM     39  C   UNL     1     -43.095  41.443  27.723  1.00  0.00     0.148 A 
ATOM     40  C   UNL     1     -44.933  40.163  27.423  1.00  0.00     0.033 A 
ATOM     41  H   UNL     1     -45.513  41.245  25.543  1.00  0.00     0.083 H 
ATOM     42  C   UNL     1     -43.825  40.404  28.293  1.00  0.00     0.071 A 
ATOM     43  N   UNL     1     -41.947  41.975  28.188  1.00  0.00    -0.218 NA
ATOM     44  C   UNL     1     -43.319  39.881  29.496  1.00  0.00     0.137 A 
ATOM     45  C   UNL     1     -41.566  41.384  29.335  1.00  0.00     0.120 A 
ATOM     46  N   UNL     1     -42.168  40.382  29.993  1.00  0.00    -0.219 NA
ATOM     47  H   UNL     1     -40.652  41.762  29.786  1.00  0.00     0.106 H 
BRANCH  40  48
ATOM     48  C   UNL     1     -45.952  39.121  27.567  1.00  0.00     0.095 A 
ATOM     49  C   UNL     1     -47.342  39.366  27.627  1.00  0.00    -0.016 A 
ATOM     50  N   UNL     1     -45.674  37.810  27.623  1.00  0.00    -0.173 NA
ATOM     51  C   UNL     1     -47.917  38.121  27.731  1.00  0.00     0.026 A 
ATOM     52  H   UNL     1     -47.861  40.315  27.601  1.00  0.00     0.066 H 
ATOM     53  N   UNL     1     -46.886  37.229  27.682  1.00  0.00    -0.269 N 
ATOM     54  H   UNL     1     -48.947  37.808  27.813  1.00  0.00     0.084 H 
BRANCH  53  55
ATOM     55  C   UNL     1     -47.072  35.771  27.793  1.00  0.00     0.052 C 
ATOM     56  C   UNL     1     -47.594  35.117  26.486  1.00  0.00    -0.030 C 
ATOM     57  C   UNL     1     -45.778  34.943  27.576  1.00  0.00    -0.030 C 
ATOM     58  H   UNL     1     -47.634  35.486  28.692  1.00  0.00     0.055 H 
ATOM     59  C   UNL     1     -46.649  33.937  26.795  1.00  0.00    -0.049 C 
ATOM     60  H   UNL     1     -48.660  34.873  26.470  1.00  0.00     0.029 H 
ATOM     61  H   UNL     1     -47.336  35.648  25.561  1.00  0.00     0.029 H 
ATOM     62  H   UNL     1     -45.309  34.552  28.483  1.00  0.00     0.029 H 
ATOM     63  H   UNL     1     -45.008  35.415  26.953  1.00  0.00     0.029 H 
ATOM     64  H   UNL     1     -46.175  33.467  25.930  1.00  0.00     0.027 H 
ATOM     65  H   UNL     1     -47.101  33.161  27.424  1.00  0.00     0.027 H 
ENDBRANCH  53  55
ENDBRANCH  40  48
BRANCH  44  66
ATOM     66  N   UNL     1     -43.927  38.869  30.220  1.00  0.00    -0.383 N 
ATOM     67  H   UNL     1     -44.930  38.863  30.097  1.00  0.00     0.158 HD
ATOM     68  H   UNL     1     -43.576  38.798  31.178  1.00  0.00     0.158 HD
ENDBRANCH  44  66
ENDBRANCH  30  37
BRANCH  31  69
ATOM     69  O   UNL     1     -43.904  42.501  23.305  1.00  0.00    -0.386 OA
ATOM     70  H   UNL     1     -43.366  43.130  22.774  1.00  0.00     0.211 HD
ENDBRANCH  31  69
ENDBRANCH   1  26
TORSDOF 11
ENDMDL
MODEL 4
REMARK VINA RESULT:      -9.1      1.917      2.521
REMARK SMILES CNc1ccc2ccc(OC[C@H]3O[C@@H](n4cc(-c5ccn(C6CCC6)n5)c5c(N)ncnc54)[C@H](O)[C@@H]3O)cc2n1
REMARK SMILES IDX 11 1 10 4 9 5 3 6 4 7 40 8 5 9 39 11 6 12 38 14 7 15 8 17
REMARK SMILES IDX 2 20 1 22 12 26 13 27 36 28 14 30 34 31 37 35 15 37 16 38
REMARK SMILES IDX 33 39 17 40 27 42 32 43 28 44 31 45 30 46 18 48 19 49 26 50
REMARK SMILES IDX 20 51 21 53 22 55 23 56 25 57 24 59 29 66 35 69
REMARK H PARENT 11 2 11 3 4 10 5 13 38 16 7 18 8 19 2 21 1 23 1 24 1 25 12 29
REMARK H PARENT 36 32 14 33 34 34 37 36 16 41 31 47 19 52 20 54 22 58 23 60
REMARK H PARENT 23 61 25 62 25 63 24 64 24 65 29 67 29 68 35 70
REMARK Flexibility Score: inf
ROOT
ATOM      1  C   UNL     1     -46.222  36.006  26.560  1.00  0.00     0.117 C 
ATOM      2  H   UNL     1     -45.364  36.679  26.437  1.00  0.00     0.073 H 
ATOM      3  H   UNL     1     -46.997  36.267  25.831  1.00  0.00     0.073 H 
ENDROOT
BRANCH   1   4
ATOM      4  O   UNL     1     -45.830  34.644  26.339  1.00  0.00    -0.491 OA
BRANCH   4   5
ATOM      5  C   UNL     1     -46.832  33.806  25.932  1.00  0.00     0.121 A 
ATOM      6  C   UNL     1     -48.047  30.546  22.683  1.00  0.00     0.126 A 
ATOM      7  C   UNL     1     -49.310  30.394  23.244  1.00  0.00    -0.019 A 
ATOM      8  N   UNL     1     -47.139  31.394  23.207  1.00  0.00    -0.231 NA
ATOM      9  C   UNL     1     -49.657  31.147  24.362  1.00  0.00    -0.049 A 
ATOM     10  H   UNL     1     -50.016  29.684  22.826  1.00  0.00     0.066 H 
ATOM     11  C   UNL     1     -47.465  32.123  24.291  1.00  0.00     0.076 A 
ATOM     12  C   UNL     1     -48.727  32.035  24.908  1.00  0.00     0.001 A 
ATOM     13  H   UNL     1     -50.643  31.028  24.802  1.00  0.00     0.063 H 
ATOM     14  C   UNL     1     -46.536  33.003  24.827  1.00  0.00     0.007 A 
ATOM     15  C   UNL     1     -49.022  32.814  26.040  1.00  0.00    -0.049 A 
ATOM     16  H   UNL     1     -45.556  33.080  24.359  1.00  0.00     0.069 H 
ATOM     17  C   UNL     1     -48.070  33.694  26.555  1.00  0.00    -0.019 A 
ATOM     18  H   UNL     1     -49.991  32.735  26.526  1.00  0.00     0.063 H 
ATOM     19  H   UNL     1     -48.313  34.268  27.443  1.00  0.00     0.066 H 
BRANCH   6  20
ATOM     20  N   UNL     1     -47.721  29.748  21.572  1.00  0.00    -0.373 N 
ATOM     21  H   UNL     1     -47.000  29.083  21.834  1.00  0.00     0.161 HD
BRANCH  20  22
ATOM     22  C   UNL     1     -48.862  29.099  20.949  1.00  0.00     0.005 C 
ATOM     23  H   UNL     1     -49.809  29.461  21.364  1.00  0.00     0.045 H 
ATOM     24  H   UNL     1     -48.865  29.335  19.879  1.00  0.00     0.045 H 
ATOM     25  H   UNL     1     -48.808  28.009  21.046  1.00  0.00     0.045 H 
ENDBRANCH  20  22
ENDBRANCH   6  20
ENDBRANCH   4   5
ENDBRANCH   1   4
BRANCH   1  26
ATOM     26  C   UNL     1     -46.772  36.136  27.991  1.00  0.00     0.123 C 
ATOM     27  O   UNL     1     -45.936  37.058  28.734  1.00  0.00    -0.345 OA
ATOM     28  C   UNL     1     -48.169  36.743  28.018  1.00  0.00     0.114 C 
ATOM     29  H   UNL     1     -46.721  35.171  28.508  1.00  0.00     0.067 H 
ATOM     30  C   UNL     1     -46.580  38.351  28.760  1.00  0.00     0.164 C 
ATOM     31  C   UNL     1     -47.881  38.232  27.954  1.00  0.00     0.128 C 
ATOM     32  H   UNL     1     -48.823  36.393  27.214  1.00  0.00     0.066 H 
ATOM     33  H   UNL     1     -46.752  38.631  29.805  1.00  0.00     0.088 H 
ATOM     34  H   UNL     1     -47.742  38.539  26.911  1.00  0.00     0.068 H 
BRANCH  28  35
ATOM     35  O   UNL     1     -48.821  36.439  29.258  1.00  0.00    -0.387 OA
ATOM     36  H   UNL     1     -48.986  37.307  29.683  1.00  0.00     0.211 HD
ENDBRANCH  28  35
BRANCH  30  37
ATOM     37  N   UNL     1     -45.673  39.352  28.201  1.00  0.00    -0.303 N 
ATOM     38  C   UNL     1     -45.906  40.153  27.111  1.00  0.00     0.019 A 
ATOM     39  C   UNL     1     -44.443  39.658  28.734  1.00  0.00     0.148 A 
ATOM     40  C   UNL     1     -44.838  41.018  26.973  1.00  0.00     0.033 A 
ATOM     41  H   UNL     1     -46.823  40.064  26.541  1.00  0.00     0.083 H 
ATOM     42  C   UNL     1     -43.884  40.689  27.986  1.00  0.00     0.071 A 
ATOM     43  N   UNL     1     -43.905  39.060  29.815  1.00  0.00    -0.218 NA
ATOM     44  C   UNL     1     -42.610  41.126  28.391  1.00  0.00     0.137 A 
ATOM     45  C   UNL     1     -42.695  39.571  30.104  1.00  0.00     0.120 A 
ATOM     46  N   UNL     1     -42.038  40.557  29.473  1.00  0.00    -0.219 NA
ATOM     47  H   UNL     1     -42.183  39.136  30.959  1.00  0.00     0.106 H 
BRANCH  40  48
ATOM     48  C   UNL     1     -44.728  42.088  25.979  1.00  0.00     0.095 A 
ATOM     49  C   UNL     1     -45.823  42.823  25.473  1.00  0.00    -0.016 A 
ATOM     50  N   UNL     1     -43.563  42.511  25.465  1.00  0.00    -0.173 NA
ATOM     51  C   UNL     1     -45.269  43.731  24.602  1.00  0.00     0.026 A 
ATOM     52  H   UNL     1     -46.874  42.711  25.704  1.00  0.00     0.066 H 
ATOM     53  N   UNL     1     -43.921  43.533  24.665  1.00  0.00    -0.269 N 
ATOM     54  H   UNL     1     -45.711  44.493  23.977  1.00  0.00     0.084 H 
BRANCH  53  55
ATOM     55  C   UNL     1     -42.952  44.291  23.852  1.00  0.00     0.052 C 
ATOM     56  C   UNL     1     -42.061  43.389  22.958  1.00  0.00    -0.030 C 
ATOM     57  C   UNL     1     -43.533  44.861  22.532  1.00  0.00    -0.030 C 
ATOM     58  H   UNL     1     -42.393  45.028  24.443  1.00  0.00     0.055 H 
ATOM     59  C   UNL     1     -42.194  44.474  21.870  1.00  0.00    -0.049 C 
ATOM     60  H   UNL     1     -41.046  43.212  23.323  1.00  0.00     0.029 H 
ATOM     61  H   UNL     1     -42.507  42.429  22.668  1.00  0.00     0.029 H 
ATOM     62  H   UNL     1     -43.763  45.930  22.538  1.00  0.00     0.029 H 
ATOM     63  H   UNL     1     -44.389  44.317  22.112  1.00  0.00     0.029 H 
ATOM     64  H   UNL     1     -42.257  44.113  20.841  1.00  0.00     0.027 H 
ATOM     65  H   UNL     1     -41.428  45.257  21.930  1.00  0.00     0.027 H 
ENDBRANCH  53  55
ENDBRANCH  40  48
BRANCH  44  66
ATOM     66  N   UNL     1     -41.888  42.119  27.749  1.00  0.00    -0.383 N 
ATOM     67  H   UNL     1     -41.819  41.956  26.754  1.00  0.00     0.158 HD
ATOM     68  H   UNL     1     -41.025  42.364  28.241  1.00  0.00     0.158 HD
ENDBRANCH  44  66
ENDBRANCH  30  37
BRANCH  31  69
ATOM     69  O   UNL     1     -48.974  38.978  28.495  1.00  0.00    -0.386 OA
ATOM     70  H   UNL     1     -48.985  38.775  29.457  1.00  0.00     0.211 HD
ENDBRANCH  31  69
ENDBRANCH   1  26
TORSDOF 11
ENDMDL
MODEL 5
REMARK VINA RESULT:      -9.1      3.620      6.183
REMARK SMILES CNc1ccc2ccc(OC[C@H]3O[C@@H](n4cc(-c5ccn(C6CCC6)n5)c5c(N)ncnc54)[C@H](O)[C@@H]3O)cc2n1
REMARK SMILES IDX 11 1 10 4 9 5 3 6 4 7 40 8 5 9 39 11 6 12 38 14 7 15 8 17
REMARK SMILES IDX 2 20 1 22 12 26 13 27 36 28 14 30 34 31 37 35 15 37 16 38
REMARK SMILES IDX 33 39 17 40 27 42 32 43 28 44 31 45 30 46 18 48 19 49 26 50
REMARK SMILES IDX 20 51 21 53 22 55 23 56 25 57 24 59 29 66 35 69
REMARK H PARENT 11 2 11 3 4 10 5 13 38 16 7 18 8 19 2 21 1 23 1 24 1 25 12 29
REMARK H PARENT 36 32 14 33 34 34 37 36 16 41 31 47 19 52 20 54 22 58 23 60
REMARK H PARENT 23 61 25 62 25 63 24 64 24 65 29 67 29 68 35 70
REMARK Flexibility Score: inf
ROOT
ATOM      1  C   UNL     1     -47.901  37.579  27.436  1.00  0.00     0.117 C 
ATOM      2  H   UNL     1     -47.855  37.443  26.348  1.00  0.00     0.073 H 
ATOM      3  H   UNL     1     -47.691  38.625  27.682  1.00  0.00     0.073 H 
ENDROOT
BRANCH   1   4
ATOM      4  O   UNL     1     -49.205  37.248  27.931  1.00  0.00    -0.491 OA
BRANCH   4   5
ATOM      5  C   UNL     1     -49.980  38.314  28.298  1.00  0.00     0.121 A 
ATOM      6  C   UNL     1     -49.923  42.982  29.228  1.00  0.00     0.126 A 
ATOM      7  C   UNL     1     -51.283  42.985  29.520  1.00  0.00    -0.019 A 
ATOM      8  N   UNL     1     -49.285  41.857  28.847  1.00  0.00    -0.231 NA
ATOM      9  C   UNL     1     -52.002  41.797  29.437  1.00  0.00    -0.049 A 
ATOM     10  H   UNL     1     -51.784  43.907  29.795  1.00  0.00     0.066 H 
ATOM     11  C   UNL     1     -49.975  40.705  28.759  1.00  0.00     0.076 A 
ATOM     12  C   UNL     1     -51.350  40.624  29.051  1.00  0.00     0.001 A 
ATOM     13  H   UNL     1     -53.065  41.799  29.663  1.00  0.00     0.063 H 
ATOM     14  C   UNL     1     -49.320  39.543  28.376  1.00  0.00     0.007 A 
ATOM     15  C   UNL     1     -52.029  39.398  28.944  1.00  0.00    -0.049 A 
ATOM     16  H   UNL     1     -48.257  39.592  28.148  1.00  0.00     0.069 H 
ATOM     17  C   UNL     1     -51.345  38.245  28.560  1.00  0.00    -0.019 A 
ATOM     18  H   UNL     1     -53.094  39.339  29.154  1.00  0.00     0.063 H 
ATOM     19  H   UNL     1     -51.895  37.315  28.463  1.00  0.00     0.066 H 
BRANCH   6  20
ATOM     20  N   UNL     1     -49.233  44.206  29.294  1.00  0.00    -0.373 N 
ATOM     21  H   UNL     1     -49.724  44.900  28.739  1.00  0.00     0.161 HD
BRANCH  20  22
ATOM     22  C   UNL     1     -48.976  44.673  30.647  1.00  0.00     0.005 C 
ATOM     23  H   UNL     1     -49.161  43.886  31.386  1.00  0.00     0.045 H 
ATOM     24  H   UNL     1     -47.921  44.956  30.730  1.00  0.00     0.045 H 
ATOM     25  H   UNL     1     -49.575  45.557  30.889  1.00  0.00     0.045 H 
ENDBRANCH  20  22
ENDBRANCH   6  20
ENDBRANCH   4   5
ENDBRANCH   1   4
BRANCH   1  26
ATOM     26  C   UNL     1     -46.869  36.657  28.109  1.00  0.00     0.123 C 
ATOM     27  O   UNL     1     -45.539  37.060  27.698  1.00  0.00    -0.345 OA
ATOM     28  C   UNL     1     -46.882  36.790  29.628  1.00  0.00     0.114 C 
ATOM     29  H   UNL     1     -47.006  35.622  27.777  1.00  0.00     0.067 H 
ATOM     30  C   UNL     1     -44.955  37.870  28.742  1.00  0.00     0.164 C 
ATOM     31  C   UNL     1     -46.002  38.006  29.857  1.00  0.00     0.128 C 
ATOM     32  H   UNL     1     -47.882  36.893  30.058  1.00  0.00     0.066 H 
ATOM     33  H   UNL     1     -44.033  37.385  29.082  1.00  0.00     0.088 H 
ATOM     34  H   UNL     1     -46.596  38.921  29.747  1.00  0.00     0.068 H 
BRANCH  28  35
ATOM     35  O   UNL     1     -46.274  35.643  30.235  1.00  0.00    -0.387 OA
ATOM     36  H   UNL     1     -46.747  34.871  29.860  1.00  0.00     0.211 HD
ENDBRANCH  28  35
BRANCH  30  37
ATOM     37  N   UNL     1     -44.568  39.166  28.186  1.00  0.00    -0.303 N 
ATOM     38  C   UNL     1     -45.107  39.781  27.084  1.00  0.00     0.019 A 
ATOM     39  C   UNL     1     -43.609  39.982  28.737  1.00  0.00     0.148 A 
ATOM     40  C   UNL     1     -44.524  41.027  26.954  1.00  0.00     0.033 A 
ATOM     41  H   UNL     1     -45.880  39.297  26.500  1.00  0.00     0.083 H 
ATOM     42  C   UNL     1     -43.544  41.153  27.987  1.00  0.00     0.071 A 
ATOM     43  N   UNL     1     -42.886  39.684  29.835  1.00  0.00    -0.218 NA
ATOM     44  C   UNL     1     -42.600  42.105  28.409  1.00  0.00     0.137 A 
ATOM     45  C   UNL     1     -42.029  40.676  30.139  1.00  0.00     0.120 A 
ATOM     46  N   UNL     1     -41.858  41.848  29.508  1.00  0.00    -0.219 NA
ATOM     47  H   UNL     1     -41.396  40.512  31.007  1.00  0.00     0.106 H 
BRANCH  40  48
ATOM     48  C   UNL     1     -44.874  42.033  25.950  1.00  0.00     0.095 A 
ATOM     49  C   UNL     1     -46.070  42.787  25.958  1.00  0.00    -0.016 A 
ATOM     50  N   UNL     1     -44.076  42.375  24.928  1.00  0.00    -0.173 NA
ATOM     51  C   UNL     1     -45.971  43.619  24.868  1.00  0.00     0.026 A 
ATOM     52  H   UNL     1     -46.894  42.735  26.656  1.00  0.00     0.066 H 
ATOM     53  N   UNL     1     -44.751  43.365  24.314  1.00  0.00    -0.269 N 
ATOM     54  H   UNL     1     -46.642  44.364  24.467  1.00  0.00     0.084 H 
BRANCH  53  55
ATOM     55  C   UNL     1     -44.260  44.033  23.095  1.00  0.00     0.052 C 
ATOM     56  C   UNL     1     -45.382  44.335  22.066  1.00  0.00    -0.030 C 
ATOM     57  C   UNL     1     -44.103  45.571  23.228  1.00  0.00    -0.030 C 
ATOM     58  H   UNL     1     -43.382  43.535  22.666  1.00  0.00     0.055 H 
ATOM     59  C   UNL     1     -44.663  45.671  21.793  1.00  0.00    -0.049 C 
ATOM     60  H   UNL     1     -45.443  43.651  21.215  1.00  0.00     0.029 H 
ATOM     61  H   UNL     1     -46.386  44.462  22.491  1.00  0.00     0.029 H 
ATOM     62  H   UNL     1     -43.079  45.932  23.358  1.00  0.00     0.029 H 
ATOM     63  H   UNL     1     -44.747  46.055  23.972  1.00  0.00     0.029 H 
ATOM     64  H   UNL     1     -45.309  46.529  21.592  1.00  0.00     0.027 H 
ATOM     65  H   UNL     1     -43.894  45.609  21.013  1.00  0.00     0.027 H 
ENDBRANCH  53  55
ENDBRANCH  40  48
BRANCH  44  66
ATOM     66  N   UNL     1     -42.373  43.312  27.768  1.00  0.00    -0.383 N 
ATOM     67  H   UNL     1     -42.121  43.186  26.798  1.00  0.00     0.158 HD
ATOM     68  H   UNL     1     -41.797  43.954  28.319  1.00  0.00     0.158 HD
ENDBRANCH  44  66
ENDBRANCH  30  37
BRANCH  31  69
ATOM     69  O   UNL     1     -45.455  37.987  31.177  1.00  0.00    -0.386 OA
ATOM     70  H   UNL     1     -46.127  38.419  31.751  1.00  0.00     0.211 HD
ENDBRANCH  31  69
ENDBRANCH   1  26
TORSDOF 11
ENDMDL
MODEL 6
REMARK VINA RESULT:      -9.0      2.142      3.380
REMARK SMILES CNc1ccc2ccc(OC[C@H]3O[C@@H](n4cc(-c5ccn(C6CCC6)n5)c5c(N)ncnc54)[C@H](O)[C@@H]3O)cc2n1
REMARK SMILES IDX 11 1 10 4 9 5 3 6 4 7 40 8 5 9 39 11 6 12 38 14 7 15 8 17
REMARK SMILES IDX 2 20 1 22 12 26 13 27 36 28 14 30 34 31 37 35 15 37 16 38
REMARK SMILES IDX 33 39 17 40 27 42 32 43 28 44 31 45 30 46 18 48 19 49 26 50
REMARK SMILES IDX 20 51 21 53 22 55 23 56 25 57 24 59 29 66 35 69
REMARK H PARENT 11 2 11 3 4 10 5 13 38 16 7 18 8 19 2 21 1 23 1 24 1 25 12 29
REMARK H PARENT 36 32 14 33 34 34 37 36 16 41 31 47 19 52 20 54 22 58 23 60
REMARK H PARENT 23 61 25 62 25 63 24 64 24 65 29 67 29 68 35 70
REMARK Flexibility Score: inf
ROOT
ATOM      1  C   UNL     1     -47.398  36.307  27.091  1.00  0.00     0.117 C 
ATOM      2  H   UNL     1     -46.964  36.520  26.107  1.00  0.00     0.073 H 
ATOM      3  H   UNL     1     -48.017  37.154  27.408  1.00  0.00     0.073 H 
ENDROOT
BRANCH   1   4
ATOM      4  O   UNL     1     -48.223  35.136  27.038  1.00  0.00    -0.491 OA
BRANCH   4   5
ATOM      5  C   UNL     1     -47.774  34.140  26.215  1.00  0.00     0.121 A 
ATOM      6  C   UNL     1     -48.765  29.807  24.510  1.00  0.00     0.126 A 
ATOM      7  C   UNL     1     -47.585  29.779  23.774  1.00  0.00    -0.019 A 
ATOM      8  N   UNL     1     -49.101  30.873  25.263  1.00  0.00    -0.231 NA
ATOM      9  C   UNL     1     -46.720  30.867  23.828  1.00  0.00    -0.049 A 
ATOM     10  H   UNL     1     -47.346  28.925  23.150  1.00  0.00     0.066 H 
ATOM     11  C   UNL     1     -48.272  31.932  25.317  1.00  0.00     0.076 A 
ATOM     12  C   UNL     1     -47.054  31.974  24.612  1.00  0.00     0.001 A 
ATOM     13  H   UNL     1     -45.799  30.847  23.252  1.00  0.00     0.063 H 
ATOM     14  C   UNL     1     -48.612  33.027  26.099  1.00  0.00     0.007 A 
ATOM     15  C   UNL     1     -46.221  33.102  24.697  1.00  0.00    -0.049 A 
ATOM     16  H   UNL     1     -49.550  33.008  26.649  1.00  0.00     0.069 H 
ATOM     17  C   UNL     1     -46.585  34.188  25.493  1.00  0.00    -0.019 A 
ATOM     18  H   UNL     1     -45.289  33.141  24.139  1.00  0.00     0.063 H 
ATOM     19  H   UNL     1     -45.937  35.057  25.525  1.00  0.00     0.066 H 
BRANCH   6  20
ATOM     20  N   UNL     1     -49.629  28.702  24.409  1.00  0.00    -0.373 N 
ATOM     21  H   UNL     1     -49.648  28.207  25.295  1.00  0.00     0.161 HD
BRANCH  20  22
ATOM     22  C   UNL     1     -50.965  29.032  23.940  1.00  0.00     0.005 C 
ATOM     23  H   UNL     1     -51.737  28.569  24.565  1.00  0.00     0.045 H 
ATOM     24  H   UNL     1     -51.105  30.117  24.003  1.00  0.00     0.045 H 
ATOM     25  H   UNL     1     -51.109  28.740  22.895  1.00  0.00     0.045 H 
ENDBRANCH  20  22
ENDBRANCH   6  20
ENDBRANCH   4   5
ENDBRANCH   1   4
BRANCH   1  26
ATOM     26  C   UNL     1     -46.267  36.068  28.107  1.00  0.00     0.123 C 
ATOM     27  O   UNL     1     -45.181  36.985  27.826  1.00  0.00    -0.345 OA
ATOM     28  C   UNL     1     -46.700  36.377  29.535  1.00  0.00     0.114 C 
ATOM     29  H   UNL     1     -45.865  35.054  27.999  1.00  0.00     0.067 H 
ATOM     30  C   UNL     1     -45.269  38.102  28.738  1.00  0.00     0.164 C 
ATOM     31  C   UNL     1     -46.507  37.880  29.618  1.00  0.00     0.128 C 
ATOM     32  H   UNL     1     -47.719  36.058  29.771  1.00  0.00     0.066 H 
ATOM     33  H   UNL     1     -44.339  38.150  29.317  1.00  0.00     0.088 H 
ATOM     34  H   UNL     1     -47.389  38.391  29.215  1.00  0.00     0.068 H 
BRANCH  28  35
ATOM     35  O   UNL     1     -45.826  35.734  30.472  1.00  0.00    -0.387 OA
ATOM     36  H   UNL     1     -46.175  35.971  31.356  1.00  0.00     0.211 HD
ENDBRANCH  28  35
BRANCH  30  37
ATOM     37  N   UNL     1     -45.351  39.344  27.971  1.00  0.00    -0.303 N 
ATOM     38  C   UNL     1     -44.307  40.029  27.403  1.00  0.00     0.019 A 
ATOM     39  C   UNL     1     -46.530  39.989  27.678  1.00  0.00     0.148 A 
ATOM     40  C   UNL     1     -44.823  41.097  26.694  1.00  0.00     0.033 A 
ATOM     41  H   UNL     1     -43.286  39.687  27.523  1.00  0.00     0.083 H 
ATOM     42  C   UNL     1     -46.240  41.098  26.889  1.00  0.00     0.071 A 
ATOM     43  N   UNL     1     -47.749  39.579  28.079  1.00  0.00    -0.218 NA
ATOM     44  C   UNL     1     -47.339  41.884  26.500  1.00  0.00     0.137 A 
ATOM     45  C   UNL     1     -48.712  40.407  27.636  1.00  0.00     0.120 A 
ATOM     46  N   UNL     1     -48.578  41.505  26.876  1.00  0.00    -0.219 NA
ATOM     47  H   UNL     1     -49.729  40.156  27.925  1.00  0.00     0.106 H 
BRANCH  40  48
ATOM     48  C   UNL     1     -44.049  42.035  25.878  1.00  0.00     0.095 A 
ATOM     49  C   UNL     1     -42.788  42.557  26.242  1.00  0.00    -0.016 A 
ATOM     50  N   UNL     1     -44.442  42.474  24.673  1.00  0.00    -0.173 NA
ATOM     51  C   UNL     1     -42.419  43.359  25.188  1.00  0.00     0.026 A 
ATOM     52  H   UNL     1     -42.221  42.380  27.146  1.00  0.00     0.066 H 
ATOM     53  N   UNL     1     -43.415  43.242  24.264  1.00  0.00    -0.269 N 
ATOM     54  H   UNL     1     -41.543  43.967  25.018  1.00  0.00     0.084 H 
BRANCH  53  55
ATOM     55  C   UNL     1     -43.422  43.974  22.984  1.00  0.00     0.052 C 
ATOM     56  C   UNL     1     -44.834  44.095  22.353  1.00  0.00    -0.030 C 
ATOM     57  C   UNL     1     -43.459  45.517  23.130  1.00  0.00    -0.030 C 
ATOM     58  H   UNL     1     -42.651  43.614  22.290  1.00  0.00     0.055 H 
ATOM     59  C   UNL     1     -44.436  45.526  21.935  1.00  0.00    -0.049 C 
ATOM     60  H   UNL     1     -45.048  43.408  21.530  1.00  0.00     0.029 H 
ATOM     61  H   UNL     1     -45.669  44.069  23.065  1.00  0.00     0.029 H 
ATOM     62  H   UNL     1     -42.509  46.032  22.963  1.00  0.00     0.029 H 
ATOM     63  H   UNL     1     -43.912  45.899  24.053  1.00  0.00     0.029 H 
ATOM     64  H   UNL     1     -45.232  46.273  21.974  1.00  0.00     0.027 H 
ATOM     65  H   UNL     1     -43.940  45.579  20.958  1.00  0.00     0.027 H 
ENDBRANCH  53  55
ENDBRANCH  40  48
BRANCH  44  66
ATOM     66  N   UNL     1     -47.239  43.039  25.742  1.00  0.00    -0.383 N 
ATOM     67  H   UNL     1     -46.442  43.018  25.121  1.00  0.00     0.158 HD
ATOM     68  H   UNL     1     -47.377  43.890  26.293  1.00  0.00     0.158 HD
ENDBRANCH  44  66
ENDBRANCH  30  37
BRANCH  31  69
ATOM     69  O   UNL     1     -46.339  38.290  30.977  1.00  0.00    -0.386 OA
ATOM     70  H   UNL     1     -46.972  37.748  31.499  1.00  0.00     0.211 HD
ENDBRANCH  31  69
ENDBRANCH   1  26
TORSDOF 11
ENDMDL
MODEL 7
REMARK VINA RESULT:      -8.9      3.272      7.609
REMARK SMILES CNc1ccc2ccc(OC[C@H]3O[C@@H](n4cc(-c5ccn(C6CCC6)n5)c5c(N)ncnc54)[C@H](O)[C@@H]3O)cc2n1
REMARK SMILES IDX 11 1 10 4 9 5 3 6 4 7 40 8 5 9 39 11 6 12 38 14 7 15 8 17
REMARK SMILES IDX 2 20 1 22 12 26 13 27 36 28 14 30 34 31 37 35 15 37 16 38
REMARK SMILES IDX 33 39 17 40 27 42 32 43 28 44 31 45 30 46 18 48 19 49 26 50
REMARK SMILES IDX 20 51 21 53 22 55 23 56 25 57 24 59 29 66 35 69
REMARK H PARENT 11 2 11 3 4 10 5 13 38 16 7 18 8 19 2 21 1 23 1 24 1 25 12 29
REMARK H PARENT 36 32 14 33 34 34 37 36 16 41 31 47 19 52 20 54 22 58 23 60
REMARK H PARENT 23 61 25 62 25 63 24 64 24 65 29 67 29 68 35 70
REMARK Flexibility Score: inf
ROOT
ATOM      1  C   UNL     1     -44.888  36.609  28.232  1.00  0.00     0.117 C 
ATOM      2  H   UNL     1     -45.200  37.007  27.259  1.00  0.00     0.073 H 
ATOM      3  H   UNL     1     -43.836  36.309  28.184  1.00  0.00     0.073 H 
ENDROOT
BRANCH   1   4
ATOM      4  O   UNL     1     -45.031  37.605  29.254  1.00  0.00    -0.491 OA
BRANCH   4   5
ATOM      5  C   UNL     1     -44.300  38.746  29.066  1.00  0.00     0.121 A 
ATOM      6  C   UNL     1     -43.456  42.331  26.049  1.00  0.00     0.126 A 
ATOM      7  C   UNL     1     -42.505  42.882  26.901  1.00  0.00    -0.019 A 
ATOM      8  N   UNL     1     -44.129  41.209  26.374  1.00  0.00    -0.231 NA
ATOM      9  C   UNL     1     -42.226  42.254  28.110  1.00  0.00    -0.049 A 
ATOM     10  H   UNL     1     -41.996  43.802  26.635  1.00  0.00     0.066 H 
ATOM     11  C   UNL     1     -43.868  40.598  27.544  1.00  0.00     0.076 A 
ATOM     12  C   UNL     1     -42.911  41.086  28.454  1.00  0.00     0.001 A 
ATOM     13  H   UNL     1     -41.484  42.685  28.777  1.00  0.00     0.063 H 
ATOM     14  C   UNL     1     -44.553  39.438  27.878  1.00  0.00     0.007 A 
ATOM     15  C   UNL     1     -42.673  40.416  29.666  1.00  0.00    -0.049 A 
ATOM     16  H   UNL     1     -45.295  39.050  27.183  1.00  0.00     0.069 H 
ATOM     17  C   UNL     1     -43.373  39.249  29.974  1.00  0.00    -0.019 A 
ATOM     18  H   UNL     1     -41.946  40.802  30.375  1.00  0.00     0.063 H 
ATOM     19  H   UNL     1     -43.189  38.762  30.925  1.00  0.00     0.066 H 
BRANCH   6  20
ATOM     20  N   UNL     1     -43.734  43.008  24.848  1.00  0.00    -0.373 N 
ATOM     21  H   UNL     1     -44.681  42.793  24.551  1.00  0.00     0.161 HD
BRANCH  20  22
ATOM     22  C   UNL     1     -43.491  44.439  24.900  1.00  0.00     0.005 C 
ATOM     23  H   UNL     1     -42.736  44.747  24.168  1.00  0.00     0.045 H 
ATOM     24  H   UNL     1     -44.418  44.967  24.652  1.00  0.00     0.045 H 
ATOM     25  H   UNL     1     -43.187  44.760  25.903  1.00  0.00     0.045 H 
ENDBRANCH  20  22
ENDBRANCH   6  20
ENDBRANCH   4   5
ENDBRANCH   1   4
BRANCH   1  26
ATOM     26  C   UNL     1     -45.769  35.401  28.596  1.00  0.00     0.123 C 
ATOM     27  O   UNL     1     -46.984  35.878  29.227  1.00  0.00    -0.345 OA
ATOM     28  C   UNL     1     -46.229  34.632  27.363  1.00  0.00     0.114 C 
ATOM     29  H   UNL     1     -45.260  34.762  29.325  1.00  0.00     0.067 H 
ATOM     30  C   UNL     1     -48.043  35.893  28.246  1.00  0.00     0.164 C 
ATOM     31  C   UNL     1     -47.440  35.428  26.912  1.00  0.00     0.128 C 
ATOM     32  H   UNL     1     -45.463  34.533  26.588  1.00  0.00     0.066 H 
ATOM     33  H   UNL     1     -48.850  35.240  28.597  1.00  0.00     0.088 H 
ATOM     34  H   UNL     1     -47.120  36.274  26.294  1.00  0.00     0.068 H 
BRANCH  28  35
ATOM     35  O   UNL     1     -46.640  33.307  27.725  1.00  0.00    -0.387 OA
ATOM     36  H   UNL     1     -46.961  32.900  26.894  1.00  0.00     0.211 HD
ENDBRANCH  28  35
BRANCH  30  37
ATOM     37  N   UNL     1     -48.601  37.242  28.159  1.00  0.00    -0.303 N 
ATOM     38  C   UNL     1     -47.913  38.398  27.891  1.00  0.00     0.019 A 
ATOM     39  C   UNL     1     -49.937  37.531  28.304  1.00  0.00     0.148 A 
ATOM     40  C   UNL     1     -48.824  39.435  27.810  1.00  0.00     0.033 A 
ATOM     41  H   UNL     1     -46.839  38.387  27.749  1.00  0.00     0.083 H 
ATOM     42  C   UNL     1     -50.115  38.896  28.103  1.00  0.00     0.071 A 
ATOM     43  N   UNL     1     -50.895  36.621  28.569  1.00  0.00    -0.218 NA
ATOM     44  C   UNL     1     -51.433  39.371  28.222  1.00  0.00     0.137 A 
ATOM     45  C   UNL     1     -52.107  37.198  28.649  1.00  0.00     0.120 A 
ATOM     46  N   UNL     1     -52.424  38.492  28.482  1.00  0.00    -0.219 NA
ATOM     47  H   UNL     1     -52.939  36.536  28.873  1.00  0.00     0.106 H 
BRANCH  40  48
ATOM     48  C   UNL     1     -48.510  40.823  27.464  1.00  0.00     0.095 A 
ATOM     49  C   UNL     1     -47.529  41.208  26.523  1.00  0.00    -0.016 A 
ATOM     50  N   UNL     1     -49.148  41.882  27.981  1.00  0.00    -0.173 NA
ATOM     51  C   UNL     1     -47.590  42.581  26.490  1.00  0.00     0.026 A 
ATOM     52  H   UNL     1     -46.864  40.579  25.947  1.00  0.00     0.066 H 
ATOM     53  N   UNL     1     -48.596  42.930  27.342  1.00  0.00    -0.269 N 
ATOM     54  H   UNL     1     -47.030  43.314  25.929  1.00  0.00     0.084 H 
BRANCH  53  55
ATOM     55  C   UNL     1     -48.972  44.328  27.621  1.00  0.00     0.052 C 
ATOM     56  C   UNL     1     -49.233  44.605  29.125  1.00  0.00    -0.030 C 
ATOM     57  C   UNL     1     -47.770  45.300  27.750  1.00  0.00    -0.030 C 
ATOM     58  H   UNL     1     -49.765  44.692  26.955  1.00  0.00     0.055 H 
ATOM     59  C   UNL     1     -48.536  45.965  28.913  1.00  0.00    -0.049 C 
ATOM     60  H   UNL     1     -50.284  44.658  29.424  1.00  0.00     0.029 H 
ATOM     61  H   UNL     1     -48.698  43.948  29.823  1.00  0.00     0.029 H 
ATOM     62  H   UNL     1     -47.584  45.940  26.884  1.00  0.00     0.029 H 
ATOM     63  H   UNL     1     -46.822  44.848  28.067  1.00  0.00     0.029 H 
ATOM     64  H   UNL     1     -47.924  46.322  29.745  1.00  0.00     0.027 H 
ATOM     65  H   UNL     1     -49.214  46.766  28.596  1.00  0.00     0.027 H 
ENDBRANCH  53  55
ENDBRANCH  40  48
BRANCH  44  66
ATOM     66  N   UNL     1     -51.795  40.702  28.087  1.00  0.00    -0.383 N 
ATOM     67  H   UNL     1     -52.609  40.816  27.499  1.00  0.00     0.158 HD
ATOM     68  H   UNL     1     -50.997  41.315  27.901  1.00  0.00     0.158 HD
ENDBRANCH  44  66
ENDBRANCH  30  37
BRANCH  31  69
ATOM     69  O   UNL     1     -48.314  34.611  26.129  1.00  0.00    -0.386 OA
ATOM     70  H   UNL     1     -49.115  34.472  26.682  1.00  0.00     0.211 HD
ENDBRANCH  31  69
ENDBRANCH   1  26
TORSDOF 11
ENDMDL
