MODEL 1
REMARK VINA RESULT:      -9.2      0.000      0.000
REMARK SMILES CC(C)(C)CNCc1cc2ccc(CNC(=O)c3cnc4[nH]ccc4c3)cc2[nH]1
REMARK SMILES IDX 7 1 6 4 5 6 2 9 1 10 3 14 4 18 8 22 9 23 29 24 10 25 28 27
REMARK SMILES IDX 11 29 27 30 12 31 13 33 14 36 15 39 16 40 17 42 18 43 19 44
REMARK SMILES IDX 26 45 20 46 25 48 21 50 24 51 22 52 23 53
REMARK H PARENT 7 2 7 3 6 5 5 7 5 8 1 11 1 12 1 13 3 15 3 16 3 17 4 19 4 20
REMARK H PARENT 4 21 9 26 29 28 11 32 27 34 12 35 14 37 14 38 15 41 19 47
REMARK H PARENT 26 49 24 54 22 55 23 56
REMARK Flexibility Score: inf
ROOT
ATOM      1  C   UNL     1     -49.002  29.815  23.559  1.00  0.00     0.036 C 
ATOM      2  H   UNL     1     -48.306  29.472  22.784  1.00  0.00     0.049 H 
ATOM      3  H   UNL     1     -49.952  30.072  23.075  1.00  0.00     0.049 H 
ENDROOT
BRANCH   1   4
ATOM      4  N   UNL     1     -49.204  28.772  24.564  1.00  0.00    -0.311 NA
ATOM      5  H   UNL     1     -50.026  28.233  24.288  1.00  0.00     0.123 HD
BRANCH   4   6
ATOM      6  C   UNL     1     -48.042  27.881  24.634  1.00  0.00     0.000 C 
ATOM      7  H   UNL     1     -47.873  27.424  23.651  1.00  0.00     0.043 H 
ATOM      8  H   UNL     1     -47.150  28.474  24.874  1.00  0.00     0.043 H 
BRANCH   6   9
ATOM      9  C   UNL     1     -48.193  26.759  25.698  1.00  0.00    -0.026 C 
BRANCH   9  10
ATOM     10  C   UNL     1     -49.473  25.941  25.452  1.00  0.00    -0.059 C 
ATOM     11  H   UNL     1     -50.338  26.406  25.938  1.00  0.00     0.024 H 
ATOM     12  H   UNL     1     -49.698  25.850  24.384  1.00  0.00     0.024 H 
ATOM     13  H   UNL     1     -49.376  24.925  25.852  1.00  0.00     0.024 H 
ENDBRANCH   9  10
BRANCH   9  14
ATOM     14  C   UNL     1     -48.290  27.419  27.087  1.00  0.00    -0.059 C 
ATOM     15  H   UNL     1     -48.789  26.757  27.804  1.00  0.00     0.024 H 
ATOM     16  H   UNL     1     -47.295  27.652  27.484  1.00  0.00     0.024 H 
ATOM     17  H   UNL     1     -48.859  28.353  27.043  1.00  0.00     0.024 H 
ENDBRANCH   9  14
BRANCH   9  18
ATOM     18  C   UNL     1     -46.979  25.813  25.690  1.00  0.00    -0.059 C 
ATOM     19  H   UNL     1     -46.645  25.609  24.667  1.00  0.00     0.024 H 
ATOM     20  H   UNL     1     -46.134  26.255  26.233  1.00  0.00     0.024 H 
ATOM     21  H   UNL     1     -47.204  24.855  26.169  1.00  0.00     0.024 H 
ENDBRANCH   9  18
ENDBRANCH   6   9
ENDBRANCH   4   6
ENDBRANCH   1   4
BRANCH   1  22
ATOM     22  C   UNL     1     -48.430  31.020  24.216  1.00  0.00     0.030 A 
ATOM     23  C   UNL     1     -47.172  31.586  24.150  1.00  0.00    -0.032 A 
ATOM     24  N   UNL     1     -49.174  31.788  25.080  1.00  0.00    -0.357 N 
ATOM     25  C   UNL     1     -47.159  32.730  24.996  1.00  0.00    -0.000 A 
ATOM     26  H   UNL     1     -46.344  31.218  23.558  1.00  0.00     0.065 H 
ATOM     27  C   UNL     1     -48.427  32.836  25.565  1.00  0.00     0.046 A 
ATOM     28  H   UNL     1     -50.146  31.610  25.292  1.00  0.00     0.166 HD
ATOM     29  C   UNL     1     -46.186  33.690  25.329  1.00  0.00    -0.052 A 
ATOM     30  C   UNL     1     -48.776  33.860  26.455  1.00  0.00    -0.033 A 
ATOM     31  C   UNL     1     -46.515  34.721  26.218  1.00  0.00    -0.057 A 
ATOM     32  H   UNL     1     -45.189  33.635  24.901  1.00  0.00     0.063 H 
ATOM     33  C   UNL     1     -47.792  34.808  26.786  1.00  0.00    -0.027 A 
ATOM     34  H   UNL     1     -49.775  33.916  26.875  1.00  0.00     0.065 H 
ATOM     35  H   UNL     1     -45.758  35.463  26.466  1.00  0.00     0.063 H 
BRANCH  33  36
ATOM     36  C   UNL     1     -48.128  35.950  27.711  1.00  0.00     0.043 C 
ATOM     37  H   UNL     1     -49.078  36.418  27.426  1.00  0.00     0.054 H 
ATOM     38  H   UNL     1     -48.244  35.594  28.741  1.00  0.00     0.054 H 
BRANCH  36  39
ATOM     39  N   UNL     1     -47.094  36.957  27.665  1.00  0.00    -0.348 N 
ATOM     40  C   UNL     1     -46.318  37.210  28.775  1.00  0.00     0.253 C 
ATOM     41  H   UNL     1     -47.152  37.641  26.923  1.00  0.00     0.164 HD
ATOM     42  O   UNL     1     -46.415  36.576  29.819  1.00  0.00    -0.269 OA
BRANCH  40  43
ATOM     43  C   UNL     1     -45.354  38.332  28.672  1.00  0.00     0.058 A 
ATOM     44  C   UNL     1     -45.507  39.241  27.625  1.00  0.00     0.042 A 
ATOM     45  C   UNL     1     -44.315  38.530  29.590  1.00  0.00    -0.037 A 
ATOM     46  N   UNL     1     -44.713  40.316  27.382  1.00  0.00    -0.238 NA
ATOM     47  H   UNL     1     -46.318  39.120  26.907  1.00  0.00     0.085 H 
ATOM     48  C   UNL     1     -43.467  39.631  29.383  1.00  0.00     0.019 A 
ATOM     49  H   UNL     1     -44.167  37.886  30.449  1.00  0.00     0.064 H 
ATOM     50  C   UNL     1     -43.728  40.448  28.287  1.00  0.00     0.137 A 
ATOM     51  C   UNL     1     -42.336  40.182  30.045  1.00  0.00    -0.035 A 
ATOM     52  N   UNL     1     -42.795  41.448  28.276  1.00  0.00    -0.346 N 
ATOM     53  C   UNL     1     -41.941  41.300  29.340  1.00  0.00     0.003 A 
ATOM     54  H   UNL     1     -41.860  39.803  30.941  1.00  0.00     0.065 H 
ATOM     55  H   UNL     1     -42.768  42.178  27.578  1.00  0.00     0.167 HD
ATOM     56  H   UNL     1     -41.133  42.000  29.501  1.00  0.00     0.082 H 
ENDBRANCH  40  43
ENDBRANCH  36  39
ENDBRANCH  33  36
ENDBRANCH   1  22
TORSDOF 10
ENDMDL
MODEL 2
REMARK VINA RESULT:      -9.1      2.041      3.343
REMARK SMILES CC(C)(C)CNCc1cc2ccc(CNC(=O)c3cnc4[nH]ccc4c3)cc2[nH]1
REMARK SMILES IDX 7 1 6 4 5 6 2 9 1 10 3 14 4 18 8 22 9 23 29 24 10 25 28 27
REMARK SMILES IDX 11 29 27 30 12 31 13 33 14 36 15 39 16 40 17 42 18 43 19 44
REMARK SMILES IDX 26 45 20 46 25 48 21 50 24 51 22 52 23 53
REMARK H PARENT 7 2 7 3 6 5 5 7 5 8 1 11 1 12 1 13 3 15 3 16 3 17 4 19 4 20
REMARK H PARENT 4 21 9 26 29 28 11 32 27 34 12 35 14 37 14 38 15 41 19 47
REMARK H PARENT 26 49 24 54 22 55 23 56
REMARK Flexibility Score: inf
ROOT
ATOM      1  C   UNL     1     -46.498  31.815  24.558  1.00  0.00     0.036 C 
ATOM      2  H   UNL     1     -45.458  31.499  24.703  1.00  0.00     0.049 H 
ATOM      3  H   UNL     1     -46.619  32.115  23.510  1.00  0.00     0.049 H 
ENDROOT
BRANCH   1   4
ATOM      4  N   UNL     1     -47.417  30.727  24.889  1.00  0.00    -0.311 NA
ATOM      5  H   UNL     1     -48.210  31.133  25.387  1.00  0.00     0.123 HD
BRANCH   4   6
ATOM      6  C   UNL     1     -47.897  30.060  23.676  1.00  0.00     0.000 C 
ATOM      7  H   UNL     1     -48.836  30.526  23.350  1.00  0.00     0.043 H 
ATOM      8  H   UNL     1     -47.165  30.209  22.871  1.00  0.00     0.043 H 
BRANCH   6   9
ATOM      9  C   UNL     1     -48.124  28.534  23.863  1.00  0.00    -0.026 C 
BRANCH   9  10
ATOM     10  C   UNL     1     -48.991  27.967  22.724  1.00  0.00    -0.059 C 
ATOM     11  H   UNL     1     -50.054  28.161  22.902  1.00  0.00     0.024 H 
ATOM     12  H   UNL     1     -48.728  28.407  21.756  1.00  0.00     0.024 H 
ATOM     13  H   UNL     1     -48.862  26.882  22.633  1.00  0.00     0.024 H 
ENDBRANCH   9  10
BRANCH   9  14
ATOM     14  C   UNL     1     -48.862  28.316  25.198  1.00  0.00    -0.059 C 
ATOM     15  H   UNL     1     -49.868  27.914  25.031  1.00  0.00     0.024 H 
ATOM     16  H   UNL     1     -48.322  27.608  25.837  1.00  0.00     0.024 H 
ATOM     17  H   UNL     1     -48.965  29.254  25.753  1.00  0.00     0.024 H 
ENDBRANCH   9  14
BRANCH   9  18
ATOM     18  C   UNL     1     -46.789  27.771  23.912  1.00  0.00    -0.059 C 
ATOM     19  H   UNL     1     -45.997  28.330  23.402  1.00  0.00     0.024 H 
ATOM     20  H   UNL     1     -46.467  27.609  24.948  1.00  0.00     0.024 H 
ATOM     21  H   UNL     1     -46.864  26.786  23.440  1.00  0.00     0.024 H 
ENDBRANCH   9  18
ENDBRANCH   6   9
ENDBRANCH   4   6
ENDBRANCH   1   4
BRANCH   1  22
ATOM     22  C   UNL     1     -46.774  32.974  25.448  1.00  0.00     0.030 A 
ATOM     23  C   UNL     1     -47.953  33.613  25.777  1.00  0.00    -0.032 A 
ATOM     24  N   UNL     1     -45.762  33.628  26.109  1.00  0.00    -0.357 N 
ATOM     25  C   UNL     1     -47.642  34.681  26.665  1.00  0.00    -0.000 A 
ATOM     26  H   UNL     1     -48.938  33.346  25.417  1.00  0.00     0.065 H 
ATOM     27  C   UNL     1     -46.262  34.667  26.859  1.00  0.00     0.046 A 
ATOM     28  H   UNL     1     -44.791  33.349  26.064  1.00  0.00     0.166 HD
ATOM     29  C   UNL     1     -48.408  35.659  27.326  1.00  0.00    -0.052 A 
ATOM     30  C   UNL     1     -45.603  35.585  27.687  1.00  0.00    -0.033 A 
ATOM     31  C   UNL     1     -47.768  36.586  28.156  1.00  0.00    -0.057 A 
ATOM     32  H   UNL     1     -49.486  35.694  27.196  1.00  0.00     0.063 H 
ATOM     33  C   UNL     1     -46.378  36.562  28.335  1.00  0.00    -0.027 A 
ATOM     34  H   UNL     1     -44.527  35.541  27.820  1.00  0.00     0.065 H 
ATOM     35  H   UNL     1     -48.368  37.336  28.670  1.00  0.00     0.063 H 
BRANCH  33  36
ATOM     36  C   UNL     1     -45.722  37.549  29.265  1.00  0.00     0.043 C 
ATOM     37  H   UNL     1     -46.457  37.998  29.943  1.00  0.00     0.054 H 
ATOM     38  H   UNL     1     -44.971  37.053  29.891  1.00  0.00     0.054 H 
BRANCH  36  39
ATOM     39  N   UNL     1     -45.092  38.609  28.512  1.00  0.00    -0.348 N 
ATOM     40  C   UNL     1     -44.096  39.372  29.082  1.00  0.00     0.253 C 
ATOM     41  H   UNL     1     -45.586  38.949  27.698  1.00  0.00     0.164 HD
ATOM     42  O   UNL     1     -43.656  39.167  30.207  1.00  0.00    -0.269 OA
BRANCH  40  43
ATOM     43  C   UNL     1     -43.582  40.505  28.275  1.00  0.00     0.058 A 
ATOM     44  C   UNL     1     -42.498  41.230  28.770  1.00  0.00     0.042 A 
ATOM     45  C   UNL     1     -44.120  40.861  27.032  1.00  0.00    -0.037 A 
ATOM     46  N   UNL     1     -41.909  42.295  28.166  1.00  0.00    -0.238 NA
ATOM     47  H   UNL     1     -42.049  40.962  29.726  1.00  0.00     0.085 H 
ATOM     48  C   UNL     1     -43.543  41.955  26.365  1.00  0.00     0.019 A 
ATOM     49  H   UNL     1     -44.934  40.313  26.572  1.00  0.00     0.064 H 
ATOM     50  C   UNL     1     -42.476  42.597  26.984  1.00  0.00     0.137 A 
ATOM     51  C   UNL     1     -43.768  42.628  25.133  1.00  0.00    -0.035 A 
ATOM     52  N   UNL     1     -42.070  43.620  26.171  1.00  0.00    -0.346 N 
ATOM     53  C   UNL     1     -42.847  43.651  25.041  1.00  0.00     0.003 A 
ATOM     54  H   UNL     1     -44.522  42.392  24.392  1.00  0.00     0.065 H 
ATOM     55  H   UNL     1     -41.304  44.240  26.394  1.00  0.00     0.167 HD
ATOM     56  H   UNL     1     -42.676  44.394  24.273  1.00  0.00     0.082 H 
ENDBRANCH  40  43
ENDBRANCH  36  39
ENDBRANCH  33  36
ENDBRANCH   1  22
TORSDOF 10
ENDMDL
MODEL 3
REMARK VINA RESULT:      -8.8      2.819      3.781
REMARK SMILES CC(C)(C)CNCc1cc2ccc(CNC(=O)c3cnc4[nH]ccc4c3)cc2[nH]1
REMARK SMILES IDX 7 1 6 4 5 6 2 9 1 10 3 14 4 18 8 22 9 23 29 24 10 25 28 27
REMARK SMILES IDX 11 29 27 30 12 31 13 33 14 36 15 39 16 40 17 42 18 43 19 44
REMARK SMILES IDX 26 45 20 46 25 48 21 50 24 51 22 52 23 53
REMARK H PARENT 7 2 7 3 6 5 5 7 5 8 1 11 1 12 1 13 3 15 3 16 3 17 4 19 4 20
REMARK H PARENT 4 21 9 26 29 28 11 32 27 34 12 35 14 37 14 38 15 41 19 47
REMARK H PARENT 26 49 24 54 22 55 23 56
REMARK Flexibility Score: inf
ROOT
ATOM      1  C   UNL     1     -46.242  30.908  23.233  1.00  0.00     0.036 C 
ATOM      2  H   UNL     1     -46.541  29.918  23.598  1.00  0.00     0.049 H 
ATOM      3  H   UNL     1     -45.153  30.910  23.107  1.00  0.00     0.049 H 
ENDROOT
BRANCH   1   4
ATOM      4  N   UNL     1     -46.905  31.210  21.966  1.00  0.00    -0.311 NA
ATOM      5  H   UNL     1     -46.190  31.223  21.238  1.00  0.00     0.123 HD
BRANCH   4   6
ATOM      6  C   UNL     1     -47.906  30.189  21.643  1.00  0.00     0.000 C 
ATOM      7  H   UNL     1     -47.399  29.264  21.339  1.00  0.00     0.043 H 
ATOM      8  H   UNL     1     -48.486  29.958  22.546  1.00  0.00     0.043 H 
BRANCH   6   9
ATOM      9  C   UNL     1     -48.887  30.624  20.520  1.00  0.00    -0.026 C 
BRANCH   9  10
ATOM     10  C   UNL     1     -50.098  31.370  21.110  1.00  0.00    -0.059 C 
ATOM     11  H   UNL     1     -49.967  32.456  21.035  1.00  0.00     0.024 H 
ATOM     12  H   UNL     1     -51.027  31.109  20.592  1.00  0.00     0.024 H 
ATOM     13  H   UNL     1     -50.234  31.125  22.169  1.00  0.00     0.024 H 
ENDBRANCH   9  10
BRANCH   9  14
ATOM     14  C   UNL     1     -49.392  29.358  19.801  1.00  0.00    -0.059 C 
ATOM     15  H   UNL     1     -50.395  29.513  19.387  1.00  0.00     0.024 H 
ATOM     16  H   UNL     1     -48.728  29.081  18.974  1.00  0.00     0.024 H 
ATOM     17  H   UNL     1     -49.443  28.506  20.487  1.00  0.00     0.024 H 
ENDBRANCH   9  14
BRANCH   9  18
ATOM     18  C   UNL     1     -48.190  31.527  19.487  1.00  0.00    -0.059 C 
ATOM     19  H   UNL     1     -47.853  30.948  18.620  1.00  0.00     0.024 H 
ATOM     20  H   UNL     1     -48.873  32.305  19.121  1.00  0.00     0.024 H 
ATOM     21  H   UNL     1     -47.320  32.037  19.912  1.00  0.00     0.024 H 
ENDBRANCH   9  18
ENDBRANCH   6   9
ENDBRANCH   4   6
ENDBRANCH   1   4
BRANCH   1  22
ATOM     22  C   UNL     1     -46.633  31.927  24.243  1.00  0.00     0.030 A 
ATOM     23  C   UNL     1     -47.870  32.316  24.716  1.00  0.00    -0.032 A 
ATOM     24  N   UNL     1     -45.694  32.701  24.883  1.00  0.00    -0.357 N 
ATOM     25  C   UNL     1     -47.671  33.352  25.671  1.00  0.00    -0.000 A 
ATOM     26  H   UNL     1     -48.823  31.904  24.409  1.00  0.00     0.065 H 
ATOM     27  C   UNL     1     -46.297  33.572  25.759  1.00  0.00     0.046 A 
ATOM     28  H   UNL     1     -44.697  32.605  24.740  1.00  0.00     0.166 HD
ATOM     29  C   UNL     1     -48.532  34.122  26.474  1.00  0.00    -0.052 A 
ATOM     30  C   UNL     1     -45.736  34.528  26.616  1.00  0.00    -0.033 A 
ATOM     31  C   UNL     1     -47.990  35.084  27.335  1.00  0.00    -0.057 A 
ATOM     32  H   UNL     1     -49.608  33.973  26.429  1.00  0.00     0.063 H 
ATOM     33  C   UNL     1     -46.608  35.297  27.406  1.00  0.00    -0.027 A 
ATOM     34  H   UNL     1     -44.661  34.669  26.664  1.00  0.00     0.065 H 
ATOM     35  H   UNL     1     -48.663  35.672  27.958  1.00  0.00     0.063 H 
BRANCH  33  36
ATOM     36  C   UNL     1     -46.051  36.313  28.370  1.00  0.00     0.043 C 
ATOM     37  H   UNL     1     -46.788  36.567  29.141  1.00  0.00     0.054 H 
ATOM     38  H   UNL     1     -45.171  35.915  28.888  1.00  0.00     0.054 H 
BRANCH  36  39
ATOM     39  N   UNL     1     -45.689  37.525  27.672  1.00  0.00    -0.348 N 
ATOM     40  C   UNL     1     -45.069  38.557  28.343  1.00  0.00     0.253 C 
ATOM     41  H   UNL     1     -46.149  37.701  26.789  1.00  0.00     0.164 HD
ATOM     42  O   UNL     1     -44.744  38.490  29.522  1.00  0.00    -0.269 OA
BRANCH  40  43
ATOM     43  C   UNL     1     -44.831  39.802  27.574  1.00  0.00     0.058 A 
ATOM     44  C   UNL     1     -45.865  40.297  26.779  1.00  0.00     0.042 A 
ATOM     45  C   UNL     1     -43.625  40.513  27.631  1.00  0.00    -0.037 A 
ATOM     46  N   UNL     1     -45.813  41.415  26.010  1.00  0.00    -0.238 NA
ATOM     47  H   UNL     1     -46.819  39.772  26.731  1.00  0.00     0.085 H 
ATOM     48  C   UNL     1     -43.523  41.680  26.855  1.00  0.00     0.019 A 
ATOM     49  H   UNL     1     -42.799  40.207  28.262  1.00  0.00     0.064 H 
ATOM     50  C   UNL     1     -44.630  42.048  26.096  1.00  0.00     0.137 A 
ATOM     51  C   UNL     1     -42.523  42.664  26.626  1.00  0.00    -0.035 A 
ATOM     52  N   UNL     1     -44.319  43.201  25.428  1.00  0.00    -0.346 N 
ATOM     53  C   UNL     1     -43.039  43.588  25.741  1.00  0.00     0.003 A 
ATOM     54  H   UNL     1     -41.532  42.696  27.060  1.00  0.00     0.065 H 
ATOM     55  H   UNL     1     -44.958  43.677  24.808  1.00  0.00     0.167 HD
ATOM     56  H   UNL     1     -42.613  44.483  25.310  1.00  0.00     0.082 H 
ENDBRANCH  40  43
ENDBRANCH  36  39
ENDBRANCH  33  36
ENDBRANCH   1  22
TORSDOF 10
ENDMDL
MODEL 4
REMARK VINA RESULT:      -8.6      1.801      2.383
REMARK SMILES CC(C)(C)CNCc1cc2ccc(CNC(=O)c3cnc4[nH]ccc4c3)cc2[nH]1
REMARK SMILES IDX 7 1 6 4 5 6 2 9 1 10 3 14 4 18 8 22 9 23 29 24 10 25 28 27
REMARK SMILES IDX 11 29 27 30 12 31 13 33 14 36 15 39 16 40 17 42 18 43 19 44
REMARK SMILES IDX 26 45 20 46 25 48 21 50 24 51 22 52 23 53
REMARK H PARENT 7 2 7 3 6 5 5 7 5 8 1 11 1 12 1 13 3 15 3 16 3 17 4 19 4 20
REMARK H PARENT 4 21 9 26 29 28 11 32 27 34 12 35 14 37 14 38 15 41 19 47
REMARK H PARENT 26 49 24 54 22 55 23 56
REMARK Flexibility Score: inf
ROOT
ATOM      1  C   UNL     1     -48.283  29.173  22.951  1.00  0.00     0.036 C 
ATOM      2  H   UNL     1     -47.676  29.401  22.066  1.00  0.00     0.049 H 
ATOM      3  H   UNL     1     -49.312  28.986  22.619  1.00  0.00     0.049 H 
ENDROOT
BRANCH   1   4
ATOM      4  N   UNL     1     -47.750  28.005  23.651  1.00  0.00    -0.311 NA
ATOM      5  H   UNL     1     -47.052  28.337  24.318  1.00  0.00     0.123 HD
BRANCH   4   6
ATOM      6  C   UNL     1     -48.812  27.298  24.373  1.00  0.00     0.000 C 
ATOM      7  H   UNL     1     -49.629  27.997  24.598  1.00  0.00     0.043 H 
ATOM      8  H   UNL     1     -49.225  26.515  23.725  1.00  0.00     0.043 H 
BRANCH   6   9
ATOM      9  C   UNL     1     -48.325  26.643  25.695  1.00  0.00    -0.026 C 
BRANCH   9  10
ATOM     10  C   UNL     1     -46.864  26.177  25.568  1.00  0.00    -0.059 C 
ATOM     11  H   UNL     1     -46.207  26.752  26.230  1.00  0.00     0.024 H 
ATOM     12  H   UNL     1     -46.753  25.117  25.824  1.00  0.00     0.024 H 
ATOM     13  H   UNL     1     -46.496  26.305  24.543  1.00  0.00     0.024 H 
ENDBRANCH   9  10
BRANCH   9  14
ATOM     14  C   UNL     1     -49.210  25.415  25.981  1.00  0.00    -0.059 C 
ATOM     15  H   UNL     1     -48.605  24.555  26.288  1.00  0.00     0.024 H 
ATOM     16  H   UNL     1     -49.927  25.623  26.784  1.00  0.00     0.024 H 
ATOM     17  H   UNL     1     -49.781  25.122  25.094  1.00  0.00     0.024 H 
ENDBRANCH   9  14
BRANCH   9  18
ATOM     18  C   UNL     1     -48.444  27.618  26.880  1.00  0.00    -0.059 C 
ATOM     19  H   UNL     1     -48.566  27.078  27.825  1.00  0.00     0.024 H 
ATOM     20  H   UNL     1     -47.545  28.242  26.967  1.00  0.00     0.024 H 
ATOM     21  H   UNL     1     -49.296  28.296  26.766  1.00  0.00     0.024 H 
ENDBRANCH   9  18
ENDBRANCH   6   9
ENDBRANCH   4   6
ENDBRANCH   1   4
BRANCH   1  22
ATOM     22  C   UNL     1     -48.254  30.345  23.866  1.00  0.00     0.030 A 
ATOM     23  C   UNL     1     -49.256  31.187  24.303  1.00  0.00    -0.032 A 
ATOM     24  N   UNL     1     -47.081  30.784  24.432  1.00  0.00    -0.357 N 
ATOM     25  C   UNL     1     -48.671  32.160  25.161  1.00  0.00    -0.000 A 
ATOM     26  H   UNL     1     -50.302  31.117  24.036  1.00  0.00     0.065 H 
ATOM     27  C   UNL     1     -47.306  31.883  25.227  1.00  0.00     0.046 A 
ATOM     28  H   UNL     1     -46.188  30.329  24.296  1.00  0.00     0.166 HD
ATOM     29  C   UNL     1     -49.175  33.251  25.892  1.00  0.00    -0.052 A 
ATOM     30  C   UNL     1     -46.414  32.645  25.993  1.00  0.00    -0.033 A 
ATOM     31  C   UNL     1     -48.299  34.025  26.662  1.00  0.00    -0.057 A 
ATOM     32  H   UNL     1     -50.235  33.491  25.863  1.00  0.00     0.063 H 
ATOM     33  C   UNL     1     -46.929  33.737  26.712  1.00  0.00    -0.027 A 
ATOM     34  H   UNL     1     -45.357  32.397  26.026  1.00  0.00     0.065 H 
ATOM     35  H   UNL     1     -48.699  34.864  27.231  1.00  0.00     0.063 H 
BRANCH  33  36
ATOM     36  C   UNL     1     -46.017  34.565  27.579  1.00  0.00     0.043 C 
ATOM     37  H   UNL     1     -46.353  34.556  28.623  1.00  0.00     0.054 H 
ATOM     38  H   UNL     1     -44.998  34.161  27.569  1.00  0.00     0.054 H 
BRANCH  36  39
ATOM     39  N   UNL     1     -45.992  35.936  27.122  1.00  0.00    -0.348 N 
ATOM     40  C   UNL     1     -45.641  36.951  27.984  1.00  0.00     0.253 C 
ATOM     41  H   UNL     1     -46.503  36.145  26.275  1.00  0.00     0.164 HD
ATOM     42  O   UNL     1     -45.282  36.757  29.139  1.00  0.00    -0.269 OA
BRANCH  40  43
ATOM     43  C   UNL     1     -45.747  38.335  27.460  1.00  0.00     0.058 A 
ATOM     44  C   UNL     1     -46.970  38.751  26.935  1.00  0.00     0.042 A 
ATOM     45  C   UNL     1     -44.682  39.244  27.493  1.00  0.00    -0.037 A 
ATOM     46  N   UNL     1     -47.236  39.976  26.411  1.00  0.00    -0.238 NA
ATOM     47  H   UNL     1     -47.819  38.069  26.914  1.00  0.00     0.085 H 
ATOM     48  C   UNL     1     -44.909  40.527  26.965  1.00  0.00     0.019 A 
ATOM     49  H   UNL     1     -43.720  38.999  27.926  1.00  0.00     0.064 H 
ATOM     50  C   UNL     1     -46.175  40.801  26.458  1.00  0.00     0.137 A 
ATOM     51  C   UNL     1     -44.138  41.711  26.805  1.00  0.00    -0.035 A 
ATOM     52  N   UNL     1     -46.177  42.091  26.003  1.00  0.00    -0.346 N 
ATOM     53  C   UNL     1     -44.944  42.658  26.208  1.00  0.00     0.003 A 
ATOM     54  H   UNL     1     -43.105  41.857  27.095  1.00  0.00     0.065 H 
ATOM     55  H   UNL     1     -46.984  42.535  25.589  1.00  0.00     0.167 HD
ATOM     56  H   UNL     1     -44.751  43.680  25.913  1.00  0.00     0.082 H 
ENDBRANCH  40  43
ENDBRANCH  36  39
ENDBRANCH  33  36
ENDBRANCH   1  22
TORSDOF 10
ENDMDL
MODEL 5
REMARK VINA RESULT:      -8.4      2.559     11.084
REMARK SMILES CC(C)(C)CNCc1cc2ccc(CNC(=O)c3cnc4[nH]ccc4c3)cc2[nH]1
REMARK SMILES IDX 7 1 6 4 5 6 2 9 1 10 3 14 4 18 8 22 9 23 29 24 10 25 28 27
REMARK SMILES IDX 11 29 27 30 12 31 13 33 14 36 15 39 16 40 17 42 18 43 19 44
REMARK SMILES IDX 26 45 20 46 25 48 21 50 24 51 22 52 23 53
REMARK H PARENT 7 2 7 3 6 5 5 7 5 8 1 11 1 12 1 13 3 15 3 16 3 17 4 19 4 20
REMARK H PARENT 4 21 9 26 29 28 11 32 27 34 12 35 14 37 14 38 15 41 19 47
REMARK H PARENT 26 49 24 54 22 55 23 56
REMARK Flexibility Score: inf
ROOT
ATOM      1  C   UNL     1     -42.795  42.013  28.023  1.00  0.00     0.036 C 
ATOM      2  H   UNL     1     -41.796  41.591  27.858  1.00  0.00     0.049 H 
ATOM      3  H   UNL     1     -42.852  42.354  29.064  1.00  0.00     0.049 H 
ENDROOT
BRANCH   1   4
ATOM      4  N   UNL     1     -43.041  43.123  27.105  1.00  0.00    -0.311 NA
ATOM      5  H   UNL     1     -42.780  43.985  27.586  1.00  0.00     0.123 HD
BRANCH   4   6
ATOM      6  C   UNL     1     -42.237  42.984  25.887  1.00  0.00     0.000 C 
ATOM      7  H   UNL     1     -41.259  43.459  26.040  1.00  0.00     0.043 H 
ATOM      8  H   UNL     1     -42.054  41.918  25.699  1.00  0.00     0.043 H 
BRANCH   6   9
ATOM      9  C   UNL     1     -42.912  43.602  24.632  1.00  0.00    -0.026 C 
BRANCH   9  10
ATOM     10  C   UNL     1     -43.489  44.993  24.950  1.00  0.00    -0.059 C 
ATOM     11  H   UNL     1     -44.553  45.046  24.696  1.00  0.00     0.024 H 
ATOM     12  H   UNL     1     -43.385  45.243  26.011  1.00  0.00     0.024 H 
ATOM     13  H   UNL     1     -42.973  45.774  24.379  1.00  0.00     0.024 H 
ENDBRANCH   9  10
BRANCH   9  14
ATOM     14  C   UNL     1     -44.067  42.678  24.200  1.00  0.00    -0.059 C 
ATOM     15  H   UNL     1     -44.617  42.302  25.070  1.00  0.00     0.024 H 
ATOM     16  H   UNL     1     -44.779  43.208  23.558  1.00  0.00     0.024 H 
ATOM     17  H   UNL     1     -43.695  41.812  23.641  1.00  0.00     0.024 H 
ENDBRANCH   9  14
BRANCH   9  18
ATOM     18  C   UNL     1     -41.918  43.720  23.463  1.00  0.00    -0.059 C 
ATOM     19  H   UNL     1     -42.197  44.537  22.789  1.00  0.00     0.024 H 
ATOM     20  H   UNL     1     -40.904  43.923  23.830  1.00  0.00     0.024 H 
ATOM     21  H   UNL     1     -41.869  42.799  22.874  1.00  0.00     0.024 H 
ENDBRANCH   9  18
ENDBRANCH   6   9
ENDBRANCH   4   6
ENDBRANCH   1   4
BRANCH   1  22
ATOM     22  C   UNL     1     -43.808  40.949  27.786  1.00  0.00     0.030 A 
ATOM     23  C   UNL     1     -44.747  40.790  26.787  1.00  0.00    -0.032 A 
ATOM     24  N   UNL     1     -43.950  39.888  28.648  1.00  0.00    -0.357 N 
ATOM     25  C   UNL     1     -45.474  39.596  27.053  1.00  0.00    -0.000 A 
ATOM     26  H   UNL     1     -44.901  41.460  25.952  1.00  0.00     0.065 H 
ATOM     27  C   UNL     1     -44.952  39.048  28.224  1.00  0.00     0.046 A 
ATOM     28  H   UNL     1     -43.365  39.744  29.461  1.00  0.00     0.166 HD
ATOM     29  C   UNL     1     -46.527  38.926  26.404  1.00  0.00    -0.052 A 
ATOM     30  C   UNL     1     -45.431  37.856  28.782  1.00  0.00    -0.033 A 
ATOM     31  C   UNL     1     -47.021  37.734  26.948  1.00  0.00    -0.057 A 
ATOM     32  H   UNL     1     -46.954  39.327  25.489  1.00  0.00     0.063 H 
ATOM     33  C   UNL     1     -46.489  37.201  28.129  1.00  0.00    -0.027 A 
ATOM     34  H   UNL     1     -44.997  37.455  29.693  1.00  0.00     0.065 H 
ATOM     35  H   UNL     1     -47.832  37.218  26.436  1.00  0.00     0.063 H 
BRANCH  33  36
ATOM     36  C   UNL     1     -47.016  35.897  28.670  1.00  0.00     0.043 C 
ATOM     37  H   UNL     1     -46.438  35.573  29.544  1.00  0.00     0.054 H 
ATOM     38  H   UNL     1     -48.056  36.004  28.998  1.00  0.00     0.054 H 
BRANCH  36  39
ATOM     39  N   UNL     1     -46.934  34.864  27.663  1.00  0.00    -0.348 N 
ATOM     40  C   UNL     1     -48.056  34.490  26.956  1.00  0.00     0.253 C 
ATOM     41  H   UNL     1     -46.133  34.249  27.701  1.00  0.00     0.164 HD
ATOM     42  O   UNL     1     -49.146  35.034  27.091  1.00  0.00    -0.269 OA
BRANCH  40  43
ATOM     43  C   UNL     1     -47.903  33.350  26.020  1.00  0.00     0.058 A 
ATOM     44  C   UNL     1     -48.931  32.410  25.950  1.00  0.00     0.042 A 
ATOM     45  C   UNL     1     -46.787  33.191  25.190  1.00  0.00    -0.037 A 
ATOM     46  N   UNL     1     -48.951  31.309  25.156  1.00  0.00    -0.238 NA
ATOM     47  H   UNL     1     -49.819  32.520  26.573  1.00  0.00     0.085 H 
ATOM     48  C   UNL     1     -46.761  32.068  24.346  1.00  0.00     0.019 A 
ATOM     49  H   UNL     1     -45.974  33.908  25.164  1.00  0.00     0.064 H 
ATOM     50  C   UNL     1     -47.849  31.203  24.391  1.00  0.00     0.137 A 
ATOM     51  C   UNL     1     -45.859  31.542  23.381  1.00  0.00    -0.035 A 
ATOM     52  N   UNL     1     -47.621  30.191  23.499  1.00  0.00    -0.346 N 
ATOM     53  C   UNL     1     -46.413  30.384  22.876  1.00  0.00     0.003 A 
ATOM     54  H   UNL     1     -44.907  31.964  23.085  1.00  0.00     0.065 H 
ATOM     55  H   UNL     1     -48.267  29.431  23.340  1.00  0.00     0.167 HD
ATOM     56  H   UNL     1     -46.058  29.685  22.132  1.00  0.00     0.082 H 
ENDBRANCH  40  43
ENDBRANCH  36  39
ENDBRANCH  33  36
ENDBRANCH   1  22
TORSDOF 10
ENDMDL
MODEL 6
REMARK VINA RESULT:      -8.3      2.353     11.095
REMARK SMILES CC(C)(C)CNCc1cc2ccc(CNC(=O)c3cnc4[nH]ccc4c3)cc2[nH]1
REMARK SMILES IDX 7 1 6 4 5 6 2 9 1 10 3 14 4 18 8 22 9 23 29 24 10 25 28 27
REMARK SMILES IDX 11 29 27 30 12 31 13 33 14 36 15 39 16 40 17 42 18 43 19 44
REMARK SMILES IDX 26 45 20 46 25 48 21 50 24 51 22 52 23 53
REMARK H PARENT 7 2 7 3 6 5 5 7 5 8 1 11 1 12 1 13 3 15 3 16 3 17 4 19 4 20
REMARK H PARENT 4 21 9 26 29 28 11 32 27 34 12 35 14 37 14 38 15 41 19 47
REMARK H PARENT 26 49 24 54 22 55 23 56
REMARK Flexibility Score: inf
ROOT
ATOM      1  C   UNL     1     -42.273  41.766  28.263  1.00  0.00     0.036 C 
ATOM      2  H   UNL     1     -41.527  41.423  27.536  1.00  0.00     0.049 H 
ATOM      3  H   UNL     1     -41.749  42.038  29.187  1.00  0.00     0.049 H 
ENDROOT
BRANCH   1   4
ATOM      4  N   UNL     1     -43.012  42.913  27.736  1.00  0.00    -0.311 NA
ATOM      5  H   UNL     1     -42.770  43.724  28.306  1.00  0.00     0.123 HD
BRANCH   4   6
ATOM      6  C   UNL     1     -42.647  43.175  26.341  1.00  0.00     0.000 C 
ATOM      7  H   UNL     1     -41.863  43.943  26.307  1.00  0.00     0.043 H 
ATOM      8  H   UNL     1     -42.224  42.261  25.904  1.00  0.00     0.043 H 
BRANCH   6   9
ATOM      9  C   UNL     1     -43.847  43.633  25.468  1.00  0.00    -0.026 C 
BRANCH   9  10
ATOM     10  C   UNL     1     -43.825  42.935  24.096  1.00  0.00    -0.059 C 
ATOM     11  H   UNL     1     -43.439  43.604  23.319  1.00  0.00     0.024 H 
ATOM     12  H   UNL     1     -43.196  42.038  24.109  1.00  0.00     0.024 H 
ATOM     13  H   UNL     1     -44.832  42.623  23.796  1.00  0.00     0.024 H 
ENDBRANCH   9  10
BRANCH   9  14
ATOM     14  C   UNL     1     -43.732  45.154  25.247  1.00  0.00    -0.059 C 
ATOM     15  H   UNL     1     -43.512  45.385  24.199  1.00  0.00     0.024 H 
ATOM     16  H   UNL     1     -44.665  45.664  25.513  1.00  0.00     0.024 H 
ATOM     17  H   UNL     1     -42.931  45.584  25.859  1.00  0.00     0.024 H 
ENDBRANCH   9  14
BRANCH   9  18
ATOM     18  C   UNL     1     -45.189  43.341  26.163  1.00  0.00    -0.059 C 
ATOM     19  H   UNL     1     -46.033  43.602  25.516  1.00  0.00     0.024 H 
ATOM     20  H   UNL     1     -45.278  42.276  26.412  1.00  0.00     0.024 H 
ATOM     21  H   UNL     1     -45.295  43.901  27.098  1.00  0.00     0.024 H 
ENDBRANCH   9  18
ENDBRANCH   6   9
ENDBRANCH   4   6
ENDBRANCH   1   4
BRANCH   1  22
ATOM     22  C   UNL     1     -43.225  40.655  28.533  1.00  0.00     0.030 A 
ATOM     23  C   UNL     1     -43.297  39.746  29.569  1.00  0.00    -0.032 A 
ATOM     24  N   UNL     1     -44.252  40.364  27.666  1.00  0.00    -0.357 N 
ATOM     25  C   UNL     1     -44.402  38.884  29.322  1.00  0.00    -0.000 A 
ATOM     26  H   UNL     1     -42.627  39.700  30.417  1.00  0.00     0.065 H 
ATOM     27  C   UNL     1     -44.985  39.295  28.124  1.00  0.00     0.046 A 
ATOM     28  H   UNL     1     -44.446  40.896  26.828  1.00  0.00     0.166 HD
ATOM     29  C   UNL     1     -44.964  37.792  30.008  1.00  0.00    -0.052 A 
ATOM     30  C   UNL     1     -46.110  38.667  27.574  1.00  0.00    -0.033 A 
ATOM     31  C   UNL     1     -46.088  37.151  29.474  1.00  0.00    -0.057 A 
ATOM     32  H   UNL     1     -44.533  37.450  30.945  1.00  0.00     0.063 H 
ATOM     33  C   UNL     1     -46.657  37.572  28.265  1.00  0.00    -0.027 A 
ATOM     34  H   UNL     1     -46.543  39.018  26.642  1.00  0.00     0.065 H 
ATOM     35  H   UNL     1     -46.521  36.310  30.014  1.00  0.00     0.063 H 
BRANCH  33  36
ATOM     36  C   UNL     1     -47.889  36.886  27.734  1.00  0.00     0.043 C 
ATOM     37  H   UNL     1     -48.522  36.526  28.554  1.00  0.00     0.054 H 
ATOM     38  H   UNL     1     -48.497  37.582  27.143  1.00  0.00     0.054 H 
BRANCH  36  39
ATOM     39  N   UNL     1     -47.522  35.755  26.913  1.00  0.00    -0.348 N 
ATOM     40  C   UNL     1     -48.433  34.752  26.663  1.00  0.00     0.253 C 
ATOM     41  H   UNL     1     -46.535  35.586  26.780  1.00  0.00     0.164 HD
ATOM     42  O   UNL     1     -49.592  34.783  27.059  1.00  0.00    -0.269 OA
BRANCH  40  43
ATOM     43  C   UNL     1     -47.938  33.580  25.901  1.00  0.00     0.058 A 
ATOM     44  C   UNL     1     -46.614  33.586  25.463  1.00  0.00     0.042 A 
ATOM     45  C   UNL     1     -48.735  32.461  25.624  1.00  0.00    -0.037 A 
ATOM     46  N   UNL     1     -46.006  32.602  24.751  1.00  0.00    -0.238 NA
ATOM     47  H   UNL     1     -45.969  34.437  25.680  1.00  0.00     0.085 H 
ATOM     48  C   UNL     1     -48.149  31.413  24.893  1.00  0.00     0.019 A 
ATOM     49  H   UNL     1     -49.757  32.373  25.972  1.00  0.00     0.064 H 
ATOM     50  C   UNL     1     -46.821  31.561  24.506  1.00  0.00     0.137 A 
ATOM     51  C   UNL     1     -48.577  30.146  24.412  1.00  0.00    -0.035 A 
ATOM     52  N   UNL     1     -46.455  30.439  23.815  1.00  0.00    -0.346 N 
ATOM     53  C   UNL     1     -47.514  29.567  23.750  1.00  0.00     0.003 A 
ATOM     54  H   UNL     1     -49.557  29.702  24.536  1.00  0.00     0.065 H 
ATOM     55  H   UNL     1     -45.534  30.297  23.428  1.00  0.00     0.167 HD
ATOM     56  H   UNL     1     -47.417  28.617  23.243  1.00  0.00     0.082 H 
ENDBRANCH  40  43
ENDBRANCH  36  39
ENDBRANCH  33  36
ENDBRANCH   1  22
TORSDOF 10
ENDMDL
MODEL 7
REMARK VINA RESULT:      -8.3      2.553     10.875
REMARK SMILES CC(C)(C)CNCc1cc2ccc(CNC(=O)c3cnc4[nH]ccc4c3)cc2[nH]1
REMARK SMILES IDX 7 1 6 4 5 6 2 9 1 10 3 14 4 18 8 22 9 23 29 24 10 25 28 27
REMARK SMILES IDX 11 29 27 30 12 31 13 33 14 36 15 39 16 40 17 42 18 43 19 44
REMARK SMILES IDX 26 45 20 46 25 48 21 50 24 51 22 52 23 53
REMARK H PARENT 7 2 7 3 6 5 5 7 5 8 1 11 1 12 1 13 3 15 3 16 3 17 4 19 4 20
REMARK H PARENT 4 21 9 26 29 28 11 32 27 34 12 35 14 37 14 38 15 41 19 47
REMARK H PARENT 26 49 24 54 22 55 23 56
REMARK Flexibility Score: inf
ROOT
ATOM      1  C   UNL     1     -45.893  37.378  30.200  1.00  0.00     0.036 C 
ATOM      2  H   UNL     1     -44.983  36.943  30.631  1.00  0.00     0.049 H 
ATOM      3  H   UNL     1     -46.646  37.448  30.994  1.00  0.00     0.049 H 
ENDROOT
BRANCH   1   4
ATOM      4  N   UNL     1     -45.615  38.699  29.639  1.00  0.00    -0.311 NA
ATOM      5  H   UNL     1     -44.728  38.641  29.137  1.00  0.00     0.123 HD
BRANCH   4   6
ATOM      6  C   UNL     1     -46.672  39.107  28.710  1.00  0.00     0.000 C 
ATOM      7  H   UNL     1     -47.354  38.264  28.541  1.00  0.00     0.043 H 
ATOM      8  H   UNL     1     -47.261  39.912  29.168  1.00  0.00     0.043 H 
BRANCH   6   9
ATOM      9  C   UNL     1     -46.129  39.605  27.342  1.00  0.00    -0.026 C 
BRANCH   9  10
ATOM     10  C   UNL     1     -46.730  40.976  26.982  1.00  0.00    -0.059 C 
ATOM     11  H   UNL     1     -47.769  40.876  26.647  1.00  0.00     0.024 H 
ATOM     12  H   UNL     1     -46.718  41.661  27.836  1.00  0.00     0.024 H 
ATOM     13  H   UNL     1     -46.166  41.454  26.173  1.00  0.00     0.024 H 
ENDBRANCH   9  10
BRANCH   9  14
ATOM     14  C   UNL     1     -46.539  38.589  26.260  1.00  0.00    -0.059 C 
ATOM     15  H   UNL     1     -45.676  38.007  25.917  1.00  0.00     0.024 H 
ATOM     16  H   UNL     1     -47.286  37.883  26.642  1.00  0.00     0.024 H 
ATOM     17  H   UNL     1     -46.971  39.090  25.387  1.00  0.00     0.024 H 
ENDBRANCH   9  14
BRANCH   9  18
ATOM     18  C   UNL     1     -44.594  39.713  27.355  1.00  0.00    -0.059 C 
ATOM     19  H   UNL     1     -44.181  39.575  26.350  1.00  0.00     0.024 H 
ATOM     20  H   UNL     1     -44.273  40.699  27.714  1.00  0.00     0.024 H 
ATOM     21  H   UNL     1     -44.138  38.967  28.014  1.00  0.00     0.024 H 
ENDBRANCH   9  18
ENDBRANCH   6   9
ENDBRANCH   4   6
ENDBRANCH   1   4
BRANCH   1  22
ATOM     22  C   UNL     1     -46.384  36.483  29.118  1.00  0.00     0.030 A 
ATOM     23  C   UNL     1     -47.663  36.159  28.711  1.00  0.00    -0.032 A 
ATOM     24  N   UNL     1     -45.515  35.780  28.318  1.00  0.00    -0.357 N 
ATOM     25  C   UNL     1     -47.561  35.238  27.632  1.00  0.00    -0.000 A 
ATOM     26  H   UNL     1     -48.579  36.541  29.142  1.00  0.00     0.065 H 
ATOM     27  C   UNL     1     -46.204  35.019  27.404  1.00  0.00     0.046 A 
ATOM     28  H   UNL     1     -44.508  35.852  28.386  1.00  0.00     0.166 HD
ATOM     29  C   UNL     1     -48.499  34.570  26.824  1.00  0.00    -0.052 A 
ATOM     30  C   UNL     1     -45.732  34.162  26.401  1.00  0.00    -0.033 A 
ATOM     31  C   UNL     1     -48.047  33.708  25.817  1.00  0.00    -0.057 A 
ATOM     32  H   UNL     1     -49.564  34.721  26.976  1.00  0.00     0.063 H 
ATOM     33  C   UNL     1     -46.679  33.494  25.606  1.00  0.00    -0.027 A 
ATOM     34  H   UNL     1     -44.666  34.020  26.247  1.00  0.00     0.065 H 
ATOM     35  H   UNL     1     -48.779  33.200  25.191  1.00  0.00     0.063 H 
BRANCH  33  36
ATOM     36  C   UNL     1     -46.221  32.590  24.490  1.00  0.00     0.043 C 
ATOM     37  H   UNL     1     -46.484  33.011  23.512  1.00  0.00     0.054 H 
ATOM     38  H   UNL     1     -45.131  32.475  24.506  1.00  0.00     0.054 H 
BRANCH  36  39
ATOM     39  N   UNL     1     -46.843  31.291  24.607  1.00  0.00    -0.348 N 
ATOM     40  C   UNL     1     -47.567  30.768  23.558  1.00  0.00     0.253 C 
ATOM     41  H   UNL     1     -46.971  30.927  25.541  1.00  0.00     0.164 HD
ATOM     42  O   UNL     1     -47.677  31.328  22.474  1.00  0.00    -0.269 OA
BRANCH  40  43
ATOM     43  C   UNL     1     -48.258  29.479  23.804  1.00  0.00     0.058 A 
ATOM     44  C   UNL     1     -48.682  28.737  22.702  1.00  0.00     0.042 A 
ATOM     45  C   UNL     1     -48.479  28.967  25.088  1.00  0.00    -0.037 A 
ATOM     46  N   UNL     1     -49.332  27.545  22.747  1.00  0.00    -0.238 NA
ATOM     47  H   UNL     1     -48.507  29.105  21.691  1.00  0.00     0.085 H 
ATOM     48  C   UNL     1     -49.145  27.733  25.188  1.00  0.00     0.019 A 
ATOM     49  H   UNL     1     -48.136  29.472  25.984  1.00  0.00     0.064 H 
ATOM     50  C   UNL     1     -49.527  27.109  24.005  1.00  0.00     0.137 A 
ATOM     51  C   UNL     1     -49.558  26.884  26.251  1.00  0.00    -0.035 A 
ATOM     52  N   UNL     1     -50.151  25.936  24.329  1.00  0.00    -0.346 N 
ATOM     53  C   UNL     1     -50.177  25.785  25.693  1.00  0.00     0.003 A 
ATOM     54  H   UNL     1     -49.419  27.056  27.311  1.00  0.00     0.065 H 
ATOM     55  H   UNL     1     -50.521  25.292  23.644  1.00  0.00     0.167 HD
ATOM     56  H   UNL     1     -50.629  24.912  26.143  1.00  0.00     0.082 H 
ENDBRANCH  40  43
ENDBRANCH  36  39
ENDBRANCH  33  36
ENDBRANCH   1  22
TORSDOF 10
ENDMDL
