MODEL 1
REMARK VINA RESULT:     -10.8      0.000      0.000
REMARK SMILES Cn1ccc(-c2cn([C@@H]3O[C@H](COc4ccc5ncc(N6CCC6)nc5c4)[C@@H](O)[C@@H]3F)c3ncnc(N)c23)n1
REMARK SMILES IDX 9 1 10 2 11 3 28 4 30 5 31 6 8 11 6 12 7 13 38 14 32 16
REMARK SMILES IDX 36 17 33 18 35 19 34 20 5 22 2 23 3 24 39 25 4 26 1 29 37 33
REMARK SMILES IDX 12 36 13 39 14 40 15 41 27 42 16 43 26 45 17 47 25 49 18 50
REMARK SMILES IDX 20 51 19 52 21 54 22 55 24 56 23 57 29 64
REMARK H PARENT 9 7 11 8 28 9 30 10 7 15 34 21 3 27 4 28 1 30 1 31 1 32 37 34
REMARK H PARENT 37 35 12 37 12 38 15 44 27 46 16 48 19 53 22 58 22 59 24 60
REMARK H PARENT 24 61 23 62 23 63 29 65
REMARK Flexibility Score: inf
ROOT
ATOM      1  C   UNL     1     -44.762  37.790  29.164  1.00  0.00     0.169 C 
ATOM      2  O   UNL     1     -44.966  36.753  28.172  1.00  0.00    -0.345 OA
ATOM      3  C   UNL     1     -46.267  36.158  28.375  1.00  0.00     0.123 C 
ATOM      4  C   UNL     1     -46.662  36.502  29.809  1.00  0.00     0.119 C 
ATOM      5  C   UNL     1     -45.975  37.825  30.090  1.00  0.00     0.173 C 
ATOM      6  F   UNL     1     -46.819  38.845  29.792  1.00  0.00    -0.239 F 
ATOM      7  H   UNL     1     -43.867  37.486  29.719  1.00  0.00     0.088 H 
ATOM      8  H   UNL     1     -46.123  35.078  28.252  1.00  0.00     0.067 H 
ATOM      9  H   UNL     1     -47.746  36.547  29.947  1.00  0.00     0.066 H 
ATOM     10  H   UNL     1     -45.676  37.945  31.135  1.00  0.00     0.074 H 
ENDROOT
BRANCH   1  11
ATOM     11  N   UNL     1     -44.456  39.054  28.517  1.00  0.00    -0.302 N 
ATOM     12  C   UNL     1     -44.568  40.863  27.223  1.00  0.00     0.033 A 
ATOM     13  C   UNL     1     -45.061  39.586  27.412  1.00  0.00     0.019 A 
ATOM     14  C   UNL     1     -43.512  41.060  28.161  1.00  0.00     0.071 A 
ATOM     15  H   UNL     1     -45.839  39.057  26.877  1.00  0.00     0.083 H 
ATOM     16  C   UNL     1     -43.490  39.921  28.964  1.00  0.00     0.148 A 
ATOM     17  C   UNL     1     -42.546  42.037  28.459  1.00  0.00     0.137 A 
ATOM     18  N   UNL     1     -42.676  39.684  30.008  1.00  0.00    -0.218 NA
ATOM     19  N   UNL     1     -41.711  41.839  29.500  1.00  0.00    -0.219 NA
ATOM     20  C   UNL     1     -41.829  40.704  30.211  1.00  0.00     0.120 A 
ATOM     21  H   UNL     1     -41.146  40.597  31.048  1.00  0.00     0.106 H 
BRANCH  12  22
ATOM     22  C   UNL     1     -45.091  41.809  26.240  1.00  0.00     0.095 A 
ATOM     23  N   UNL     1     -46.284  43.328  25.381  1.00  0.00    -0.275 N 
ATOM     24  C   UNL     1     -45.248  43.174  24.507  1.00  0.00     0.025 A 
ATOM     25  N   UNL     1     -46.232  42.487  26.428  1.00  0.00    -0.173 NA
ATOM     26  C   UNL     1     -44.434  42.212  25.058  1.00  0.00    -0.016 A 
ATOM     27  H   UNL     1     -45.152  43.778  23.617  1.00  0.00     0.084 H 
ATOM     28  H   UNL     1     -43.478  41.880  24.678  1.00  0.00     0.066 H 
BRANCH  23  29
ATOM     29  C   UNL     1     -47.355  44.289  25.297  1.00  0.00     0.030 C 
ATOM     30  H   UNL     1     -48.068  43.946  24.542  1.00  0.00     0.048 H 
ATOM     31  H   UNL     1     -46.931  45.255  25.015  1.00  0.00     0.048 H 
ATOM     32  H   UNL     1     -47.851  44.367  26.268  1.00  0.00     0.048 H 
ENDBRANCH  23  29
ENDBRANCH  12  22
BRANCH  17  33
ATOM     33  N   UNL     1     -42.333  43.193  27.718  1.00  0.00    -0.383 N 
ATOM     34  H   UNL     1     -41.604  43.785  28.099  1.00  0.00     0.158 HD
ATOM     35  H   UNL     1     -43.219  43.653  27.544  1.00  0.00     0.158 HD
ENDBRANCH  17  33
ENDBRANCH   1  11
BRANCH   3  36
ATOM     36  C   UNL     1     -47.226  36.630  27.266  1.00  0.00     0.117 C 
ATOM     37  H   UNL     1     -46.652  36.872  26.365  1.00  0.00     0.073 H 
ATOM     38  H   UNL     1     -47.734  37.529  27.630  1.00  0.00     0.073 H 
BRANCH  36  39
ATOM     39  O   UNL     1     -48.151  35.602  26.927  1.00  0.00    -0.491 OA
BRANCH  39  40
ATOM     40  C   UNL     1     -47.699  34.525  26.223  1.00  0.00     0.121 A 
ATOM     41  C   UNL     1     -46.478  34.425  25.569  1.00  0.00    -0.018 A 
ATOM     42  C   UNL     1     -48.584  33.444  26.180  1.00  0.00     0.008 A 
ATOM     43  C   UNL     1     -46.181  33.270  24.839  1.00  0.00    -0.031 A 
ATOM     44  H   UNL     1     -45.741  35.219  25.598  1.00  0.00     0.066 H 
ATOM     45  C   UNL     1     -48.297  32.289  25.466  1.00  0.00     0.095 A 
ATOM     46  H   UNL     1     -49.538  33.515  26.698  1.00  0.00     0.069 H 
ATOM     47  C   UNL     1     -47.070  32.206  24.768  1.00  0.00     0.089 A 
ATOM     48  H   UNL     1     -45.232  33.198  24.313  1.00  0.00     0.065 H 
ATOM     49  N   UNL     1     -49.188  31.277  25.451  1.00  0.00    -0.227 NA
ATOM     50  N   UNL     1     -46.748  31.115  24.048  1.00  0.00    -0.251 NA
ATOM     51  C   UNL     1     -48.882  30.178  24.729  1.00  0.00     0.147 A 
ATOM     52  C   UNL     1     -47.666  30.117  24.052  1.00  0.00     0.070 A 
ATOM     53  H   UNL     1     -47.387  29.237  23.484  1.00  0.00     0.088 H 
BRANCH  51  54
ATOM     54  N   UNL     1     -49.791  29.107  24.692  1.00  0.00    -0.355 N 
ATOM     55  C   UNL     1     -49.473  27.728  24.463  1.00  0.00     0.021 C 
ATOM     56  C   UNL     1     -50.937  29.055  23.826  1.00  0.00     0.021 C 
ATOM     57  C   UNL     1     -50.944  27.542  24.076  1.00  0.00    -0.018 C 
ATOM     58  H   UNL     1     -49.148  27.198  25.361  1.00  0.00     0.049 H 
ATOM     59  H   UNL     1     -48.758  27.583  23.646  1.00  0.00     0.049 H 
ATOM     60  H   UNL     1     -50.712  29.350  22.795  1.00  0.00     0.049 H 
ATOM     61  H   UNL     1     -51.798  29.607  24.210  1.00  0.00     0.049 H 
ATOM     62  H   UNL     1     -51.592  27.225  24.900  1.00  0.00     0.030 H 
ATOM     63  H   UNL     1     -51.132  26.916  23.200  1.00  0.00     0.030 H 
ENDBRANCH  51  54
ENDBRANCH  39  40
ENDBRANCH  36  39
ENDBRANCH   3  36
BRANCH   4  64
ATOM     64  O   UNL     1     -46.162  35.499  30.711  1.00  0.00    -0.387 OA
ATOM     65  H   UNL     1     -45.474  34.979  30.258  1.00  0.00     0.211 HD
ENDBRANCH   4  64
TORSDOF 9
ENDMDL
MODEL 2
REMARK VINA RESULT:      -9.2      4.675      7.479
REMARK SMILES Cn1ccc(-c2cn([C@@H]3O[C@H](COc4ccc5ncc(N6CCC6)nc5c4)[C@@H](O)[C@@H]3F)c3ncnc(N)c23)n1
REMARK SMILES IDX 9 1 10 2 11 3 28 4 30 5 31 6 8 11 6 12 7 13 38 14 32 16
REMARK SMILES IDX 36 17 33 18 35 19 34 20 5 22 2 23 3 24 39 25 4 26 1 29 37 33
REMARK SMILES IDX 12 36 13 39 14 40 15 41 27 42 16 43 26 45 17 47 25 49 18 50
REMARK SMILES IDX 20 51 19 52 21 54 22 55 24 56 23 57 29 64
REMARK H PARENT 9 7 11 8 28 9 30 10 7 15 34 21 3 27 4 28 1 30 1 31 1 32 37 34
REMARK H PARENT 37 35 12 37 12 38 15 44 27 46 16 48 19 53 22 58 22 59 24 60
REMARK H PARENT 24 61 23 62 23 63 29 65
REMARK Flexibility Score: inf
ROOT
ATOM      1  C   UNL     1     -44.804  37.744  28.862  1.00  0.00     0.169 C 
ATOM      2  O   UNL     1     -45.269  36.864  27.807  1.00  0.00    -0.345 OA
ATOM      3  C   UNL     1     -46.581  36.368  28.154  1.00  0.00     0.123 C 
ATOM      4  C   UNL     1     -46.714  36.563  29.663  1.00  0.00     0.119 C 
ATOM      5  C   UNL     1     -45.851  37.771  29.972  1.00  0.00     0.173 C 
ATOM      6  F   UNL     1     -46.614  38.893  29.932  1.00  0.00    -0.239 F 
ATOM      7  H   UNL     1     -43.873  37.292  29.225  1.00  0.00     0.088 H 
ATOM      8  H   UNL     1     -46.577  35.304  27.891  1.00  0.00     0.067 H 
ATOM      9  H   UNL     1     -47.752  36.688  29.982  1.00  0.00     0.066 H 
ATOM     10  H   UNL     1     -45.385  37.730  30.961  1.00  0.00     0.074 H 
ENDROOT
BRANCH   1  11
ATOM     11  N   UNL     1     -44.464  39.047  28.317  1.00  0.00    -0.302 N 
ATOM     12  C   UNL     1     -44.508  40.940  27.145  1.00  0.00     0.033 A 
ATOM     13  C   UNL     1     -45.014  39.656  27.224  1.00  0.00     0.019 A 
ATOM     14  C   UNL     1     -43.496  41.065  28.143  1.00  0.00     0.071 A 
ATOM     15  H   UNL     1     -45.767  39.170  26.618  1.00  0.00     0.083 H 
ATOM     16  C   UNL     1     -43.517  39.875  28.866  1.00  0.00     0.148 A 
ATOM     17  C   UNL     1     -42.542  42.014  28.550  1.00  0.00     0.137 A 
ATOM     18  N   UNL     1     -42.753  39.562  29.929  1.00  0.00    -0.218 NA
ATOM     19  N   UNL     1     -41.757  41.740  29.614  1.00  0.00    -0.219 NA
ATOM     20  C   UNL     1     -41.912  40.560  30.240  1.00  0.00     0.120 A 
ATOM     21  H   UNL     1     -41.270  40.392  31.099  1.00  0.00     0.106 H 
BRANCH  12  22
ATOM     22  C   UNL     1     -44.981  41.954  26.205  1.00  0.00     0.095 A 
ATOM     23  N   UNL     1     -45.051  43.216  24.512  1.00  0.00    -0.275 N 
ATOM     24  C   UNL     1     -46.295  43.316  25.062  1.00  0.00     0.025 A 
ATOM     25  N   UNL     1     -44.220  42.420  25.206  1.00  0.00    -0.173 NA
ATOM     26  C   UNL     1     -46.291  42.477  26.151  1.00  0.00    -0.016 A 
ATOM     27  H   UNL     1     -47.073  43.920  24.618  1.00  0.00     0.084 H 
ATOM     28  H   UNL     1     -47.131  42.244  26.791  1.00  0.00     0.066 H 
BRANCH  23  29
ATOM     29  C   UNL     1     -44.588  43.834  23.294  1.00  0.00     0.030 C 
ATOM     30  H   UNL     1     -44.437  44.900  23.484  1.00  0.00     0.048 H 
ATOM     31  H   UNL     1     -45.346  43.684  22.522  1.00  0.00     0.048 H 
ATOM     32  H   UNL     1     -43.646  43.373  22.987  1.00  0.00     0.048 H 
ENDBRANCH  23  29
ENDBRANCH  12  22
BRANCH  17  33
ATOM     33  N   UNL     1     -42.290  43.216  27.901  1.00  0.00    -0.383 N 
ATOM     34  H   UNL     1     -41.302  43.427  27.817  1.00  0.00     0.158 HD
ATOM     35  H   UNL     1     -42.857  43.949  28.311  1.00  0.00     0.158 HD
ENDBRANCH  17  33
ENDBRANCH   1  11
BRANCH   3  36
ATOM     36  C   UNL     1     -47.640  37.061  27.277  1.00  0.00     0.117 C 
ATOM     37  H   UNL     1     -47.617  36.633  26.269  1.00  0.00     0.073 H 
ATOM     38  H   UNL     1     -47.384  38.125  27.229  1.00  0.00     0.073 H 
BRANCH  36  39
ATOM     39  O   UNL     1     -48.946  36.857  27.805  1.00  0.00    -0.491 OA
BRANCH  39  40
ATOM     40  C   UNL     1     -49.730  37.946  28.047  1.00  0.00     0.121 A 
ATOM     41  C   UNL     1     -51.099  37.937  28.278  1.00  0.00    -0.018 A 
ATOM     42  C   UNL     1     -49.048  39.165  28.052  1.00  0.00     0.008 A 
ATOM     43  C   UNL     1     -51.776  39.147  28.457  1.00  0.00    -0.031 A 
ATOM     44  H   UNL     1     -51.671  37.017  28.319  1.00  0.00     0.066 H 
ATOM     45  C   UNL     1     -49.706  40.373  28.237  1.00  0.00     0.095 A 
ATOM     46  H   UNL     1     -47.974  39.176  27.880  1.00  0.00     0.069 H 
ATOM     47  C   UNL     1     -51.107  40.364  28.431  1.00  0.00     0.089 A 
ATOM     48  H   UNL     1     -52.850  39.142  28.621  1.00  0.00     0.065 H 
ATOM     49  N   UNL     1     -49.002  41.524  28.226  1.00  0.00    -0.227 NA
ATOM     50  N   UNL     1     -51.797  41.507  28.600  1.00  0.00    -0.251 NA
ATOM     51  C   UNL     1     -49.681  42.680  28.389  1.00  0.00     0.147 A 
ATOM     52  C   UNL     1     -51.060  42.646  28.582  1.00  0.00     0.070 A 
ATOM     53  H   UNL     1     -51.625  43.557  28.738  1.00  0.00     0.088 H 
BRANCH  51  54
ATOM     54  N   UNL     1     -48.976  43.895  28.380  1.00  0.00    -0.355 N 
ATOM     55  C   UNL     1     -49.055  44.932  29.368  1.00  0.00     0.021 C 
ATOM     56  C   UNL     1     -49.009  44.836  27.294  1.00  0.00     0.021 C 
ATOM     57  C   UNL     1     -48.494  45.874  28.297  1.00  0.00    -0.018 C 
ATOM     58  H   UNL     1     -48.412  44.761  30.234  1.00  0.00     0.049 H 
ATOM     59  H   UNL     1     -50.082  45.148  29.681  1.00  0.00     0.049 H 
ATOM     60  H   UNL     1     -50.020  45.022  26.916  1.00  0.00     0.049 H 
ATOM     61  H   UNL     1     -48.329  44.581  26.478  1.00  0.00     0.049 H 
ATOM     62  H   UNL     1     -47.404  45.981  28.315  1.00  0.00     0.030 H 
ATOM     63  H   UNL     1     -48.958  46.862  28.240  1.00  0.00     0.030 H 
ENDBRANCH  51  54
ENDBRANCH  39  40
ENDBRANCH  36  39
ENDBRANCH   3  36
BRANCH   4  64
ATOM     64  O   UNL     1     -46.195  35.412  30.354  1.00  0.00    -0.387 OA
ATOM     65  H   UNL     1     -45.257  35.296  30.118  1.00  0.00     0.211 HD
ENDBRANCH   4  64
TORSDOF 9
ENDMDL
MODEL 3
REMARK VINA RESULT:      -9.1      1.681      2.296
REMARK SMILES Cn1ccc(-c2cn([C@@H]3O[C@H](COc4ccc5ncc(N6CCC6)nc5c4)[C@@H](O)[C@@H]3F)c3ncnc(N)c23)n1
REMARK SMILES IDX 9 1 10 2 11 3 28 4 30 5 31 6 8 11 6 12 7 13 38 14 32 16
REMARK SMILES IDX 36 17 33 18 35 19 34 20 5 22 2 23 3 24 39 25 4 26 1 29 37 33
REMARK SMILES IDX 12 36 13 39 14 40 15 41 27 42 16 43 26 45 17 47 25 49 18 50
REMARK SMILES IDX 20 51 19 52 21 54 22 55 24 56 23 57 29 64
REMARK H PARENT 9 7 11 8 28 9 30 10 7 15 34 21 3 27 4 28 1 30 1 31 1 32 37 34
REMARK H PARENT 37 35 12 37 12 38 15 44 27 46 16 48 19 53 22 58 22 59 24 60
REMARK H PARENT 24 61 23 62 23 63 29 65
REMARK Flexibility Score: inf
ROOT
ATOM      1  C   UNL     1     -47.379  38.088  28.220  1.00  0.00     0.169 C 
ATOM      2  O   UNL     1     -47.067  37.086  29.221  1.00  0.00    -0.345 OA
ATOM      3  C   UNL     1     -47.308  35.775  28.662  1.00  0.00     0.123 C 
ATOM      4  C   UNL     1     -48.240  35.994  27.473  1.00  0.00     0.119 C 
ATOM      5  C   UNL     1     -47.902  37.385  26.971  1.00  0.00     0.173 C 
ATOM      6  F   UNL     1     -46.959  37.297  25.998  1.00  0.00    -0.239 F 
ATOM      7  H   UNL     1     -48.165  38.707  28.668  1.00  0.00     0.088 H 
ATOM      8  H   UNL     1     -47.804  35.200  29.454  1.00  0.00     0.067 H 
ATOM      9  H   UNL     1     -48.130  35.225  26.704  1.00  0.00     0.066 H 
ATOM     10  H   UNL     1     -48.760  37.913  26.546  1.00  0.00     0.074 H 
ENDROOT
BRANCH   1  11
ATOM     11  N   UNL     1     -46.232  38.951  27.996  1.00  0.00    -0.302 N 
ATOM     12  C   UNL     1     -44.892  40.545  27.208  1.00  0.00     0.033 A 
ATOM     13  C   UNL     1     -46.040  39.818  26.956  1.00  0.00     0.019 A 
ATOM     14  C   UNL     1     -44.278  39.992  28.371  1.00  0.00     0.071 A 
ATOM     15  H   UNL     1     -46.755  39.909  26.149  1.00  0.00     0.083 H 
ATOM     16  C   UNL     1     -45.156  39.019  28.845  1.00  0.00     0.148 A 
ATOM     17  C   UNL     1     -43.093  40.159  29.107  1.00  0.00     0.137 A 
ATOM     18  N   UNL     1     -45.004  38.262  29.947  1.00  0.00    -0.218 NA
ATOM     19  N   UNL     1     -42.902  39.420  30.221  1.00  0.00    -0.219 NA
ATOM     20  C   UNL     1     -43.854  38.541  30.579  1.00  0.00     0.120 A 
ATOM     21  H   UNL     1     -43.663  37.982  31.490  1.00  0.00     0.106 H 
BRANCH  12  22
ATOM     22  C   UNL     1     -44.446  41.683  26.406  1.00  0.00     0.095 A 
ATOM     23  N   UNL     1     -43.162  43.008  25.377  1.00  0.00    -0.275 N 
ATOM     24  C   UNL     1     -44.412  43.356  24.961  1.00  0.00     0.025 A 
ATOM     25  N   UNL     1     -43.154  42.014  26.282  1.00  0.00    -0.173 NA
ATOM     26  C   UNL     1     -45.271  42.486  25.590  1.00  0.00    -0.016 A 
ATOM     27  H   UNL     1     -44.580  44.138  24.235  1.00  0.00     0.084 H 
ATOM     28  H   UNL     1     -46.341  42.416  25.446  1.00  0.00     0.066 H 
BRANCH  23  29
ATOM     29  C   UNL     1     -41.910  43.565  24.926  1.00  0.00     0.030 C 
ATOM     30  H   UNL     1     -42.062  43.991  23.931  1.00  0.00     0.048 H 
ATOM     31  H   UNL     1     -41.169  42.763  24.893  1.00  0.00     0.048 H 
ATOM     32  H   UNL     1     -41.588  44.344  25.621  1.00  0.00     0.048 H 
ENDBRANCH  23  29
ENDBRANCH  12  22
BRANCH  17  33
ATOM     33  N   UNL     1     -42.046  40.999  28.747  1.00  0.00    -0.383 N 
ATOM     34  H   UNL     1     -41.759  40.891  27.782  1.00  0.00     0.158 HD
ATOM     35  H   UNL     1     -41.302  40.925  29.432  1.00  0.00     0.158 HD
ENDBRANCH  17  33
ENDBRANCH   1  11
BRANCH   3  36
ATOM     36  C   UNL     1     -45.962  35.089  28.362  1.00  0.00     0.117 C 
ATOM     37  H   UNL     1     -45.279  35.239  29.205  1.00  0.00     0.073 H 
ATOM     38  H   UNL     1     -45.545  35.559  27.465  1.00  0.00     0.073 H 
BRANCH  36  39
ATOM     39  O   UNL     1     -46.137  33.687  28.190  1.00  0.00    -0.491 OA
BRANCH  39  40
ATOM     40  C   UNL     1     -46.442  33.215  26.948  1.00  0.00     0.121 A 
ATOM     41  C   UNL     1     -46.054  33.776  25.739  1.00  0.00    -0.018 A 
ATOM     42  C   UNL     1     -47.222  32.056  26.941  1.00  0.00     0.008 A 
ATOM     43  C   UNL     1     -46.495  33.204  24.541  1.00  0.00    -0.031 A 
ATOM     44  H   UNL     1     -45.422  34.655  25.687  1.00  0.00     0.066 H 
ATOM     45  C   UNL     1     -47.658  31.473  25.759  1.00  0.00     0.095 A 
ATOM     46  H   UNL     1     -47.520  31.607  27.886  1.00  0.00     0.069 H 
ATOM     47  C   UNL     1     -47.296  32.070  24.529  1.00  0.00     0.089 A 
ATOM     48  H   UNL     1     -46.206  33.653  23.594  1.00  0.00     0.065 H 
ATOM     49  N   UNL     1     -48.415  30.358  25.806  1.00  0.00    -0.227 NA
ATOM     50  N   UNL     1     -47.704  31.555  23.355  1.00  0.00    -0.251 NA
ATOM     51  C   UNL     1     -48.837  29.832  24.636  1.00  0.00     0.147 A 
ATOM     52  C   UNL     1     -48.465  30.435  23.438  1.00  0.00     0.070 A 
ATOM     53  H   UNL     1     -48.772  30.021  22.484  1.00  0.00     0.088 H 
BRANCH  51  54
ATOM     54  N   UNL     1     -49.630  28.671  24.652  1.00  0.00    -0.355 N 
ATOM     55  C   UNL     1     -49.571  27.615  25.620  1.00  0.00     0.021 C 
ATOM     56  C   UNL     1     -49.728  27.749  23.554  1.00  0.00     0.021 C 
ATOM     57  C   UNL     1     -50.261  26.734  24.572  1.00  0.00    -0.018 C 
ATOM     58  H   UNL     1     -50.149  27.817  26.524  1.00  0.00     0.049 H 
ATOM     59  H   UNL     1     -48.546  27.319  25.870  1.00  0.00     0.049 H 
ATOM     60  H   UNL     1     -48.757  27.496  23.116  1.00  0.00     0.049 H 
ATOM     61  H   UNL     1     -50.433  28.067  22.782  1.00  0.00     0.049 H 
ATOM     62  H   UNL     1     -51.353  26.707  24.653  1.00  0.00     0.030 H 
ATOM     63  H   UNL     1     -49.874  25.717  24.475  1.00  0.00     0.030 H 
ENDBRANCH  51  54
ENDBRANCH  39  40
ENDBRANCH  36  39
ENDBRANCH   3  36
BRANCH   4  64
ATOM     64  O   UNL     1     -49.611  35.962  27.911  1.00  0.00    -0.387 OA
ATOM     65  H   UNL     1     -49.930  36.875  28.026  1.00  0.00     0.211 HD
ENDBRANCH   4  64
TORSDOF 9
ENDMDL
MODEL 4
REMARK VINA RESULT:      -9.0      1.481      2.266
REMARK SMILES Cn1ccc(-c2cn([C@@H]3O[C@H](COc4ccc5ncc(N6CCC6)nc5c4)[C@@H](O)[C@@H]3F)c3ncnc(N)c23)n1
REMARK SMILES IDX 9 1 10 2 11 3 28 4 30 5 31 6 8 11 6 12 7 13 38 14 32 16
REMARK SMILES IDX 36 17 33 18 35 19 34 20 5 22 2 23 3 24 39 25 4 26 1 29 37 33
REMARK SMILES IDX 12 36 13 39 14 40 15 41 27 42 16 43 26 45 17 47 25 49 18 50
REMARK SMILES IDX 20 51 19 52 21 54 22 55 24 56 23 57 29 64
REMARK H PARENT 9 7 11 8 28 9 30 10 7 15 34 21 3 27 4 28 1 30 1 31 1 32 37 34
REMARK H PARENT 37 35 12 37 12 38 15 44 27 46 16 48 19 53 22 58 22 59 24 60
REMARK H PARENT 24 61 23 62 23 63 29 65
REMARK Flexibility Score: inf
ROOT
ATOM      1  C   UNL     1     -46.176  38.512  28.842  1.00  0.00     0.169 C 
ATOM      2  O   UNL     1     -45.447  37.281  29.082  1.00  0.00    -0.345 OA
ATOM      3  C   UNL     1     -46.198  36.176  28.529  1.00  0.00     0.123 C 
ATOM      4  C   UNL     1     -47.632  36.681  28.381  1.00  0.00     0.119 C 
ATOM      5  C   UNL     1     -47.492  38.173  28.149  1.00  0.00     0.173 C 
ATOM      6  F   UNL     1     -47.448  38.421  26.815  1.00  0.00    -0.239 F 
ATOM      7  H   UNL     1     -46.365  38.932  29.837  1.00  0.00     0.088 H 
ATOM      8  H   UNL     1     -46.136  35.372  29.272  1.00  0.00     0.067 H 
ATOM      9  H   UNL     1     -48.176  36.174  27.580  1.00  0.00     0.066 H 
ATOM     10  H   UNL     1     -48.321  38.756  28.560  1.00  0.00     0.074 H 
ENDROOT
BRANCH   1  11
ATOM     11  N   UNL     1     -45.340  39.461  28.129  1.00  0.00    -0.302 N 
ATOM     12  C   UNL     1     -44.619  40.988  26.677  1.00  0.00     0.033 A 
ATOM     13  C   UNL     1     -45.595  40.040  26.916  1.00  0.00     0.019 A 
ATOM     14  C   UNL     1     -43.646  40.875  27.714  1.00  0.00     0.071 A 
ATOM     15  H   UNL     1     -46.477  39.793  26.340  1.00  0.00     0.083 H 
ATOM     16  C   UNL     1     -44.144  39.932  28.610  1.00  0.00     0.148 A 
ATOM     17  C   UNL     1     -42.395  41.427  28.039  1.00  0.00     0.137 A 
ATOM     18  N   UNL     1     -43.575  39.532  29.762  1.00  0.00    -0.218 NA
ATOM     19  N   UNL     1     -41.790  41.054  29.187  1.00  0.00    -0.219 NA
ATOM     20  C   UNL     1     -42.407  40.157  29.975  1.00  0.00     0.120 A 
ATOM     21  H   UNL     1     -41.890  39.901  30.894  1.00  0.00     0.106 H 
BRANCH  12  22
ATOM     22  C   UNL     1     -44.642  41.929  25.559  1.00  0.00     0.095 A 
ATOM     23  N   UNL     1     -45.049  43.671  24.435  1.00  0.00    -0.275 N 
ATOM     24  C   UNL     1     -44.111  43.007  23.702  1.00  0.00     0.025 A 
ATOM     25  N   UNL     1     -45.416  43.022  25.554  1.00  0.00    -0.173 NA
ATOM     26  C   UNL     1     -43.800  41.880  24.427  1.00  0.00    -0.016 A 
ATOM     27  H   UNL     1     -43.716  43.402  22.778  1.00  0.00     0.084 H 
ATOM     28  H   UNL     1     -43.040  41.149  24.190  1.00  0.00     0.066 H 
BRANCH  23  29
ATOM     29  C   UNL     1     -45.626  44.960  24.143  1.00  0.00     0.030 C 
ATOM     30  H   UNL     1     -46.418  45.156  24.869  1.00  0.00     0.048 H 
ATOM     31  H   UNL     1     -46.030  44.934  23.128  1.00  0.00     0.048 H 
ATOM     32  H   UNL     1     -44.853  45.730  24.217  1.00  0.00     0.048 H 
ENDBRANCH  23  29
ENDBRANCH  12  22
BRANCH  17  33
ATOM     33  N   UNL     1     -41.680  42.303  27.231  1.00  0.00    -0.383 N 
ATOM     34  H   UNL     1     -42.023  43.255  27.268  1.00  0.00     0.158 HD
ATOM     35  H   UNL     1     -41.591  41.910  26.300  1.00  0.00     0.158 HD
ENDBRANCH  17  33
ENDBRANCH   1  11
BRANCH   3  36
ATOM     36  C   UNL     1     -45.510  35.679  27.245  1.00  0.00     0.117 C 
ATOM     37  H   UNL     1     -45.151  34.655  27.395  1.00  0.00     0.073 H 
ATOM     38  H   UNL     1     -44.658  36.340  27.049  1.00  0.00     0.073 H 
BRANCH  36  39
ATOM     39  O   UNL     1     -46.425  35.662  26.155  1.00  0.00    -0.491 OA
BRANCH  39  40
ATOM     40  C   UNL     1     -47.168  34.538  25.944  1.00  0.00     0.121 A 
ATOM     41  C   UNL     1     -48.454  34.305  26.413  1.00  0.00    -0.018 A 
ATOM     42  C   UNL     1     -46.534  33.555  25.182  1.00  0.00     0.008 A 
ATOM     43  C   UNL     1     -49.067  33.074  26.160  1.00  0.00    -0.031 A 
ATOM     44  H   UNL     1     -49.005  35.046  26.981  1.00  0.00     0.066 H 
ATOM     45  C   UNL     1     -47.134  32.332  24.916  1.00  0.00     0.095 A 
ATOM     46  H   UNL     1     -45.529  33.737  24.805  1.00  0.00     0.069 H 
ATOM     47  C   UNL     1     -48.428  32.081  25.429  1.00  0.00     0.089 A 
ATOM     48  H   UNL     1     -50.066  32.884  26.541  1.00  0.00     0.065 H 
ATOM     49  N   UNL     1     -46.476  31.413  24.179  1.00  0.00    -0.227 NA
ATOM     50  N   UNL     1     -49.050  30.907  25.214  1.00  0.00    -0.251 NA
ATOM     51  C   UNL     1     -47.085  30.228  23.959  1.00  0.00     0.147 A 
ATOM     52  C   UNL     1     -48.360  30.005  24.472  1.00  0.00     0.070 A 
ATOM     53  H   UNL     1     -48.880  29.071  24.290  1.00  0.00     0.088 H 
BRANCH  51  54
ATOM     54  N   UNL     1     -46.424  29.249  23.197  1.00  0.00    -0.355 N 
ATOM     55  C   UNL     1     -46.023  27.949  23.648  1.00  0.00     0.021 C 
ATOM     56  C   UNL     1     -45.180  29.468  22.512  1.00  0.00     0.021 C 
ATOM     57  C   UNL     1     -45.035  27.943  22.475  1.00  0.00    -0.018 C 
ATOM     58  H   UNL     1     -46.820  27.203  23.600  1.00  0.00     0.049 H 
ATOM     59  H   UNL     1     -45.561  27.962  24.641  1.00  0.00     0.049 H 
ATOM     60  H   UNL     1     -44.436  29.988  23.125  1.00  0.00     0.049 H 
ATOM     61  H   UNL     1     -45.299  29.960  21.544  1.00  0.00     0.049 H 
ATOM     62  H   UNL     1     -45.420  27.475  21.563  1.00  0.00     0.030 H 
ATOM     63  H   UNL     1     -44.038  27.554  22.693  1.00  0.00     0.030 H 
ENDBRANCH  51  54
ENDBRANCH  39  40
ENDBRANCH  36  39
ENDBRANCH   3  36
BRANCH   4  64
ATOM     64  O   UNL     1     -48.362  36.451  29.600  1.00  0.00    -0.387 OA
ATOM     65  H   UNL     1     -48.274  35.513  29.850  1.00  0.00     0.211 HD
ENDBRANCH   4  64
TORSDOF 9
ENDMDL
MODEL 5
REMARK VINA RESULT:      -9.0      2.781      4.141
REMARK SMILES Cn1ccc(-c2cn([C@@H]3O[C@H](COc4ccc5ncc(N6CCC6)nc5c4)[C@@H](O)[C@@H]3F)c3ncnc(N)c23)n1
REMARK SMILES IDX 9 1 10 2 11 3 28 4 30 5 31 6 8 11 6 12 7 13 38 14 32 16
REMARK SMILES IDX 36 17 33 18 35 19 34 20 5 22 2 23 3 24 39 25 4 26 1 29 37 33
REMARK SMILES IDX 12 36 13 39 14 40 15 41 27 42 16 43 26 45 17 47 25 49 18 50
REMARK SMILES IDX 20 51 19 52 21 54 22 55 24 56 23 57 29 64
REMARK H PARENT 9 7 11 8 28 9 30 10 7 15 34 21 3 27 4 28 1 30 1 31 1 32 37 34
REMARK H PARENT 37 35 12 37 12 38 15 44 27 46 16 48 19 53 22 58 22 59 24 60
REMARK H PARENT 24 61 23 62 23 63 29 65
REMARK Flexibility Score: inf
ROOT
ATOM      1  C   UNL     1     -46.082  36.600  27.557  1.00  0.00     0.169 C 
ATOM      2  O   UNL     1     -46.253  35.786  26.370  1.00  0.00    -0.345 OA
ATOM      3  C   UNL     1     -46.747  34.485  26.760  1.00  0.00     0.123 C 
ATOM      4  C   UNL     1     -46.412  34.340  28.242  1.00  0.00     0.119 C 
ATOM      5  C   UNL     1     -46.432  35.758  28.781  1.00  0.00     0.173 C 
ATOM      6  F   UNL     1     -47.669  36.041  29.263  1.00  0.00    -0.239 F 
ATOM      7  H   UNL     1     -45.020  36.871  27.570  1.00  0.00     0.088 H 
ATOM      8  H   UNL     1     -46.189  33.760  26.155  1.00  0.00     0.067 H 
ATOM      9  H   UNL     1     -47.103  33.675  28.767  1.00  0.00     0.066 H 
ATOM     10  H   UNL     1     -45.720  35.923  29.595  1.00  0.00     0.074 H 
ENDROOT
BRANCH   1  11
ATOM     11  N   UNL     1     -46.837  37.835  27.435  1.00  0.00    -0.302 N 
ATOM     12  C   UNL     1     -48.461  39.355  27.544  1.00  0.00     0.033 A 
ATOM     13  C   UNL     1     -48.183  38.002  27.606  1.00  0.00     0.019 A 
ATOM     14  C   UNL     1     -47.258  40.024  27.168  1.00  0.00     0.071 A 
ATOM     15  H   UNL     1     -48.839  37.170  27.825  1.00  0.00     0.083 H 
ATOM     16  C   UNL     1     -46.266  39.046  27.135  1.00  0.00     0.148 A 
ATOM     17  C   UNL     1     -46.846  41.326  26.838  1.00  0.00     0.137 A 
ATOM     18  N   UNL     1     -44.962  39.229  26.862  1.00  0.00    -0.218 NA
ATOM     19  N   UNL     1     -45.545  41.553  26.559  1.00  0.00    -0.219 NA
ATOM     20  C   UNL     1     -44.690  40.516  26.599  1.00  0.00     0.120 A 
ATOM     21  H   UNL     1     -43.653  40.750  26.383  1.00  0.00     0.106 H 
BRANCH  12  22
ATOM     22  C   UNL     1     -49.765  39.942  27.844  1.00  0.00     0.095 A 
ATOM     23  N   UNL     1     -51.518  41.103  27.634  1.00  0.00    -0.275 N 
ATOM     24  C   UNL     1     -51.792  40.259  28.669  1.00  0.00     0.025 A 
ATOM     25  N   UNL     1     -50.279  40.955  27.134  1.00  0.00    -0.173 NA
ATOM     26  C   UNL     1     -50.678  39.465  28.809  1.00  0.00    -0.016 A 
ATOM     27  H   UNL     1     -52.747  40.259  29.175  1.00  0.00     0.084 H 
ATOM     28  H   UNL     1     -50.560  38.630  29.486  1.00  0.00     0.066 H 
BRANCH  23  29
ATOM     29  C   UNL     1     -52.411  42.067  27.040  1.00  0.00     0.030 C 
ATOM     30  H   UNL     1     -53.096  42.424  27.814  1.00  0.00     0.048 H 
ATOM     31  H   UNL     1     -52.961  41.576  26.235  1.00  0.00     0.048 H 
ATOM     32  H   UNL     1     -51.831  42.903  26.641  1.00  0.00     0.048 H 
ENDBRANCH  23  29
ENDBRANCH  12  22
BRANCH  17  33
ATOM     33  N   UNL     1     -47.695  42.420  26.712  1.00  0.00    -0.383 N 
ATOM     34  H   UNL     1     -48.084  42.730  27.595  1.00  0.00     0.158 HD
ATOM     35  H   UNL     1     -48.372  42.241  25.979  1.00  0.00     0.158 HD
ENDBRANCH  17  33
ENDBRANCH   1  11
BRANCH   3  36
ATOM     36  C   UNL     1     -48.234  34.364  26.377  1.00  0.00     0.117 C 
ATOM     37  H   UNL     1     -48.337  34.424  25.289  1.00  0.00     0.073 H 
ATOM     38  H   UNL     1     -48.763  35.203  26.842  1.00  0.00     0.073 H 
BRANCH  36  39
ATOM     39  O   UNL     1     -48.763  33.110  26.794  1.00  0.00    -0.491 OA
BRANCH  39  40
ATOM     40  C   UNL     1     -48.968  32.144  25.854  1.00  0.00     0.121 A 
ATOM     41  C   UNL     1     -49.550  32.324  24.606  1.00  0.00    -0.018 A 
ATOM     42  C   UNL     1     -48.540  30.867  26.226  1.00  0.00     0.008 A 
ATOM     43  C   UNL     1     -49.744  31.220  23.770  1.00  0.00    -0.031 A 
ATOM     44  H   UNL     1     -49.869  33.298  24.253  1.00  0.00     0.066 H 
ATOM     45  C   UNL     1     -48.718  29.765  25.403  1.00  0.00     0.095 A 
ATOM     46  H   UNL     1     -48.075  30.724  27.200  1.00  0.00     0.069 H 
ATOM     47  C   UNL     1     -49.348  29.943  24.149  1.00  0.00     0.089 A 
ATOM     48  H   UNL     1     -50.214  31.357  22.801  1.00  0.00     0.065 H 
ATOM     49  N   UNL     1     -48.292  28.552  25.812  1.00  0.00    -0.227 NA
ATOM     50  N   UNL     1     -49.559  28.906  23.318  1.00  0.00    -0.251 NA
ATOM     51  C   UNL     1     -48.502  27.500  24.992  1.00  0.00     0.147 A 
ATOM     52  C   UNL     1     -49.121  27.701  23.761  1.00  0.00     0.070 A 
ATOM     53  H   UNL     1     -49.281  26.877  23.075  1.00  0.00     0.088 H 
BRANCH  51  54
ATOM     54  N   UNL     1     -48.072  26.223  25.391  1.00  0.00    -0.355 N 
ATOM     55  C   UNL     1     -48.757  25.335  26.284  1.00  0.00     0.021 C 
ATOM     56  C   UNL     1     -46.797  25.958  26.000  1.00  0.00     0.021 C 
ATOM     57  C   UNL     1     -47.406  24.640  26.490  1.00  0.00    -0.018 C 
ATOM     58  H   UNL     1     -49.530  24.736  25.798  1.00  0.00     0.049 H 
ATOM     59  H   UNL     1     -49.156  25.842  27.170  1.00  0.00     0.049 H 
ATOM     60  H   UNL     1     -46.541  26.671  26.792  1.00  0.00     0.049 H 
ATOM     61  H   UNL     1     -45.981  25.869  25.279  1.00  0.00     0.049 H 
ATOM     62  H   UNL     1     -47.231  23.787  25.825  1.00  0.00     0.030 H 
ATOM     63  H   UNL     1     -47.166  24.358  27.518  1.00  0.00     0.030 H 
ENDBRANCH  51  54
ENDBRANCH  39  40
ENDBRANCH  36  39
ENDBRANCH   3  36
BRANCH   4  64
ATOM     64  O   UNL     1     -45.092  33.786  28.396  1.00  0.00    -0.387 OA
ATOM     65  H   UNL     1     -44.521  34.122  27.682  1.00  0.00     0.211 HD
ENDBRANCH   4  64
TORSDOF 9
ENDMDL
MODEL 6
REMARK VINA RESULT:      -8.7      1.541      2.665
REMARK SMILES Cn1ccc(-c2cn([C@@H]3O[C@H](COc4ccc5ncc(N6CCC6)nc5c4)[C@@H](O)[C@@H]3F)c3ncnc(N)c23)n1
REMARK SMILES IDX 9 1 10 2 11 3 28 4 30 5 31 6 8 11 6 12 7 13 38 14 32 16
REMARK SMILES IDX 36 17 33 18 35 19 34 20 5 22 2 23 3 24 39 25 4 26 1 29 37 33
REMARK SMILES IDX 12 36 13 39 14 40 15 41 27 42 16 43 26 45 17 47 25 49 18 50
REMARK SMILES IDX 20 51 19 52 21 54 22 55 24 56 23 57 29 64
REMARK H PARENT 9 7 11 8 28 9 30 10 7 15 34 21 3 27 4 28 1 30 1 31 1 32 37 34
REMARK H PARENT 37 35 12 37 12 38 15 44 27 46 16 48 19 53 22 58 22 59 24 60
REMARK H PARENT 24 61 23 62 23 63 29 65
REMARK Flexibility Score: inf
ROOT
ATOM      1  C   UNL     1     -45.177  38.036  28.694  1.00  0.00     0.169 C 
ATOM      2  O   UNL     1     -45.469  36.932  27.800  1.00  0.00    -0.345 OA
ATOM      3  C   UNL     1     -46.621  36.217  28.299  1.00  0.00     0.123 C 
ATOM      4  C   UNL     1     -46.737  36.594  29.774  1.00  0.00     0.119 C 
ATOM      5  C   UNL     1     -46.160  37.993  29.860  1.00  0.00     0.173 C 
ATOM      6  F   UNL     1     -47.158  38.903  29.724  1.00  0.00    -0.239 F 
ATOM      7  H   UNL     1     -44.155  37.856  29.048  1.00  0.00     0.088 H 
ATOM      8  H   UNL     1     -46.386  35.152  28.180  1.00  0.00     0.067 H 
ATOM      9  H   UNL     1     -47.765  36.533  30.144  1.00  0.00     0.066 H 
ATOM     10  H   UNL     1     -45.660  38.198  30.811  1.00  0.00     0.074 H 
ENDROOT
BRANCH   1  11
ATOM     11  N   UNL     1     -45.160  39.289  27.959  1.00  0.00    -0.302 N 
ATOM     12  C   UNL     1     -44.488  41.054  26.780  1.00  0.00     0.033 A 
ATOM     13  C   UNL     1     -44.063  40.014  27.585  1.00  0.00     0.019 A 
ATOM     14  C   UNL     1     -45.914  41.050  26.789  1.00  0.00     0.071 A 
ATOM     15  H   UNL     1     -43.059  39.712  27.856  1.00  0.00     0.083 H 
ATOM     16  C   UNL     1     -46.293  39.922  27.513  1.00  0.00     0.148 A 
ATOM     17  C   UNL     1     -46.965  41.842  26.295  1.00  0.00     0.137 A 
ATOM     18  N   UNL     1     -47.548  39.497  27.749  1.00  0.00    -0.218 NA
ATOM     19  N   UNL     1     -48.239  41.450  26.508  1.00  0.00    -0.219 NA
ATOM     20  C   UNL     1     -48.455  40.316  27.196  1.00  0.00     0.120 A 
ATOM     21  H   UNL     1     -49.495  40.034  27.328  1.00  0.00     0.106 H 
BRANCH  12  22
ATOM     22  C   UNL     1     -43.591  41.951  26.054  1.00  0.00     0.095 A 
ATOM     23  N   UNL     1     -42.893  43.309  24.594  1.00  0.00    -0.275 N 
ATOM     24  C   UNL     1     -41.944  43.345  25.572  1.00  0.00     0.025 A 
ATOM     25  N   UNL     1     -43.891  42.444  24.845  1.00  0.00    -0.173 NA
ATOM     26  C   UNL     1     -42.388  42.493  26.555  1.00  0.00    -0.016 A 
ATOM     27  H   UNL     1     -41.080  43.991  25.512  1.00  0.00     0.084 H 
ATOM     28  H   UNL     1     -41.927  42.321  27.518  1.00  0.00     0.066 H 
BRANCH  23  29
ATOM     29  C   UNL     1     -42.931  44.104  23.391  1.00  0.00     0.030 C 
ATOM     30  H   UNL     1     -43.869  44.665  23.378  1.00  0.00     0.048 H 
ATOM     31  H   UNL     1     -42.870  43.432  22.532  1.00  0.00     0.048 H 
ATOM     32  H   UNL     1     -42.084  44.795  23.385  1.00  0.00     0.048 H 
ENDBRANCH  23  29
ENDBRANCH  12  22
BRANCH  17  33
ATOM     33  N   UNL     1     -46.803  43.057  25.640  1.00  0.00    -0.383 N 
ATOM     34  H   UNL     1     -47.093  43.031  24.669  1.00  0.00     0.158 HD
ATOM     35  H   UNL     1     -45.866  43.408  25.803  1.00  0.00     0.158 HD
ENDBRANCH  17  33
ENDBRANCH   1  11
BRANCH   3  36
ATOM     36  C   UNL     1     -47.841  36.527  27.413  1.00  0.00     0.117 C 
ATOM     37  H   UNL     1     -47.503  36.943  26.458  1.00  0.00     0.073 H 
ATOM     38  H   UNL     1     -48.452  37.268  27.940  1.00  0.00     0.073 H 
BRANCH  36  39
ATOM     39  O   UNL     1     -48.577  35.341  27.133  1.00  0.00    -0.491 OA
BRANCH  39  40
ATOM     40  C   UNL     1     -47.991  34.375  26.369  1.00  0.00     0.121 A 
ATOM     41  C   UNL     1     -46.782  34.483  25.694  1.00  0.00    -0.018 A 
ATOM     42  C   UNL     1     -48.712  33.181  26.284  1.00  0.00     0.008 A 
ATOM     43  C   UNL     1     -46.337  33.420  24.902  1.00  0.00    -0.031 A 
ATOM     44  H   UNL     1     -46.167  35.374  25.752  1.00  0.00     0.066 H 
ATOM     45  C   UNL     1     -48.277  32.115  25.509  1.00  0.00     0.095 A 
ATOM     46  H   UNL     1     -49.655  33.089  26.819  1.00  0.00     0.069 H 
ATOM     47  C   UNL     1     -47.066  32.243  24.790  1.00  0.00     0.089 A 
ATOM     48  H   UNL     1     -45.400  33.511  24.360  1.00  0.00     0.065 H 
ATOM     49  N   UNL     1     -49.014  30.986  25.456  1.00  0.00    -0.227 NA
ATOM     50  N   UNL     1     -46.606  31.246  24.012  1.00  0.00    -0.251 NA
ATOM     51  C   UNL     1     -48.568  29.979  24.675  1.00  0.00     0.147 A 
ATOM     52  C   UNL     1     -47.371  30.126  23.979  1.00  0.00     0.070 A 
ATOM     53  H   UNL     1     -46.981  29.325  23.363  1.00  0.00     0.088 H 
BRANCH  51  54
ATOM     54  N   UNL     1     -49.315  28.791  24.597  1.00  0.00    -0.355 N 
ATOM     55  C   UNL     1     -49.326  27.728  25.560  1.00  0.00     0.021 C 
ATOM     56  C   UNL     1     -49.258  27.876  23.490  1.00  0.00     0.021 C 
ATOM     57  C   UNL     1     -49.863  26.833  24.436  1.00  0.00    -0.018 C 
ATOM     58  H   UNL     1     -50.008  27.901  26.395  1.00  0.00     0.049 H 
ATOM     59  H   UNL     1     -48.326  27.466  25.921  1.00  0.00     0.049 H 
ATOM     60  H   UNL     1     -48.235  27.662  23.161  1.00  0.00     0.049 H 
ATOM     61  H   UNL     1     -49.884  28.176  22.646  1.00  0.00     0.049 H 
ATOM     62  H   UNL     1     -50.955  26.767  24.395  1.00  0.00     0.030 H 
ATOM     63  H   UNL     1     -49.432  25.831  24.378  1.00  0.00     0.030 H 
ENDBRANCH  51  54
ENDBRANCH  39  40
ENDBRANCH  36  39
ENDBRANCH   3  36
BRANCH   4  64
ATOM     64  O   UNL     1     -45.946  35.697  30.575  1.00  0.00    -0.387 OA
ATOM     65  H   UNL     1     -45.007  35.806  30.340  1.00  0.00     0.211 HD
ENDBRANCH   4  64
TORSDOF 9
ENDMDL
MODEL 7
REMARK VINA RESULT:      -8.6      1.917      2.903
REMARK SMILES Cn1ccc(-c2cn([C@@H]3O[C@H](COc4ccc5ncc(N6CCC6)nc5c4)[C@@H](O)[C@@H]3F)c3ncnc(N)c23)n1
REMARK SMILES IDX 9 1 10 2 11 3 28 4 30 5 31 6 8 11 6 12 7 13 38 14 32 16
REMARK SMILES IDX 36 17 33 18 35 19 34 20 5 22 2 23 3 24 39 25 4 26 1 29 37 33
REMARK SMILES IDX 12 36 13 39 14 40 15 41 27 42 16 43 26 45 17 47 25 49 18 50
REMARK SMILES IDX 20 51 19 52 21 54 22 55 24 56 23 57 29 64
REMARK H PARENT 9 7 11 8 28 9 30 10 7 15 34 21 3 27 4 28 1 30 1 31 1 32 37 34
REMARK H PARENT 37 35 12 37 12 38 15 44 27 46 16 48 19 53 22 58 22 59 24 60
REMARK H PARENT 24 61 23 62 23 63 29 65
REMARK Flexibility Score: inf
ROOT
ATOM      1  C   UNL     1     -45.816  38.767  27.747  1.00  0.00     0.169 C 
ATOM      2  O   UNL     1     -46.095  37.625  26.898  1.00  0.00    -0.345 OA
ATOM      3  C   UNL     1     -46.760  36.609  27.682  1.00  0.00     0.123 C 
ATOM      4  C   UNL     1     -46.448  36.938  29.140  1.00  0.00     0.119 C 
ATOM      5  C   UNL     1     -46.277  38.445  29.166  1.00  0.00     0.173 C 
ATOM      6  F   UNL     1     -47.465  39.030  29.466  1.00  0.00    -0.239 F 
ATOM      7  H   UNL     1     -44.727  38.889  27.717  1.00  0.00     0.088 H 
ATOM      8  H   UNL     1     -46.305  35.657  27.384  1.00  0.00     0.067 H 
ATOM      9  H   UNL     1     -47.222  36.585  29.826  1.00  0.00     0.066 H 
ATOM     10  H   UNL     1     -45.550  38.786  29.908  1.00  0.00     0.074 H 
ENDROOT
BRANCH   1  11
ATOM     11  N   UNL     1     -46.398  39.971  27.179  1.00  0.00    -0.302 N 
ATOM     12  C   UNL     1     -47.824  41.594  26.640  1.00  0.00     0.033 A 
ATOM     13  C   UNL     1     -47.723  40.304  27.125  1.00  0.00     0.019 A 
ATOM     14  C   UNL     1     -46.518  42.007  26.241  1.00  0.00     0.071 A 
ATOM     15  H   UNL     1     -48.494  39.639  27.490  1.00  0.00     0.083 H 
ATOM     16  C   UNL     1     -45.656  40.979  26.616  1.00  0.00     0.148 A 
ATOM     17  C   UNL     1     -45.919  43.107  25.602  1.00  0.00     0.137 A 
ATOM     18  N   UNL     1     -44.319  40.952  26.468  1.00  0.00    -0.218 NA
ATOM     19  N   UNL     1     -44.579  43.119  25.436  1.00  0.00    -0.219 NA
ATOM     20  C   UNL     1     -43.867  42.070  25.881  1.00  0.00     0.120 A 
ATOM     21  H   UNL     1     -42.793  42.133  25.739  1.00  0.00     0.106 H 
BRANCH  12  22
ATOM     22  C   UNL     1     -49.068  42.360  26.591  1.00  0.00     0.095 A 
ATOM     23  N   UNL     1     -50.692  43.465  25.814  1.00  0.00    -0.275 N 
ATOM     24  C   UNL     1     -51.065  43.167  27.091  1.00  0.00     0.025 A 
ATOM     25  N   UNL     1     -49.467  43.015  25.493  1.00  0.00    -0.173 NA
ATOM     26  C   UNL     1     -50.038  42.417  27.615  1.00  0.00    -0.016 A 
ATOM     27  H   UNL     1     -52.022  43.461  27.495  1.00  0.00     0.084 H 
ATOM     28  H   UNL     1     -50.014  41.942  28.585  1.00  0.00     0.066 H 
BRANCH  23  29
ATOM     29  C   UNL     1     -51.476  44.157  24.821  1.00  0.00     0.030 C 
ATOM     30  H   UNL     1     -51.641  45.181  25.164  1.00  0.00     0.048 H 
ATOM     31  H   UNL     1     -52.426  43.631  24.703  1.00  0.00     0.048 H 
ATOM     32  H   UNL     1     -50.934  44.165  23.871  1.00  0.00     0.048 H 
ENDBRANCH  23  29
ENDBRANCH  12  22
BRANCH  17  33
ATOM     33  N   UNL     1     -46.610  44.184  25.061  1.00  0.00    -0.383 N 
ATOM     34  H   UNL     1     -47.311  44.566  25.685  1.00  0.00     0.158 HD
ATOM     35  H   UNL     1     -46.940  43.943  24.133  1.00  0.00     0.158 HD
ENDBRANCH  17  33
ENDBRANCH   1  11
BRANCH   3  36
ATOM     36  C   UNL     1     -48.249  36.555  27.294  1.00  0.00     0.117 C 
ATOM     37  H   UNL     1     -48.380  36.963  26.286  1.00  0.00     0.073 H 
ATOM     38  H   UNL     1     -48.800  37.171  28.013  1.00  0.00     0.073 H 
BRANCH  36  39
ATOM     39  O   UNL     1     -48.719  35.211  27.282  1.00  0.00    -0.491 OA
BRANCH  39  40
ATOM     40  C   UNL     1     -48.097  34.310  26.469  1.00  0.00     0.121 A 
ATOM     41  C   UNL     1     -46.895  34.501  25.800  1.00  0.00    -0.018 A 
ATOM     42  C   UNL     1     -48.770  33.094  26.324  1.00  0.00     0.008 A 
ATOM     43  C   UNL     1     -46.410  33.498  24.955  1.00  0.00    -0.031 A 
ATOM     44  H   UNL     1     -46.316  35.411  25.904  1.00  0.00     0.066 H 
ATOM     45  C   UNL     1     -48.295  32.087  25.496  1.00  0.00     0.095 A 
ATOM     46  H   UNL     1     -49.708  32.937  26.854  1.00  0.00     0.069 H 
ATOM     47  C   UNL     1     -47.092  32.300  24.783  1.00  0.00     0.089 A 
ATOM     48  H   UNL     1     -45.479  33.654  24.418  1.00  0.00     0.065 H 
ATOM     49  N   UNL     1     -48.987  30.934  25.385  1.00  0.00    -0.227 NA
ATOM     50  N   UNL     1     -46.594  31.364  23.955  1.00  0.00    -0.251 NA
ATOM     51  C   UNL     1     -48.503  29.986  24.553  1.00  0.00     0.147 A 
ATOM     52  C   UNL     1     -47.314  30.217  23.865  1.00  0.00     0.070 A 
ATOM     53  H   UNL     1     -46.893  29.464  23.209  1.00  0.00     0.088 H 
BRANCH  51  54
ATOM     54  N   UNL     1     -49.202  28.775  24.415  1.00  0.00    -0.355 N 
ATOM     55  C   UNL     1     -48.764  27.619  23.689  1.00  0.00     0.021 C 
ATOM     56  C   UNL     1     -50.540  28.673  23.900  1.00  0.00     0.021 C 
ATOM     57  C   UNL     1     -50.236  27.191  23.654  1.00  0.00    -0.018 C 
ATOM     58  H   UNL     1     -48.096  26.971  24.261  1.00  0.00     0.049 H 
ATOM     59  H   UNL     1     -48.330  27.863  22.714  1.00  0.00     0.049 H 
ATOM     60  H   UNL     1     -50.699  29.268  22.994  1.00  0.00     0.049 H 
ATOM     61  H   UNL     1     -51.309  28.886  24.646  1.00  0.00     0.049 H 
ATOM     62  H   UNL     1     -50.533  26.528  24.473  1.00  0.00     0.030 H 
ATOM     63  H   UNL     1     -50.592  26.784  22.705  1.00  0.00     0.030 H 
ENDBRANCH  51  54
ENDBRANCH  39  40
ENDBRANCH  36  39
ENDBRANCH   3  36
BRANCH   4  64
ATOM     64  O   UNL     1     -45.215  36.308  29.533  1.00  0.00    -0.387 OA
ATOM     65  H   UNL     1     -44.474  36.748  29.080  1.00  0.00     0.211 HD
ENDBRANCH   4  64
TORSDOF 9
ENDMDL
