MODEL 1
REMARK VINA RESULT:      -9.0      0.000      0.000
REMARK SMILES CC1(C)COC(c2cn([C@@H]3O[C@H](COc4ccc5ccc(N6CCC6)nc5c4)[C@@H](O)[C@@H]3F)c3ncnc(N)c23)=N1
REMARK SMILES IDX 10 1 11 2 12 3 29 4 31 5 32 6 9 11 7 12 8 13 39 14 33 16
REMARK SMILES IDX 37 17 34 18 36 19 35 20 6 22 2 23 4 24 40 25 5 26 1 29 3 33
REMARK SMILES IDX 38 37 13 40 14 43 15 44 16 45 28 46 17 47 27 49 18 51 26 53
REMARK SMILES IDX 19 54 21 55 20 56 22 59 23 60 25 61 24 62 30 69
REMARK H PARENT 10 7 12 8 29 9 31 10 8 15 35 21 4 27 4 28 1 30 1 31 1 32 3 34
REMARK H PARENT 3 35 3 36 38 38 38 39 13 41 13 42 16 48 28 50 17 52 19 57
REMARK H PARENT 20 58 23 63 23 64 25 65 25 66 24 67 24 68 30 70
REMARK Flexibility Score: inf
ROOT
ATOM      1  C   UNL     1     -44.917  37.898  29.118  1.00  0.00     0.169 C 
ATOM      2  O   UNL     1     -44.797  36.877  28.096  1.00  0.00    -0.345 OA
ATOM      3  C   UNL     1     -45.941  36.004  28.211  1.00  0.00     0.123 C 
ATOM      4  C   UNL     1     -46.682  36.391  29.496  1.00  0.00     0.119 C 
ATOM      5  C   UNL     1     -46.351  37.858  29.631  1.00  0.00     0.173 C 
ATOM      6  F   UNL     1     -47.182  38.561  28.809  1.00  0.00    -0.239 F 
ATOM      7  H   UNL     1     -44.202  37.629  29.906  1.00  0.00     0.088 H 
ATOM      8  H   UNL     1     -45.570  34.974  28.280  1.00  0.00     0.067 H 
ATOM      9  H   UNL     1     -47.758  36.202  29.455  1.00  0.00     0.066 H 
ATOM     10  H   UNL     1     -46.450  38.255  30.645  1.00  0.00     0.074 H 
ENDROOT
BRANCH   1  11
ATOM     11  N   UNL     1     -44.520  39.190  28.586  1.00  0.00    -0.302 N 
ATOM     12  C   UNL     1     -44.425  41.081  27.385  1.00  0.00     0.067 A 
ATOM     13  C   UNL     1     -45.104  39.881  27.556  1.00  0.00     0.022 A 
ATOM     14  C   UNL     1     -43.360  41.088  28.346  1.00  0.00     0.074 A 
ATOM     15  H   UNL     1     -45.962  39.481  27.031  1.00  0.00     0.083 H 
ATOM     16  C   UNL     1     -43.467  39.915  29.083  1.00  0.00     0.148 A 
ATOM     17  C   UNL     1     -42.303  41.945  28.700  1.00  0.00     0.137 A 
ATOM     18  N   UNL     1     -42.687  39.532  30.108  1.00  0.00    -0.218 NA
ATOM     19  N   UNL     1     -41.507  41.609  29.737  1.00  0.00    -0.219 NA
ATOM     20  C   UNL     1     -41.737  40.443  30.369  1.00  0.00     0.120 A 
ATOM     21  H   UNL     1     -41.065  40.212  31.189  1.00  0.00     0.106 H 
BRANCH  12  22
ATOM     22  C   UNL     1     -44.780  42.094  26.420  1.00  0.00     0.219 C 
ATOM     23  C   UNL     1     -44.736  43.607  24.853  1.00  0.00     0.093 C 
ATOM     24  C   UNL     1     -46.174  43.352  25.289  1.00  0.00     0.115 C 
ATOM     25  N   UNL     1     -43.958  42.547  25.525  1.00  0.00    -0.241 NA
ATOM     26  O   UNL     1     -46.044  42.596  26.484  1.00  0.00    -0.475 OA
ATOM     27  H   UNL     1     -46.742  42.754  24.567  1.00  0.00     0.073 H 
ATOM     28  H   UNL     1     -46.731  44.273  25.490  1.00  0.00     0.073 H 
BRANCH  23  29
ATOM     29  C   UNL     1     -44.561  43.485  23.343  1.00  0.00    -0.036 C 
ATOM     30  H   UNL     1     -45.410  42.963  22.888  1.00  0.00     0.026 H 
ATOM     31  H   UNL     1     -44.477  44.471  22.874  1.00  0.00     0.026 H 
ATOM     32  H   UNL     1     -43.661  42.911  23.097  1.00  0.00     0.026 H 
ENDBRANCH  23  29
BRANCH  23  33
ATOM     33  C   UNL     1     -44.221  44.962  25.348  1.00  0.00    -0.036 C 
ATOM     34  H   UNL     1     -44.514  45.768  24.666  1.00  0.00     0.026 H 
ATOM     35  H   UNL     1     -43.128  44.963  25.424  1.00  0.00     0.026 H 
ATOM     36  H   UNL     1     -44.614  45.202  26.342  1.00  0.00     0.026 H 
ENDBRANCH  23  33
ENDBRANCH  12  22
BRANCH  17  37
ATOM     37  N   UNL     1     -42.012  43.128  28.044  1.00  0.00    -0.383 N 
ATOM     38  H   UNL     1     -42.646  43.875  28.291  1.00  0.00     0.158 HD
ATOM     39  H   UNL     1     -41.770  43.021  27.058  1.00  0.00     0.158 HD
ENDBRANCH  17  37
ENDBRANCH   1  11
BRANCH   3  40
ATOM     40  C   UNL     1     -46.801  36.150  26.951  1.00  0.00     0.117 C 
ATOM     41  H   UNL     1     -46.370  35.527  26.157  1.00  0.00     0.073 H 
ATOM     42  H   UNL     1     -46.797  37.191  26.607  1.00  0.00     0.073 H 
BRANCH  40  43
ATOM     43  O   UNL     1     -48.127  35.719  27.252  1.00  0.00    -0.491 OA
BRANCH  43  44
ATOM     44  C   UNL     1     -48.581  34.597  26.615  1.00  0.00     0.121 A 
ATOM     45  C   UNL     1     -49.902  34.164  26.563  1.00  0.00    -0.019 A 
ATOM     46  C   UNL     1     -47.589  33.850  25.970  1.00  0.00     0.007 A 
ATOM     47  C   UNL     1     -50.219  32.992  25.874  1.00  0.00    -0.049 A 
ATOM     48  H   UNL     1     -50.707  34.706  27.046  1.00  0.00     0.066 H 
ATOM     49  C   UNL     1     -47.876  32.682  25.276  1.00  0.00     0.076 A 
ATOM     50  H   UNL     1     -46.556  34.187  26.010  1.00  0.00     0.069 H 
ATOM     51  C   UNL     1     -49.213  32.251  25.232  1.00  0.00     0.001 A 
ATOM     52  H   UNL     1     -51.254  32.660  25.842  1.00  0.00     0.063 H 
ATOM     53  N   UNL     1     -46.879  32.008  24.676  1.00  0.00    -0.231 NA
ATOM     54  C   UNL     1     -49.494  31.073  24.535  1.00  0.00    -0.049 A 
ATOM     55  C   UNL     1     -47.161  30.871  23.997  1.00  0.00     0.129 A 
ATOM     56  C   UNL     1     -48.459  30.379  23.917  1.00  0.00    -0.019 A 
ATOM     57  H   UNL     1     -50.508  30.687  24.473  1.00  0.00     0.063 H 
ATOM     58  H   UNL     1     -48.668  29.455  23.388  1.00  0.00     0.066 H 
BRANCH  55  59
ATOM     59  N   UNL     1     -46.104  30.170  23.387  1.00  0.00    -0.356 N 
ATOM     60  C   UNL     1     -46.020  28.751  23.199  1.00  0.00     0.021 C 
ATOM     61  C   UNL     1     -45.613  30.441  22.065  1.00  0.00     0.021 C 
ATOM     62  C   UNL     1     -44.981  29.046  22.111  1.00  0.00    -0.018 C 
ATOM     63  H   UNL     1     -46.955  28.310  22.838  1.00  0.00     0.049 H 
ATOM     64  H   UNL     1     -45.650  28.213  24.075  1.00  0.00     0.049 H 
ATOM     65  H   UNL     1     -46.411  30.561  21.325  1.00  0.00     0.049 H 
ATOM     66  H   UNL     1     -44.914  31.280  22.024  1.00  0.00     0.049 H 
ATOM     67  H   UNL     1     -43.943  29.031  22.461  1.00  0.00     0.030 H 
ATOM     68  H   UNL     1     -45.067  28.453  21.197  1.00  0.00     0.030 H 
ENDBRANCH  55  59
ENDBRANCH  43  44
ENDBRANCH  40  43
ENDBRANCH   3  40
BRANCH   4  69
ATOM     69  O   UNL     1     -46.149  35.684  30.623  1.00  0.00    -0.387 OA
ATOM     70  H   UNL     1     -45.184  35.622  30.497  1.00  0.00     0.211 HD
ENDBRANCH   4  69
TORSDOF 10
ENDMDL
MODEL 2
REMARK VINA RESULT:      -9.0      1.887      2.757
REMARK SMILES CC1(C)COC(c2cn([C@@H]3O[C@H](COc4ccc5ccc(N6CCC6)nc5c4)[C@@H](O)[C@@H]3F)c3ncnc(N)c23)=N1
REMARK SMILES IDX 10 1 11 2 12 3 29 4 31 5 32 6 9 11 7 12 8 13 39 14 33 16
REMARK SMILES IDX 37 17 34 18 36 19 35 20 6 22 2 23 4 24 40 25 5 26 1 29 3 33
REMARK SMILES IDX 38 37 13 40 14 43 15 44 16 45 28 46 17 47 27 49 18 51 26 53
REMARK SMILES IDX 19 54 21 55 20 56 22 59 23 60 25 61 24 62 30 69
REMARK H PARENT 10 7 12 8 29 9 31 10 8 15 35 21 4 27 4 28 1 30 1 31 1 32 3 34
REMARK H PARENT 3 35 3 36 38 38 38 39 13 41 13 42 16 48 28 50 17 52 19 57
REMARK H PARENT 20 58 23 63 23 64 25 65 25 66 24 67 24 68 30 70
REMARK Flexibility Score: inf
ROOT
ATOM      1  C   UNL     1     -47.166  38.079  28.397  1.00  0.00     0.169 C 
ATOM      2  O   UNL     1     -46.630  36.979  29.174  1.00  0.00    -0.345 OA
ATOM      3  C   UNL     1     -47.189  35.756  28.648  1.00  0.00     0.123 C 
ATOM      4  C   UNL     1     -48.276  36.149  27.641  1.00  0.00     0.119 C 
ATOM      5  C   UNL     1     -47.783  37.485  27.138  1.00  0.00     0.173 C 
ATOM      6  F   UNL     1     -46.830  37.258  26.188  1.00  0.00    -0.239 F 
ATOM      7  H   UNL     1     -47.926  38.558  29.027  1.00  0.00     0.088 H 
ATOM      8  H   UNL     1     -47.628  35.201  29.487  1.00  0.00     0.067 H 
ATOM      9  H   UNL     1     -48.414  35.419  26.838  1.00  0.00     0.066 H 
ATOM     10  H   UNL     1     -48.559  38.121  26.704  1.00  0.00     0.074 H 
ENDROOT
BRANCH   1  11
ATOM     11  N   UNL     1     -46.128  39.061  28.136  1.00  0.00    -0.302 N 
ATOM     12  C   UNL     1     -44.950  40.763  27.275  1.00  0.00     0.067 A 
ATOM     13  C   UNL     1     -46.120  40.024  27.160  1.00  0.00     0.022 A 
ATOM     14  C   UNL     1     -44.208  40.188  28.361  1.00  0.00     0.074 A 
ATOM     15  H   UNL     1     -46.945  40.123  26.466  1.00  0.00     0.083 H 
ATOM     16  C   UNL     1     -44.979  39.156  28.879  1.00  0.00     0.148 A 
ATOM     17  C   UNL     1     -42.968  40.407  28.986  1.00  0.00     0.137 A 
ATOM     18  N   UNL     1     -44.676  38.370  29.926  1.00  0.00    -0.218 NA
ATOM     19  N   UNL     1     -42.632  39.654  30.054  1.00  0.00    -0.219 NA
ATOM     20  C   UNL     1     -43.486  38.694  30.455  1.00  0.00     0.120 A 
ATOM     21  H   UNL     1     -43.168  38.108  31.311  1.00  0.00     0.106 H 
BRANCH  12  22
ATOM     22  C   UNL     1     -44.608  41.893  26.445  1.00  0.00     0.219 C 
ATOM     23  C   UNL     1     -43.817  43.183  24.877  1.00  0.00     0.093 C 
ATOM     24  C   UNL     1     -44.688  43.996  25.828  1.00  0.00     0.115 C 
ATOM     25  N   UNL     1     -44.045  41.781  25.282  1.00  0.00    -0.241 NA
ATOM     26  O   UNL     1     -44.887  43.132  26.938  1.00  0.00    -0.475 OA
ATOM     27  H   UNL     1     -45.670  44.242  25.408  1.00  0.00     0.073 H 
ATOM     28  H   UNL     1     -44.211  44.924  26.160  1.00  0.00     0.073 H 
BRANCH  23  29
ATOM     29  C   UNL     1     -44.232  43.364  23.420  1.00  0.00    -0.036 C 
ATOM     30  H   UNL     1     -44.447  42.398  22.948  1.00  0.00     0.026 H 
ATOM     31  H   UNL     1     -45.126  43.989  23.338  1.00  0.00     0.026 H 
ATOM     32  H   UNL     1     -43.431  43.834  22.839  1.00  0.00     0.026 H 
ENDBRANCH  23  29
BRANCH  23  33
ATOM     33  C   UNL     1     -42.329  43.496  25.057  1.00  0.00    -0.036 C 
ATOM     34  H   UNL     1     -41.977  44.195  24.290  1.00  0.00     0.026 H 
ATOM     35  H   UNL     1     -41.725  42.584  24.988  1.00  0.00     0.026 H 
ATOM     36  H   UNL     1     -42.129  43.942  26.038  1.00  0.00     0.026 H 
ENDBRANCH  23  33
ENDBRANCH  12  22
BRANCH  17  37
ATOM     37  N   UNL     1     -42.049  41.355  28.572  1.00  0.00    -0.383 N 
ATOM     38  H   UNL     1     -41.094  41.059  28.720  1.00  0.00     0.158 HD
ATOM     39  H   UNL     1     -42.289  42.317  28.816  1.00  0.00     0.158 HD
ENDBRANCH  17  37
ENDBRANCH   1  11
BRANCH   3  40
ATOM     40  C   UNL     1     -46.060  34.925  28.027  1.00  0.00     0.117 C 
ATOM     41  H   UNL     1     -45.170  35.013  28.661  1.00  0.00     0.073 H 
ATOM     42  H   UNL     1     -45.810  35.310  27.030  1.00  0.00     0.073 H 
BRANCH  40  43
ATOM     43  O   UNL     1     -46.484  33.565  27.955  1.00  0.00    -0.491 OA
BRANCH  43  44
ATOM     44  C   UNL     1     -46.662  33.030  26.709  1.00  0.00     0.121 A 
ATOM     45  C   UNL     1     -46.113  33.513  25.525  1.00  0.00    -0.019 A 
ATOM     46  C   UNL     1     -47.478  31.893  26.672  1.00  0.00     0.007 A 
ATOM     47  C   UNL     1     -46.385  32.862  24.321  1.00  0.00    -0.049 A 
ATOM     48  H   UNL     1     -45.475  34.390  25.499  1.00  0.00     0.066 H 
ATOM     49  C   UNL     1     -47.763  31.226  25.489  1.00  0.00     0.076 A 
ATOM     50  H   UNL     1     -47.908  31.515  27.596  1.00  0.00     0.069 H 
ATOM     51  C   UNL     1     -47.206  31.723  24.298  1.00  0.00     0.001 A 
ATOM     52  H   UNL     1     -45.954  33.249  23.400  1.00  0.00     0.063 H 
ATOM     53  N   UNL     1     -48.554  30.139  25.518  1.00  0.00    -0.231 NA
ATOM     54  C   UNL     1     -47.501  31.048  23.111  1.00  0.00    -0.049 A 
ATOM     55  C   UNL     1     -48.829  29.487  24.364  1.00  0.00     0.129 A 
ATOM     56  C   UNL     1     -48.321  29.924  23.146  1.00  0.00    -0.019 A 
ATOM     57  H   UNL     1     -47.105  31.391  22.159  1.00  0.00     0.063 H 
ATOM     58  H   UNL     1     -48.566  29.406  22.226  1.00  0.00     0.066 H 
BRANCH  55  59
ATOM     59  N   UNL     1     -49.670  28.359  24.410  1.00  0.00    -0.356 N 
ATOM     60  C   UNL     1     -49.885  27.501  25.538  1.00  0.00     0.021 C 
ATOM     61  C   UNL     1     -51.068  28.381  24.077  1.00  0.00     0.021 C 
ATOM     62  C   UNL     1     -51.178  27.060  24.845  1.00  0.00    -0.018 C 
ATOM     63  H   UNL     1     -50.026  28.052  26.474  1.00  0.00     0.049 H 
ATOM     64  H   UNL     1     -49.121  26.728  25.653  1.00  0.00     0.049 H 
ATOM     65  H   UNL     1     -51.604  29.222  24.528  1.00  0.00     0.049 H 
ATOM     66  H   UNL     1     -51.260  28.326  23.003  1.00  0.00     0.049 H 
ATOM     67  H   UNL     1     -51.075  26.164  24.222  1.00  0.00     0.030 H 
ATOM     68  H   UNL     1     -52.054  26.956  25.492  1.00  0.00     0.030 H 
ENDBRANCH  55  59
ENDBRANCH  43  44
ENDBRANCH  40  43
ENDBRANCH   3  40
BRANCH   4  69
ATOM     69  O   UNL     1     -49.536  36.330  28.298  1.00  0.00    -0.387 OA
ATOM     70  H   UNL     1     -49.351  36.672  29.193  1.00  0.00     0.211 HD
ENDBRANCH   4  69
TORSDOF 10
ENDMDL
MODEL 3
REMARK VINA RESULT:      -8.8      3.891      8.288
REMARK SMILES CC1(C)COC(c2cn([C@@H]3O[C@H](COc4ccc5ccc(N6CCC6)nc5c4)[C@@H](O)[C@@H]3F)c3ncnc(N)c23)=N1
REMARK SMILES IDX 10 1 11 2 12 3 29 4 31 5 32 6 9 11 7 12 8 13 39 14 33 16
REMARK SMILES IDX 37 17 34 18 36 19 35 20 6 22 2 23 4 24 40 25 5 26 1 29 3 33
REMARK SMILES IDX 38 37 13 40 14 43 15 44 16 45 28 46 17 47 27 49 18 51 26 53
REMARK SMILES IDX 19 54 21 55 20 56 22 59 23 60 25 61 24 62 30 69
REMARK H PARENT 10 7 12 8 29 9 31 10 8 15 35 21 4 27 4 28 1 30 1 31 1 32 3 34
REMARK H PARENT 3 35 3 36 38 38 38 39 13 41 13 42 16 48 28 50 17 52 19 57
REMARK H PARENT 20 58 23 63 23 64 25 65 25 66 24 67 24 68 30 70
REMARK Flexibility Score: inf
ROOT
ATOM      1  C   UNL     1     -43.481  42.798  26.081  1.00  0.00     0.169 C 
ATOM      2  O   UNL     1     -44.023  44.013  26.657  1.00  0.00    -0.345 OA
ATOM      3  C   UNL     1     -44.475  44.850  25.570  1.00  0.00     0.123 C 
ATOM      4  C   UNL     1     -43.994  44.203  24.267  1.00  0.00     0.119 C 
ATOM      5  C   UNL     1     -43.944  42.738  24.632  1.00  0.00     0.173 C 
ATOM      6  F   UNL     1     -45.208  42.234  24.545  1.00  0.00    -0.239 F 
ATOM      7  H   UNL     1     -42.389  42.887  26.150  1.00  0.00     0.088 H 
ATOM      8  H   UNL     1     -44.018  45.839  25.698  1.00  0.00     0.067 H 
ATOM      9  H   UNL     1     -44.645  44.404  23.412  1.00  0.00     0.066 H 
ATOM     10  H   UNL     1     -43.287  42.135  24.001  1.00  0.00     0.074 H 
ENDROOT
BRANCH   1  11
ATOM     11  N   UNL     1     -43.879  41.647  26.874  1.00  0.00    -0.302 N 
ATOM     12  C   UNL     1     -44.929  39.811  27.617  1.00  0.00     0.067 A 
ATOM     13  C   UNL     1     -44.912  40.782  26.624  1.00  0.00     0.022 A 
ATOM     14  C   UNL     1     -43.865  40.136  28.523  1.00  0.00     0.074 A 
ATOM     15  H   UNL     1     -45.550  40.909  25.758  1.00  0.00     0.083 H 
ATOM     16  C   UNL     1     -43.227  41.261  28.017  1.00  0.00     0.148 A 
ATOM     17  C   UNL     1     -43.346  39.619  29.724  1.00  0.00     0.137 A 
ATOM     18  N   UNL     1     -42.157  41.884  28.537  1.00  0.00    -0.218 NA
ATOM     19  N   UNL     1     -42.259  40.202  30.270  1.00  0.00    -0.219 NA
ATOM     20  C   UNL     1     -41.737  41.282  29.662  1.00  0.00     0.120 A 
ATOM     21  H   UNL     1     -40.869  41.722  30.144  1.00  0.00     0.106 H 
BRANCH  12  22
ATOM     22  C   UNL     1     -45.853  38.703  27.666  1.00  0.00     0.219 C 
ATOM     23  C   UNL     1     -46.747  36.718  27.747  1.00  0.00     0.093 C 
ATOM     24  C   UNL     1     -47.837  37.781  27.815  1.00  0.00     0.115 C 
ATOM     25  N   UNL     1     -45.487  37.477  27.880  1.00  0.00    -0.241 NA
ATOM     26  O   UNL     1     -47.169  38.983  27.457  1.00  0.00    -0.475 OA
ATOM     27  H   UNL     1     -48.251  37.908  28.821  1.00  0.00     0.073 H 
ATOM     28  H   UNL     1     -48.663  37.595  27.121  1.00  0.00     0.073 H 
BRANCH  23  29
ATOM     29  C   UNL     1     -46.854  35.710  28.886  1.00  0.00    -0.036 C 
ATOM     30  H   UNL     1     -46.190  35.979  29.716  1.00  0.00     0.026 H 
ATOM     31  H   UNL     1     -47.877  35.657  29.273  1.00  0.00     0.026 H 
ATOM     32  H   UNL     1     -46.562  34.708  28.554  1.00  0.00     0.026 H 
ENDBRANCH  23  29
BRANCH  23  33
ATOM     33  C   UNL     1     -46.731  36.001  26.393  1.00  0.00    -0.036 C 
ATOM     34  H   UNL     1     -47.426  36.473  25.689  1.00  0.00     0.026 H 
ATOM     35  H   UNL     1     -47.019  34.950  26.502  1.00  0.00     0.026 H 
ATOM     36  H   UNL     1     -45.732  36.018  25.943  1.00  0.00     0.026 H 
ENDBRANCH  23  33
ENDBRANCH  12  22
BRANCH  17  37
ATOM     37  N   UNL     1     -43.885  38.538  30.399  1.00  0.00    -0.383 N 
ATOM     38  H   UNL     1     -44.174  37.797  29.776  1.00  0.00     0.158 HD
ATOM     39  H   UNL     1     -44.513  38.784  31.166  1.00  0.00     0.158 HD
ENDBRANCH  17  37
ENDBRANCH   1  11
BRANCH   3  40
ATOM     40  C   UNL     1     -46.000  44.983  25.652  1.00  0.00     0.117 C 
ATOM     41  H   UNL     1     -46.421  44.818  24.653  1.00  0.00     0.073 H 
ATOM     42  H   UNL     1     -46.276  45.994  25.977  1.00  0.00     0.073 H 
BRANCH  40  43
ATOM     43  O   UNL     1     -46.493  44.004  26.565  1.00  0.00    -0.491 OA
BRANCH  43  44
ATOM     44  C   UNL     1     -47.785  43.588  26.399  1.00  0.00     0.121 A 
ATOM     45  C   UNL     1     -48.727  44.163  25.552  1.00  0.00    -0.019 A 
ATOM     46  C   UNL     1     -48.147  42.480  27.174  1.00  0.00     0.007 A 
ATOM     47  C   UNL     1     -50.016  43.631  25.488  1.00  0.00    -0.049 A 
ATOM     48  H   UNL     1     -48.499  45.023  24.932  1.00  0.00     0.066 H 
ATOM     49  C   UNL     1     -49.420  41.929  27.128  1.00  0.00     0.076 A 
ATOM     50  H   UNL     1     -47.412  42.030  27.837  1.00  0.00     0.069 H 
ATOM     51  C   UNL     1     -50.365  42.518  26.271  1.00  0.00     0.001 A 
ATOM     52  H   UNL     1     -50.746  44.089  24.824  1.00  0.00     0.063 H 
ATOM     53  N   UNL     1     -49.707  40.863  27.896  1.00  0.00    -0.231 NA
ATOM     54  C   UNL     1     -51.646  41.961  26.233  1.00  0.00    -0.049 A 
ATOM     55  C   UNL     1     -50.947  40.325  27.848  1.00  0.00     0.129 A 
ATOM     56  C   UNL     1     -51.937  40.858  27.031  1.00  0.00    -0.019 A 
ATOM     57  H   UNL     1     -52.420  42.378  25.595  1.00  0.00     0.063 H 
ATOM     58  H   UNL     1     -52.934  40.431  27.017  1.00  0.00     0.066 H 
BRANCH  55  59
ATOM     59  N   UNL     1     -51.235  39.218  28.669  1.00  0.00    -0.356 N 
ATOM     60  C   UNL     1     -52.202  39.170  29.726  1.00  0.00     0.021 C 
ATOM     61  C   UNL     1     -51.615  37.923  28.174  1.00  0.00     0.021 C 
ATOM     62  C   UNL     1     -52.156  37.645  29.580  1.00  0.00    -0.018 C 
ATOM     63  H   UNL     1     -53.157  39.632  29.455  1.00  0.00     0.049 H 
ATOM     64  H   UNL     1     -51.834  39.566  30.676  1.00  0.00     0.049 H 
ATOM     65  H   UNL     1     -52.376  37.969  27.388  1.00  0.00     0.049 H 
ATOM     66  H   UNL     1     -50.765  37.312  27.860  1.00  0.00     0.049 H 
ATOM     67  H   UNL     1     -51.444  37.148  30.248  1.00  0.00     0.030 H 
ATOM     68  H   UNL     1     -53.121  37.133  29.626  1.00  0.00     0.030 H 
ENDBRANCH  55  59
ENDBRANCH  43  44
ENDBRANCH  40  43
ENDBRANCH   3  40
BRANCH   4  69
ATOM     69  O   UNL     1     -42.673  44.649  23.935  1.00  0.00    -0.387 OA
ATOM     70  H   UNL     1     -42.752  45.554  23.580  1.00  0.00     0.211 HD
ENDBRANCH   4  69
TORSDOF 10
ENDMDL
MODEL 4
REMARK VINA RESULT:      -8.8      3.006      4.141
REMARK SMILES CC1(C)COC(c2cn([C@@H]3O[C@H](COc4ccc5ccc(N6CCC6)nc5c4)[C@@H](O)[C@@H]3F)c3ncnc(N)c23)=N1
REMARK SMILES IDX 10 1 11 2 12 3 29 4 31 5 32 6 9 11 7 12 8 13 39 14 33 16
REMARK SMILES IDX 37 17 34 18 36 19 35 20 6 22 2 23 4 24 40 25 5 26 1 29 3 33
REMARK SMILES IDX 38 37 13 40 14 43 15 44 16 45 28 46 17 47 27 49 18 51 26 53
REMARK SMILES IDX 19 54 21 55 20 56 22 59 23 60 25 61 24 62 30 69
REMARK H PARENT 10 7 12 8 29 9 31 10 8 15 35 21 4 27 4 28 1 30 1 31 1 32 3 34
REMARK H PARENT 3 35 3 36 38 38 38 39 13 41 13 42 16 48 28 50 17 52 19 57
REMARK H PARENT 20 58 23 63 23 64 25 65 25 66 24 67 24 68 30 70
REMARK Flexibility Score: inf
ROOT
ATOM      1  C   UNL     1     -46.414  37.747  28.504  1.00  0.00     0.169 C 
ATOM      2  O   UNL     1     -45.545  37.019  27.600  1.00  0.00    -0.345 OA
ATOM      3  C   UNL     1     -45.931  35.628  27.645  1.00  0.00     0.123 C 
ATOM      4  C   UNL     1     -46.942  35.473  28.786  1.00  0.00     0.119 C 
ATOM      5  C   UNL     1     -47.590  36.837  28.832  1.00  0.00     0.173 C 
ATOM      6  F   UNL     1     -48.538  36.892  27.853  1.00  0.00    -0.239 F 
ATOM      7  H   UNL     1     -45.815  37.964  29.397  1.00  0.00     0.088 H 
ATOM      8  H   UNL     1     -45.029  35.038  27.851  1.00  0.00     0.067 H 
ATOM      9  H   UNL     1     -47.664  34.667  28.626  1.00  0.00     0.066 H 
ATOM     10  H   UNL     1     -48.064  37.083  29.786  1.00  0.00     0.074 H 
ENDROOT
BRANCH   1  11
ATOM     11  N   UNL     1     -46.801  39.017  27.914  1.00  0.00    -0.302 N 
ATOM     12  C   UNL     1     -47.978  40.802  27.240  1.00  0.00     0.067 A 
ATOM     13  C   UNL     1     -48.054  39.571  27.878  1.00  0.00     0.022 A 
ATOM     14  C   UNL     1     -46.608  40.975  26.849  1.00  0.00     0.074 A 
ATOM     15  H   UNL     1     -48.903  39.061  28.316  1.00  0.00     0.083 H 
ATOM     16  C   UNL     1     -45.910  39.863  27.303  1.00  0.00     0.148 A 
ATOM     17  C   UNL     1     -45.851  41.940  26.161  1.00  0.00     0.137 A 
ATOM     18  N   UNL     1     -44.593  39.631  27.178  1.00  0.00    -0.218 NA
ATOM     19  N   UNL     1     -44.521  41.756  26.030  1.00  0.00    -0.219 NA
ATOM     20  C   UNL     1     -43.977  40.633  26.533  1.00  0.00     0.120 A 
ATOM     21  H   UNL     1     -42.906  40.526  26.394  1.00  0.00     0.106 H 
BRANCH  12  22
ATOM     22  C   UNL     1     -49.092  41.699  27.051  1.00  0.00     0.219 C 
ATOM     23  C   UNL     1     -50.944  42.824  27.282  1.00  0.00     0.093 C 
ATOM     24  C   UNL     1     -50.208  43.288  26.031  1.00  0.00     0.115 C 
ATOM     25  N   UNL     1     -49.980  41.938  27.966  1.00  0.00    -0.241 NA
ATOM     26  O   UNL     1     -49.206  42.300  25.835  1.00  0.00    -0.475 OA
ATOM     27  H   UNL     1     -49.711  44.256  26.159  1.00  0.00     0.073 H 
ATOM     28  H   UNL     1     -50.854  43.342  25.149  1.00  0.00     0.073 H 
BRANCH  23  29
ATOM     29  C   UNL     1     -51.305  43.986  28.202  1.00  0.00    -0.036 C 
ATOM     30  H   UNL     1     -52.032  44.655  27.727  1.00  0.00     0.026 H 
ATOM     31  H   UNL     1     -51.737  43.627  29.142  1.00  0.00     0.026 H 
ATOM     32  H   UNL     1     -50.422  44.589  28.439  1.00  0.00     0.026 H 
ENDBRANCH  23  29
BRANCH  23  33
ATOM     33  C   UNL     1     -52.189  42.000  26.941  1.00  0.00    -0.036 C 
ATOM     34  H   UNL     1     -51.986  40.926  27.022  1.00  0.00     0.026 H 
ATOM     35  H   UNL     1     -52.527  42.205  25.919  1.00  0.00     0.026 H 
ATOM     36  H   UNL     1     -53.023  42.237  27.611  1.00  0.00     0.026 H 
ENDBRANCH  23  33
ENDBRANCH  12  22
BRANCH  17  37
ATOM     37  N   UNL     1     -46.386  43.083  25.594  1.00  0.00    -0.383 N 
ATOM     38  H   UNL     1     -45.886  43.377  24.766  1.00  0.00     0.158 HD
ATOM     39  H   UNL     1     -46.656  43.806  26.263  1.00  0.00     0.158 HD
ENDBRANCH  17  37
ENDBRANCH   1  11
BRANCH   3  40
ATOM     40  C   UNL     1     -46.496  35.229  26.278  1.00  0.00     0.117 C 
ATOM     41  H   UNL     1     -45.667  34.912  25.633  1.00  0.00     0.073 H 
ATOM     42  H   UNL     1     -46.988  36.088  25.804  1.00  0.00     0.073 H 
BRANCH  40  43
ATOM     43  O   UNL     1     -47.417  34.155  26.462  1.00  0.00    -0.491 OA
BRANCH  43  44
ATOM     44  C   UNL     1     -47.268  33.058  25.660  1.00  0.00     0.121 A 
ATOM     45  C   UNL     1     -46.436  32.964  24.549  1.00  0.00    -0.019 A 
ATOM     46  C   UNL     1     -48.045  31.954  26.030  1.00  0.00     0.007 A 
ATOM     47  C   UNL     1     -46.389  31.775  23.819  1.00  0.00    -0.049 A 
ATOM     48  H   UNL     1     -45.816  33.790  24.220  1.00  0.00     0.066 H 
ATOM     49  C   UNL     1     -48.016  30.759  25.324  1.00  0.00     0.076 A 
ATOM     50  H   UNL     1     -48.696  32.026  26.897  1.00  0.00     0.069 H 
ATOM     51  C   UNL     1     -47.174  30.674  24.201  1.00  0.00     0.001 A 
ATOM     52  H   UNL     1     -45.737  31.712  22.950  1.00  0.00     0.063 H 
ATOM     53  N   UNL     1     -48.785  29.733  25.729  1.00  0.00    -0.231 NA
ATOM     54  C   UNL     1     -47.153  29.470  23.493  1.00  0.00    -0.049 A 
ATOM     55  C   UNL     1     -48.754  28.568  25.041  1.00  0.00     0.129 A 
ATOM     56  C   UNL     1     -47.952  28.412  23.916  1.00  0.00    -0.019 A 
ATOM     57  H   UNL     1     -46.527  29.349  22.613  1.00  0.00     0.063 H 
ATOM     58  H   UNL     1     -47.951  27.480  23.361  1.00  0.00     0.066 H 
BRANCH  55  59
ATOM     59  N   UNL     1     -49.575  27.509  25.470  1.00  0.00    -0.356 N 
ATOM     60  C   UNL     1     -50.203  26.526  24.636  1.00  0.00     0.021 C 
ATOM     61  C   UNL     1     -49.184  26.528  26.445  1.00  0.00     0.021 C 
ATOM     62  C   UNL     1     -50.323  25.661  25.896  1.00  0.00    -0.018 C 
ATOM     63  H   UNL     1     -49.535  26.129  23.865  1.00  0.00     0.049 H 
ATOM     64  H   UNL     1     -51.147  26.860  24.199  1.00  0.00     0.049 H 
ATOM     65  H   UNL     1     -48.179  26.129  26.274  1.00  0.00     0.049 H 
ATOM     66  H   UNL     1     -49.299  26.870  27.476  1.00  0.00     0.049 H 
ATOM     67  H   UNL     1     -51.272  25.771  26.431  1.00  0.00     0.030 H 
ATOM     68  H   UNL     1     -50.095  24.600  25.769  1.00  0.00     0.030 H 
ENDBRANCH  55  59
ENDBRANCH  43  44
ENDBRANCH  40  43
ENDBRANCH   3  40
BRANCH   4  69
ATOM     69  O   UNL     1     -46.273  35.230  30.030  1.00  0.00    -0.387 OA
ATOM     70  H   UNL     1     -46.464  34.309  30.287  1.00  0.00     0.211 HD
ENDBRANCH   4  69
TORSDOF 10
ENDMDL
MODEL 5
REMARK VINA RESULT:      -8.5      3.594      4.908
REMARK SMILES CC1(C)COC(c2cn([C@@H]3O[C@H](COc4ccc5ccc(N6CCC6)nc5c4)[C@@H](O)[C@@H]3F)c3ncnc(N)c23)=N1
REMARK SMILES IDX 10 1 11 2 12 3 29 4 31 5 32 6 9 11 7 12 8 13 39 14 33 16
REMARK SMILES IDX 37 17 34 18 36 19 35 20 6 22 2 23 4 24 40 25 5 26 1 29 3 33
REMARK SMILES IDX 38 37 13 40 14 43 15 44 16 45 28 46 17 47 27 49 18 51 26 53
REMARK SMILES IDX 19 54 21 55 20 56 22 59 23 60 25 61 24 62 30 69
REMARK H PARENT 10 7 12 8 29 9 31 10 8 15 35 21 4 27 4 28 1 30 1 31 1 32 3 34
REMARK H PARENT 3 35 3 36 38 38 38 39 13 41 13 42 16 48 28 50 17 52 19 57
REMARK H PARENT 20 58 23 63 23 64 25 65 25 66 24 67 24 68 30 70
REMARK Flexibility Score: inf
ROOT
ATOM      1  C   UNL     1     -46.545  37.022  27.489  1.00  0.00     0.169 C 
ATOM      2  O   UNL     1     -46.841  36.315  26.258  1.00  0.00    -0.345 OA
ATOM      3  C   UNL     1     -46.949  34.910  26.574  1.00  0.00     0.123 C 
ATOM      4  C   UNL     1     -46.490  34.734  28.026  1.00  0.00     0.119 C 
ATOM      5  C   UNL     1     -46.838  36.069  28.641  1.00  0.00     0.173 C 
ATOM      6  F   UNL     1     -48.168  36.065  28.944  1.00  0.00    -0.239 F 
ATOM      7  H   UNL     1     -45.480  37.282  27.445  1.00  0.00     0.088 H 
ATOM      8  H   UNL     1     -46.284  34.363  25.895  1.00  0.00     0.067 H 
ATOM      9  H   UNL     1     -46.970  33.895  28.538  1.00  0.00     0.066 H 
ATOM     10  H   UNL     1     -46.277  36.312  29.546  1.00  0.00     0.074 H 
ENDROOT
BRANCH   1  11
ATOM     11  N   UNL     1     -47.298  38.263  27.548  1.00  0.00    -0.302 N 
ATOM     12  C   UNL     1     -48.895  39.790  27.927  1.00  0.00     0.067 A 
ATOM     13  C   UNL     1     -48.563  38.447  28.042  1.00  0.00     0.022 A 
ATOM     14  C   UNL     1     -47.775  40.435  27.303  1.00  0.00     0.074 A 
ATOM     15  H   UNL     1     -49.130  37.618  28.449  1.00  0.00     0.083 H 
ATOM     16  C   UNL     1     -46.803  39.464  27.106  1.00  0.00     0.148 A 
ATOM     17  C   UNL     1     -47.448  41.733  26.872  1.00  0.00     0.137 A 
ATOM     18  N   UNL     1     -45.581  39.641  26.577  1.00  0.00    -0.218 NA
ATOM     19  N   UNL     1     -46.224  41.960  26.352  1.00  0.00    -0.219 NA
ATOM     20  C   UNL     1     -45.376  40.922  26.232  1.00  0.00     0.120 A 
ATOM     21  H   UNL     1     -44.407  41.152  25.800  1.00  0.00     0.106 H 
BRANCH  12  22
ATOM     22  C   UNL     1     -50.135  40.371  28.382  1.00  0.00     0.219 C 
ATOM     23  C   UNL     1     -51.641  41.636  29.320  1.00  0.00     0.093 C 
ATOM     24  C   UNL     1     -52.318  40.554  28.486  1.00  0.00     0.115 C 
ATOM     25  N   UNL     1     -50.210  41.524  28.971  1.00  0.00    -0.241 NA
ATOM     26  O   UNL     1     -51.270  39.644  28.187  1.00  0.00    -0.475 OA
ATOM     27  H   UNL     1     -52.723  40.931  27.540  1.00  0.00     0.073 H 
ATOM     28  H   UNL     1     -53.118  40.035  29.024  1.00  0.00     0.073 H 
BRANCH  23  29
ATOM     29  C   UNL     1     -52.142  43.033  28.967  1.00  0.00    -0.036 C 
ATOM     30  H   UNL     1     -53.118  42.989  28.470  1.00  0.00     0.026 H 
ATOM     31  H   UNL     1     -52.243  43.655  29.862  1.00  0.00     0.026 H 
ATOM     32  H   UNL     1     -51.453  43.535  28.278  1.00  0.00     0.026 H 
ENDBRANCH  23  29
BRANCH  23  33
ATOM     33  C   UNL     1     -51.788  41.375  30.822  1.00  0.00    -0.036 C 
ATOM     34  H   UNL     1     -50.811  41.376  31.319  1.00  0.00     0.026 H 
ATOM     35  H   UNL     1     -52.262  40.405  31.008  1.00  0.00     0.026 H 
ATOM     36  H   UNL     1     -52.412  42.137  31.302  1.00  0.00     0.026 H 
ENDBRANCH  23  33
ENDBRANCH  12  22
BRANCH  17  37
ATOM     37  N   UNL     1     -48.311  42.812  26.939  1.00  0.00    -0.383 N 
ATOM     38  H   UNL     1     -49.108  42.636  27.535  1.00  0.00     0.158 HD
ATOM     39  H   UNL     1     -48.483  43.278  26.046  1.00  0.00     0.158 HD
ENDBRANCH  17  37
ENDBRANCH   1  11
BRANCH   3  40
ATOM     40  C   UNL     1     -48.395  34.462  26.338  1.00  0.00     0.117 C 
ATOM     41  H   UNL     1     -48.606  34.505  25.263  1.00  0.00     0.073 H 
ATOM     42  H   UNL     1     -49.091  35.138  26.850  1.00  0.00     0.073 H 
BRANCH  40  43
ATOM     43  O   UNL     1     -48.541  33.126  26.817  1.00  0.00    -0.491 OA
BRANCH  43  44
ATOM     44  C   UNL     1     -48.885  32.168  25.904  1.00  0.00     0.121 A 
ATOM     45  C   UNL     1     -49.588  32.379  24.722  1.00  0.00    -0.019 A 
ATOM     46  C   UNL     1     -48.470  30.872  26.232  1.00  0.00     0.007 A 
ATOM     47  C   UNL     1     -49.872  31.300  23.884  1.00  0.00    -0.049 A 
ATOM     48  H   UNL     1     -49.933  33.362  24.422  1.00  0.00     0.066 H 
ATOM     49  C   UNL     1     -48.736  29.781  25.416  1.00  0.00     0.076 A 
ATOM     50  H   UNL     1     -47.920  30.705  27.155  1.00  0.00     0.069 H 
ATOM     51  C   UNL     1     -49.450  30.004  24.225  1.00  0.00     0.001 A 
ATOM     52  H   UNL     1     -50.425  31.475  22.963  1.00  0.00     0.063 H 
ATOM     53  N   UNL     1     -48.311  28.560  25.784  1.00  0.00    -0.231 NA
ATOM     54  C   UNL     1     -49.718  28.901  23.411  1.00  0.00    -0.049 A 
ATOM     55  C   UNL     1     -48.568  27.498  24.987  1.00  0.00     0.129 A 
ATOM     56  C   UNL     1     -49.276  27.640  23.798  1.00  0.00    -0.019 A 
ATOM     57  H   UNL     1     -50.271  29.011  22.483  1.00  0.00     0.063 H 
ATOM     58  H   UNL     1     -49.494  26.777  23.178  1.00  0.00     0.066 H 
BRANCH  55  59
ATOM     59  N   UNL     1     -48.128  26.224  25.394  1.00  0.00    -0.356 N 
ATOM     60  C   UNL     1     -46.778  25.843  25.687  1.00  0.00     0.021 C 
ATOM     61  C   UNL     1     -48.644  25.519  26.535  1.00  0.00     0.021 C 
ATOM     62  C   UNL     1     -47.372  24.668  26.470  1.00  0.00    -0.018 C 
ATOM     63  H   UNL     1     -46.246  26.582  26.295  1.00  0.00     0.049 H 
ATOM     64  H   UNL     1     -46.196  25.577  24.801  1.00  0.00     0.049 H 
ATOM     65  H   UNL     1     -48.732  26.149  27.427  1.00  0.00     0.049 H 
ATOM     66  H   UNL     1     -49.581  24.994  26.335  1.00  0.00     0.049 H 
ATOM     67  H   UNL     1     -47.476  23.744  25.890  1.00  0.00     0.030 H 
ATOM     68  H   UNL     1     -46.898  24.446  27.430  1.00  0.00     0.030 H 
ENDBRANCH  55  59
ENDBRANCH  43  44
ENDBRANCH  40  43
ENDBRANCH   3  40
BRANCH   4  69
ATOM     69  O   UNL     1     -45.071  34.542  28.091  1.00  0.00    -0.387 OA
ATOM     70  H   UNL     1     -44.897  33.903  28.807  1.00  0.00     0.211 HD
ENDBRANCH   4  69
TORSDOF 10
ENDMDL
MODEL 6
REMARK VINA RESULT:      -8.3      4.234      7.822
REMARK SMILES CC1(C)COC(c2cn([C@@H]3O[C@H](COc4ccc5ccc(N6CCC6)nc5c4)[C@@H](O)[C@@H]3F)c3ncnc(N)c23)=N1
REMARK SMILES IDX 10 1 11 2 12 3 29 4 31 5 32 6 9 11 7 12 8 13 39 14 33 16
REMARK SMILES IDX 37 17 34 18 36 19 35 20 6 22 2 23 4 24 40 25 5 26 1 29 3 33
REMARK SMILES IDX 38 37 13 40 14 43 15 44 16 45 28 46 17 47 27 49 18 51 26 53
REMARK SMILES IDX 19 54 21 55 20 56 22 59 23 60 25 61 24 62 30 69
REMARK H PARENT 10 7 12 8 29 9 31 10 8 15 35 21 4 27 4 28 1 30 1 31 1 32 3 34
REMARK H PARENT 3 35 3 36 38 38 38 39 13 41 13 42 16 48 28 50 17 52 19 57
REMARK H PARENT 20 58 23 63 23 64 25 65 25 66 24 67 24 68 30 70
REMARK Flexibility Score: inf
ROOT
ATOM      1  C   UNL     1     -45.312  37.596  28.292  1.00  0.00     0.169 C 
ATOM      2  O   UNL     1     -46.340  37.209  27.346  1.00  0.00    -0.345 OA
ATOM      3  C   UNL     1     -47.374  36.520  28.081  1.00  0.00     0.123 C 
ATOM      4  C   UNL     1     -46.850  36.295  29.503  1.00  0.00     0.119 C 
ATOM      5  C   UNL     1     -45.905  37.459  29.688  1.00  0.00     0.173 C 
ATOM      6  F   UNL     1     -46.642  38.559  30.015  1.00  0.00    -0.239 F 
ATOM      7  H   UNL     1     -44.478  36.899  28.141  1.00  0.00     0.088 H 
ATOM      8  H   UNL     1     -47.554  35.559  27.583  1.00  0.00     0.067 H 
ATOM      9  H   UNL     1     -47.638  36.265  30.261  1.00  0.00     0.066 H 
ATOM     10  H   UNL     1     -45.146  37.309  30.459  1.00  0.00     0.074 H 
ENDROOT
BRANCH   1  11
ATOM     11  N   UNL     1     -44.829  38.932  27.989  1.00  0.00    -0.302 N 
ATOM     12  C   UNL     1     -44.538  40.951  27.057  1.00  0.00     0.067 A 
ATOM     13  C   UNL     1     -45.242  39.756  26.974  1.00  0.00     0.022 A 
ATOM     14  C   UNL     1     -43.635  40.817  28.164  1.00  0.00     0.074 A 
ATOM     15  H   UNL     1     -46.010  39.443  26.278  1.00  0.00     0.083 H 
ATOM     16  C   UNL     1     -43.862  39.567  28.726  1.00  0.00     0.148 A 
ATOM     17  C   UNL     1     -42.641  41.599  28.778  1.00  0.00     0.137 A 
ATOM     18  N   UNL     1     -43.253  39.045  29.804  1.00  0.00    -0.218 NA
ATOM     19  N   UNL     1     -42.018  41.121  29.876  1.00  0.00    -0.219 NA
ATOM     20  C   UNL     1     -42.349  39.895  30.317  1.00  0.00     0.120 A 
ATOM     21  H   UNL     1     -41.815  39.550  31.197  1.00  0.00     0.106 H 
BRANCH  12  22
ATOM     22  C   UNL     1     -44.732  42.080  26.180  1.00  0.00     0.219 C 
ATOM     23  C   UNL     1     -45.249  44.026  25.346  1.00  0.00     0.093 C 
ATOM     24  C   UNL     1     -44.538  43.182  24.294  1.00  0.00     0.115 C 
ATOM     25  N   UNL     1     -45.100  43.252  26.596  1.00  0.00    -0.241 NA
ATOM     26  O   UNL     1     -44.529  41.875  24.849  1.00  0.00    -0.475 OA
ATOM     27  H   UNL     1     -43.500  43.489  24.127  1.00  0.00     0.073 H 
ATOM     28  H   UNL     1     -45.057  43.173  23.330  1.00  0.00     0.073 H 
BRANCH  23  29
ATOM     29  C   UNL     1     -44.602  45.397  25.518  1.00  0.00    -0.036 C 
ATOM     30  H   UNL     1     -45.074  46.141  24.868  1.00  0.00     0.026 H 
ATOM     31  H   UNL     1     -44.687  45.746  26.552  1.00  0.00     0.026 H 
ATOM     32  H   UNL     1     -43.540  45.366  25.254  1.00  0.00     0.026 H 
ENDBRANCH  23  29
BRANCH  23  33
ATOM     33  C   UNL     1     -46.745  44.169  25.049  1.00  0.00    -0.036 C 
ATOM     34  H   UNL     1     -46.968  45.149  24.613  1.00  0.00     0.026 H 
ATOM     35  H   UNL     1     -47.339  44.062  25.964  1.00  0.00     0.026 H 
ATOM     36  H   UNL     1     -47.090  43.401  24.348  1.00  0.00     0.026 H 
ENDBRANCH  23  33
ENDBRANCH  12  22
BRANCH  17  37
ATOM     37  N   UNL     1     -42.245  42.845  28.324  1.00  0.00    -0.383 N 
ATOM     38  H   UNL     1     -42.399  43.574  29.006  1.00  0.00     0.158 HD
ATOM     39  H   UNL     1     -42.495  43.044  27.354  1.00  0.00     0.158 HD
ENDBRANCH  17  37
ENDBRANCH   1  11
BRANCH   3  40
ATOM     40  C   UNL     1     -48.656  37.360  28.034  1.00  0.00     0.117 C 
ATOM     41  H   UNL     1     -49.075  37.418  29.046  1.00  0.00     0.073 H 
ATOM     42  H   UNL     1     -49.399  36.884  27.383  1.00  0.00     0.073 H 
BRANCH  40  43
ATOM     43  O   UNL     1     -48.326  38.665  27.560  1.00  0.00    -0.491 OA
BRANCH  43  44
ATOM     44  C   UNL     1     -49.137  39.695  27.949  1.00  0.00     0.121 A 
ATOM     45  C   UNL     1     -50.433  39.575  28.440  1.00  0.00    -0.019 A 
ATOM     46  C   UNL     1     -48.568  40.967  27.821  1.00  0.00     0.007 A 
ATOM     47  C   UNL     1     -51.147  40.721  28.796  1.00  0.00    -0.049 A 
ATOM     48  H   UNL     1     -50.921  38.614  28.557  1.00  0.00     0.066 H 
ATOM     49  C   UNL     1     -49.254  42.123  28.168  1.00  0.00     0.076 A 
ATOM     50  H   UNL     1     -47.556  41.063  27.436  1.00  0.00     0.069 H 
ATOM     51  C   UNL     1     -50.563  41.992  28.662  1.00  0.00     0.001 A 
ATOM     52  H   UNL     1     -52.160  40.617  29.177  1.00  0.00     0.063 H 
ATOM     53  N   UNL     1     -48.652  43.317  28.024  1.00  0.00    -0.231 NA
ATOM     54  C   UNL     1     -51.248  43.160  29.006  1.00  0.00    -0.049 A 
ATOM     55  C   UNL     1     -49.321  44.443  28.366  1.00  0.00     0.129 A 
ATOM     56  C   UNL     1     -50.622  44.393  28.853  1.00  0.00    -0.019 A 
ATOM     57  H   UNL     1     -52.266  43.121  29.386  1.00  0.00     0.063 H 
ATOM     58  H   UNL     1     -51.155  45.304  29.104  1.00  0.00     0.066 H 
BRANCH  55  59
ATOM     59  N   UNL     1     -48.682  45.686  28.195  1.00  0.00    -0.356 N 
ATOM     60  C   UNL     1     -47.275  45.941  28.292  1.00  0.00     0.021 C 
ATOM     61  C   UNL     1     -48.818  46.508  27.024  1.00  0.00     0.021 C 
ATOM     62  C   UNL     1     -47.540  47.217  27.486  1.00  0.00    -0.018 C 
ATOM     63  H   UNL     1     -46.666  45.188  27.780  1.00  0.00     0.049 H 
ATOM     64  H   UNL     1     -46.926  46.091  29.317  1.00  0.00     0.049 H 
ATOM     65  H   UNL     1     -48.720  45.946  26.090  1.00  0.00     0.049 H 
ATOM     66  H   UNL     1     -49.726  47.115  27.022  1.00  0.00     0.049 H 
ATOM     67  H   UNL     1     -47.714  48.110  28.097  1.00  0.00     0.030 H 
ATOM     68  H   UNL     1     -46.813  47.446  26.703  1.00  0.00     0.030 H 
ENDBRANCH  55  59
ENDBRANCH  43  44
ENDBRANCH  40  43
ENDBRANCH   3  40
BRANCH   4  69
ATOM     69  O   UNL     1     -46.109  35.071  29.585  1.00  0.00    -0.387 OA
ATOM     70  H   UNL     1     -45.690  35.043  30.465  1.00  0.00     0.211 HD
ENDBRANCH   4  69
TORSDOF 10
ENDMDL
MODEL 7
REMARK VINA RESULT:      -8.3      4.606      8.728
REMARK SMILES CC1(C)COC(c2cn([C@@H]3O[C@H](COc4ccc5ccc(N6CCC6)nc5c4)[C@@H](O)[C@@H]3F)c3ncnc(N)c23)=N1
REMARK SMILES IDX 10 1 11 2 12 3 29 4 31 5 32 6 9 11 7 12 8 13 39 14 33 16
REMARK SMILES IDX 37 17 34 18 36 19 35 20 6 22 2 23 4 24 40 25 5 26 1 29 3 33
REMARK SMILES IDX 38 37 13 40 14 43 15 44 16 45 28 46 17 47 27 49 18 51 26 53
REMARK SMILES IDX 19 54 21 55 20 56 22 59 23 60 25 61 24 62 30 69
REMARK H PARENT 10 7 12 8 29 9 31 10 8 15 35 21 4 27 4 28 1 30 1 31 1 32 3 34
REMARK H PARENT 3 35 3 36 38 38 38 39 13 41 13 42 16 48 28 50 17 52 19 57
REMARK H PARENT 20 58 23 63 23 64 25 65 25 66 24 67 24 68 30 70
REMARK Flexibility Score: inf
ROOT
ATOM      1  C   UNL     1     -47.837  37.922  28.368  1.00  0.00     0.169 C 
ATOM      2  O   UNL     1     -46.732  38.194  29.266  1.00  0.00    -0.345 OA
ATOM      3  C   UNL     1     -45.636  37.335  28.886  1.00  0.00     0.123 C 
ATOM      4  C   UNL     1     -46.171  36.348  27.843  1.00  0.00     0.119 C 
ATOM      5  C   UNL     1     -47.278  37.139  27.187  1.00  0.00     0.173 C 
ATOM      6  F   UNL     1     -46.717  37.977  26.268  1.00  0.00    -0.239 F 
ATOM      7  H   UNL     1     -48.557  37.324  28.940  1.00  0.00     0.088 H 
ATOM      8  H   UNL     1     -45.304  36.799  29.784  1.00  0.00     0.067 H 
ATOM      9  H   UNL     1     -45.413  36.010  27.130  1.00  0.00     0.066 H 
ATOM     10  H   UNL     1     -48.034  36.532  26.684  1.00  0.00     0.074 H 
ENDROOT
BRANCH   1  11
ATOM     11  N   UNL     1     -48.494  39.162  27.992  1.00  0.00    -0.302 N 
ATOM     12  C   UNL     1     -48.896  41.250  27.283  1.00  0.00     0.067 A 
ATOM     13  C   UNL     1     -47.903  40.317  27.552  1.00  0.00     0.022 A 
ATOM     14  C   UNL     1     -50.145  40.624  27.610  1.00  0.00     0.074 A 
ATOM     15  H   UNL     1     -46.827  40.391  27.449  1.00  0.00     0.083 H 
ATOM     16  C   UNL     1     -49.856  39.329  28.022  1.00  0.00     0.148 A 
ATOM     17  C   UNL     1     -51.504  40.983  27.612  1.00  0.00     0.137 A 
ATOM     18  N   UNL     1     -50.736  38.384  28.391  1.00  0.00    -0.218 NA
ATOM     19  N   UNL     1     -52.424  40.059  27.957  1.00  0.00    -0.219 NA
ATOM     20  C   UNL     1     -51.999  38.836  28.324  1.00  0.00     0.120 A 
ATOM     21  H   UNL     1     -52.775  38.130  28.602  1.00  0.00     0.106 H 
BRANCH  12  22
ATOM     22  C   UNL     1     -48.659  42.574  26.759  1.00  0.00     0.219 C 
ATOM     23  C   UNL     1     -47.990  44.627  26.468  1.00  0.00     0.093 C 
ATOM     24  C   UNL     1     -48.770  44.157  25.246  1.00  0.00     0.115 C 
ATOM     25  N   UNL     1     -47.808  43.405  27.278  1.00  0.00    -0.241 NA
ATOM     26  O   UNL     1     -49.390  42.953  25.675  1.00  0.00    -0.475 OA
ATOM     27  H   UNL     1     -48.127  43.923  24.389  1.00  0.00     0.073 H 
ATOM     28  H   UNL     1     -49.533  44.873  24.922  1.00  0.00     0.073 H 
BRANCH  23  29
ATOM     29  C   UNL     1     -46.624  45.195  26.095  1.00  0.00    -0.036 C 
ATOM     30  H   UNL     1     -45.815  44.576  26.498  1.00  0.00     0.026 H 
ATOM     31  H   UNL     1     -46.502  45.251  25.009  1.00  0.00     0.026 H 
ATOM     32  H   UNL     1     -46.492  46.203  26.506  1.00  0.00     0.026 H 
ENDBRANCH  23  29
BRANCH  23  33
ATOM     33  C   UNL     1     -48.785  45.637  27.300  1.00  0.00    -0.036 C 
ATOM     34  H   UNL     1     -49.358  45.135  28.088  1.00  0.00     0.026 H 
ATOM     35  H   UNL     1     -49.488  46.196  26.672  1.00  0.00     0.026 H 
ATOM     36  H   UNL     1     -48.126  46.371  27.778  1.00  0.00     0.026 H 
ENDBRANCH  23  33
ENDBRANCH  12  22
BRANCH  17  37
ATOM     37  N   UNL     1     -51.973  42.243  27.284  1.00  0.00    -0.383 N 
ATOM     38  H   UNL     1     -52.000  42.400  26.286  1.00  0.00     0.158 HD
ATOM     39  H   UNL     1     -51.614  42.998  27.871  1.00  0.00     0.158 HD
ENDBRANCH  17  37
ENDBRANCH   1  11
BRANCH   3  40
ATOM     40  C   UNL     1     -44.486  38.204  28.363  1.00  0.00     0.117 C 
ATOM     41  H   UNL     1     -44.253  37.897  27.336  1.00  0.00     0.073 H 
ATOM     42  H   UNL     1     -43.589  38.056  28.976  1.00  0.00     0.073 H 
BRANCH  40  43
ATOM     43  O   UNL     1     -44.900  39.569  28.390  1.00  0.00    -0.491 OA
BRANCH  43  44
ATOM     44  C   UNL     1     -44.073  40.486  27.803  1.00  0.00     0.121 A 
ATOM     45  C   UNL     1     -42.839  40.904  28.291  1.00  0.00    -0.019 A 
ATOM     46  C   UNL     1     -44.554  41.024  26.604  1.00  0.00     0.007 A 
ATOM     47  C   UNL     1     -42.102  41.854  27.582  1.00  0.00    -0.049 A 
ATOM     48  H   UNL     1     -42.421  40.520  29.214  1.00  0.00     0.066 H 
ATOM     49  C   UNL     1     -43.842  41.968  25.878  1.00  0.00     0.076 A 
ATOM     50  H   UNL     1     -45.518  40.698  26.222  1.00  0.00     0.069 H 
ATOM     51  C   UNL     1     -42.597  42.387  26.380  1.00  0.00     0.001 A 
ATOM     52  H   UNL     1     -41.139  42.177  27.973  1.00  0.00     0.063 H 
ATOM     53  N   UNL     1     -44.357  42.448  24.733  1.00  0.00    -0.231 NA
ATOM     54  C   UNL     1     -41.887  43.341  25.646  1.00  0.00    -0.049 A 
ATOM     55  C   UNL     1     -43.659  43.366  24.024  1.00  0.00     0.129 A 
ATOM     56  C   UNL     1     -42.426  43.834  24.462  1.00  0.00    -0.019 A 
ATOM     57  H   UNL     1     -40.923  43.707  25.989  1.00  0.00     0.063 H 
ATOM     58  H   UNL     1     -41.886  44.586  23.896  1.00  0.00     0.066 H 
BRANCH  55  59
ATOM     59  N   UNL     1     -44.219  43.869  22.835  1.00  0.00    -0.356 N 
ATOM     60  C   UNL     1     -45.514  44.467  22.689  1.00  0.00     0.021 C 
ATOM     61  C   UNL     1     -43.594  44.862  22.005  1.00  0.00     0.021 C 
ATOM     62  C   UNL     1     -44.981  45.095  21.397  1.00  0.00    -0.018 C 
ATOM     63  H   UNL     1     -45.750  45.180  23.486  1.00  0.00     0.049 H 
ATOM     64  H   UNL     1     -46.321  43.741  22.565  1.00  0.00     0.049 H 
ATOM     65  H   UNL     1     -43.193  45.707  22.574  1.00  0.00     0.049 H 
ATOM     66  H   UNL     1     -42.839  44.452  21.330  1.00  0.00     0.049 H 
ATOM     67  H   UNL     1     -45.182  44.510  20.492  1.00  0.00     0.030 H 
ATOM     68  H   UNL     1     -45.257  46.139  21.225  1.00  0.00     0.030 H 
ENDBRANCH  55  59
ENDBRANCH  43  44
ENDBRANCH  40  43
ENDBRANCH   3  40
BRANCH   4  69
ATOM     69  O   UNL     1     -46.733  35.192  28.477  1.00  0.00    -0.387 OA
ATOM     70  H   UNL     1     -46.369  35.151  29.381  1.00  0.00     0.211 HD
ENDBRANCH   4  69
TORSDOF 10
ENDMDL
