MODEL 1
REMARK VINA RESULT:      -9.4      0.000      0.000
REMARK SMILES CN(C)Cc1cccc(OC[C@H]2O[C@@H](n3cc(Br)c4c(N)ncnc43)[C@@H](F)[C@@H]2O)c1
REMARK SMILES IDX 10 1 9 2 5 3 6 4 30 5 7 6 8 9 4 12 2 15 1 16 3 20 11 24
REMARK SMILES IDX 12 27 13 28 28 29 14 31 26 32 27 35 29 37 15 39 16 40 25 41
REMARK SMILES IDX 17 42 19 44 24 45 18 46 20 47 23 48 22 49 21 51
REMARK H PARENT 6 7 30 8 7 10 8 11 4 13 4 14 1 17 1 18 1 19 3 21 3 22 3 23
REMARK H PARENT 11 25 11 26 12 30 28 33 14 34 26 36 29 38 16 43 23 50 21 52
REMARK H PARENT 21 53
REMARK Flexibility Score: inf
ROOT
ATOM      1  O   UNL     1     -46.607  35.424  26.102  1.00  0.00    -0.491 OA
ENDROOT
BRANCH   1   2
ATOM      2  C   UNL     1     -47.246  34.245  25.850  1.00  0.00     0.119 A 
ATOM      3  C   UNL     1     -47.097  32.130  24.646  1.00  0.00    -0.030 A 
ATOM      4  C   UNL     1     -48.337  31.757  25.179  1.00  0.00    -0.057 A 
ATOM      5  C   UNL     1     -46.567  33.384  24.985  1.00  0.00    -0.015 A 
ATOM      6  C   UNL     1     -49.029  32.624  26.028  1.00  0.00    -0.058 A 
ATOM      7  H   UNL     1     -48.774  30.792  24.934  1.00  0.00     0.063 H 
ATOM      8  H   UNL     1     -45.607  33.692  24.572  1.00  0.00     0.067 H 
ATOM      9  C   UNL     1     -48.486  33.867  26.362  1.00  0.00    -0.020 A 
ATOM     10  H   UNL     1     -49.995  32.330  26.429  1.00  0.00     0.062 H 
ATOM     11  H   UNL     1     -49.056  34.519  27.015  1.00  0.00     0.066 H 
BRANCH   3  12
ATOM     12  C   UNL     1     -46.326  31.196  23.738  1.00  0.00     0.023 C 
ATOM     13  H   UNL     1     -45.459  30.779  24.267  1.00  0.00     0.048 H 
ATOM     14  H   UNL     1     -45.918  31.820  22.932  1.00  0.00     0.048 H 
BRANCH  12  15
ATOM     15  N   UNL     1     -47.154  30.120  23.167  1.00  0.00    -0.305 NA
BRANCH  15  16
ATOM     16  C   UNL     1     -46.498  28.816  23.282  1.00  0.00    -0.013 C 
ATOM     17  H   UNL     1     -45.583  28.776  22.682  1.00  0.00     0.039 H 
ATOM     18  H   UNL     1     -47.154  27.995  22.972  1.00  0.00     0.039 H 
ATOM     19  H   UNL     1     -46.189  28.634  24.318  1.00  0.00     0.039 H 
ENDBRANCH  15  16
BRANCH  15  20
ATOM     20  C   UNL     1     -47.454  30.409  21.765  1.00  0.00    -0.013 C 
ATOM     21  H   UNL     1     -46.555  30.755  21.242  1.00  0.00     0.039 H 
ATOM     22  H   UNL     1     -47.785  29.504  21.246  1.00  0.00     0.039 H 
ATOM     23  H   UNL     1     -48.231  31.175  21.657  1.00  0.00     0.039 H 
ENDBRANCH  15  20
ENDBRANCH  12  15
ENDBRANCH   3  12
ENDBRANCH   1   2
BRANCH   1  24
ATOM     24  C   UNL     1     -47.090  36.207  27.192  1.00  0.00     0.117 C 
ATOM     25  H   UNL     1     -47.207  37.245  26.863  1.00  0.00     0.073 H 
ATOM     26  H   UNL     1     -48.054  35.815  27.542  1.00  0.00     0.073 H 
BRANCH  24  27
ATOM     27  C   UNL     1     -46.092  36.145  28.356  1.00  0.00     0.123 C 
ATOM     28  O   UNL     1     -44.935  36.939  28.012  1.00  0.00    -0.345 OA
ATOM     29  C   UNL     1     -46.638  36.668  29.688  1.00  0.00     0.119 C 
ATOM     30  H   UNL     1     -45.744  35.111  28.454  1.00  0.00     0.067 H 
ATOM     31  C   UNL     1     -44.820  38.014  28.967  1.00  0.00     0.169 C 
ATOM     32  C   UNL     1     -46.096  38.075  29.793  1.00  0.00     0.173 C 
ATOM     33  H   UNL     1     -47.731  36.617  29.736  1.00  0.00     0.066 H 
ATOM     34  H   UNL     1     -43.962  37.758  29.600  1.00  0.00     0.088 H 
ATOM     35  F   UNL     1     -47.005  38.939  29.272  1.00  0.00    -0.239 F 
ATOM     36  H   UNL     1     -45.897  38.394  30.820  1.00  0.00     0.074 H 
BRANCH  29  37
ATOM     37  O   UNL     1     -46.123  35.871  30.764  1.00  0.00    -0.387 OA
ATOM     38  H   UNL     1     -45.228  35.579  30.509  1.00  0.00     0.211 HD
ENDBRANCH  29  37
BRANCH  31  39
ATOM     39  N   UNL     1     -44.507  39.260  28.286  1.00  0.00    -0.302 N 
ATOM     40  C   UNL     1     -45.107  39.763  27.157  1.00  0.00     0.023 A 
ATOM     41  C   UNL     1     -43.554  40.144  28.731  1.00  0.00     0.148 A 
ATOM     42  C   UNL     1     -44.535  40.986  26.903  1.00  0.00     0.049 A 
ATOM     43  H   UNL     1     -45.893  39.220  26.649  1.00  0.00     0.083 H 
ATOM     44  C   UNL     1     -43.546  41.246  27.883  1.00  0.00     0.075 A 
ATOM     45  N   UNL     1     -42.778  39.961  29.815  1.00  0.00    -0.218 NA
ATOM     46  Br  UNL     1     -45.003  42.125  25.486  1.00  0.00    -0.048 Br
ATOM     47  C   UNL     1     -42.630  42.264  28.190  1.00  0.00     0.137 A 
ATOM     48  C   UNL     1     -41.943  40.996  30.001  1.00  0.00     0.120 A 
ATOM     49  N   UNL     1     -41.821  42.112  29.258  1.00  0.00    -0.219 NA
ATOM     50  H   UNL     1     -41.279  40.925  30.857  1.00  0.00     0.106 H 
BRANCH  47  51
ATOM     51  N   UNL     1     -42.481  43.429  27.454  1.00  0.00    -0.383 N 
ATOM     52  H   UNL     1     -42.134  43.305  26.513  1.00  0.00     0.158 HD
ATOM     53  H   UNL     1     -42.066  44.168  28.009  1.00  0.00     0.158 HD
ENDBRANCH  47  51
ENDBRANCH  31  39
ENDBRANCH  24  27
ENDBRANCH   1  24
TORSDOF 10
ENDMDL
MODEL 2
REMARK VINA RESULT:      -7.8      3.615      9.689
REMARK SMILES CN(C)Cc1cccc(OC[C@H]2O[C@@H](n3cc(Br)c4c(N)ncnc43)[C@@H](F)[C@@H]2O)c1
REMARK SMILES IDX 10 1 9 2 5 3 6 4 30 5 7 6 8 9 4 12 2 15 1 16 3 20 11 24
REMARK SMILES IDX 12 27 13 28 28 29 14 31 26 32 27 35 29 37 15 39 16 40 25 41
REMARK SMILES IDX 17 42 19 44 24 45 18 46 20 47 23 48 22 49 21 51
REMARK H PARENT 6 7 30 8 7 10 8 11 4 13 4 14 1 17 1 18 1 19 3 21 3 22 3 23
REMARK H PARENT 11 25 11 26 12 30 28 33 14 34 26 36 29 38 16 43 23 50 21 52
REMARK H PARENT 21 53
REMARK Flexibility Score: inf
ROOT
ATOM      1  O   UNL     1     -48.653  35.987  27.961  1.00  0.00    -0.491 OA
ENDROOT
BRANCH   1   2
ATOM      2  C   UNL     1     -47.549  36.720  28.287  1.00  0.00     0.119 A 
ATOM      3  C   UNL     1     -46.089  38.532  27.558  1.00  0.00    -0.030 A 
ATOM      4  C   UNL     1     -45.330  38.368  28.723  1.00  0.00    -0.057 A 
ATOM      5  C   UNL     1     -47.194  37.693  27.349  1.00  0.00    -0.015 A 
ATOM      6  C   UNL     1     -45.669  37.384  29.653  1.00  0.00    -0.058 A 
ATOM      7  H   UNL     1     -44.467  39.002  28.911  1.00  0.00     0.063 H 
ATOM      8  H   UNL     1     -47.790  37.803  26.444  1.00  0.00     0.067 H 
ATOM      9  C   UNL     1     -46.776  36.559  29.435  1.00  0.00    -0.020 A 
ATOM     10  H   UNL     1     -45.068  37.257  30.549  1.00  0.00     0.062 H 
ATOM     11  H   UNL     1     -47.004  35.797  30.174  1.00  0.00     0.066 H 
BRANCH   3  12
ATOM     12  C   UNL     1     -45.746  39.605  26.548  1.00  0.00     0.023 C 
ATOM     13  H   UNL     1     -46.222  39.388  25.582  1.00  0.00     0.048 H 
ATOM     14  H   UNL     1     -44.664  39.530  26.375  1.00  0.00     0.048 H 
BRANCH  12  15
ATOM     15  N   UNL     1     -46.087  40.965  27.000  1.00  0.00    -0.305 NA
BRANCH  15  16
ATOM     16  C   UNL     1     -47.523  41.226  26.892  1.00  0.00    -0.013 C 
ATOM     17  H   UNL     1     -47.907  41.722  27.789  1.00  0.00     0.039 H 
ATOM     18  H   UNL     1     -48.099  40.308  26.728  1.00  0.00     0.039 H 
ATOM     19  H   UNL     1     -47.725  41.909  26.058  1.00  0.00     0.039 H 
ENDBRANCH  15  16
BRANCH  15  20
ATOM     20  C   UNL     1     -45.336  41.954  26.225  1.00  0.00    -0.013 C 
ATOM     21  H   UNL     1     -44.368  42.158  26.695  1.00  0.00     0.039 H 
ATOM     22  H   UNL     1     -45.119  41.574  25.221  1.00  0.00     0.039 H 
ATOM     23  H   UNL     1     -45.878  42.901  26.127  1.00  0.00     0.039 H 
ENDBRANCH  15  20
ENDBRANCH  12  15
ENDBRANCH   3  12
ENDBRANCH   1   2
BRANCH   1  24
ATOM     24  C   UNL     1     -48.533  35.085  26.863  1.00  0.00     0.117 C 
ATOM     25  H   UNL     1     -49.532  34.864  26.470  1.00  0.00     0.073 H 
ATOM     26  H   UNL     1     -47.910  35.527  26.075  1.00  0.00     0.073 H 
BRANCH  24  27
ATOM     27  C   UNL     1     -47.867  33.784  27.332  1.00  0.00     0.123 C 
ATOM     28  O   UNL     1     -48.568  32.669  26.740  1.00  0.00    -0.345 OA
ATOM     29  C   UNL     1     -46.388  33.658  26.956  1.00  0.00     0.119 C 
ATOM     30  H   UNL     1     -48.005  33.701  28.416  1.00  0.00     0.067 H 
ATOM     31  C   UNL     1     -47.647  31.946  25.898  1.00  0.00     0.169 C 
ATOM     32  C   UNL     1     -46.383  32.775  25.730  1.00  0.00     0.173 C 
ATOM     33  H   UNL     1     -45.917  34.634  26.793  1.00  0.00     0.066 H 
ATOM     34  H   UNL     1     -47.428  31.013  26.432  1.00  0.00     0.088 H 
ATOM     35  F   UNL     1     -46.426  33.558  24.620  1.00  0.00    -0.239 F 
ATOM     36  H   UNL     1     -45.494  32.143  25.646  1.00  0.00     0.074 H 
BRANCH  29  37
ATOM     37  O   UNL     1     -45.675  33.010  28.020  1.00  0.00    -0.387 OA
ATOM     38  H   UNL     1     -44.727  33.201  27.895  1.00  0.00     0.211 HD
ENDBRANCH  29  37
BRANCH  31  39
ATOM     39  N   UNL     1     -48.285  31.593  24.640  1.00  0.00    -0.302 N 
ATOM     40  C   UNL     1     -49.592  31.815  24.282  1.00  0.00     0.023 A 
ATOM     41  C   UNL     1     -47.617  31.002  23.595  1.00  0.00     0.148 A 
ATOM     42  C   UNL     1     -49.741  31.374  22.989  1.00  0.00     0.049 A 
ATOM     43  H   UNL     1     -50.291  32.280  24.965  1.00  0.00     0.083 H 
ATOM     44  C   UNL     1     -48.505  30.850  22.536  1.00  0.00     0.075 A 
ATOM     45  N   UNL     1     -46.320  30.647  23.611  1.00  0.00    -0.218 NA
ATOM     46  Br  UNL     1     -51.328  31.464  21.991  1.00  0.00    -0.048 Br
ATOM     47  C   UNL     1     -47.991  30.262  21.370  1.00  0.00     0.137 A 
ATOM     48  C   UNL     1     -45.948  30.093  22.446  1.00  0.00     0.120 A 
ATOM     49  N   UNL     1     -46.699  29.876  21.349  1.00  0.00    -0.219 NA
ATOM     50  H   UNL     1     -44.911  29.777  22.377  1.00  0.00     0.106 H 
BRANCH  47  51
ATOM     51  N   UNL     1     -48.731  30.030  20.221  1.00  0.00    -0.383 N 
ATOM     52  H   UNL     1     -49.436  29.309  20.298  1.00  0.00     0.158 HD
ATOM     53  H   UNL     1     -48.142  30.018  19.396  1.00  0.00     0.158 HD
ENDBRANCH  47  51
ENDBRANCH  31  39
ENDBRANCH  24  27
ENDBRANCH   1  24
TORSDOF 10
ENDMDL
MODEL 3
REMARK VINA RESULT:      -7.5      5.115     11.703
REMARK SMILES CN(C)Cc1cccc(OC[C@H]2O[C@@H](n3cc(Br)c4c(N)ncnc43)[C@@H](F)[C@@H]2O)c1
REMARK SMILES IDX 10 1 9 2 5 3 6 4 30 5 7 6 8 9 4 12 2 15 1 16 3 20 11 24
REMARK SMILES IDX 12 27 13 28 28 29 14 31 26 32 27 35 29 37 15 39 16 40 25 41
REMARK SMILES IDX 17 42 19 44 24 45 18 46 20 47 23 48 22 49 21 51
REMARK H PARENT 6 7 30 8 7 10 8 11 4 13 4 14 1 17 1 18 1 19 3 21 3 22 3 23
REMARK H PARENT 11 25 11 26 12 30 28 33 14 34 26 36 29 38 16 43 23 50 21 52
REMARK H PARENT 21 53
REMARK Flexibility Score: inf
ROOT
ATOM      1  O   UNL     1     -46.412  32.740  23.981  1.00  0.00    -0.491 OA
ENDROOT
BRANCH   1   2
ATOM      2  C   UNL     1     -46.992  33.376  25.039  1.00  0.00     0.119 A 
ATOM      3  C   UNL     1     -46.602  34.949  26.861  1.00  0.00    -0.030 A 
ATOM      4  C   UNL     1     -47.940  34.806  27.250  1.00  0.00    -0.057 A 
ATOM      5  C   UNL     1     -46.140  34.219  25.756  1.00  0.00    -0.015 A 
ATOM      6  C   UNL     1     -48.790  33.948  26.550  1.00  0.00    -0.058 A 
ATOM      7  H   UNL     1     -48.326  35.357  28.104  1.00  0.00     0.063 H 
ATOM      8  H   UNL     1     -45.100  34.314  25.445  1.00  0.00     0.067 H 
ATOM      9  C   UNL     1     -48.317  33.232  25.447  1.00  0.00    -0.020 A 
ATOM     10  H   UNL     1     -49.824  33.836  26.866  1.00  0.00     0.062 H 
ATOM     11  H   UNL     1     -49.003  32.566  24.933  1.00  0.00     0.066 H 
BRANCH   3  12
ATOM     12  C   UNL     1     -45.671  35.888  27.598  1.00  0.00     0.023 C 
ATOM     13  H   UNL     1     -44.718  35.980  27.062  1.00  0.00     0.048 H 
ATOM     14  H   UNL     1     -45.435  35.399  28.553  1.00  0.00     0.048 H 
BRANCH  12  15
ATOM     15  N   UNL     1     -46.257  37.216  27.848  1.00  0.00    -0.305 NA
BRANCH  15  16
ATOM     16  C   UNL     1     -46.647  37.877  26.602  1.00  0.00    -0.013 C 
ATOM     17  H   UNL     1     -46.411  38.946  26.627  1.00  0.00     0.039 H 
ATOM     18  H   UNL     1     -47.716  37.762  26.389  1.00  0.00     0.039 H 
ATOM     19  H   UNL     1     -46.084  37.462  25.757  1.00  0.00     0.039 H 
ENDBRANCH  15  16
BRANCH  15  20
ATOM     20  C   UNL     1     -45.308  38.051  28.585  1.00  0.00    -0.013 C 
ATOM     21  H   UNL     1     -44.968  37.540  29.492  1.00  0.00     0.039 H 
ATOM     22  H   UNL     1     -44.414  38.243  27.982  1.00  0.00     0.039 H 
ATOM     23  H   UNL     1     -45.743  39.014  28.875  1.00  0.00     0.039 H 
ENDBRANCH  15  20
ENDBRANCH  12  15
ENDBRANCH   3  12
ENDBRANCH   1   2
BRANCH   1  24
ATOM     24  C   UNL     1     -46.375  31.314  24.018  1.00  0.00     0.117 C 
ATOM     25  H   UNL     1     -45.331  30.984  24.057  1.00  0.00     0.073 H 
ATOM     26  H   UNL     1     -46.919  30.944  24.897  1.00  0.00     0.073 H 
BRANCH  24  27
ATOM     27  C   UNL     1     -47.047  30.747  22.760  1.00  0.00     0.123 C 
ATOM     28  O   UNL     1     -47.166  29.315  22.909  1.00  0.00    -0.345 OA
ATOM     29  C   UNL     1     -48.445  31.306  22.481  1.00  0.00     0.119 C 
ATOM     30  H   UNL     1     -46.378  30.919  21.909  1.00  0.00     0.067 H 
ATOM     31  C   UNL     1     -48.566  28.970  22.891  1.00  0.00     0.169 C 
ATOM     32  C   UNL     1     -49.387  30.246  23.004  1.00  0.00     0.173 C 
ATOM     33  H   UNL     1     -48.596  32.289  22.939  1.00  0.00     0.066 H 
ATOM     34  H   UNL     1     -48.739  28.485  21.923  1.00  0.00     0.088 H 
ATOM     35  F   UNL     1     -49.709  30.537  24.291  1.00  0.00    -0.239 F 
ATOM     36  H   UNL     1     -50.324  30.175  22.444  1.00  0.00     0.074 H 
BRANCH  29  37
ATOM     37  O   UNL     1     -48.628  31.457  21.066  1.00  0.00    -0.387 OA
ATOM     38  H   UNL     1     -48.552  30.572  20.665  1.00  0.00     0.211 HD
ENDBRANCH  29  37
BRANCH  31  39
ATOM     39  N   UNL     1     -48.858  27.995  23.929  1.00  0.00    -0.302 N 
ATOM     40  C   UNL     1     -47.954  27.325  24.716  1.00  0.00     0.023 A 
ATOM     41  C   UNL     1     -50.135  27.638  24.292  1.00  0.00     0.148 A 
ATOM     42  C   UNL     1     -48.673  26.552  25.595  1.00  0.00     0.049 A 
ATOM     43  H   UNL     1     -46.888  27.470  24.596  1.00  0.00     0.083 H 
ATOM     44  C   UNL     1     -50.055  26.729  25.341  1.00  0.00     0.075 A 
ATOM     45  N   UNL     1     -51.259  28.108  23.721  1.00  0.00    -0.218 NA
ATOM     46  Br  UNL     1     -47.933  25.447  26.920  1.00  0.00    -0.048 Br
ATOM     47  C   UNL     1     -51.274  26.255  25.849  1.00  0.00     0.137 A 
ATOM     48  C   UNL     1     -52.355  27.579  24.287  1.00  0.00     0.120 A 
ATOM     49  N   UNL     1     -52.424  26.688  25.295  1.00  0.00    -0.219 NA
ATOM     50  H   UNL     1     -53.307  27.907  23.882  1.00  0.00     0.106 H 
BRANCH  47  51
ATOM     51  N   UNL     1     -51.386  25.344  26.888  1.00  0.00    -0.383 N 
ATOM     52  H   UNL     1     -52.083  24.624  26.759  1.00  0.00     0.158 HD
ATOM     53  H   UNL     1     -51.354  25.804  27.790  1.00  0.00     0.158 HD
ENDBRANCH  47  51
ENDBRANCH  31  39
ENDBRANCH  24  27
ENDBRANCH   1  24
TORSDOF 10
ENDMDL
MODEL 4
REMARK VINA RESULT:      -7.5      3.711      5.922
REMARK SMILES CN(C)Cc1cccc(OC[C@H]2O[C@@H](n3cc(Br)c4c(N)ncnc43)[C@@H](F)[C@@H]2O)c1
REMARK SMILES IDX 10 1 9 2 5 3 6 4 30 5 7 6 8 9 4 12 2 15 1 16 3 20 11 24
REMARK SMILES IDX 12 27 13 28 28 29 14 31 26 32 27 35 29 37 15 39 16 40 25 41
REMARK SMILES IDX 17 42 19 44 24 45 18 46 20 47 23 48 22 49 21 51
REMARK H PARENT 6 7 30 8 7 10 8 11 4 13 4 14 1 17 1 18 1 19 3 21 3 22 3 23
REMARK H PARENT 11 25 11 26 12 30 28 33 14 34 26 36 29 38 16 43 23 50 21 52
REMARK H PARENT 21 53
REMARK Flexibility Score: inf
ROOT
ATOM      1  O   UNL     1     -48.044  37.790  27.555  1.00  0.00    -0.491 OA
ENDROOT
BRANCH   1   2
ATOM      2  C   UNL     1     -49.346  37.975  27.920  1.00  0.00     0.119 A 
ATOM      3  C   UNL     1     -51.009  39.646  28.545  1.00  0.00    -0.030 A 
ATOM      4  C   UNL     1     -51.961  38.627  28.674  1.00  0.00    -0.057 A 
ATOM      5  C   UNL     1     -49.700  39.303  28.175  1.00  0.00    -0.015 A 
ATOM      6  C   UNL     1     -51.606  37.298  28.441  1.00  0.00    -0.058 A 
ATOM      7  H   UNL     1     -52.983  38.863  28.962  1.00  0.00     0.063 H 
ATOM      8  H   UNL     1     -48.946  40.083  28.077  1.00  0.00     0.067 H 
ATOM      9  C   UNL     1     -50.301  36.971  28.066  1.00  0.00    -0.020 A 
ATOM     10  H   UNL     1     -52.350  36.513  28.553  1.00  0.00     0.062 H 
ATOM     11  H   UNL     1     -50.058  35.926  27.904  1.00  0.00     0.066 H 
BRANCH   3  12
ATOM     12  C   UNL     1     -51.380  41.095  28.778  1.00  0.00     0.023 C 
ATOM     13  H   UNL     1     -50.966  41.447  29.732  1.00  0.00     0.048 H 
ATOM     14  H   UNL     1     -52.472  41.118  28.894  1.00  0.00     0.048 H 
BRANCH  12  15
ATOM     15  N   UNL     1     -50.977  41.986  27.676  1.00  0.00    -0.305 NA
BRANCH  15  16
ATOM     16  C   UNL     1     -50.872  43.377  28.118  1.00  0.00    -0.013 C 
ATOM     17  H   UNL     1     -51.322  43.516  29.107  1.00  0.00     0.039 H 
ATOM     18  H   UNL     1     -51.352  44.071  27.417  1.00  0.00     0.039 H 
ATOM     19  H   UNL     1     -49.820  43.668  28.220  1.00  0.00     0.039 H 
ENDBRANCH  15  16
BRANCH  15  20
ATOM     20  C   UNL     1     -51.930  41.880  26.571  1.00  0.00    -0.013 C 
ATOM     21  H   UNL     1     -51.893  40.880  26.125  1.00  0.00     0.039 H 
ATOM     22  H   UNL     1     -52.955  42.021  26.931  1.00  0.00     0.039 H 
ATOM     23  H   UNL     1     -51.735  42.616  25.783  1.00  0.00     0.039 H 
ENDBRANCH  15  20
ENDBRANCH  12  15
ENDBRANCH   3  12
ENDBRANCH   1   2
BRANCH   1  24
ATOM     24  C   UNL     1     -47.598  36.444  27.396  1.00  0.00     0.117 C 
ATOM     25  H   UNL     1     -48.423  35.763  27.633  1.00  0.00     0.073 H 
ATOM     26  H   UNL     1     -47.258  36.277  26.366  1.00  0.00     0.073 H 
BRANCH  24  27
ATOM     27  C   UNL     1     -46.421  36.175  28.343  1.00  0.00     0.123 C 
ATOM     28  O   UNL     1     -45.264  36.888  27.854  1.00  0.00    -0.345 OA
ATOM     29  C   UNL     1     -46.660  36.610  29.792  1.00  0.00     0.119 C 
ATOM     30  H   UNL     1     -46.177  35.108  28.290  1.00  0.00     0.067 H 
ATOM     31  C   UNL     1     -44.864  37.847  28.854  1.00  0.00     0.169 C 
ATOM     32  C   UNL     1     -45.958  37.943  29.907  1.00  0.00     0.173 C 
ATOM     33  H   UNL     1     -47.726  36.655  30.040  1.00  0.00     0.066 H 
ATOM     34  H   UNL     1     -43.940  37.451  29.291  1.00  0.00     0.088 H 
ATOM     35  F   UNL     1     -46.844  38.935  29.638  1.00  0.00    -0.239 F 
ATOM     36  H   UNL     1     -45.544  38.138  30.901  1.00  0.00     0.074 H 
BRANCH  29  37
ATOM     37  O   UNL     1     -46.051  35.665  30.684  1.00  0.00    -0.387 OA
ATOM     38  H   UNL     1     -45.123  35.555  30.404  1.00  0.00     0.211 HD
ENDBRANCH  29  37
BRANCH  31  39
ATOM     39  N   UNL     1     -44.543  39.120  28.230  1.00  0.00    -0.302 N 
ATOM     40  C   UNL     1     -45.120  39.664  27.108  1.00  0.00     0.023 A 
ATOM     41  C   UNL     1     -43.606  39.991  28.731  1.00  0.00     0.148 A 
ATOM     42  C   UNL     1     -44.551  40.900  26.915  1.00  0.00     0.049 A 
ATOM     43  H   UNL     1     -45.892  39.138  26.562  1.00  0.00     0.083 H 
ATOM     44  C   UNL     1     -43.585  41.126  27.927  1.00  0.00     0.075 A 
ATOM     45  N   UNL     1     -42.852  39.769  29.823  1.00  0.00    -0.218 NA
ATOM     46  Br  UNL     1     -44.994  42.091  25.534  1.00  0.00    -0.048 Br
ATOM     47  C   UNL     1     -42.682  42.135  28.294  1.00  0.00     0.137 A 
ATOM     48  C   UNL     1     -42.028  40.800  30.069  1.00  0.00     0.120 A 
ATOM     49  N   UNL     1     -41.897  41.946  29.373  1.00  0.00    -0.219 NA
ATOM     50  H   UNL     1     -41.383  40.699  30.937  1.00  0.00     0.106 H 
BRANCH  47  51
ATOM     51  N   UNL     1     -42.524  43.329  27.608  1.00  0.00    -0.383 N 
ATOM     52  H   UNL     1     -43.153  43.468  26.829  1.00  0.00     0.158 HD
ATOM     53  H   UNL     1     -41.545  43.545  27.459  1.00  0.00     0.158 HD
ENDBRANCH  47  51
ENDBRANCH  31  39
ENDBRANCH  24  27
ENDBRANCH   1  24
TORSDOF 10
ENDMDL
MODEL 5
REMARK VINA RESULT:      -7.3      1.973      2.629
REMARK SMILES CN(C)Cc1cccc(OC[C@H]2O[C@@H](n3cc(Br)c4c(N)ncnc43)[C@@H](F)[C@@H]2O)c1
REMARK SMILES IDX 10 1 9 2 5 3 6 4 30 5 7 6 8 9 4 12 2 15 1 16 3 20 11 24
REMARK SMILES IDX 12 27 13 28 28 29 14 31 26 32 27 35 29 37 15 39 16 40 25 41
REMARK SMILES IDX 17 42 19 44 24 45 18 46 20 47 23 48 22 49 21 51
REMARK H PARENT 6 7 30 8 7 10 8 11 4 13 4 14 1 17 1 18 1 19 3 21 3 22 3 23
REMARK H PARENT 11 25 11 26 12 30 28 33 14 34 26 36 29 38 16 43 23 50 21 52
REMARK H PARENT 21 53
REMARK Flexibility Score: inf
ROOT
ATOM      1  O   UNL     1     -46.393  35.879  26.293  1.00  0.00    -0.491 OA
ENDROOT
BRANCH   1   2
ATOM      2  C   UNL     1     -47.062  34.713  26.057  1.00  0.00     0.119 A 
ATOM      3  C   UNL     1     -46.960  32.573  24.892  1.00  0.00    -0.030 A 
ATOM      4  C   UNL     1     -48.213  32.243  25.421  1.00  0.00    -0.057 A 
ATOM      5  C   UNL     1     -46.399  33.818  25.212  1.00  0.00    -0.015 A 
ATOM      6  C   UNL     1     -48.888  33.142  26.248  1.00  0.00    -0.058 A 
ATOM      7  H   UNL     1     -48.674  31.286  25.189  1.00  0.00     0.063 H 
ATOM      8  H   UNL     1     -45.428  34.093  24.802  1.00  0.00     0.067 H 
ATOM      9  C   UNL     1     -48.315  34.377  26.565  1.00  0.00    -0.020 A 
ATOM     10  H   UNL     1     -49.865  32.881  26.647  1.00  0.00     0.062 H 
ATOM     11  H   UNL     1     -48.873  35.055  27.201  1.00  0.00     0.066 H 
BRANCH   3  12
ATOM     12  C   UNL     1     -46.207  31.603  24.007  1.00  0.00     0.023 C 
ATOM     13  H   UNL     1     -45.497  31.013  24.603  1.00  0.00     0.048 H 
ATOM     14  H   UNL     1     -45.596  32.215  23.329  1.00  0.00     0.048 H 
BRANCH  12  15
ATOM     15  N   UNL     1     -47.088  30.719  23.225  1.00  0.00    -0.305 NA
BRANCH  15  16
ATOM     16  C   UNL     1     -46.900  29.313  23.585  1.00  0.00    -0.013 C 
ATOM     17  H   UNL     1     -46.079  29.191  24.298  1.00  0.00     0.039 H 
ATOM     18  H   UNL     1     -46.696  28.686  22.709  1.00  0.00     0.039 H 
ATOM     19  H   UNL     1     -47.795  28.923  24.083  1.00  0.00     0.039 H 
ENDBRANCH  15  16
BRANCH  15  20
ATOM     20  C   UNL     1     -46.845  30.909  21.794  1.00  0.00    -0.013 C 
ATOM     21  H   UNL     1     -45.811  31.226  21.618  1.00  0.00     0.039 H 
ATOM     22  H   UNL     1     -46.977  29.967  21.252  1.00  0.00     0.039 H 
ATOM     23  H   UNL     1     -47.514  31.658  21.356  1.00  0.00     0.039 H 
ENDBRANCH  15  20
ENDBRANCH  12  15
ENDBRANCH   3  12
ENDBRANCH   1   2
BRANCH   1  24
ATOM     24  C   UNL     1     -45.875  36.077  27.607  1.00  0.00     0.117 C 
ATOM     25  H   UNL     1     -45.824  35.112  28.121  1.00  0.00     0.073 H 
ATOM     26  H   UNL     1     -44.875  36.528  27.556  1.00  0.00     0.073 H 
BRANCH  24  27
ATOM     27  C   UNL     1     -46.793  37.028  28.387  1.00  0.00     0.123 C 
ATOM     28  O   UNL     1     -46.007  38.144  28.857  1.00  0.00    -0.345 OA
ATOM     29  C   UNL     1     -47.962  37.590  27.573  1.00  0.00     0.119 C 
ATOM     30  H   UNL     1     -47.153  36.501  29.278  1.00  0.00     0.067 H 
ATOM     31  C   UNL     1     -46.527  39.350  28.261  1.00  0.00     0.169 C 
ATOM     32  C   UNL     1     -47.509  38.971  27.163  1.00  0.00     0.173 C 
ATOM     33  H   UNL     1     -48.224  36.947  26.726  1.00  0.00     0.066 H 
ATOM     34  H   UNL     1     -47.040  39.883  29.071  1.00  0.00     0.088 H 
ATOM     35  F   UNL     1     -46.913  38.898  25.945  1.00  0.00    -0.239 F 
ATOM     36  H   UNL     1     -48.324  39.697  27.083  1.00  0.00     0.074 H 
BRANCH  29  37
ATOM     37  O   UNL     1     -49.124  37.692  28.410  1.00  0.00    -0.387 OA
ATOM     38  H   UNL     1     -49.888  37.385  27.887  1.00  0.00     0.211 HD
ENDBRANCH  29  37
BRANCH  31  39
ATOM     39  N   UNL     1     -45.436  40.196  27.802  1.00  0.00    -0.302 N 
ATOM     40  C   UNL     1     -44.091  39.991  27.992  1.00  0.00     0.023 A 
ATOM     41  C   UNL     1     -45.626  41.334  27.056  1.00  0.00     0.148 A 
ATOM     42  C   UNL     1     -43.430  41.004  27.340  1.00  0.00     0.049 A 
ATOM     43  H   UNL     1     -43.725  39.140  28.552  1.00  0.00     0.083 H 
ATOM     44  C   UNL     1     -44.381  41.869  26.746  1.00  0.00     0.075 A 
ATOM     45  N   UNL     1     -46.824  41.825  26.690  1.00  0.00    -0.218 NA
ATOM     46  Br  UNL     1     -41.565  41.196  27.252  1.00  0.00    -0.048 Br
ATOM     47  C   UNL     1     -44.380  43.042  25.976  1.00  0.00     0.137 A 
ATOM     48  C   UNL     1     -46.693  42.947  25.964  1.00  0.00     0.120 A 
ATOM     49  N   UNL     1     -45.560  43.577  25.602  1.00  0.00    -0.219 NA
ATOM     50  H   UNL     1     -47.617  43.409  25.629  1.00  0.00     0.106 H 
BRANCH  47  51
ATOM     51  N   UNL     1     -43.235  43.714  25.578  1.00  0.00    -0.383 N 
ATOM     52  H   UNL     1     -42.654  44.062  26.328  1.00  0.00     0.158 HD
ATOM     53  H   UNL     1     -43.423  44.343  24.806  1.00  0.00     0.158 HD
ENDBRANCH  47  51
ENDBRANCH  31  39
ENDBRANCH  24  27
ENDBRANCH   1  24
TORSDOF 10
ENDMDL
MODEL 6
REMARK VINA RESULT:      -7.3      2.374      3.215
REMARK SMILES CN(C)Cc1cccc(OC[C@H]2O[C@@H](n3cc(Br)c4c(N)ncnc43)[C@@H](F)[C@@H]2O)c1
REMARK SMILES IDX 10 1 9 2 5 3 6 4 30 5 7 6 8 9 4 12 2 15 1 16 3 20 11 24
REMARK SMILES IDX 12 27 13 28 28 29 14 31 26 32 27 35 29 37 15 39 16 40 25 41
REMARK SMILES IDX 17 42 19 44 24 45 18 46 20 47 23 48 22 49 21 51
REMARK H PARENT 6 7 30 8 7 10 8 11 4 13 4 14 1 17 1 18 1 19 3 21 3 22 3 23
REMARK H PARENT 11 25 11 26 12 30 28 33 14 34 26 36 29 38 16 43 23 50 21 52
REMARK H PARENT 21 53
REMARK Flexibility Score: inf
ROOT
ATOM      1  O   UNL     1     -47.722  33.822  26.113  1.00  0.00    -0.491 OA
ENDROOT
BRANCH   1   2
ATOM      2  C   UNL     1     -47.491  32.716  25.347  1.00  0.00     0.119 A 
ATOM      3  C   UNL     1     -48.283  30.470  24.821  1.00  0.00    -0.030 A 
ATOM      4  C   UNL     1     -47.244  30.338  23.891  1.00  0.00    -0.057 A 
ATOM      5  C   UNL     1     -48.389  31.665  25.549  1.00  0.00    -0.015 A 
ATOM      6  C   UNL     1     -46.333  31.379  23.701  1.00  0.00    -0.058 A 
ATOM      7  H   UNL     1     -47.136  29.424  23.314  1.00  0.00     0.063 H 
ATOM      8  H   UNL     1     -49.187  31.780  26.282  1.00  0.00     0.067 H 
ATOM      9  C   UNL     1     -46.454  32.565  24.428  1.00  0.00    -0.020 A 
ATOM     10  H   UNL     1     -45.524  31.263  22.984  1.00  0.00     0.062 H 
ATOM     11  H   UNL     1     -45.721  33.348  24.262  1.00  0.00     0.066 H 
BRANCH   3  12
ATOM     12  C   UNL     1     -49.290  29.360  25.029  1.00  0.00     0.023 C 
ATOM     13  H   UNL     1     -50.036  29.365  24.223  1.00  0.00     0.048 H 
ATOM     14  H   UNL     1     -49.837  29.608  25.949  1.00  0.00     0.048 H 
BRANCH  12  15
ATOM     15  N   UNL     1     -48.674  28.028  25.157  1.00  0.00    -0.305 NA
BRANCH  15  16
ATOM     16  C   UNL     1     -49.414  27.016  24.403  1.00  0.00    -0.013 C 
ATOM     17  H   UNL     1     -50.338  27.427  23.983  1.00  0.00     0.039 H 
ATOM     18  H   UNL     1     -49.670  26.146  25.019  1.00  0.00     0.039 H 
ATOM     19  H   UNL     1     -48.822  26.667  23.549  1.00  0.00     0.039 H 
ENDBRANCH  15  16
BRANCH  15  20
ATOM     20  C   UNL     1     -48.596  27.646  26.568  1.00  0.00    -0.013 C 
ATOM     21  H   UNL     1     -49.118  28.378  27.194  1.00  0.00     0.039 H 
ATOM     22  H   UNL     1     -49.093  26.685  26.736  1.00  0.00     0.039 H 
ATOM     23  H   UNL     1     -47.562  27.568  26.920  1.00  0.00     0.039 H 
ENDBRANCH  15  20
ENDBRANCH  12  15
ENDBRANCH   3  12
ENDBRANCH   1   2
BRANCH   1  24
ATOM     24  C   UNL     1     -46.854  34.938  25.923  1.00  0.00     0.117 C 
ATOM     25  H   UNL     1     -46.103  34.683  25.168  1.00  0.00     0.073 H 
ATOM     26  H   UNL     1     -47.430  35.814  25.599  1.00  0.00     0.073 H 
BRANCH  24  27
ATOM     27  C   UNL     1     -46.156  35.281  27.247  1.00  0.00     0.123 C 
ATOM     28  O   UNL     1     -45.729  36.659  27.197  1.00  0.00    -0.345 OA
ATOM     29  C   UNL     1     -47.034  35.108  28.490  1.00  0.00     0.119 C 
ATOM     30  H   UNL     1     -45.247  34.673  27.321  1.00  0.00     0.067 H 
ATOM     31  C   UNL     1     -46.407  37.384  28.243  1.00  0.00     0.169 C 
ATOM     32  C   UNL     1     -47.509  36.505  28.814  1.00  0.00     0.173 C 
ATOM     33  H   UNL     1     -47.850  34.396  28.325  1.00  0.00     0.066 H 
ATOM     34  H   UNL     1     -45.644  37.590  29.004  1.00  0.00     0.088 H 
ATOM     35  F   UNL     1     -48.704  36.719  28.204  1.00  0.00    -0.239 F 
ATOM     36  H   UNL     1     -47.655  36.684  29.883  1.00  0.00     0.074 H 
BRANCH  29  37
ATOM     37  O   UNL     1     -46.239  34.606  29.573  1.00  0.00    -0.387 OA
ATOM     38  H   UNL     1     -46.535  35.056  30.386  1.00  0.00     0.211 HD
ENDBRANCH  29  37
BRANCH  31  39
ATOM     39  N   UNL     1     -46.882  38.664  27.742  1.00  0.00    -0.302 N 
ATOM     40  C   UNL     1     -48.165  39.150  27.793  1.00  0.00     0.023 A 
ATOM     41  C   UNL     1     -46.059  39.600  27.163  1.00  0.00     0.148 A 
ATOM     42  C   UNL     1     -48.143  40.415  27.257  1.00  0.00     0.049 A 
ATOM     43  H   UNL     1     -48.971  38.567  28.220  1.00  0.00     0.083 H 
ATOM     44  C   UNL     1     -46.822  40.719  26.845  1.00  0.00     0.075 A 
ATOM     45  N   UNL     1     -44.739  39.445  26.956  1.00  0.00    -0.218 NA
ATOM     46  Br  UNL     1     -49.629  41.552  27.105  1.00  0.00    -0.048 Br
ATOM     47  C   UNL     1     -46.141  41.789  26.245  1.00  0.00     0.137 A 
ATOM     48  C   UNL     1     -44.202  40.529  26.374  1.00  0.00     0.120 A 
ATOM     49  N   UNL     1     -44.820  41.668  26.006  1.00  0.00    -0.219 NA
ATOM     50  H   UNL     1     -43.137  40.484  26.172  1.00  0.00     0.106 H 
BRANCH  47  51
ATOM     51  N   UNL     1     -46.740  42.978  25.859  1.00  0.00    -0.383 N 
ATOM     52  H   UNL     1     -46.104  43.737  25.659  1.00  0.00     0.158 HD
ATOM     53  H   UNL     1     -47.550  43.188  26.429  1.00  0.00     0.158 HD
ENDBRANCH  47  51
ENDBRANCH  31  39
ENDBRANCH  24  27
ENDBRANCH   1  24
TORSDOF 10
ENDMDL
MODEL 7
REMARK VINA RESULT:      -7.2      1.946      2.356
REMARK SMILES CN(C)Cc1cccc(OC[C@H]2O[C@@H](n3cc(Br)c4c(N)ncnc43)[C@@H](F)[C@@H]2O)c1
REMARK SMILES IDX 10 1 9 2 5 3 6 4 30 5 7 6 8 9 4 12 2 15 1 16 3 20 11 24
REMARK SMILES IDX 12 27 13 28 28 29 14 31 26 32 27 35 29 37 15 39 16 40 25 41
REMARK SMILES IDX 17 42 19 44 24 45 18 46 20 47 23 48 22 49 21 51
REMARK H PARENT 6 7 30 8 7 10 8 11 4 13 4 14 1 17 1 18 1 19 3 21 3 22 3 23
REMARK H PARENT 11 25 11 26 12 30 28 33 14 34 26 36 29 38 16 43 23 50 21 52
REMARK H PARENT 21 53
REMARK Flexibility Score: inf
ROOT
ATOM      1  O   UNL     1     -47.617  34.470  26.854  1.00  0.00    -0.491 OA
ENDROOT
BRANCH   1   2
ATOM      2  C   UNL     1     -47.900  33.450  25.993  1.00  0.00     0.119 A 
ATOM      3  C   UNL     1     -46.968  31.995  24.272  1.00  0.00    -0.030 A 
ATOM      4  C   UNL     1     -48.214  31.367  24.151  1.00  0.00    -0.057 A 
ATOM      5  C   UNL     1     -46.829  33.044  25.193  1.00  0.00    -0.015 A 
ATOM      6  C   UNL     1     -49.292  31.783  24.933  1.00  0.00    -0.058 A 
ATOM      7  H   UNL     1     -48.352  30.553  23.443  1.00  0.00     0.063 H 
ATOM      8  H   UNL     1     -45.868  33.548  25.294  1.00  0.00     0.067 H 
ATOM      9  C   UNL     1     -49.137  32.824  25.852  1.00  0.00    -0.020 A 
ATOM     10  H   UNL     1     -50.258  31.296  24.825  1.00  0.00     0.062 H 
ATOM     11  H   UNL     1     -50.000  33.129  26.435  1.00  0.00     0.066 H 
BRANCH   3  12
ATOM     12  C   UNL     1     -45.784  31.546  23.444  1.00  0.00     0.023 C 
ATOM     13  H   UNL     1     -45.029  31.070  24.084  1.00  0.00     0.048 H 
ATOM     14  H   UNL     1     -45.317  32.460  23.054  1.00  0.00     0.048 H 
BRANCH  12  15
ATOM     15  N   UNL     1     -46.153  30.658  22.328  1.00  0.00    -0.305 NA
BRANCH  15  16
ATOM     16  C   UNL     1     -45.351  29.433  22.325  1.00  0.00    -0.013 C 
ATOM     17  H   UNL     1     -45.312  28.985  21.326  1.00  0.00     0.039 H 
ATOM     18  H   UNL     1     -45.737  28.684  23.026  1.00  0.00     0.039 H 
ATOM     19  H   UNL     1     -44.313  29.656  22.599  1.00  0.00     0.039 H 
ENDBRANCH  15  16
BRANCH  15  20
ATOM     20  C   UNL     1     -45.999  31.363  21.055  1.00  0.00    -0.013 C 
ATOM     21  H   UNL     1     -46.397  30.761  20.231  1.00  0.00     0.039 H 
ATOM     22  H   UNL     1     -46.569  32.298  21.060  1.00  0.00     0.039 H 
ATOM     23  H   UNL     1     -44.951  31.597  20.836  1.00  0.00     0.039 H 
ENDBRANCH  15  20
ENDBRANCH  12  15
ENDBRANCH   3  12
ENDBRANCH   1   2
BRANCH   1  24
ATOM     24  C   UNL     1     -46.434  35.225  26.601  1.00  0.00     0.117 C 
ATOM     25  H   UNL     1     -45.697  34.582  26.108  1.00  0.00     0.073 H 
ATOM     26  H   UNL     1     -46.664  36.089  25.964  1.00  0.00     0.073 H 
BRANCH  24  27
ATOM     27  C   UNL     1     -45.858  35.744  27.927  1.00  0.00     0.123 C 
ATOM     28  O   UNL     1     -45.414  37.104  27.734  1.00  0.00    -0.345 OA
ATOM     29  C   UNL     1     -46.850  35.737  29.094  1.00  0.00     0.119 C 
ATOM     30  H   UNL     1     -44.967  35.153  28.166  1.00  0.00     0.067 H 
ATOM     31  C   UNL     1     -46.179  37.961  28.606  1.00  0.00     0.169 C 
ATOM     32  C   UNL     1     -47.339  37.163  29.183  1.00  0.00     0.173 C 
ATOM     33  H   UNL     1     -47.654  35.007  28.949  1.00  0.00     0.066 H 
ATOM     34  H   UNL     1     -45.488  38.268  29.401  1.00  0.00     0.088 H 
ATOM     35  F   UNL     1     -48.469  37.291  28.442  1.00  0.00    -0.239 F 
ATOM     36  H   UNL     1     -47.581  37.483  30.201  1.00  0.00     0.074 H 
BRANCH  29  37
ATOM     37  O   UNL     1     -46.164  35.385  30.304  1.00  0.00    -0.387 OA
ATOM     38  H   UNL     1     -46.154  36.176  30.875  1.00  0.00     0.211 HD
ENDBRANCH  29  37
BRANCH  31  39
ATOM     39  N   UNL     1     -46.593  39.161  27.897  1.00  0.00    -0.302 N 
ATOM     40  C   UNL     1     -47.867  39.662  27.786  1.00  0.00     0.023 A 
ATOM     41  C   UNL     1     -45.713  39.998  27.252  1.00  0.00     0.148 A 
ATOM     42  C   UNL     1     -47.782  40.838  27.080  1.00  0.00     0.049 A 
ATOM     43  H   UNL     1     -48.712  39.154  28.232  1.00  0.00     0.083 H 
ATOM     44  C   UNL     1     -46.430  41.068  26.726  1.00  0.00     0.075 A 
ATOM     45  N   UNL     1     -44.385  39.802  27.166  1.00  0.00    -0.218 NA
ATOM     46  Br  UNL     1     -49.231  41.956  26.663  1.00  0.00    -0.048 Br
ATOM     47  C   UNL     1     -45.687  42.035  26.032  1.00  0.00     0.137 A 
ATOM     48  C   UNL     1     -43.787  40.788  26.477  1.00  0.00     0.120 A 
ATOM     49  N   UNL     1     -44.355  41.868  25.908  1.00  0.00    -0.219 NA
ATOM     50  H   UNL     1     -42.711  40.704  26.360  1.00  0.00     0.106 H 
BRANCH  47  51
ATOM     51  N   UNL     1     -46.233  43.162  25.440  1.00  0.00    -0.383 N 
ATOM     52  H   UNL     1     -46.020  43.283  24.460  1.00  0.00     0.158 HD
ATOM     53  H   UNL     1     -46.146  43.975  26.039  1.00  0.00     0.158 HD
ENDBRANCH  47  51
ENDBRANCH  31  39
ENDBRANCH  24  27
ENDBRANCH   1  24
TORSDOF 10
ENDMDL
