MODEL 1
REMARK VINA RESULT:     -11.4      0.000      0.000
REMARK SMILES Nc1ncnc2c1c([C@H]1CCCO1)cn2[C@@H]1O[C@H](COc2ccc3ccc(N4CCC4)nc3c2)[C@@H](O)[C@@H]1F
REMARK SMILES IDX 19 1 18 4 16 5 17 6 37 7 35 9 38 10 15 14 2 15 3 16 7 17
REMARK SMILES IDX 4 18 6 19 8 20 5 21 14 23 1 25 9 28 10 29 13 30 11 32 12 35
REMARK SMILES IDX 36 40 20 42 21 43 22 44 34 45 23 46 33 48 24 50 32 52 25 53
REMARK SMILES IDX 27 54 26 55 28 58 29 59 31 60 30 61
REMARK H PARENT 19 2 19 3 16 8 37 11 18 12 35 13 4 22 14 24 1 26 1 27 9 31
REMARK H PARENT 10 33 10 34 11 36 11 37 12 38 12 39 36 41 22 47 34 49 23 51
REMARK H PARENT 25 56 26 57 29 62 29 63 31 64 31 65 30 66 30 67
REMARK Flexibility Score: inf
ROOT
ATOM      1  C   UNL     1     -47.126  36.353  27.141  1.00  0.00     0.117 C 
ATOM      2  H   UNL     1     -47.560  37.348  27.289  1.00  0.00     0.073 H 
ATOM      3  H   UNL     1     -46.527  36.381  26.221  1.00  0.00     0.073 H 
ENDROOT
BRANCH   1   4
ATOM      4  C   UNL     1     -46.196  35.992  28.305  1.00  0.00     0.123 C 
ATOM      5  C   UNL     1     -44.967  37.847  29.041  1.00  0.00     0.169 C 
ATOM      6  O   UNL     1     -44.946  36.698  28.149  1.00  0.00    -0.345 OA
ATOM      7  C   UNL     1     -46.307  37.850  29.775  1.00  0.00     0.173 C 
ATOM      8  H   UNL     1     -44.135  37.696  29.738  1.00  0.00     0.088 H 
ATOM      9  C   UNL     1     -46.719  36.397  29.685  1.00  0.00     0.119 C 
ATOM     10  F   UNL     1     -47.232  38.599  29.114  1.00  0.00    -0.239 F 
ATOM     11  H   UNL     1     -46.221  38.233  30.795  1.00  0.00     0.074 H 
ATOM     12  H   UNL     1     -45.982  34.917  28.276  1.00  0.00     0.067 H 
ATOM     13  H   UNL     1     -47.797  36.255  29.791  1.00  0.00     0.066 H 
BRANCH   5  14
ATOM     14  N   UNL     1     -44.700  39.067  28.296  1.00  0.00    -0.303 N 
ATOM     15  C   UNL     1     -42.904  42.099  28.027  1.00  0.00     0.136 A 
ATOM     16  N   UNL     1     -42.073  42.021  29.086  1.00  0.00    -0.219 NA
ATOM     17  C   UNL     1     -43.807  41.049  27.788  1.00  0.00     0.067 A 
ATOM     18  C   UNL     1     -42.138  40.928  29.868  1.00  0.00     0.120 A 
ATOM     19  C   UNL     1     -43.759  39.986  28.679  1.00  0.00     0.148 A 
ATOM     20  C   UNL     1     -44.831  40.754  26.822  1.00  0.00     0.012 A 
ATOM     21  N   UNL     1     -42.948  39.862  29.745  1.00  0.00    -0.218 NA
ATOM     22  H   UNL     1     -41.448  40.906  30.706  1.00  0.00     0.106 H 
ATOM     23  C   UNL     1     -45.326  39.500  27.155  1.00  0.00     0.015 A 
ATOM     24  H   UNL     1     -46.084  38.894  26.676  1.00  0.00     0.082 H 
BRANCH  15  25
ATOM     25  N   UNL     1     -42.824  43.240  27.238  1.00  0.00    -0.383 N 
ATOM     26  H   UNL     1     -42.347  44.005  27.719  1.00  0.00     0.158 HD
ATOM     27  H   UNL     1     -42.463  43.008  26.322  1.00  0.00     0.158 HD
ENDBRANCH  15  25
BRANCH  20  28
ATOM     28  C   UNL     1     -45.245  41.618  25.667  1.00  0.00     0.085 C 
ATOM     29  C   UNL     1     -45.894  42.945  26.053  1.00  0.00    -0.020 C 
ATOM     30  O   UNL     1     -44.116  41.966  24.824  1.00  0.00    -0.373 OA
ATOM     31  H   UNL     1     -45.934  41.045  25.034  1.00  0.00     0.066 H 
ATOM     32  C   UNL     1     -45.577  43.817  24.865  1.00  0.00    -0.027 C 
ATOM     33  H   UNL     1     -45.428  43.379  26.946  1.00  0.00     0.030 H 
ATOM     34  H   UNL     1     -46.967  42.850  26.246  1.00  0.00     0.030 H 
ATOM     35  C   UNL     1     -44.173  43.369  24.534  1.00  0.00     0.048 C 
ATOM     36  H   UNL     1     -45.646  44.888  25.074  1.00  0.00     0.029 H 
ATOM     37  H   UNL     1     -46.255  43.579  24.037  1.00  0.00     0.029 H 
ATOM     38  H   UNL     1     -43.434  43.873  25.165  1.00  0.00     0.057 H 
ATOM     39  H   UNL     1     -43.912  43.538  23.486  1.00  0.00     0.057 H 
ENDBRANCH  20  28
ENDBRANCH   5  14
BRANCH   9  40
ATOM     40  O   UNL     1     -46.074  35.649  30.728  1.00  0.00    -0.387 OA
ATOM     41  H   UNL     1     -45.119  35.841  30.714  1.00  0.00     0.211 HD
ENDBRANCH   9  40
ENDBRANCH   1   4
BRANCH   1  42
ATOM     42  O   UNL     1     -48.152  35.369  27.025  1.00  0.00    -0.491 OA
BRANCH  42  43
ATOM     43  C   UNL     1     -47.853  34.259  26.282  1.00  0.00     0.121 A 
ATOM     44  C   UNL     1     -46.706  34.371  25.500  1.00  0.00    -0.019 A 
ATOM     45  C   UNL     1     -48.587  33.069  26.251  1.00  0.00     0.007 A 
ATOM     46  C   UNL     1     -46.294  33.306  24.701  1.00  0.00    -0.049 A 
ATOM     47  H   UNL     1     -46.126  35.291  25.514  1.00  0.00     0.066 H 
ATOM     48  C   UNL     1     -48.201  31.991  25.464  1.00  0.00     0.076 A 
ATOM     49  H   UNL     1     -49.487  32.940  26.843  1.00  0.00     0.069 H 
ATOM     50  C   UNL     1     -47.037  32.114  24.681  1.00  0.00     0.001 A 
ATOM     51  H   UNL     1     -45.394  33.409  24.100  1.00  0.00     0.063 H 
ATOM     52  N   UNL     1     -48.947  30.873  25.477  1.00  0.00    -0.231 NA
ATOM     53  C   UNL     1     -46.660  31.020  23.900  1.00  0.00    -0.049 A 
ATOM     54  C   UNL     1     -48.577  29.820  24.712  1.00  0.00     0.129 A 
ATOM     55  C   UNL     1     -47.435  29.864  23.919  1.00  0.00    -0.019 A 
ATOM     56  H   UNL     1     -45.767  31.055  23.282  1.00  0.00     0.063 H 
ATOM     57  H   UNL     1     -47.139  29.006  23.327  1.00  0.00     0.066 H 
BRANCH  54  58
ATOM     58  N   UNL     1     -49.363  28.653  24.750  1.00  0.00    -0.356 N 
ATOM     59  C   UNL     1     -49.329  27.633  25.758  1.00  0.00     0.021 C 
ATOM     60  C   UNL     1     -49.434  27.691  23.685  1.00  0.00     0.021 C 
ATOM     61  C   UNL     1     -49.993  26.716  24.725  1.00  0.00    -0.018 C 
ATOM     62  H   UNL     1     -49.930  27.868  26.639  1.00  0.00     0.049 H 
ATOM     63  H   UNL     1     -48.311  27.348  26.044  1.00  0.00     0.049 H 
ATOM     64  H   UNL     1     -48.452  27.424  23.281  1.00  0.00     0.049 H 
ATOM     65  H   UNL     1     -50.119  27.979  22.883  1.00  0.00     0.049 H 
ATOM     66  H   UNL     1     -51.087  26.690  24.779  1.00  0.00     0.030 H 
ATOM     67  H   UNL     1     -49.605  25.695  24.676  1.00  0.00     0.030 H 
ENDBRANCH  54  58
ENDBRANCH  42  43
ENDBRANCH   1  42
TORSDOF 8
ENDMDL
MODEL 2
REMARK VINA RESULT:      -9.8      3.942      9.140
REMARK SMILES Nc1ncnc2c1c([C@H]1CCCO1)cn2[C@@H]1O[C@H](COc2ccc3ccc(N4CCC4)nc3c2)[C@@H](O)[C@@H]1F
REMARK SMILES IDX 19 1 18 4 16 5 17 6 37 7 35 9 38 10 15 14 2 15 3 16 7 17
REMARK SMILES IDX 4 18 6 19 8 20 5 21 14 23 1 25 9 28 10 29 13 30 11 32 12 35
REMARK SMILES IDX 36 40 20 42 21 43 22 44 34 45 23 46 33 48 24 50 32 52 25 53
REMARK SMILES IDX 27 54 26 55 28 58 29 59 31 60 30 61
REMARK H PARENT 19 2 19 3 16 8 37 11 18 12 35 13 4 22 14 24 1 26 1 27 9 31
REMARK H PARENT 10 33 10 34 11 36 11 37 12 38 12 39 36 41 22 47 34 49 23 51
REMARK H PARENT 25 56 26 57 29 62 29 63 31 64 31 65 30 66 30 67
REMARK Flexibility Score: inf
ROOT
ATOM      1  C   UNL     1     -44.904  36.318  28.128  1.00  0.00     0.117 C 
ATOM      2  H   UNL     1     -43.885  35.932  28.015  1.00  0.00     0.073 H 
ATOM      3  H   UNL     1     -45.185  36.806  27.186  1.00  0.00     0.073 H 
ENDROOT
BRANCH   1   4
ATOM      4  C   UNL     1     -45.890  35.170  28.383  1.00  0.00     0.123 C 
ATOM      5  C   UNL     1     -48.113  35.855  28.091  1.00  0.00     0.169 C 
ATOM      6  O   UNL     1     -47.050  35.685  29.070  1.00  0.00    -0.345 OA
ATOM      7  C   UNL     1     -47.569  35.429  26.729  1.00  0.00     0.173 C 
ATOM      8  H   UNL     1     -48.923  35.193  28.418  1.00  0.00     0.088 H 
ATOM      9  C   UNL     1     -46.433  34.507  27.115  1.00  0.00     0.119 C 
ATOM     10  F   UNL     1     -47.049  36.488  26.050  1.00  0.00    -0.239 F 
ATOM     11  H   UNL     1     -48.336  34.964  26.103  1.00  0.00     0.074 H 
ATOM     12  H   UNL     1     -45.416  34.425  29.032  1.00  0.00     0.067 H 
ATOM     13  H   UNL     1     -45.681  34.409  26.328  1.00  0.00     0.066 H 
BRANCH   5  14
ATOM     14  N   UNL     1     -48.616  37.218  28.126  1.00  0.00    -0.303 N 
ATOM     15  C   UNL     1     -51.393  39.405  28.083  1.00  0.00     0.136 A 
ATOM     16  N   UNL     1     -52.425  38.538  28.084  1.00  0.00    -0.219 NA
ATOM     17  C   UNL     1     -50.080  38.904  28.095  1.00  0.00     0.067 A 
ATOM     18  C   UNL     1     -52.151  37.220  28.107  1.00  0.00     0.120 A 
ATOM     19  C   UNL     1     -49.952  37.522  28.119  1.00  0.00     0.148 A 
ATOM     20  C   UNL     1     -48.752  39.458  28.086  1.00  0.00     0.012 A 
ATOM     21  N   UNL     1     -50.949  36.619  28.124  1.00  0.00    -0.218 NA
ATOM     22  H   UNL     1     -53.013  36.560  28.110  1.00  0.00     0.106 H 
ATOM     23  C   UNL     1     -47.883  38.377  28.146  1.00  0.00     0.015 A 
ATOM     24  H   UNL     1     -46.801  38.347  28.185  1.00  0.00     0.082 H 
BRANCH  15  25
ATOM     25  N   UNL     1     -51.700  40.759  28.052  1.00  0.00    -0.383 N 
ATOM     26  H   UNL     1     -52.687  40.932  28.247  1.00  0.00     0.158 HD
ATOM     27  H   UNL     1     -51.045  41.280  28.622  1.00  0.00     0.158 HD
ENDBRANCH  15  25
BRANCH  20  28
ATOM     28  C   UNL     1     -48.393  40.915  28.056  1.00  0.00     0.085 C 
ATOM     29  C   UNL     1     -48.825  41.662  26.797  1.00  0.00    -0.020 C 
ATOM     30  O   UNL     1     -48.989  41.638  29.164  1.00  0.00    -0.373 OA
ATOM     31  H   UNL     1     -47.306  41.006  28.179  1.00  0.00     0.066 H 
ATOM     32  C   UNL     1     -48.972  43.077  27.295  1.00  0.00    -0.027 C 
ATOM     33  H   UNL     1     -49.799  41.311  26.433  1.00  0.00     0.030 H 
ATOM     34  H   UNL     1     -48.107  41.563  25.978  1.00  0.00     0.030 H 
ATOM     35  C   UNL     1     -49.569  42.850  28.664  1.00  0.00     0.048 C 
ATOM     36  H   UNL     1     -49.594  43.707  26.655  1.00  0.00     0.029 H 
ATOM     37  H   UNL     1     -47.984  43.543  27.387  1.00  0.00     0.029 H 
ATOM     38  H   UNL     1     -50.653  42.704  28.607  1.00  0.00     0.057 H 
ATOM     39  H   UNL     1     -49.362  43.670  29.356  1.00  0.00     0.057 H 
ENDBRANCH  20  28
ENDBRANCH   5  14
BRANCH   9  40
ATOM     40  O   UNL     1     -46.951  33.197  27.392  1.00  0.00    -0.387 OA
ATOM     41  H   UNL     1     -47.813  33.095  26.950  1.00  0.00     0.211 HD
ENDBRANCH   9  40
ENDBRANCH   1   4
BRANCH   1  42
ATOM     42  O   UNL     1     -44.972  37.253  29.202  1.00  0.00    -0.491 OA
BRANCH  42  43
ATOM     43  C   UNL     1     -44.385  38.472  28.988  1.00  0.00     0.121 A 
ATOM     44  C   UNL     1     -43.460  38.853  29.958  1.00  0.00    -0.019 A 
ATOM     45  C   UNL     1     -44.639  39.328  27.912  1.00  0.00     0.007 A 
ATOM     46  C   UNL     1     -42.792  40.072  29.849  1.00  0.00    -0.049 A 
ATOM     47  H   UNL     1     -43.254  38.197  30.800  1.00  0.00     0.066 H 
ATOM     48  C   UNL     1     -43.989  40.548  27.779  1.00  0.00     0.076 A 
ATOM     49  H   UNL     1     -45.352  39.070  27.136  1.00  0.00     0.069 H 
ATOM     50  C   UNL     1     -43.053  40.921  28.762  1.00  0.00     0.001 A 
ATOM     51  H   UNL     1     -42.071  40.352  30.613  1.00  0.00     0.063 H 
ATOM     52  N   UNL     1     -44.274  41.328  26.721  1.00  0.00    -0.231 NA
ATOM     53  C   UNL     1     -42.405  42.149  28.610  1.00  0.00    -0.049 A 
ATOM     54  C   UNL     1     -43.646  42.518  26.586  1.00  0.00     0.129 A 
ATOM     55  C   UNL     1     -42.703  42.950  27.512  1.00  0.00    -0.019 A 
ATOM     56  H   UNL     1     -41.667  42.485  29.333  1.00  0.00     0.063 H 
ATOM     57  H   UNL     1     -42.192  43.897  27.381  1.00  0.00     0.066 H 
BRANCH  54  58
ATOM     58  N   UNL     1     -43.948  43.314  25.465  1.00  0.00    -0.356 N 
ATOM     59  C   UNL     1     -43.765  42.954  24.089  1.00  0.00     0.021 C 
ATOM     60  C   UNL     1     -43.439  44.640  25.254  1.00  0.00     0.021 C 
ATOM     61  C   UNL     1     -43.817  44.455  23.782  1.00  0.00    -0.018 C 
ATOM     62  H   UNL     1     -44.584  42.358  23.679  1.00  0.00     0.049 H 
ATOM     63  H   UNL     1     -42.799  42.475  23.896  1.00  0.00     0.049 H 
ATOM     64  H   UNL     1     -42.364  44.724  25.448  1.00  0.00     0.049 H 
ATOM     65  H   UNL     1     -43.993  45.411  25.797  1.00  0.00     0.049 H 
ATOM     66  H   UNL     1     -44.813  44.829  23.520  1.00  0.00     0.030 H 
ATOM     67  H   UNL     1     -43.087  44.817  23.053  1.00  0.00     0.030 H 
ENDBRANCH  54  58
ENDBRANCH  42  43
ENDBRANCH   1  42
TORSDOF 8
ENDMDL
MODEL 3
REMARK VINA RESULT:      -9.7      2.769     10.763
REMARK SMILES Nc1ncnc2c1c([C@H]1CCCO1)cn2[C@@H]1O[C@H](COc2ccc3ccc(N4CCC4)nc3c2)[C@@H](O)[C@@H]1F
REMARK SMILES IDX 19 1 18 4 16 5 17 6 37 7 35 9 38 10 15 14 2 15 3 16 7 17
REMARK SMILES IDX 4 18 6 19 8 20 5 21 14 23 1 25 9 28 10 29 13 30 11 32 12 35
REMARK SMILES IDX 36 40 20 42 21 43 22 44 34 45 23 46 33 48 24 50 32 52 25 53
REMARK SMILES IDX 27 54 26 55 28 58 29 59 31 60 30 61
REMARK H PARENT 19 2 19 3 16 8 37 11 18 12 35 13 4 22 14 24 1 26 1 27 9 31
REMARK H PARENT 10 33 10 34 11 36 11 37 12 38 12 39 36 41 22 47 34 49 23 51
REMARK H PARENT 25 56 26 57 29 62 29 63 31 64 31 65 30 66 30 67
REMARK Flexibility Score: inf
ROOT
ATOM      1  C   UNL     1     -48.302  35.437  26.547  1.00  0.00     0.117 C 
ATOM      2  H   UNL     1     -47.820  35.722  25.606  1.00  0.00     0.073 H 
ATOM      3  H   UNL     1     -49.246  34.933  26.302  1.00  0.00     0.073 H 
ENDROOT
BRANCH   1   4
ATOM      4  C   UNL     1     -47.423  34.450  27.325  1.00  0.00     0.123 C 
ATOM      5  C   UNL     1     -47.076  32.466  26.127  1.00  0.00     0.169 C 
ATOM      6  O   UNL     1     -47.920  33.110  27.121  1.00  0.00    -0.345 OA
ATOM      7  C   UNL     1     -46.010  33.470  25.692  1.00  0.00     0.173 C 
ATOM      8  H   UNL     1     -46.624  31.606  26.635  1.00  0.00     0.088 H 
ATOM      9  C   UNL     1     -45.961  34.411  26.876  1.00  0.00     0.119 C 
ATOM     10  F   UNL     1     -46.412  34.177  24.600  1.00  0.00    -0.239 F 
ATOM     11  H   UNL     1     -45.057  32.989  25.456  1.00  0.00     0.074 H 
ATOM     12  H   UNL     1     -47.489  34.675  28.396  1.00  0.00     0.067 H 
ATOM     13  H   UNL     1     -45.567  35.398  26.617  1.00  0.00     0.066 H 
BRANCH   5  14
ATOM     14  N   UNL     1     -47.886  31.955  25.033  1.00  0.00    -0.303 N 
ATOM     15  C   UNL     1     -48.031  30.369  21.878  1.00  0.00     0.136 A 
ATOM     16  N   UNL     1     -46.732  30.088  21.653  1.00  0.00    -0.219 NA
ATOM     17  C   UNL     1     -48.391  31.023  23.068  1.00  0.00     0.067 A 
ATOM     18  C   UNL     1     -45.832  30.440  22.588  1.00  0.00     0.120 A 
ATOM     19  C   UNL     1     -47.354  31.324  23.940  1.00  0.00     0.148 A 
ATOM     20  C   UNL     1     -49.609  31.501  23.669  1.00  0.00     0.012 A 
ATOM     21  N   UNL     1     -46.047  31.062  23.760  1.00  0.00    -0.218 NA
ATOM     22  H   UNL     1     -44.798  30.191  22.366  1.00  0.00     0.106 H 
ATOM     23  C   UNL     1     -49.249  32.032  24.899  1.00  0.00     0.015 A 
ATOM     24  H   UNL     1     -49.858  32.472  25.679  1.00  0.00     0.082 H 
BRANCH  15  25
ATOM     25  N   UNL     1     -48.941  30.002  20.895  1.00  0.00    -0.383 N 
ATOM     26  H   UNL     1     -49.879  30.355  21.092  1.00  0.00     0.158 HD
ATOM     27  H   UNL     1     -48.576  30.224  19.978  1.00  0.00     0.158 HD
ENDBRANCH  15  25
BRANCH  20  28
ATOM     28  C   UNL     1     -50.989  31.401  23.087  1.00  0.00     0.085 C 
ATOM     29  C   UNL     1     -51.209  32.200  21.805  1.00  0.00    -0.020 C 
ATOM     30  O   UNL     1     -51.338  30.032  22.761  1.00  0.00    -0.373 OA
ATOM     31  H   UNL     1     -51.709  31.728  23.848  1.00  0.00     0.066 H 
ATOM     32  C   UNL     1     -52.315  31.429  21.131  1.00  0.00    -0.027 C 
ATOM     33  H   UNL     1     -50.321  32.183  21.161  1.00  0.00     0.030 H 
ATOM     34  H   UNL     1     -51.465  33.246  21.996  1.00  0.00     0.030 H 
ATOM     35  C   UNL     1     -51.924  30.006  21.452  1.00  0.00     0.048 C 
ATOM     36  H   UNL     1     -52.393  31.619  20.057  1.00  0.00     0.029 H 
ATOM     37  H   UNL     1     -53.277  31.671  21.598  1.00  0.00     0.029 H 
ATOM     38  H   UNL     1     -51.169  29.632  20.753  1.00  0.00     0.057 H 
ATOM     39  H   UNL     1     -52.777  29.322  21.445  1.00  0.00     0.057 H 
ENDBRANCH  20  28
ENDBRANCH   5  14
BRANCH   9  40
ATOM     40  O   UNL     1     -45.116  33.856  27.896  1.00  0.00    -0.387 OA
ATOM     41  H   UNL     1     -45.070  32.890  27.781  1.00  0.00     0.211 HD
ENDBRANCH   9  40
ENDBRANCH   1   4
BRANCH   1  42
ATOM     42  O   UNL     1     -48.557  36.588  27.350  1.00  0.00    -0.491 OA
BRANCH  42  43
ATOM     43  C   UNL     1     -47.479  37.381  27.640  1.00  0.00     0.121 A 
ATOM     44  C   UNL     1     -46.782  37.023  28.791  1.00  0.00    -0.019 A 
ATOM     45  C   UNL     1     -47.047  38.483  26.895  1.00  0.00     0.007 A 
ATOM     46  C   UNL     1     -45.663  37.752  29.190  1.00  0.00    -0.049 A 
ATOM     47  H   UNL     1     -47.108  36.169  29.380  1.00  0.00     0.066 H 
ATOM     48  C   UNL     1     -45.936  39.229  27.269  1.00  0.00     0.076 A 
ATOM     49  H   UNL     1     -47.562  38.797  25.993  1.00  0.00     0.069 H 
ATOM     50  C   UNL     1     -45.236  38.854  28.431  1.00  0.00     0.001 A 
ATOM     51  H   UNL     1     -45.128  37.456  30.089  1.00  0.00     0.063 H 
ATOM     52  N   UNL     1     -45.569  40.277  26.512  1.00  0.00    -0.231 NA
ATOM     53  C   UNL     1     -44.119  39.610  28.790  1.00  0.00    -0.049 A 
ATOM     54  C   UNL     1     -44.488  41.008  26.870  1.00  0.00     0.129 A 
ATOM     55  C   UNL     1     -43.742  40.693  28.001  1.00  0.00    -0.019 A 
ATOM     56  H   UNL     1     -43.536  39.364  29.673  1.00  0.00     0.063 H 
ATOM     57  H   UNL     1     -42.866  41.275  28.266  1.00  0.00     0.066 H 
BRANCH  54  58
ATOM     58  N   UNL     1     -44.110  42.093  26.057  1.00  0.00    -0.356 N 
ATOM     59  C   UNL     1     -44.259  42.185  24.633  1.00  0.00     0.021 C 
ATOM     60  C   UNL     1     -42.790  42.656  26.023  1.00  0.00     0.021 C 
ATOM     61  C   UNL     1     -43.188  43.281  24.683  1.00  0.00    -0.018 C 
ATOM     62  H   UNL     1     -45.253  42.507  24.316  1.00  0.00     0.049 H 
ATOM     63  H   UNL     1     -43.960  41.269  24.112  1.00  0.00     0.049 H 
ATOM     64  H   UNL     1     -42.001  41.899  25.963  1.00  0.00     0.049 H 
ATOM     65  H   UNL     1     -42.594  43.357  26.838  1.00  0.00     0.049 H 
ATOM     66  H   UNL     1     -43.587  44.299  24.759  1.00  0.00     0.030 H 
ATOM     67  H   UNL     1     -42.431  43.243  23.895  1.00  0.00     0.030 H 
ENDBRANCH  54  58
ENDBRANCH  42  43
ENDBRANCH   1  42
TORSDOF 8
ENDMDL
MODEL 4
REMARK VINA RESULT:      -9.2      1.987      2.505
REMARK SMILES Nc1ncnc2c1c([C@H]1CCCO1)cn2[C@@H]1O[C@H](COc2ccc3ccc(N4CCC4)nc3c2)[C@@H](O)[C@@H]1F
REMARK SMILES IDX 19 1 18 4 16 5 17 6 37 7 35 9 38 10 15 14 2 15 3 16 7 17
REMARK SMILES IDX 4 18 6 19 8 20 5 21 14 23 1 25 9 28 10 29 13 30 11 32 12 35
REMARK SMILES IDX 36 40 20 42 21 43 22 44 34 45 23 46 33 48 24 50 32 52 25 53
REMARK SMILES IDX 27 54 26 55 28 58 29 59 31 60 30 61
REMARK H PARENT 19 2 19 3 16 8 37 11 18 12 35 13 4 22 14 24 1 26 1 27 9 31
REMARK H PARENT 10 33 10 34 11 36 11 37 12 38 12 39 36 41 22 47 34 49 23 51
REMARK H PARENT 25 56 26 57 29 62 29 63 31 64 31 65 30 66 30 67
REMARK Flexibility Score: inf
ROOT
ATOM      1  C   UNL     1     -47.282  35.930  26.628  1.00  0.00     0.117 C 
ATOM      2  H   UNL     1     -47.886  36.839  26.531  1.00  0.00     0.073 H 
ATOM      3  H   UNL     1     -46.717  35.803  25.695  1.00  0.00     0.073 H 
ENDROOT
BRANCH   1   4
ATOM      4  C   UNL     1     -46.277  36.070  27.779  1.00  0.00     0.123 C 
ATOM      5  C   UNL     1     -46.059  38.298  28.473  1.00  0.00     0.169 C 
ATOM      6  O   UNL     1     -45.509  37.278  27.593  1.00  0.00    -0.345 OA
ATOM      7  C   UNL     1     -47.233  37.682  29.231  1.00  0.00     0.173 C 
ATOM      8  H   UNL     1     -45.245  38.568  29.156  1.00  0.00     0.088 H 
ATOM      9  C   UNL     1     -46.913  36.205  29.163  1.00  0.00     0.119 C 
ATOM     10  F   UNL     1     -48.410  37.895  28.581  1.00  0.00    -0.239 F 
ATOM     11  H   UNL     1     -47.327  38.079  30.246  1.00  0.00     0.074 H 
ATOM     12  H   UNL     1     -45.583  35.222  27.756  1.00  0.00     0.067 H 
ATOM     13  H   UNL     1     -47.797  35.574  29.291  1.00  0.00     0.066 H 
BRANCH   5  14
ATOM     14  N   UNL     1     -46.407  39.487  27.712  1.00  0.00    -0.303 N 
ATOM     15  C   UNL     1     -45.331  42.307  25.873  1.00  0.00     0.136 A 
ATOM     16  N   UNL     1     -43.995  42.131  25.858  1.00  0.00    -0.219 NA
ATOM     17  C   UNL     1     -46.137  41.363  26.533  1.00  0.00     0.067 A 
ATOM     18  C   UNL     1     -43.488  41.046  26.471  1.00  0.00     0.120 A 
ATOM     19  C   UNL     1     -45.473  40.295  27.120  1.00  0.00     0.148 A 
ATOM     20  C   UNL     1     -47.542  41.188  26.788  1.00  0.00     0.012 A 
ATOM     21  N   UNL     1     -44.146  40.076  27.128  1.00  0.00    -0.218 NA
ATOM     22  H   UNL     1     -42.407  40.944  26.430  1.00  0.00     0.106 H 
ATOM     23  C   UNL     1     -47.661  39.993  27.485  1.00  0.00     0.015 A 
ATOM     24  H   UNL     1     -48.541  39.477  27.848  1.00  0.00     0.082 H 
BRANCH  15  25
ATOM     25  N   UNL     1     -45.832  43.438  25.240  1.00  0.00    -0.383 N 
ATOM     26  H   UNL     1     -46.843  43.524  25.355  1.00  0.00     0.158 HD
ATOM     27  H   UNL     1     -45.292  44.254  25.500  1.00  0.00     0.158 HD
ENDBRANCH  15  25
BRANCH  20  28
ATOM     28  C   UNL     1     -48.650  42.100  26.348  1.00  0.00     0.085 C 
ATOM     29  C   UNL     1     -50.047  41.688  26.806  1.00  0.00    -0.020 C 
ATOM     30  O   UNL     1     -48.460  43.452  26.840  1.00  0.00    -0.373 OA
ATOM     31  H   UNL     1     -48.630  42.167  25.253  1.00  0.00     0.066 H 
ATOM     32  C   UNL     1     -50.776  43.006  26.843  1.00  0.00    -0.027 C 
ATOM     33  H   UNL     1     -50.032  41.262  27.817  1.00  0.00     0.030 H 
ATOM     34  H   UNL     1     -50.511  40.955  26.140  1.00  0.00     0.030 H 
ATOM     35  C   UNL     1     -49.702  43.925  27.377  1.00  0.00     0.048 C 
ATOM     36  H   UNL     1     -51.676  42.994  27.463  1.00  0.00     0.029 H 
ATOM     37  H   UNL     1     -51.058  43.305  25.827  1.00  0.00     0.029 H 
ATOM     38  H   UNL     1     -49.638  43.872  28.469  1.00  0.00     0.057 H 
ATOM     39  H   UNL     1     -49.856  44.967  27.085  1.00  0.00     0.057 H 
ENDBRANCH  20  28
ENDBRANCH   5  14
BRANCH   9  40
ATOM     40  O   UNL     1     -45.980  35.867  30.202  1.00  0.00    -0.387 OA
ATOM     41  H   UNL     1     -46.111  36.470  30.956  1.00  0.00     0.211 HD
ENDBRANCH   9  40
ENDBRANCH   1   4
BRANCH   1  42
ATOM     42  O   UNL     1     -48.114  34.794  26.854  1.00  0.00    -0.491 OA
BRANCH  42  43
ATOM     43  C   UNL     1     -47.838  33.678  26.110  1.00  0.00     0.121 A 
ATOM     44  C   UNL     1     -46.746  33.801  25.255  1.00  0.00    -0.019 A 
ATOM     45  C   UNL     1     -48.548  32.473  26.143  1.00  0.00     0.007 A 
ATOM     46  C   UNL     1     -46.363  32.730  24.448  1.00  0.00    -0.049 A 
ATOM     47  H   UNL     1     -46.185  34.732  25.219  1.00  0.00     0.066 H 
ATOM     48  C   UNL     1     -48.190  31.391  25.350  1.00  0.00     0.076 A 
ATOM     49  H   UNL     1     -49.406  32.337  26.793  1.00  0.00     0.069 H 
ATOM     50  C   UNL     1     -47.081  31.525  24.493  1.00  0.00     0.001 A 
ATOM     51  H   UNL     1     -45.505  32.842  23.789  1.00  0.00     0.063 H 
ATOM     52  N   UNL     1     -48.911  30.259  25.426  1.00  0.00    -0.231 NA
ATOM     53  C   UNL     1     -46.731  30.426  23.706  1.00  0.00    -0.049 A 
ATOM     54  C   UNL     1     -48.568  29.201  24.655  1.00  0.00     0.129 A 
ATOM     55  C   UNL     1     -47.480  29.255  23.792  1.00  0.00    -0.019 A 
ATOM     56  H   UNL     1     -45.880  30.468  23.032  1.00  0.00     0.063 H 
ATOM     57  H   UNL     1     -47.203  28.394  23.195  1.00  0.00     0.066 H 
BRANCH  54  58
ATOM     58  N   UNL     1     -49.326  28.019  24.760  1.00  0.00    -0.356 N 
ATOM     59  C   UNL     1     -50.696  27.846  24.374  1.00  0.00     0.021 C 
ATOM     60  C   UNL     1     -49.506  27.280  25.978  1.00  0.00     0.021 C 
ATOM     61  C   UNL     1     -50.707  26.620  25.294  1.00  0.00    -0.018 C 
ATOM     62  H   UNL     1     -50.829  27.641  23.309  1.00  0.00     0.049 H 
ATOM     63  H   UNL     1     -51.339  28.673  24.695  1.00  0.00     0.049 H 
ATOM     64  H   UNL     1     -49.754  27.916  26.834  1.00  0.00     0.049 H 
ATOM     65  H   UNL     1     -48.669  26.619  26.215  1.00  0.00     0.049 H 
ATOM     66  H   UNL     1     -50.478  25.674  24.791  1.00  0.00     0.030 H 
ATOM     67  H   UNL     1     -51.600  26.498  25.913  1.00  0.00     0.030 H 
ENDBRANCH  54  58
ENDBRANCH  42  43
ENDBRANCH   1  42
TORSDOF 8
ENDMDL
MODEL 5
REMARK VINA RESULT:      -9.2      1.520      2.175
REMARK SMILES Nc1ncnc2c1c([C@H]1CCCO1)cn2[C@@H]1O[C@H](COc2ccc3ccc(N4CCC4)nc3c2)[C@@H](O)[C@@H]1F
REMARK SMILES IDX 19 1 18 4 16 5 17 6 37 7 35 9 38 10 15 14 2 15 3 16 7 17
REMARK SMILES IDX 4 18 6 19 8 20 5 21 14 23 1 25 9 28 10 29 13 30 11 32 12 35
REMARK SMILES IDX 36 40 20 42 21 43 22 44 34 45 23 46 33 48 24 50 32 52 25 53
REMARK SMILES IDX 27 54 26 55 28 58 29 59 31 60 30 61
REMARK H PARENT 19 2 19 3 16 8 37 11 18 12 35 13 4 22 14 24 1 26 1 27 9 31
REMARK H PARENT 10 33 10 34 11 36 11 37 12 38 12 39 36 41 22 47 34 49 23 51
REMARK H PARENT 25 56 26 57 29 62 29 63 31 64 31 65 30 66 30 67
REMARK Flexibility Score: inf
ROOT
ATOM      1  C   UNL     1     -46.397  36.463  27.021  1.00  0.00     0.117 C 
ATOM      2  H   UNL     1     -46.284  37.522  26.766  1.00  0.00     0.073 H 
ATOM      3  H   UNL     1     -45.886  35.876  26.246  1.00  0.00     0.073 H 
ENDROOT
BRANCH   1   4
ATOM      4  C   UNL     1     -45.730  36.158  28.368  1.00  0.00     0.123 C 
ATOM      5  C   UNL     1     -44.843  38.091  29.354  1.00  0.00     0.169 C 
ATOM      6  O   UNL     1     -44.535  36.957  28.496  1.00  0.00    -0.345 OA
ATOM      7  C   UNL     1     -46.311  37.985  29.764  1.00  0.00     0.173 C 
ATOM      8  H   UNL     1     -44.182  37.993  30.222  1.00  0.00     0.088 H 
ATOM      9  C   UNL     1     -46.581  36.506  29.591  1.00  0.00     0.119 C 
ATOM     10  F   UNL     1     -47.116  38.671  28.907  1.00  0.00    -0.239 F 
ATOM     11  H   UNL     1     -46.488  38.362  30.775  1.00  0.00     0.074 H 
ATOM     12  H   UNL     1     -45.435  35.103  28.394  1.00  0.00     0.067 H 
ATOM     13  H   UNL     1     -47.642  36.283  29.450  1.00  0.00     0.066 H 
BRANCH   5  14
ATOM     14  N   UNL     1     -44.507  39.336  28.683  1.00  0.00    -0.303 N 
ATOM     15  C   UNL     1     -42.377  42.146  28.439  1.00  0.00     0.136 A 
ATOM     16  N   UNL     1     -41.448  41.868  29.376  1.00  0.00    -0.219 NA
ATOM     17  C   UNL     1     -43.429  41.238  28.230  1.00  0.00     0.067 A 
ATOM     18  C   UNL     1     -41.565  40.721  30.069  1.00  0.00     0.120 A 
ATOM     19  C   UNL     1     -43.419  40.096  29.019  1.00  0.00     0.148 A 
ATOM     20  C   UNL     1     -44.586  41.160  27.377  1.00  0.00     0.012 A 
ATOM     21  N   UNL     1     -42.514  39.776  29.962  1.00  0.00    -0.218 NA
ATOM     22  H   UNL     1     -40.793  40.537  30.810  1.00  0.00     0.106 H 
ATOM     23  C   UNL     1     -45.197  39.948  27.667  1.00  0.00     0.015 A 
ATOM     24  H   UNL     1     -46.077  39.485  27.238  1.00  0.00     0.082 H 
BRANCH  15  25
ATOM     25  N   UNL     1     -42.240  43.339  27.741  1.00  0.00    -0.383 N 
ATOM     26  H   UNL     1     -42.442  43.226  26.746  1.00  0.00     0.158 HD
ATOM     27  H   UNL     1     -42.749  44.079  28.208  1.00  0.00     0.158 HD
ENDBRANCH  15  25
BRANCH  20  28
ATOM     28  C   UNL     1     -45.012  42.174  26.356  1.00  0.00     0.085 C 
ATOM     29  C   UNL     1     -46.462  42.055  25.893  1.00  0.00    -0.020 C 
ATOM     30  O   UNL     1     -44.870  43.529  26.853  1.00  0.00    -0.373 OA
ATOM     31  H   UNL     1     -44.344  42.094  25.489  1.00  0.00     0.066 H 
ATOM     32  C   UNL     1     -46.785  43.467  25.477  1.00  0.00    -0.027 C 
ATOM     33  H   UNL     1     -47.127  41.766  26.717  1.00  0.00     0.030 H 
ATOM     34  H   UNL     1     -46.590  41.326  25.087  1.00  0.00     0.030 H 
ATOM     35  C   UNL     1     -46.062  44.262  26.538  1.00  0.00     0.048 C 
ATOM     36  H   UNL     1     -47.856  43.680  25.438  1.00  0.00     0.029 H 
ATOM     37  H   UNL     1     -46.352  43.673  24.491  1.00  0.00     0.029 H 
ATOM     38  H   UNL     1     -46.658  44.341  27.453  1.00  0.00     0.057 H 
ATOM     39  H   UNL     1     -45.797  45.269  26.204  1.00  0.00     0.057 H 
ENDBRANCH  20  28
ENDBRANCH   5  14
BRANCH   9  40
ATOM     40  O   UNL     1     -46.136  35.796  30.757  1.00  0.00    -0.387 OA
ATOM     41  H   UNL     1     -45.242  36.103  30.994  1.00  0.00     0.211 HD
ENDBRANCH   9  40
ENDBRANCH   1   4
BRANCH   1  42
ATOM     42  O   UNL     1     -47.776  36.102  27.076  1.00  0.00    -0.491 OA
BRANCH  42  43
ATOM     43  C   UNL     1     -48.114  34.897  26.522  1.00  0.00     0.121 A 
ATOM     44  C   UNL     1     -49.444  34.524  26.701  1.00  0.00    -0.019 A 
ATOM     45  C   UNL     1     -47.254  34.045  25.820  1.00  0.00     0.007 A 
ATOM     46  C   UNL     1     -49.912  33.319  26.179  1.00  0.00    -0.049 A 
ATOM     47  H   UNL     1     -50.123  35.176  27.245  1.00  0.00     0.066 H 
ATOM     48  C   UNL     1     -47.692  32.838  25.291  1.00  0.00     0.076 A 
ATOM     49  H   UNL     1     -46.211  34.296  25.660  1.00  0.00     0.069 H 
ATOM     50  C   UNL     1     -49.040  32.474  25.473  1.00  0.00     0.001 A 
ATOM     51  H   UNL     1     -50.954  33.045  26.325  1.00  0.00     0.063 H 
ATOM     52  N   UNL     1     -46.819  32.062  24.625  1.00  0.00    -0.231 NA
ATOM     53  C   UNL     1     -49.465  31.260  24.930  1.00  0.00    -0.049 A 
ATOM     54  C   UNL     1     -47.238  30.884  24.108  1.00  0.00     0.129 A 
ATOM     55  C   UNL     1     -48.557  30.462  24.240  1.00  0.00    -0.019 A 
ATOM     56  H   UNL     1     -50.496  30.931  25.033  1.00  0.00     0.063 H 
ATOM     57  H   UNL     1     -48.885  29.527  23.802  1.00  0.00     0.066 H 
BRANCH  54  58
ATOM     58  N   UNL     1     -46.313  30.093  23.401  1.00  0.00    -0.356 N 
ATOM     59  C   UNL     1     -44.994  30.481  22.993  1.00  0.00     0.021 C 
ATOM     60  C   UNL     1     -46.588  29.457  22.143  1.00  0.00     0.021 C 
ATOM     61  C   UNL     1     -45.070  29.337  21.975  1.00  0.00    -0.018 C 
ATOM     62  H   UNL     1     -44.242  30.368  23.777  1.00  0.00     0.049 H 
ATOM     63  H   UNL     1     -44.959  31.486  22.559  1.00  0.00     0.049 H 
ATOM     64  H   UNL     1     -47.082  30.120  21.425  1.00  0.00     0.049 H 
ATOM     65  H   UNL     1     -47.133  28.515  22.241  1.00  0.00     0.049 H 
ATOM     66  H   UNL     1     -44.649  28.389  22.327  1.00  0.00     0.030 H 
ATOM     67  H   UNL     1     -44.683  29.561  20.978  1.00  0.00     0.030 H 
ENDBRANCH  54  58
ENDBRANCH  42  43
ENDBRANCH   1  42
TORSDOF 8
ENDMDL
MODEL 6
REMARK VINA RESULT:      -9.0      4.712      7.885
REMARK SMILES Nc1ncnc2c1c([C@H]1CCCO1)cn2[C@@H]1O[C@H](COc2ccc3ccc(N4CCC4)nc3c2)[C@@H](O)[C@@H]1F
REMARK SMILES IDX 19 1 18 4 16 5 17 6 37 7 35 9 38 10 15 14 2 15 3 16 7 17
REMARK SMILES IDX 4 18 6 19 8 20 5 21 14 23 1 25 9 28 10 29 13 30 11 32 12 35
REMARK SMILES IDX 36 40 20 42 21 43 22 44 34 45 23 46 33 48 24 50 32 52 25 53
REMARK SMILES IDX 27 54 26 55 28 58 29 59 31 60 30 61
REMARK H PARENT 19 2 19 3 16 8 37 11 18 12 35 13 4 22 14 24 1 26 1 27 9 31
REMARK H PARENT 10 33 10 34 11 36 11 37 12 38 12 39 36 41 22 47 34 49 23 51
REMARK H PARENT 25 56 26 57 29 62 29 63 31 64 31 65 30 66 30 67
REMARK Flexibility Score: inf
ROOT
ATOM      1  C   UNL     1     -47.724  37.086  27.349  1.00  0.00     0.117 C 
ATOM      2  H   UNL     1     -47.363  38.059  26.999  1.00  0.00     0.073 H 
ATOM      3  H   UNL     1     -47.932  36.468  26.465  1.00  0.00     0.073 H 
ENDROOT
BRANCH   1   4
ATOM      4  C   UNL     1     -46.648  36.380  28.183  1.00  0.00     0.123 C 
ATOM      5  C   UNL     1     -44.925  37.846  28.797  1.00  0.00     0.169 C 
ATOM      6  O   UNL     1     -45.349  36.876  27.798  1.00  0.00    -0.345 OA
ATOM      7  C   UNL     1     -46.031  37.955  29.845  1.00  0.00     0.173 C 
ATOM      8  H   UNL     1     -44.006  37.438  29.233  1.00  0.00     0.088 H 
ATOM      9  C   UNL     1     -46.746  36.630  29.689  1.00  0.00     0.119 C 
ATOM     10  F   UNL     1     -46.907  38.952  29.539  1.00  0.00    -0.239 F 
ATOM     11  H   UNL     1     -45.637  38.141  30.847  1.00  0.00     0.074 H 
ATOM     12  H   UNL     1     -46.675  35.305  27.970  1.00  0.00     0.067 H 
ATOM     13  H   UNL     1     -47.777  36.660  30.051  1.00  0.00     0.066 H 
BRANCH   5  14
ATOM     14  N   UNL     1     -44.588  39.109  28.161  1.00  0.00    -0.303 N 
ATOM     15  C   UNL     1     -42.685  42.087  28.203  1.00  0.00     0.136 A 
ATOM     16  N   UNL     1     -41.902  41.897  29.284  1.00  0.00    -0.219 NA
ATOM     17  C   UNL     1     -43.610  41.091  27.847  1.00  0.00     0.067 A 
ATOM     18  C   UNL     1     -42.035  40.750  29.974  1.00  0.00     0.120 A 
ATOM     19  C   UNL     1     -43.635  39.962  28.652  1.00  0.00     0.148 A 
ATOM     20  C   UNL     1     -44.602  40.908  26.820  1.00  0.00     0.012 A 
ATOM     21  N   UNL     1     -42.873  39.727  29.736  1.00  0.00    -0.218 NA
ATOM     22  H   UNL     1     -41.382  40.639  30.835  1.00  0.00     0.106 H 
ATOM     23  C   UNL     1     -45.151  39.651  27.034  1.00  0.00     0.015 A 
ATOM     24  H   UNL     1     -45.908  39.112  26.479  1.00  0.00     0.082 H 
BRANCH  15  25
ATOM     25  N   UNL     1     -42.535  43.282  27.510  1.00  0.00    -0.383 N 
ATOM     26  H   UNL     1     -43.289  43.431  26.837  1.00  0.00     0.158 HD
ATOM     27  H   UNL     1     -42.369  44.043  28.156  1.00  0.00     0.158 HD
ENDBRANCH  15  25
BRANCH  20  28
ATOM     28  C   UNL     1     -44.938  41.874  25.722  1.00  0.00     0.085 C 
ATOM     29  C   UNL     1     -45.635  43.154  26.177  1.00  0.00    -0.020 C 
ATOM     30  O   UNL     1     -43.753  42.307  25.005  1.00  0.00    -0.373 OA
ATOM     31  H   UNL     1     -45.569  41.357  24.987  1.00  0.00     0.066 H 
ATOM     32  C   UNL     1     -45.241  44.135  25.104  1.00  0.00    -0.027 C 
ATOM     33  H   UNL     1     -45.246  43.506  27.140  1.00  0.00     0.030 H 
ATOM     34  H   UNL     1     -46.718  43.034  26.277  1.00  0.00     0.030 H 
ATOM     35  C   UNL     1     -43.809  43.731  24.842  1.00  0.00     0.048 C 
ATOM     36  H   UNL     1     -45.342  45.181  25.404  1.00  0.00     0.029 H 
ATOM     37  H   UNL     1     -45.849  43.971  24.206  1.00  0.00     0.029 H 
ATOM     38  H   UNL     1     -43.128  44.179  25.573  1.00  0.00     0.057 H 
ATOM     39  H   UNL     1     -43.471  43.999  23.838  1.00  0.00     0.057 H 
ENDBRANCH  20  28
ENDBRANCH   5  14
BRANCH   9  40
ATOM     40  O   UNL     1     -46.050  35.618  30.433  1.00  0.00    -0.387 OA
ATOM     41  H   UNL     1     -46.547  35.424  31.248  1.00  0.00     0.211 HD
ENDBRANCH   9  40
ENDBRANCH   1   4
BRANCH   1  42
ATOM     42  O   UNL     1     -48.910  37.239  28.127  1.00  0.00    -0.491 OA
BRANCH  42  43
ATOM     43  C   UNL     1     -49.518  38.465  28.078  1.00  0.00     0.121 A 
ATOM     44  C   UNL     1     -50.883  38.450  28.352  1.00  0.00    -0.019 A 
ATOM     45  C   UNL     1     -48.893  39.680  27.783  1.00  0.00     0.007 A 
ATOM     46  C   UNL     1     -51.614  39.637  28.338  1.00  0.00    -0.049 A 
ATOM     47  H   UNL     1     -51.382  37.512  28.583  1.00  0.00     0.066 H 
ATOM     48  C   UNL     1     -49.596  40.878  27.760  1.00  0.00     0.076 A 
ATOM     49  H   UNL     1     -47.832  39.736  27.562  1.00  0.00     0.069 H 
ATOM     50  C   UNL     1     -50.975  40.852  28.043  1.00  0.00     0.001 A 
ATOM     51  H   UNL     1     -52.679  39.609  28.557  1.00  0.00     0.063 H 
ATOM     52  N   UNL     1     -48.940  42.015  27.470  1.00  0.00    -0.231 NA
ATOM     53  C   UNL     1     -51.666  42.065  28.021  1.00  0.00    -0.049 A 
ATOM     54  C   UNL     1     -49.619  43.185  27.444  1.00  0.00     0.129 A 
ATOM     55  C   UNL     1     -50.981  43.240  27.722  1.00  0.00    -0.019 A 
ATOM     56  H   UNL     1     -52.730  42.108  28.239  1.00  0.00     0.063 H 
ATOM     57  H   UNL     1     -51.509  44.186  27.719  1.00  0.00     0.066 H 
BRANCH  54  58
ATOM     58  N   UNL     1     -48.912  44.366  27.153  1.00  0.00    -0.356 N 
ATOM     59  C   UNL     1     -48.295  45.248  28.102  1.00  0.00     0.021 C 
ATOM     60  C   UNL     1     -49.442  45.457  26.384  1.00  0.00     0.021 C 
ATOM     61  C   UNL     1     -48.332  46.314  27.000  1.00  0.00    -0.018 C 
ATOM     62  H   UNL     1     -47.300  44.927  28.416  1.00  0.00     0.049 H 
ATOM     63  H   UNL     1     -48.931  45.456  28.969  1.00  0.00     0.049 H 
ATOM     64  H   UNL     1     -50.459  45.737  26.678  1.00  0.00     0.049 H 
ATOM     65  H   UNL     1     -49.380  45.299  25.304  1.00  0.00     0.049 H 
ATOM     66  H   UNL     1     -47.419  46.373  26.397  1.00  0.00     0.030 H 
ATOM     67  H   UNL     1     -48.627  47.317  27.318  1.00  0.00     0.030 H 
ENDBRANCH  54  58
ENDBRANCH  42  43
ENDBRANCH   1  42
TORSDOF 8
ENDMDL
MODEL 7
REMARK VINA RESULT:      -9.0      2.033      2.809
REMARK SMILES Nc1ncnc2c1c([C@H]1CCCO1)cn2[C@@H]1O[C@H](COc2ccc3ccc(N4CCC4)nc3c2)[C@@H](O)[C@@H]1F
REMARK SMILES IDX 19 1 18 4 16 5 17 6 37 7 35 9 38 10 15 14 2 15 3 16 7 17
REMARK SMILES IDX 4 18 6 19 8 20 5 21 14 23 1 25 9 28 10 29 13 30 11 32 12 35
REMARK SMILES IDX 36 40 20 42 21 43 22 44 34 45 23 46 33 48 24 50 32 52 25 53
REMARK SMILES IDX 27 54 26 55 28 58 29 59 31 60 30 61
REMARK H PARENT 19 2 19 3 16 8 37 11 18 12 35 13 4 22 14 24 1 26 1 27 9 31
REMARK H PARENT 10 33 10 34 11 36 11 37 12 38 12 39 36 41 22 47 34 49 23 51
REMARK H PARENT 25 56 26 57 29 62 29 63 31 64 31 65 30 66 30 67
REMARK Flexibility Score: inf
ROOT
ATOM      1  C   UNL     1     -45.812  37.230  27.248  1.00  0.00     0.117 C 
ATOM      2  H   UNL     1     -46.253  37.280  26.246  1.00  0.00     0.073 H 
ATOM      3  H   UNL     1     -44.794  37.637  27.187  1.00  0.00     0.073 H 
ENDROOT
BRANCH   1   4
ATOM      4  C   UNL     1     -46.612  38.093  28.232  1.00  0.00     0.123 C 
ATOM      5  C   UNL     1     -46.357  40.380  27.786  1.00  0.00     0.169 C 
ATOM      6  O   UNL     1     -45.841  39.266  28.568  1.00  0.00    -0.345 OA
ATOM      7  C   UNL     1     -47.499  39.856  26.917  1.00  0.00     0.173 C 
ATOM      8  H   UNL     1     -46.720  41.111  28.517  1.00  0.00     0.088 H 
ATOM      9  C   UNL     1     -47.936  38.624  27.679  1.00  0.00     0.119 C 
ATOM     10  F   UNL     1     -47.051  39.465  25.693  1.00  0.00    -0.239 F 
ATOM     11  H   UNL     1     -48.286  40.601  26.772  1.00  0.00     0.074 H 
ATOM     12  H   UNL     1     -46.782  37.525  29.154  1.00  0.00     0.067 H 
ATOM     13  H   UNL     1     -48.458  37.899  27.049  1.00  0.00     0.066 H 
BRANCH   5  14
ATOM     14  N   UNL     1     -45.283  41.007  27.033  1.00  0.00    -0.303 N 
ATOM     15  C   UNL     1     -41.903  42.030  26.892  1.00  0.00     0.136 A 
ATOM     16  N   UNL     1     -41.427  41.566  28.064  1.00  0.00    -0.219 NA
ATOM     17  C   UNL     1     -43.254  41.816  26.571  1.00  0.00     0.067 A 
ATOM     18  C   UNL     1     -42.270  40.905  28.878  1.00  0.00     0.120 A 
ATOM     19  C   UNL     1     -44.003  41.118  27.508  1.00  0.00     0.148 A 
ATOM     20  C   UNL     1     -44.131  42.143  25.478  1.00  0.00     0.012 A 
ATOM     21  N   UNL     1     -43.572  40.634  28.687  1.00  0.00    -0.218 NA
ATOM     22  H   UNL     1     -41.842  40.547  29.810  1.00  0.00     0.106 H 
ATOM     23  C   UNL     1     -45.363  41.586  25.792  1.00  0.00     0.015 A 
ATOM     24  H   UNL     1     -46.291  41.574  25.234  1.00  0.00     0.082 H 
BRANCH  15  25
ATOM     25  N   UNL     1     -41.016  42.716  26.071  1.00  0.00    -0.383 N 
ATOM     26  H   UNL     1     -40.795  43.643  26.437  1.00  0.00     0.158 HD
ATOM     27  H   UNL     1     -40.219  42.132  25.851  1.00  0.00     0.158 HD
ENDBRANCH  15  25
BRANCH  20  28
ATOM     28  C   UNL     1     -43.764  42.900  24.235  1.00  0.00     0.085 C 
ATOM     29  C   UNL     1     -44.947  43.431  23.428  1.00  0.00    -0.020 C 
ATOM     30  O   UNL     1     -42.943  44.058  24.534  1.00  0.00    -0.373 OA
ATOM     31  H   UNL     1     -43.153  42.247  23.599  1.00  0.00     0.066 H 
ATOM     32  C   UNL     1     -44.350  44.623  22.726  1.00  0.00    -0.027 C 
ATOM     33  H   UNL     1     -45.760  43.773  24.081  1.00  0.00     0.030 H 
ATOM     34  H   UNL     1     -45.359  42.686  22.742  1.00  0.00     0.030 H 
ATOM     35  C   UNL     1     -43.451  45.183  23.804  1.00  0.00     0.048 C 
ATOM     36  H   UNL     1     -45.092  45.343  22.372  1.00  0.00     0.029 H 
ATOM     37  H   UNL     1     -43.751  44.290  21.871  1.00  0.00     0.029 H 
ATOM     38  H   UNL     1     -44.012  45.812  24.504  1.00  0.00     0.057 H 
ATOM     39  H   UNL     1     -42.620  45.765  23.399  1.00  0.00     0.057 H 
ENDBRANCH  20  28
ENDBRANCH   5  14
BRANCH   9  40
ATOM     40  O   UNL     1     -48.828  39.006  28.738  1.00  0.00    -0.387 OA
ATOM     41  H   UNL     1     -48.714  38.394  29.487  1.00  0.00     0.211 HD
ENDBRANCH   9  40
ENDBRANCH   1   4
BRANCH   1  42
ATOM     42  O   UNL     1     -45.773  35.883  27.715  1.00  0.00    -0.491 OA
BRANCH  42  43
ATOM     43  C   UNL     1     -46.540  34.978  27.032  1.00  0.00     0.121 A 
ATOM     44  C   UNL     1     -47.909  35.077  27.268  1.00  0.00    -0.019 A 
ATOM     45  C   UNL     1     -46.067  33.998  26.153  1.00  0.00     0.007 A 
ATOM     46  C   UNL     1     -48.796  34.212  26.627  1.00  0.00    -0.049 A 
ATOM     47  H   UNL     1     -48.290  35.833  27.949  1.00  0.00     0.066 H 
ATOM     48  C   UNL     1     -46.927  33.122  25.502  1.00  0.00     0.076 A 
ATOM     49  H   UNL     1     -45.009  33.886  25.943  1.00  0.00     0.069 H 
ATOM     50  C   UNL     1     -48.309  33.235  25.744  1.00  0.00     0.001 A 
ATOM     51  H   UNL     1     -49.862  34.305  26.820  1.00  0.00     0.063 H 
ATOM     52  N   UNL     1     -46.413  32.202  24.668  1.00  0.00    -0.231 NA
ATOM     53  C   UNL     1     -49.160  32.351  25.078  1.00  0.00    -0.049 A 
ATOM     54  C   UNL     1     -47.244  31.345  24.032  1.00  0.00     0.129 A 
ATOM     55  C   UNL     1     -48.621  31.402  24.213  1.00  0.00    -0.019 A 
ATOM     56  H   UNL     1     -50.236  32.395  25.219  1.00  0.00     0.063 H 
ATOM     57  H   UNL     1     -49.278  30.723  23.681  1.00  0.00     0.066 H 
BRANCH  54  58
ATOM     58  N   UNL     1     -46.688  30.399  23.151  1.00  0.00    -0.356 N 
ATOM     59  C   UNL     1     -46.461  29.009  23.424  1.00  0.00     0.021 C 
ATOM     60  C   UNL     1     -45.416  30.548  22.501  1.00  0.00     0.021 C 
ATOM     61  C   UNL     1     -45.463  29.036  22.260  1.00  0.00    -0.018 C 
ATOM     62  H   UNL     1     -47.344  28.383  23.276  1.00  0.00     0.049 H 
ATOM     63  H   UNL     1     -46.018  28.834  24.409  1.00  0.00     0.049 H 
ATOM     64  H   UNL     1     -44.624  30.883  23.178  1.00  0.00     0.049 H 
ATOM     65  H   UNL     1     -45.455  31.176  21.607  1.00  0.00     0.049 H 
ATOM     66  H   UNL     1     -45.888  28.745  21.292  1.00  0.00     0.030 H 
ATOM     67  H   UNL     1     -44.526  28.499  22.424  1.00  0.00     0.030 H 
ENDBRANCH  54  58
ENDBRANCH  42  43
ENDBRANCH   1  42
TORSDOF 8
ENDMDL
