MODEL 1
REMARK VINA RESULT:     -10.2      0.000      0.000
REMARK SMILES CNc1ccc2ccc(OC[C@H]3O[C@@H](n4cc(-c5cc(F)cc(F)c5)c5c(N)ncnc54)[C@@H](F)[C@@H]3O)cc2n1
REMARK SMILES IDX 11 1 10 4 9 5 3 6 4 7 39 8 5 9 38 11 6 12 37 14 7 15 8 17
REMARK SMILES IDX 2 20 1 22 12 26 13 27 35 28 14 30 33 31 34 34 36 36 15 38
REMARK SMILES IDX 16 39 32 40 17 41 26 43 31 44 27 45 30 46 29 47 18 49 19 50
REMARK SMILES IDX 25 51 20 52 23 54 21 56 22 57 24 58 28 60
REMARK H PARENT 11 2 11 3 4 10 5 13 37 16 7 18 8 19 2 21 1 23 1 24 1 25 12 29
REMARK H PARENT 35 32 14 33 33 35 36 37 16 42 30 48 19 53 25 55 22 59 28 61
REMARK H PARENT 28 62
REMARK Flexibility Score: inf
ROOT
ATOM      1  C   UNL     1     -46.635  35.830  26.509  1.00  0.00     0.117 C 
ATOM      2  H   UNL     1     -45.723  35.397  26.085  1.00  0.00     0.073 H 
ATOM      3  H   UNL     1     -46.927  36.648  25.841  1.00  0.00     0.073 H 
ENDROOT
BRANCH   1   4
ATOM      4  O   UNL     1     -47.736  34.916  26.490  1.00  0.00    -0.491 OA
BRANCH   4   5
ATOM      5  C   UNL     1     -47.630  33.724  25.833  1.00  0.00     0.121 A 
ATOM      6  C   UNL     1     -49.040  29.390  24.442  1.00  0.00     0.126 A 
ATOM      7  C   UNL     1     -47.874  29.197  23.708  1.00  0.00    -0.019 A 
ATOM      8  N   UNL     1     -49.273  30.535  25.115  1.00  0.00    -0.231 NA
ATOM      9  C   UNL     1     -46.907  30.194  23.690  1.00  0.00    -0.049 A 
ATOM     10  H   UNL     1     -47.722  28.282  23.148  1.00  0.00     0.066 H 
ATOM     11  C   UNL     1     -48.342  31.511  25.101  1.00  0.00     0.076 A 
ATOM     12  C   UNL     1     -47.128  31.376  24.398  1.00  0.00     0.001 A 
ATOM     13  H   UNL     1     -45.995  30.043  23.121  1.00  0.00     0.063 H 
ATOM     14  C   UNL     1     -48.570  32.693  25.801  1.00  0.00     0.007 A 
ATOM     15  C   UNL     1     -46.180  32.407  24.413  1.00  0.00    -0.049 A 
ATOM     16  H   UNL     1     -49.522  32.778  26.312  1.00  0.00     0.069 H 
ATOM     17  C   UNL     1     -46.435  33.573  25.131  1.00  0.00    -0.019 A 
ATOM     18  H   UNL     1     -45.243  32.311  23.872  1.00  0.00     0.063 H 
ATOM     19  H   UNL     1     -45.695  34.370  25.144  1.00  0.00     0.066 H 
BRANCH   6  20
ATOM     20  N   UNL     1     -49.999  28.358  24.417  1.00  0.00    -0.373 N 
ATOM     21  H   UNL     1     -50.924  28.774  24.364  1.00  0.00     0.161 HD
BRANCH  20  22
ATOM     22  C   UNL     1     -49.794  27.377  23.366  1.00  0.00     0.005 C 
ATOM     23  H   UNL     1     -50.747  26.986  22.990  1.00  0.00     0.045 H 
ATOM     24  H   UNL     1     -49.210  27.794  22.539  1.00  0.00     0.045 H 
ATOM     25  H   UNL     1     -49.228  26.532  23.772  1.00  0.00     0.045 H 
ENDBRANCH  20  22
ENDBRANCH   6  20
ENDBRANCH   4   5
ENDBRANCH   1   4
BRANCH   1  26
ATOM     26  C   UNL     1     -46.426  36.388  27.918  1.00  0.00     0.123 C 
ATOM     27  O   UNL     1     -45.126  36.997  28.054  1.00  0.00    -0.345 OA
ATOM     28  C   UNL     1     -47.414  37.490  28.266  1.00  0.00     0.119 C 
ATOM     29  H   UNL     1     -46.483  35.567  28.643  1.00  0.00     0.067 H 
ATOM     30  C   UNL     1     -45.243  38.080  29.012  1.00  0.00     0.169 C 
ATOM     31  C   UNL     1     -46.709  38.160  29.425  1.00  0.00     0.173 C 
ATOM     32  H   UNL     1     -47.549  38.195  27.437  1.00  0.00     0.066 H 
ATOM     33  H   UNL     1     -44.598  37.833  29.862  1.00  0.00     0.088 H 
ATOM     34  F   UNL     1     -47.174  39.424  29.567  1.00  0.00    -0.239 F 
ATOM     35  H   UNL     1     -46.892  37.624  30.362  1.00  0.00     0.074 H 
BRANCH  28  36
ATOM     36  O   UNL     1     -48.689  36.977  28.627  1.00  0.00    -0.387 OA
ATOM     37  H   UNL     1     -49.188  36.841  27.800  1.00  0.00     0.211 HD
ENDBRANCH  28  36
BRANCH  30  38
ATOM     38  N   UNL     1     -44.735  39.301  28.405  1.00  0.00    -0.302 N 
ATOM     39  C   UNL     1     -45.253  39.961  27.319  1.00  0.00     0.017 A 
ATOM     40  C   UNL     1     -43.644  39.985  28.879  1.00  0.00     0.148 A 
ATOM     41  C   UNL     1     -44.483  41.088  27.088  1.00  0.00     0.013 A 
ATOM     42  H   UNL     1     -46.125  39.584  26.802  1.00  0.00     0.083 H 
ATOM     43  C   UNL     1     -43.443  41.101  28.073  1.00  0.00     0.069 A 
ATOM     44  N   UNL     1     -42.909  39.620  29.942  1.00  0.00    -0.218 NA
ATOM     45  C   UNL     1     -42.338  41.905  28.397  1.00  0.00     0.136 A 
ATOM     46  C   UNL     1     -41.900  40.477  30.164  1.00  0.00     0.120 A 
ATOM     47  N   UNL     1     -41.575  41.576  29.458  1.00  0.00    -0.219 NA
ATOM     48  H   UNL     1     -41.264  40.257  31.015  1.00  0.00     0.106 H 
BRANCH  41  49
ATOM     49  C   UNL     1     -44.793  42.023  26.020  1.00  0.00    -0.010 A 
ATOM     50  C   UNL     1     -43.908  42.194  24.949  1.00  0.00    -0.018 A 
ATOM     51  C   UNL     1     -45.974  42.774  26.056  1.00  0.00    -0.018 A 
ATOM     52  C   UNL     1     -44.217  43.095  23.932  1.00  0.00     0.126 A 
ATOM     53  H   UNL     1     -42.975  41.639  24.893  1.00  0.00     0.066 H 
ATOM     54  C   UNL     1     -46.261  43.665  25.026  1.00  0.00     0.126 A 
ATOM     55  H   UNL     1     -46.679  42.672  26.877  1.00  0.00     0.066 H 
ATOM     56  F   UNL     1     -43.366  43.252  22.910  1.00  0.00    -0.207 F 
ATOM     57  C   UNL     1     -45.392  43.834  23.958  1.00  0.00     0.010 A 
ATOM     58  F   UNL     1     -47.401  44.367  25.063  1.00  0.00    -0.207 F 
ATOM     59  H   UNL     1     -45.623  44.531  23.161  1.00  0.00     0.068 H 
ENDBRANCH  41  49
BRANCH  45  60
ATOM     60  N   UNL     1     -41.942  43.025  27.675  1.00  0.00    -0.383 N 
ATOM     61  H   UNL     1     -41.986  43.848  28.267  1.00  0.00     0.158 HD
ATOM     62  H   UNL     1     -41.075  42.900  27.168  1.00  0.00     0.158 HD
ENDBRANCH  45  60
ENDBRANCH  30  38
ENDBRANCH   1  26
TORSDOF 9
ENDMDL
MODEL 2
REMARK VINA RESULT:     -10.1      1.177      2.112
REMARK SMILES CNc1ccc2ccc(OC[C@H]3O[C@@H](n4cc(-c5cc(F)cc(F)c5)c5c(N)ncnc54)[C@@H](F)[C@@H]3O)cc2n1
REMARK SMILES IDX 11 1 10 4 9 5 3 6 4 7 39 8 5 9 38 11 6 12 37 14 7 15 8 17
REMARK SMILES IDX 2 20 1 22 12 26 13 27 35 28 14 30 33 31 34 34 36 36 15 38
REMARK SMILES IDX 16 39 32 40 17 41 26 43 31 44 27 45 30 46 29 47 18 49 19 50
REMARK SMILES IDX 25 51 20 52 23 54 21 56 22 57 24 58 28 60
REMARK H PARENT 11 2 11 3 4 10 5 13 37 16 7 18 8 19 2 21 1 23 1 24 1 25 12 29
REMARK H PARENT 35 32 14 33 33 35 36 37 16 42 30 48 19 53 25 55 22 59 28 61
REMARK H PARENT 28 62
REMARK Flexibility Score: inf
ROOT
ATOM      1  C   UNL     1     -45.644  35.371  27.292  1.00  0.00     0.117 C 
ATOM      2  H   UNL     1     -45.377  34.383  27.681  1.00  0.00     0.073 H 
ATOM      3  H   UNL     1     -44.737  35.775  26.830  1.00  0.00     0.073 H 
ENDROOT
BRANCH   1   4
ATOM      4  O   UNL     1     -46.607  35.301  26.236  1.00  0.00    -0.491 OA
BRANCH   4   5
ATOM      5  C   UNL     1     -47.037  34.091  25.774  1.00  0.00     0.121 A 
ATOM      6  C   UNL     1     -46.851  30.142  23.113  1.00  0.00     0.126 A 
ATOM      7  C   UNL     1     -48.038  29.665  23.658  1.00  0.00    -0.019 A 
ATOM      8  N   UNL     1     -46.311  31.315  23.505  1.00  0.00    -0.231 NA
ATOM      9  C   UNL     1     -48.707  30.426  24.609  1.00  0.00    -0.049 A 
ATOM     10  H   UNL     1     -48.438  28.705  23.352  1.00  0.00     0.066 H 
ATOM     11  C   UNL     1     -46.950  32.059  24.430  1.00  0.00     0.076 A 
ATOM     12  C   UNL     1     -48.168  31.650  25.009  1.00  0.00     0.001 A 
ATOM     13  H   UNL     1     -49.636  30.057  25.032  1.00  0.00     0.063 H 
ATOM     14  C   UNL     1     -46.404  33.276  24.834  1.00  0.00     0.007 A 
ATOM     15  C   UNL     1     -48.808  32.454  25.961  1.00  0.00    -0.049 A 
ATOM     16  H   UNL     1     -45.455  33.553  24.390  1.00  0.00     0.069 H 
ATOM     17  C   UNL     1     -48.241  33.669  26.336  1.00  0.00    -0.019 A 
ATOM     18  H   UNL     1     -49.746  32.144  26.413  1.00  0.00     0.063 H 
ATOM     19  H   UNL     1     -48.742  34.293  27.073  1.00  0.00     0.066 H 
BRANCH   6  20
ATOM     20  N   UNL     1     -46.201  29.328  22.165  1.00  0.00    -0.373 N 
ATOM     21  H   UNL     1     -46.353  29.719  21.240  1.00  0.00     0.161 HD
BRANCH  20  22
ATOM     22  C   UNL     1     -44.788  29.115  22.428  1.00  0.00     0.005 C 
ATOM     23  H   UNL     1     -44.568  28.055  22.602  1.00  0.00     0.045 H 
ATOM     24  H   UNL     1     -44.168  29.495  21.610  1.00  0.00     0.045 H 
ATOM     25  H   UNL     1     -44.507  29.663  23.333  1.00  0.00     0.045 H 
ENDBRANCH  20  22
ENDBRANCH   6  20
ENDBRANCH   4   5
ENDBRANCH   1   4
BRANCH   1  26
ATOM     26  C   UNL     1     -46.116  36.330  28.386  1.00  0.00     0.123 C 
ATOM     27  O   UNL     1     -45.042  37.181  28.836  1.00  0.00    -0.345 OA
ATOM     28  C   UNL     1     -47.198  37.285  27.905  1.00  0.00     0.119 C 
ATOM     29  H   UNL     1     -46.461  35.750  29.251  1.00  0.00     0.067 H 
ATOM     30  C   UNL     1     -45.622  38.448  29.239  1.00  0.00     0.169 C 
ATOM     31  C   UNL     1     -47.117  38.371  28.955  1.00  0.00     0.173 C 
ATOM     32  H   UNL     1     -46.971  37.691  26.912  1.00  0.00     0.066 H 
ATOM     33  H   UNL     1     -45.420  38.574  30.308  1.00  0.00     0.088 H 
ATOM     34  F   UNL     1     -47.647  39.515  28.462  1.00  0.00    -0.239 F 
ATOM     35  H   UNL     1     -47.682  38.095  29.852  1.00  0.00     0.074 H 
BRANCH  28  36
ATOM     36  O   UNL     1     -48.477  36.668  27.854  1.00  0.00    -0.387 OA
ATOM     37  H   UNL     1     -49.131  37.377  27.709  1.00  0.00     0.211 HD
ENDBRANCH  28  36
BRANCH  30  38
ATOM     38  N   UNL     1     -44.942  39.522  28.528  1.00  0.00    -0.302 N 
ATOM     39  C   UNL     1     -45.387  40.182  27.410  1.00  0.00     0.017 A 
ATOM     40  C   UNL     1     -43.735  40.045  28.920  1.00  0.00     0.148 A 
ATOM     41  C   UNL     1     -44.451  41.145  27.074  1.00  0.00     0.013 A 
ATOM     42  H   UNL     1     -46.328  39.921  26.946  1.00  0.00     0.083 H 
ATOM     43  C   UNL     1     -43.385  41.052  28.027  1.00  0.00     0.069 A 
ATOM     44  N   UNL     1     -43.030  39.637  29.987  1.00  0.00    -0.218 NA
ATOM     45  C   UNL     1     -42.150  41.680  28.259  1.00  0.00     0.136 A 
ATOM     46  C   UNL     1     -41.886  40.326  30.117  1.00  0.00     0.120 A 
ATOM     47  N   UNL     1     -41.412  41.303  29.322  1.00  0.00    -0.219 NA
ATOM     48  H   UNL     1     -41.262  40.062  30.965  1.00  0.00     0.106 H 
BRANCH  41  49
ATOM     49  C   UNL     1     -44.643  42.041  25.947  1.00  0.00    -0.010 A 
ATOM     50  C   UNL     1     -45.795  42.830  25.856  1.00  0.00    -0.018 A 
ATOM     51  C   UNL     1     -43.683  42.115  24.930  1.00  0.00    -0.018 A 
ATOM     52  C   UNL     1     -45.966  43.684  24.768  1.00  0.00     0.126 A 
ATOM     53  H   UNL     1     -46.569  42.790  26.619  1.00  0.00     0.066 H 
ATOM     54  C   UNL     1     -43.876  42.979  23.855  1.00  0.00     0.126 A 
ATOM     55  H   UNL     1     -42.781  41.510  24.964  1.00  0.00     0.066 H 
ATOM     56  F   UNL     1     -47.071  44.437  24.690  1.00  0.00    -0.207 F 
ATOM     57  C   UNL     1     -45.013  43.769  23.763  1.00  0.00     0.010 A 
ATOM     58  F   UNL     1     -42.946  43.053  22.895  1.00  0.00    -0.207 F 
ATOM     59  H   UNL     1     -45.156  44.437  22.923  1.00  0.00     0.068 H 
ENDBRANCH  41  49
BRANCH  45  60
ATOM     60  N   UNL     1     -41.603  42.665  27.445  1.00  0.00    -0.383 N 
ATOM     61  H   UNL     1     -41.013  42.237  26.739  1.00  0.00     0.158 HD
ATOM     62  H   UNL     1     -42.280  43.333  27.100  1.00  0.00     0.158 HD
ENDBRANCH  45  60
ENDBRANCH  30  38
ENDBRANCH   1  26
TORSDOF 9
ENDMDL
MODEL 3
REMARK VINA RESULT:      -9.2      3.068      4.311
REMARK SMILES CNc1ccc2ccc(OC[C@H]3O[C@@H](n4cc(-c5cc(F)cc(F)c5)c5c(N)ncnc54)[C@@H](F)[C@@H]3O)cc2n1
REMARK SMILES IDX 11 1 10 4 9 5 3 6 4 7 39 8 5 9 38 11 6 12 37 14 7 15 8 17
REMARK SMILES IDX 2 20 1 22 12 26 13 27 35 28 14 30 33 31 34 34 36 36 15 38
REMARK SMILES IDX 16 39 32 40 17 41 26 43 31 44 27 45 30 46 29 47 18 49 19 50
REMARK SMILES IDX 25 51 20 52 23 54 21 56 22 57 24 58 28 60
REMARK H PARENT 11 2 11 3 4 10 5 13 37 16 7 18 8 19 2 21 1 23 1 24 1 25 12 29
REMARK H PARENT 35 32 14 33 33 35 36 37 16 42 30 48 19 53 25 55 22 59 28 61
REMARK H PARENT 28 62
REMARK Flexibility Score: inf
ROOT
ATOM      1  C   UNL     1     -47.299  34.895  27.847  1.00  0.00     0.117 C 
ATOM      2  H   UNL     1     -48.224  35.183  28.358  1.00  0.00     0.073 H 
ATOM      3  H   UNL     1     -47.087  33.864  28.152  1.00  0.00     0.073 H 
ENDROOT
BRANCH   1   4
ATOM      4  O   UNL     1     -47.452  34.845  26.425  1.00  0.00    -0.491 OA
BRANCH   4   5
ATOM      5  C   UNL     1     -47.582  33.644  25.789  1.00  0.00     0.121 A 
ATOM      6  C   UNL     1     -46.304  30.136  22.828  1.00  0.00     0.126 A 
ATOM      7  C   UNL     1     -47.446  29.403  23.131  1.00  0.00    -0.019 A 
ATOM      8  N   UNL     1     -46.050  31.326  23.409  1.00  0.00    -0.231 NA
ATOM      9  C   UNL     1     -48.369  29.919  24.034  1.00  0.00    -0.049 A 
ATOM     10  H   UNL     1     -47.615  28.433  22.677  1.00  0.00     0.066 H 
ATOM     11  C   UNL     1     -46.937  31.834  24.289  1.00  0.00     0.076 A 
ATOM     12  C   UNL     1     -48.126  31.158  24.628  1.00  0.00     0.001 A 
ATOM     13  H   UNL     1     -49.262  29.350  24.269  1.00  0.00     0.063 H 
ATOM     14  C   UNL     1     -46.686  33.068  24.887  1.00  0.00     0.007 A 
ATOM     15  C   UNL     1     -49.029  31.721  25.539  1.00  0.00    -0.049 A 
ATOM     16  H   UNL     1     -45.753  33.553  24.626  1.00  0.00     0.069 H 
ATOM     17  C   UNL     1     -48.753  32.960  26.112  1.00  0.00    -0.019 A 
ATOM     18  H   UNL     1     -49.946  31.205  25.806  1.00  0.00     0.063 H 
ATOM     19  H   UNL     1     -49.458  33.397  26.816  1.00  0.00     0.066 H 
BRANCH   6  20
ATOM     20  N   UNL     1     -45.390  29.564  21.921  1.00  0.00    -0.373 N 
ATOM     21  H   UNL     1     -44.812  30.303  21.531  1.00  0.00     0.161 HD
BRANCH  20  22
ATOM     22  C   UNL     1     -44.583  28.494  22.480  1.00  0.00     0.005 C 
ATOM     23  H   UNL     1     -43.986  28.844  23.330  1.00  0.00     0.045 H 
ATOM     24  H   UNL     1     -45.202  27.644  22.785  1.00  0.00     0.045 H 
ATOM     25  H   UNL     1     -43.888  28.134  21.714  1.00  0.00     0.045 H 
ENDBRANCH  20  22
ENDBRANCH   6  20
ENDBRANCH   4   5
ENDBRANCH   1   4
BRANCH   1  26
ATOM     26  C   UNL     1     -46.112  35.781  28.228  1.00  0.00     0.123 C 
ATOM     27  O   UNL     1     -45.913  36.834  27.264  1.00  0.00    -0.345 OA
ATOM     28  C   UNL     1     -46.312  36.495  29.556  1.00  0.00     0.119 C 
ATOM     29  H   UNL     1     -45.198  35.172  28.243  1.00  0.00     0.067 H 
ATOM     30  C   UNL     1     -45.367  37.980  27.968  1.00  0.00     0.169 C 
ATOM     31  C   UNL     1     -45.294  37.608  29.445  1.00  0.00     0.173 C 
ATOM     32  H   UNL     1     -47.324  36.905  29.649  1.00  0.00     0.066 H 
ATOM     33  H   UNL     1     -44.373  38.174  27.552  1.00  0.00     0.088 H 
ATOM     34  F   UNL     1     -45.632  38.614  30.285  1.00  0.00    -0.239 F 
ATOM     35  H   UNL     1     -44.293  37.258  29.721  1.00  0.00     0.074 H 
BRANCH  28  36
ATOM     36  O   UNL     1     -46.070  35.643  30.667  1.00  0.00    -0.387 OA
ATOM     37  H   UNL     1     -45.994  34.734  30.321  1.00  0.00     0.211 HD
ENDBRANCH  28  36
BRANCH  30  38
ATOM     38  N   UNL     1     -46.202  39.140  27.694  1.00  0.00    -0.302 N 
ATOM     39  C   UNL     1     -47.481  39.362  28.140  1.00  0.00     0.017 A 
ATOM     40  C   UNL     1     -45.786  40.213  26.945  1.00  0.00     0.148 A 
ATOM     41  C   UNL     1     -47.897  40.596  27.670  1.00  0.00     0.013 A 
ATOM     42  H   UNL     1     -47.990  38.633  28.756  1.00  0.00     0.083 H 
ATOM     43  C   UNL     1     -46.823  41.138  26.892  1.00  0.00     0.069 A 
ATOM     44  N   UNL     1     -44.577  40.327  26.369  1.00  0.00    -0.218 NA
ATOM     45  C   UNL     1     -46.580  42.294  26.132  1.00  0.00     0.136 A 
ATOM     46  C   UNL     1     -44.459  41.480  25.694  1.00  0.00     0.120 A 
ATOM     47  N   UNL     1     -45.379  42.450  25.540  1.00  0.00    -0.219 NA
ATOM     48  H   UNL     1     -43.504  41.653  25.207  1.00  0.00     0.106 H 
BRANCH  41  49
ATOM     49  C   UNL     1     -49.203  41.140  27.996  1.00  0.00    -0.010 A 
ATOM     50  C   UNL     1     -50.187  41.265  27.008  1.00  0.00    -0.018 A 
ATOM     51  C   UNL     1     -49.490  41.560  29.301  1.00  0.00    -0.018 A 
ATOM     52  C   UNL     1     -51.435  41.790  27.336  1.00  0.00     0.126 A 
ATOM     53  H   UNL     1     -49.997  40.963  25.981  1.00  0.00     0.066 H 
ATOM     54  C   UNL     1     -50.746  42.077  29.603  1.00  0.00     0.126 A 
ATOM     55  H   UNL     1     -48.747  41.485  30.091  1.00  0.00     0.066 H 
ATOM     56  F   UNL     1     -52.371  41.904  26.384  1.00  0.00    -0.207 F 
ATOM     57  C   UNL     1     -51.727  42.197  28.630  1.00  0.00     0.010 A 
ATOM     58  F   UNL     1     -51.015  42.462  30.857  1.00  0.00    -0.207 F 
ATOM     59  H   UNL     1     -52.702  42.603  28.873  1.00  0.00     0.068 H 
ENDBRANCH  41  49
BRANCH  45  60
ATOM     60  N   UNL     1     -47.512  43.302  25.914  1.00  0.00    -0.383 N 
ATOM     61  H   UNL     1     -47.118  44.197  26.182  1.00  0.00     0.158 HD
ATOM     62  H   UNL     1     -47.940  43.271  24.998  1.00  0.00     0.158 HD
ENDBRANCH  45  60
ENDBRANCH  30  38
ENDBRANCH   1  26
TORSDOF 9
ENDMDL
MODEL 4
REMARK VINA RESULT:      -9.2      2.809      4.019
REMARK SMILES CNc1ccc2ccc(OC[C@H]3O[C@@H](n4cc(-c5cc(F)cc(F)c5)c5c(N)ncnc54)[C@@H](F)[C@@H]3O)cc2n1
REMARK SMILES IDX 11 1 10 4 9 5 3 6 4 7 39 8 5 9 38 11 6 12 37 14 7 15 8 17
REMARK SMILES IDX 2 20 1 22 12 26 13 27 35 28 14 30 33 31 34 34 36 36 15 38
REMARK SMILES IDX 16 39 32 40 17 41 26 43 31 44 27 45 30 46 29 47 18 49 19 50
REMARK SMILES IDX 25 51 20 52 23 54 21 56 22 57 24 58 28 60
REMARK H PARENT 11 2 11 3 4 10 5 13 37 16 7 18 8 19 2 21 1 23 1 24 1 25 12 29
REMARK H PARENT 35 32 14 33 33 35 36 37 16 42 30 48 19 53 25 55 22 59 28 61
REMARK H PARENT 28 62
REMARK Flexibility Score: inf
ROOT
ATOM      1  C   UNL     1     -47.392  34.776  27.801  1.00  0.00     0.117 C 
ATOM      2  H   UNL     1     -48.317  35.100  28.288  1.00  0.00     0.073 H 
ATOM      3  H   UNL     1     -47.214  33.747  28.131  1.00  0.00     0.073 H 
ENDROOT
BRANCH   1   4
ATOM      4  O   UNL     1     -47.519  34.700  26.377  1.00  0.00    -0.491 OA
BRANCH   4   5
ATOM      5  C   UNL     1     -47.478  33.491  25.746  1.00  0.00     0.121 A 
ATOM      6  C   UNL     1     -48.933  29.067  24.732  1.00  0.00     0.126 A 
ATOM      7  C   UNL     1     -47.897  28.887  23.822  1.00  0.00    -0.019 A 
ATOM      8  N   UNL     1     -49.095  30.227  25.402  1.00  0.00    -0.231 NA
ATOM      9  C   UNL     1     -46.984  29.914  23.615  1.00  0.00    -0.049 A 
ATOM     10  H   UNL     1     -47.804  27.959  23.270  1.00  0.00     0.066 H 
ATOM     11  C   UNL     1     -48.217  31.231  25.206  1.00  0.00     0.076 A 
ATOM     12  C   UNL     1     -47.131  31.112  24.315  1.00  0.00     0.001 A 
ATOM     13  H   UNL     1     -46.173  29.773  22.907  1.00  0.00     0.063 H 
ATOM     14  C   UNL     1     -48.371  32.429  25.900  1.00  0.00     0.007 A 
ATOM     15  C   UNL     1     -46.232  32.173  24.144  1.00  0.00    -0.049 A 
ATOM     16  H   UNL     1     -49.229  32.500  26.559  1.00  0.00     0.069 H 
ATOM     17  C   UNL     1     -46.410  33.354  24.861  1.00  0.00    -0.019 A 
ATOM     18  H   UNL     1     -45.394  32.089  23.458  1.00  0.00     0.063 H 
ATOM     19  H   UNL     1     -45.709  34.176  24.728  1.00  0.00     0.066 H 
BRANCH   6  20
ATOM     20  N   UNL     1     -49.843  28.004  24.896  1.00  0.00    -0.373 N 
ATOM     21  H   UNL     1     -49.873  27.465  24.036  1.00  0.00     0.161 HD
BRANCH  20  22
ATOM     22  C   UNL     1     -49.574  27.160  26.047  1.00  0.00     0.005 C 
ATOM     23  H   UNL     1     -49.958  27.607  26.971  1.00  0.00     0.045 H 
ATOM     24  H   UNL     1     -49.996  26.158  25.915  1.00  0.00     0.045 H 
ATOM     25  H   UNL     1     -48.491  27.046  26.161  1.00  0.00     0.045 H 
ENDBRANCH  20  22
ENDBRANCH   6  20
ENDBRANCH   4   5
ENDBRANCH   1   4
BRANCH   1  26
ATOM     26  C   UNL     1     -46.187  35.637  28.185  1.00  0.00     0.123 C 
ATOM     27  O   UNL     1     -45.966  36.689  27.225  1.00  0.00    -0.345 OA
ATOM     28  C   UNL     1     -46.374  36.351  29.515  1.00  0.00     0.119 C 
ATOM     29  H   UNL     1     -45.286  35.010  28.200  1.00  0.00     0.067 H 
ATOM     30  C   UNL     1     -45.398  37.821  27.933  1.00  0.00     0.169 C 
ATOM     31  C   UNL     1     -45.334  37.444  29.408  1.00  0.00     0.173 C 
ATOM     32  H   UNL     1     -47.378  36.782  29.609  1.00  0.00     0.066 H 
ATOM     33  H   UNL     1     -44.400  37.997  27.518  1.00  0.00     0.088 H 
ATOM     34  F   UNL     1     -45.653  38.454  30.252  1.00  0.00    -0.239 F 
ATOM     35  H   UNL     1     -44.341  37.073  29.685  1.00  0.00     0.074 H 
BRANCH  28  36
ATOM     36  O   UNL     1     -46.151  35.491  30.624  1.00  0.00    -0.387 OA
ATOM     37  H   UNL     1     -46.155  34.577  30.284  1.00  0.00     0.211 HD
ENDBRANCH  28  36
BRANCH  30  38
ATOM     38  N   UNL     1     -46.209  38.999  27.661  1.00  0.00    -0.302 N 
ATOM     39  C   UNL     1     -47.498  39.228  28.074  1.00  0.00     0.017 A 
ATOM     40  C   UNL     1     -45.756  40.083  26.950  1.00  0.00     0.148 A 
ATOM     41  C   UNL     1     -47.883  40.478  27.621  1.00  0.00     0.013 A 
ATOM     42  H   UNL     1     -48.035  38.492  28.657  1.00  0.00     0.083 H 
ATOM     43  C   UNL     1     -46.779  41.023  26.888  1.00  0.00     0.069 A 
ATOM     44  N   UNL     1     -44.530  40.193  26.414  1.00  0.00    -0.218 NA
ATOM     45  C   UNL     1     -46.498  42.193  26.163  1.00  0.00     0.136 A 
ATOM     46  C   UNL     1     -44.376  41.360  25.770  1.00  0.00     0.120 A 
ATOM     47  N   UNL     1     -45.279  42.346  25.611  1.00  0.00    -0.219 NA
ATOM     48  H   UNL     1     -43.405  41.531  25.316  1.00  0.00     0.106 H 
BRANCH  41  49
ATOM     49  C   UNL     1     -49.192  41.032  27.920  1.00  0.00    -0.010 A 
ATOM     50  C   UNL     1     -49.579  41.262  29.246  1.00  0.00    -0.018 A 
ATOM     51  C   UNL     1     -50.089  41.328  26.887  1.00  0.00    -0.018 A 
ATOM     52  C   UNL     1     -50.838  41.793  29.518  1.00  0.00     0.126 A 
ATOM     53  H   UNL     1     -48.915  41.032  30.075  1.00  0.00     0.066 H 
ATOM     54  C   UNL     1     -51.340  41.862  27.185  1.00  0.00     0.126 A 
ATOM     55  H   UNL     1     -49.825  41.154  25.847  1.00  0.00     0.066 H 
ATOM     56  F   UNL     1     -51.199  42.012  30.789  1.00  0.00    -0.207 F 
ATOM     57  C   UNL     1     -51.726  42.099  28.496  1.00  0.00     0.010 A 
ATOM     58  F   UNL     1     -52.184  42.155  26.188  1.00  0.00    -0.207 F 
ATOM     59  H   UNL     1     -52.702  42.513  28.719  1.00  0.00     0.068 H 
ENDBRANCH  41  49
BRANCH  45  60
ATOM     60  N   UNL     1     -47.411  43.218  25.941  1.00  0.00    -0.383 N 
ATOM     61  H   UNL     1     -46.994  44.108  26.192  1.00  0.00     0.158 HD
ATOM     62  H   UNL     1     -47.850  43.184  25.030  1.00  0.00     0.158 HD
ENDBRANCH  45  60
ENDBRANCH  30  38
ENDBRANCH   1  26
TORSDOF 9
ENDMDL
MODEL 5
REMARK VINA RESULT:      -9.1      2.771      4.690
REMARK SMILES CNc1ccc2ccc(OC[C@H]3O[C@@H](n4cc(-c5cc(F)cc(F)c5)c5c(N)ncnc54)[C@@H](F)[C@@H]3O)cc2n1
REMARK SMILES IDX 11 1 10 4 9 5 3 6 4 7 39 8 5 9 38 11 6 12 37 14 7 15 8 17
REMARK SMILES IDX 2 20 1 22 12 26 13 27 35 28 14 30 33 31 34 34 36 36 15 38
REMARK SMILES IDX 16 39 32 40 17 41 26 43 31 44 27 45 30 46 29 47 18 49 19 50
REMARK SMILES IDX 25 51 20 52 23 54 21 56 22 57 24 58 28 60
REMARK H PARENT 11 2 11 3 4 10 5 13 37 16 7 18 8 19 2 21 1 23 1 24 1 25 12 29
REMARK H PARENT 35 32 14 33 33 35 36 37 16 42 30 48 19 53 25 55 22 59 28 61
REMARK H PARENT 28 62
REMARK Flexibility Score: inf
ROOT
ATOM      1  C   UNL     1     -46.045  38.380  28.543  1.00  0.00     0.117 C 
ATOM      2  H   UNL     1     -46.425  38.969  29.385  1.00  0.00     0.073 H 
ATOM      3  H   UNL     1     -45.822  37.383  28.940  1.00  0.00     0.073 H 
ENDROOT
BRANCH   1   4
ATOM      4  O   UNL     1     -47.035  38.170  27.531  1.00  0.00    -0.491 OA
BRANCH   4   5
ATOM      5  C   UNL     1     -47.368  36.904  27.145  1.00  0.00     0.121 A 
ATOM      6  C   UNL     1     -46.648  32.648  25.124  1.00  0.00     0.126 A 
ATOM      7  C   UNL     1     -47.934  32.227  25.448  1.00  0.00    -0.019 A 
ATOM      8  N   UNL     1     -46.193  33.870  25.472  1.00  0.00    -0.231 NA
ATOM      9  C   UNL     1     -48.786  33.094  26.121  1.00  0.00    -0.049 A 
ATOM     10  H   UNL     1     -48.268  31.230  25.188  1.00  0.00     0.066 H 
ATOM     11  C   UNL     1     -47.012  34.717  26.128  1.00  0.00     0.076 A 
ATOM     12  C   UNL     1     -48.333  34.367  26.470  1.00  0.00     0.001 A 
ATOM     13  H   UNL     1     -49.791  32.768  26.371  1.00  0.00     0.063 H 
ATOM     14  C   UNL     1     -46.553  35.984  26.483  1.00  0.00     0.007 A 
ATOM     15  C   UNL     1     -49.158  35.277  27.143  1.00  0.00    -0.049 A 
ATOM     16  H   UNL     1     -45.526  36.216  26.229  1.00  0.00     0.069 H 
ATOM     17  C   UNL     1     -48.672  36.539  27.475  1.00  0.00    -0.019 A 
ATOM     18  H   UNL     1     -50.177  35.013  27.412  1.00  0.00     0.063 H 
ATOM     19  H   UNL     1     -49.316  37.245  27.996  1.00  0.00     0.066 H 
BRANCH   6  20
ATOM     20  N   UNL     1     -45.815  31.729  24.457  1.00  0.00    -0.373 N 
ATOM     21  H   UNL     1     -45.531  31.009  25.115  1.00  0.00     0.161 HD
BRANCH  20  22
ATOM     22  C   UNL     1     -46.398  31.156  23.257  1.00  0.00     0.005 C 
ATOM     23  H   UNL     1     -46.759  31.934  22.574  1.00  0.00     0.045 H 
ATOM     24  H   UNL     1     -45.686  30.505  22.738  1.00  0.00     0.045 H 
ATOM     25  H   UNL     1     -47.258  30.539  23.538  1.00  0.00     0.045 H 
ENDBRANCH  20  22
ENDBRANCH   6  20
ENDBRANCH   4   5
ENDBRANCH   1   4
BRANCH   1  26
ATOM     26  C   UNL     1     -44.772  38.969  27.934  1.00  0.00     0.123 C 
ATOM     27  O   UNL     1     -45.027  39.537  26.634  1.00  0.00    -0.345 OA
ATOM     28  C   UNL     1     -44.200  40.113  28.757  1.00  0.00     0.119 C 
ATOM     29  H   UNL     1     -44.031  38.170  27.804  1.00  0.00     0.067 H 
ATOM     30  C   UNL     1     -44.114  40.649  26.450  1.00  0.00     0.169 C 
ATOM     31  C   UNL     1     -43.310  40.790  27.738  1.00  0.00     0.173 C 
ATOM     32  H   UNL     1     -44.983  40.799  29.101  1.00  0.00     0.066 H 
ATOM     33  H   UNL     1     -43.470  40.405  25.598  1.00  0.00     0.088 H 
ATOM     34  F   UNL     1     -43.088  42.072  28.114  1.00  0.00    -0.239 F 
ATOM     35  H   UNL     1     -42.341  40.286  27.663  1.00  0.00     0.074 H 
BRANCH  28  36
ATOM     36  O   UNL     1     -43.479  39.652  29.891  1.00  0.00    -0.387 OA
ATOM     37  H   UNL     1     -43.814  40.145  30.664  1.00  0.00     0.211 HD
ENDBRANCH  28  36
BRANCH  30  38
ATOM     38  N   UNL     1     -44.882  41.835  26.103  1.00  0.00    -0.302 N 
ATOM     39  C   UNL     1     -46.204  42.076  26.387  1.00  0.00     0.017 A 
ATOM     40  C   UNL     1     -44.351  42.916  25.444  1.00  0.00     0.148 A 
ATOM     41  C   UNL     1     -46.530  43.331  25.901  1.00  0.00     0.013 A 
ATOM     42  H   UNL     1     -46.803  41.344  26.911  1.00  0.00     0.083 H 
ATOM     43  C   UNL     1     -45.354  43.866  25.284  1.00  0.00     0.069 A 
ATOM     44  N   UNL     1     -43.076  43.016  25.032  1.00  0.00    -0.218 NA
ATOM     45  C   UNL     1     -44.991  45.035  24.594  1.00  0.00     0.136 A 
ATOM     46  C   UNL     1     -42.848  44.183  24.410  1.00  0.00     0.120 A 
ATOM     47  N   UNL     1     -43.721  45.177  24.166  1.00  0.00    -0.219 NA
ATOM     48  H   UNL     1     -41.835  44.345  24.055  1.00  0.00     0.106 H 
BRANCH  41  49
ATOM     49  C   UNL     1     -47.857  43.897  26.071  1.00  0.00    -0.010 A 
ATOM     50  C   UNL     1     -48.670  44.146  24.960  1.00  0.00    -0.018 A 
ATOM     51  C   UNL     1     -48.332  44.215  27.349  1.00  0.00    -0.018 A 
ATOM     52  C   UNL     1     -49.940  44.691  25.138  1.00  0.00     0.126 A 
ATOM     53  H   UNL     1     -48.330  43.925  23.951  1.00  0.00     0.066 H 
ATOM     54  C   UNL     1     -49.606  44.756  27.501  1.00  0.00     0.126 A 
ATOM     55  H   UNL     1     -47.724  44.044  28.233  1.00  0.00     0.066 H 
ATOM     56  F   UNL     1     -50.712  44.923  24.069  1.00  0.00    -0.207 F 
ATOM     57  C   UNL     1     -50.420  44.998  26.404  1.00  0.00     0.010 A 
ATOM     58  F   UNL     1     -50.057  45.043  28.729  1.00  0.00    -0.207 F 
ATOM     59  H   UNL     1     -51.409  45.420  26.531  1.00  0.00     0.068 H 
ENDBRANCH  41  49
BRANCH  45  60
ATOM     60  N   UNL     1     -45.867  46.070  24.285  1.00  0.00    -0.383 N 
ATOM     61  H   UNL     1     -46.350  45.862  23.418  1.00  0.00     0.158 HD
ATOM     62  H   UNL     1     -46.457  46.350  25.058  1.00  0.00     0.158 HD
ENDBRANCH  45  60
ENDBRANCH  30  38
ENDBRANCH   1  26
TORSDOF 9
ENDMDL
MODEL 6
REMARK VINA RESULT:      -8.6      4.054      7.143
REMARK SMILES CNc1ccc2ccc(OC[C@H]3O[C@@H](n4cc(-c5cc(F)cc(F)c5)c5c(N)ncnc54)[C@@H](F)[C@@H]3O)cc2n1
REMARK SMILES IDX 11 1 10 4 9 5 3 6 4 7 39 8 5 9 38 11 6 12 37 14 7 15 8 17
REMARK SMILES IDX 2 20 1 22 12 26 13 27 35 28 14 30 33 31 34 34 36 36 15 38
REMARK SMILES IDX 16 39 32 40 17 41 26 43 31 44 27 45 30 46 29 47 18 49 19 50
REMARK SMILES IDX 25 51 20 52 23 54 21 56 22 57 24 58 28 60
REMARK H PARENT 11 2 11 3 4 10 5 13 37 16 7 18 8 19 2 21 1 23 1 24 1 25 12 29
REMARK H PARENT 35 32 14 33 33 35 36 37 16 42 30 48 19 53 25 55 22 59 28 61
REMARK H PARENT 28 62
REMARK Flexibility Score: inf
ROOT
ATOM      1  C   UNL     1     -43.511  40.603  27.158  1.00  0.00     0.117 C 
ATOM      2  H   UNL     1     -42.605  40.424  27.745  1.00  0.00     0.073 H 
ATOM      3  H   UNL     1     -43.567  39.793  26.422  1.00  0.00     0.073 H 
ENDROOT
BRANCH   1   4
ATOM      4  O   UNL     1     -44.704  40.485  27.941  1.00  0.00    -0.491 OA
BRANCH   4   5
ATOM      5  C   UNL     1     -45.512  39.394  27.803  1.00  0.00     0.121 A 
ATOM      6  C   UNL     1     -46.515  34.752  27.405  1.00  0.00     0.126 A 
ATOM      7  C   UNL     1     -47.878  35.009  27.309  1.00  0.00    -0.019 A 
ATOM      8  N   UNL     1     -45.615  35.745  27.567  1.00  0.00    -0.231 NA
ATOM      9  C   UNL     1     -48.330  36.322  27.350  1.00  0.00    -0.049 A 
ATOM     10  H   UNL     1     -48.586  34.194  27.211  1.00  0.00     0.066 H 
ATOM     11  C   UNL     1     -46.044  37.022  27.612  1.00  0.00     0.076 A 
ATOM     12  C   UNL     1     -47.407  37.359  27.499  1.00  0.00     0.001 A 
ATOM     13  H   UNL     1     -49.393  36.524  27.271  1.00  0.00     0.063 H 
ATOM     14  C   UNL     1     -45.121  38.054  27.770  1.00  0.00     0.007 A 
ATOM     15  C   UNL     1     -47.815  38.699  27.540  1.00  0.00    -0.049 A 
ATOM     16  H   UNL     1     -44.083  37.764  27.879  1.00  0.00     0.069 H 
ATOM     17  C   UNL     1     -46.866  39.707  27.690  1.00  0.00    -0.019 A 
ATOM     18  H   UNL     1     -48.864  38.966  27.456  1.00  0.00     0.063 H 
ATOM     19  H   UNL     1     -47.185  40.747  27.719  1.00  0.00     0.066 H 
BRANCH   6  20
ATOM     20  N   UNL     1     -46.106  33.404  27.375  1.00  0.00    -0.373 N 
ATOM     21  H   UNL     1     -46.230  33.005  28.301  1.00  0.00     0.161 HD
BRANCH  20  22
ATOM     22  C   UNL     1     -46.762  32.603  26.356  1.00  0.00     0.005 C 
ATOM     23  H   UNL     1     -46.037  32.029  25.768  1.00  0.00     0.045 H 
ATOM     24  H   UNL     1     -47.504  31.928  26.795  1.00  0.00     0.045 H 
ATOM     25  H   UNL     1     -47.293  33.268  25.667  1.00  0.00     0.045 H 
ENDBRANCH  20  22
ENDBRANCH   6  20
ENDBRANCH   4   5
ENDBRANCH   1   4
BRANCH   1  26
ATOM     26  C   UNL     1     -43.485  41.943  26.421  1.00  0.00     0.123 C 
ATOM     27  O   UNL     1     -44.550  42.031  25.453  1.00  0.00    -0.345 OA
ATOM     28  C   UNL     1     -43.697  43.129  27.348  1.00  0.00     0.119 C 
ATOM     29  H   UNL     1     -42.537  42.036  25.876  1.00  0.00     0.067 H 
ATOM     30  C   UNL     1     -44.942  43.424  25.353  1.00  0.00     0.169 C 
ATOM     31  C   UNL     1     -44.105  44.202  26.362  1.00  0.00     0.173 C 
ATOM     32  H   UNL     1     -44.501  42.943  28.070  1.00  0.00     0.066 H 
ATOM     33  H   UNL     1     -44.738  43.747  24.327  1.00  0.00     0.088 H 
ATOM     34  F   UNL     1     -44.786  45.176  27.011  1.00  0.00    -0.239 F 
ATOM     35  H   UNL     1     -43.229  44.658  25.890  1.00  0.00     0.074 H 
BRANCH  28  36
ATOM     36  O   UNL     1     -42.520  43.469  28.068  1.00  0.00    -0.387 OA
ATOM     37  H   UNL     1     -42.004  44.075  27.504  1.00  0.00     0.211 HD
ENDBRANCH  28  36
BRANCH  30  38
ATOM     38  N   UNL     1     -46.377  43.525  25.576  1.00  0.00    -0.302 N 
ATOM     39  C   UNL     1     -47.141  42.742  26.406  1.00  0.00     0.017 A 
ATOM     40  C   UNL     1     -47.172  44.471  24.978  1.00  0.00     0.148 A 
ATOM     41  C   UNL     1     -48.449  43.190  26.341  1.00  0.00     0.013 A 
ATOM     42  H   UNL     1     -46.698  41.937  26.976  1.00  0.00     0.083 H 
ATOM     43  C   UNL     1     -48.478  44.285  25.418  1.00  0.00     0.069 A 
ATOM     44  N   UNL     1     -46.739  45.407  24.117  1.00  0.00    -0.218 NA
ATOM     45  C   UNL     1     -49.440  45.154  24.877  1.00  0.00     0.136 A 
ATOM     46  C   UNL     1     -47.743  46.188  23.691  1.00  0.00     0.120 A 
ATOM     47  N   UNL     1     -49.048  46.110  24.011  1.00  0.00    -0.219 NA
ATOM     48  H   UNL     1     -47.473  46.978  22.998  1.00  0.00     0.106 H 
BRANCH  41  49
ATOM     49  C   UNL     1     -49.506  42.585  27.133  1.00  0.00    -0.010 A 
ATOM     50  C   UNL     1     -50.424  41.710  26.541  1.00  0.00    -0.018 A 
ATOM     51  C   UNL     1     -49.629  42.884  28.495  1.00  0.00    -0.018 A 
ATOM     52  C   UNL     1     -51.434  41.139  27.313  1.00  0.00     0.126 A 
ATOM     53  H   UNL     1     -50.370  41.465  25.483  1.00  0.00     0.066 H 
ATOM     54  C   UNL     1     -50.644  42.297  29.246  1.00  0.00     0.126 A 
ATOM     55  H   UNL     1     -48.939  43.566  28.984  1.00  0.00     0.066 H 
ATOM     56  F   UNL     1     -52.306  40.301  26.739  1.00  0.00    -0.207 F 
ATOM     57  C   UNL     1     -51.553  41.423  28.667  1.00  0.00     0.010 A 
ATOM     58  F   UNL     1     -50.743  42.578  30.551  1.00  0.00    -0.207 F 
ATOM     59  H   UNL     1     -52.341  40.972  29.257  1.00  0.00     0.068 H 
ENDBRANCH  41  49
BRANCH  45  60
ATOM     60  N   UNL     1     -50.802  45.087  25.148  1.00  0.00    -0.383 N 
ATOM     61  H   UNL     1     -50.947  44.711  26.079  1.00  0.00     0.158 HD
ATOM     62  H   UNL     1     -51.303  45.940  24.939  1.00  0.00     0.158 HD
ENDBRANCH  45  60
ENDBRANCH  30  38
ENDBRANCH   1  26
TORSDOF 9
ENDMDL
MODEL 7
REMARK VINA RESULT:      -8.3      5.215      9.500
REMARK SMILES CNc1ccc2ccc(OC[C@H]3O[C@@H](n4cc(-c5cc(F)cc(F)c5)c5c(N)ncnc54)[C@@H](F)[C@@H]3O)cc2n1
REMARK SMILES IDX 11 1 10 4 9 5 3 6 4 7 39 8 5 9 38 11 6 12 37 14 7 15 8 17
REMARK SMILES IDX 2 20 1 22 12 26 13 27 35 28 14 30 33 31 34 34 36 36 15 38
REMARK SMILES IDX 16 39 32 40 17 41 26 43 31 44 27 45 30 46 29 47 18 49 19 50
REMARK SMILES IDX 25 51 20 52 23 54 21 56 22 57 24 58 28 60
REMARK H PARENT 11 2 11 3 4 10 5 13 37 16 7 18 8 19 2 21 1 23 1 24 1 25 12 29
REMARK H PARENT 35 32 14 33 33 35 36 37 16 42 30 48 19 53 25 55 22 59 28 61
REMARK H PARENT 28 62
REMARK Flexibility Score: inf
ROOT
ATOM      1  C   UNL     1     -46.716  45.153  24.523  1.00  0.00     0.117 C 
ATOM      2  H   UNL     1     -46.984  45.741  23.639  1.00  0.00     0.073 H 
ATOM      3  H   UNL     1     -46.908  45.794  25.390  1.00  0.00     0.073 H 
ENDROOT
BRANCH   1   4
ATOM      4  O   UNL     1     -47.565  44.014  24.701  1.00  0.00    -0.491 OA
BRANCH   4   5
ATOM      5  C   UNL     1     -48.347  43.906  25.814  1.00  0.00     0.121 A 
ATOM      6  C   UNL     1     -49.484  44.524  30.401  1.00  0.00     0.126 A 
ATOM      7  C   UNL     1     -50.692  43.853  30.238  1.00  0.00    -0.019 A 
ATOM      8  N   UNL     1     -48.635  44.717  29.370  1.00  0.00    -0.231 NA
ATOM      9  C   UNL     1     -51.024  43.339  28.991  1.00  0.00    -0.049 A 
ATOM     10  H   UNL     1     -51.374  43.737  31.073  1.00  0.00     0.066 H 
ATOM     11  C   UNL     1     -48.950  44.225  28.155  1.00  0.00     0.076 A 
ATOM     12  C   UNL     1     -50.146  43.516  27.921  1.00  0.00     0.001 A 
ATOM     13  H   UNL     1     -51.964  42.812  28.864  1.00  0.00     0.063 H 
ATOM     14  C   UNL     1     -48.075  44.412  27.087  1.00  0.00     0.007 A 
ATOM     15  C   UNL     1     -50.435  43.011  26.646  1.00  0.00    -0.049 A 
ATOM     16  H   UNL     1     -47.176  44.982  27.291  1.00  0.00     0.069 H 
ATOM     17  C   UNL     1     -49.534  43.207  25.603  1.00  0.00    -0.019 A 
ATOM     18  H   UNL     1     -51.355  42.465  26.459  1.00  0.00     0.063 H 
ATOM     19  H   UNL     1     -49.760  42.811  24.615  1.00  0.00     0.066 H 
BRANCH   6  20
ATOM     20  N   UNL     1     -49.198  45.042  31.679  1.00  0.00    -0.373 N 
ATOM     21  H   UNL     1     -49.990  45.597  31.991  1.00  0.00     0.161 HD
BRANCH  20  22
ATOM     22  C   UNL     1     -48.832  44.038  32.663  1.00  0.00     0.005 C 
ATOM     23  H   UNL     1     -49.290  43.068  32.435  1.00  0.00     0.045 H 
ATOM     24  H   UNL     1     -47.745  43.928  32.735  1.00  0.00     0.045 H 
ATOM     25  H   UNL     1     -49.195  44.352  33.646  1.00  0.00     0.045 H 
ENDBRANCH  20  22
ENDBRANCH   6  20
ENDBRANCH   4   5
ENDBRANCH   1   4
BRANCH   1  26
ATOM     26  C   UNL     1     -45.246  44.731  24.531  1.00  0.00     0.123 C 
ATOM     27  O   UNL     1     -44.811  44.370  25.857  1.00  0.00    -0.345 OA
ATOM     28  C   UNL     1     -44.982  43.498  23.681  1.00  0.00     0.119 C 
ATOM     29  H   UNL     1     -44.627  45.575  24.200  1.00  0.00     0.067 H 
ATOM     30  C   UNL     1     -43.790  43.347  25.724  1.00  0.00     0.169 C 
ATOM     31  C   UNL     1     -43.652  43.038  24.237  1.00  0.00     0.173 C 
ATOM     32  H   UNL     1     -45.749  42.729  23.829  1.00  0.00     0.066 H 
ATOM     33  H   UNL     1     -42.863  43.757  26.138  1.00  0.00     0.088 H 
ATOM     34  F   UNL     1     -43.477  41.725  23.959  1.00  0.00    -0.239 F 
ATOM     35  H   UNL     1     -42.823  43.594  23.787  1.00  0.00     0.074 H 
BRANCH  28  36
ATOM     36  O   UNL     1     -44.917  43.804  22.294  1.00  0.00    -0.387 OA
ATOM     37  H   UNL     1     -45.829  43.764  21.949  1.00  0.00     0.211 HD
ENDBRANCH  28  36
BRANCH  30  38
ATOM     38  N   UNL     1     -44.170  42.197  26.531  1.00  0.00    -0.302 N 
ATOM     39  C   UNL     1     -45.271  41.396  26.360  1.00  0.00     0.017 A 
ATOM     40  C   UNL     1     -43.428  41.737  27.591  1.00  0.00     0.148 A 
ATOM     41  C   UNL     1     -45.241  40.405  27.327  1.00  0.00     0.013 A 
ATOM     42  H   UNL     1     -45.983  41.588  25.569  1.00  0.00     0.083 H 
ATOM     43  C   UNL     1     -44.073  40.627  28.126  1.00  0.00     0.069 A 
ATOM     44  N   UNL     1     -42.279  42.284  28.021  1.00  0.00    -0.218 NA
ATOM     45  C   UNL     1     -43.464  40.043  29.249  1.00  0.00     0.136 A 
ATOM     46  C   UNL     1     -41.785  41.625  29.080  1.00  0.00     0.120 A 
ATOM     47  N   UNL     1     -42.308  40.559  29.712  1.00  0.00    -0.219 NA
ATOM     48  H   UNL     1     -40.849  42.001  29.482  1.00  0.00     0.106 H 
BRANCH  41  49
ATOM     49  C   UNL     1     -46.258  39.371  27.397  1.00  0.00    -0.010 A 
ATOM     50  C   UNL     1     -45.978  38.069  26.967  1.00  0.00    -0.018 A 
ATOM     51  C   UNL     1     -47.538  39.668  27.882  1.00  0.00    -0.018 A 
ATOM     52  C   UNL     1     -46.964  37.088  27.039  1.00  0.00     0.126 A 
ATOM     53  H   UNL     1     -45.001  37.803  26.571  1.00  0.00     0.066 H 
ATOM     54  C   UNL     1     -48.505  38.669  27.947  1.00  0.00     0.126 A 
ATOM     55  H   UNL     1     -47.792  40.671  28.216  1.00  0.00     0.066 H 
ATOM     56  F   UNL     1     -46.687  35.844  26.627  1.00  0.00    -0.207 F 
ATOM     57  C   UNL     1     -48.231  37.375  27.529  1.00  0.00     0.010 A 
ATOM     58  F   UNL     1     -49.721  38.961  28.427  1.00  0.00    -0.207 F 
ATOM     59  H   UNL     1     -48.990  36.604  27.582  1.00  0.00     0.068 H 
ENDBRANCH  41  49
BRANCH  45  60
ATOM     60  N   UNL     1     -43.987  38.966  29.957  1.00  0.00    -0.383 N 
ATOM     61  H   UNL     1     -44.858  38.668  29.531  1.00  0.00     0.158 HD
ATOM     62  H   UNL     1     -43.316  38.231  30.138  1.00  0.00     0.158 HD
ENDBRANCH  45  60
ENDBRANCH  30  38
ENDBRANCH   1  26
TORSDOF 9
ENDMDL
