MODEL 1
REMARK VINA RESULT:      -9.0      0.000      0.000
REMARK SMILES CCc1cc(NCCOC)c2ccc(OCc3cncc(-n4cc([C@@H]5CCCO5)c5c(N)ncnc54)c3)cc2n1
REMARK SMILES IDX 3 1 4 2 5 3 11 4 12 5 13 6 14 7 38 8 39 9 40 10 2 15 1 18
REMARK SMILES IDX 6 22 7 24 8 27 9 30 10 31 15 35 16 36 17 39 18 40 37 41
REMARK SMILES IDX 19 42 21 44 20 46 22 48 23 49 36 50 24 51 30 53 35 54 31 55
REMARK SMILES IDX 34 56 33 57 25 59 26 60 29 61 27 63 28 66 32 71
REMARK H PARENT 4 11 12 12 13 13 38 14 2 16 2 17 1 19 1 20 1 21 6 23 7 25 7 26
REMARK H PARENT 8 28 8 29 10 32 10 33 10 34 16 37 16 38 18 43 37 45 20 47
REMARK H PARENT 23 52 34 58 25 62 26 64 26 65 27 67 27 68 28 69 28 70 32 72
REMARK H PARENT 32 73
REMARK Flexibility Score: inf
ROOT
ATOM      1  C   UNL     1     -46.408  30.786  22.143  1.00  0.00     0.043 A 
ATOM      2  C   UNL     1     -47.332  29.845  22.567  1.00  0.00    -0.017 A 
ATOM      3  C   UNL     1     -47.982  30.022  23.791  1.00  0.00     0.045 A 
ATOM      4  C   UNL     1     -47.668  31.164  24.577  1.00  0.00     0.024 A 
ATOM      5  C   UNL     1     -48.236  31.453  25.842  1.00  0.00    -0.047 A 
ATOM      6  C   UNL     1     -47.935  32.632  26.528  1.00  0.00    -0.019 A 
ATOM      7  C   UNL     1     -47.073  33.553  25.954  1.00  0.00     0.122 A 
ATOM      8  C   UNL     1     -46.460  33.246  24.736  1.00  0.00     0.007 A 
ATOM      9  C   UNL     1     -46.740  32.081  24.037  1.00  0.00     0.076 A 
ATOM     10  N   UNL     1     -46.134  31.902  22.853  1.00  0.00    -0.253 NA
ATOM     11  H   UNL     1     -47.536  28.966  21.964  1.00  0.00     0.066 H 
ATOM     12  H   UNL     1     -48.946  30.773  26.306  1.00  0.00     0.063 H 
ATOM     13  H   UNL     1     -48.418  32.805  27.483  1.00  0.00     0.066 H 
ATOM     14  H   UNL     1     -45.768  33.961  24.296  1.00  0.00     0.069 H 
ENDROOT
BRANCH   1  15
ATOM     15  C   UNL     1     -45.688  30.617  20.831  1.00  0.00    -0.013 C 
ATOM     16  H   UNL     1     -45.953  29.656  20.376  1.00  0.00     0.033 H 
ATOM     17  H   UNL     1     -44.607  30.586  21.019  1.00  0.00     0.033 H 
BRANCH  15  18
ATOM     18  C   UNL     1     -46.003  31.752  19.871  1.00  0.00    -0.060 C 
ATOM     19  H   UNL     1     -46.268  31.373  18.879  1.00  0.00     0.023 H 
ATOM     20  H   UNL     1     -46.840  32.357  20.236  1.00  0.00     0.023 H 
ATOM     21  H   UNL     1     -45.133  32.409  19.763  1.00  0.00     0.023 H 
ENDBRANCH  15  18
ENDBRANCH   1  15
BRANCH   3  22
ATOM     22  N   UNL     1     -48.968  29.079  24.168  1.00  0.00    -0.382 N 
ATOM     23  H   UNL     1     -49.309  28.542  23.373  1.00  0.00     0.160 HD
BRANCH  22  24
ATOM     24  C   UNL     1     -48.546  28.131  25.218  1.00  0.00     0.038 C 
ATOM     25  H   UNL     1     -47.718  27.497  24.882  1.00  0.00     0.051 H 
ATOM     26  H   UNL     1     -48.171  28.734  26.053  1.00  0.00     0.051 H 
BRANCH  24  27
ATOM     27  C   UNL     1     -49.713  27.268  25.722  1.00  0.00     0.063 C 
ATOM     28  H   UNL     1     -49.860  27.405  26.799  1.00  0.00     0.059 H 
ATOM     29  H   UNL     1     -50.633  27.564  25.203  1.00  0.00     0.059 H 
BRANCH  27  30
ATOM     30  O   UNL     1     -49.442  25.888  25.441  1.00  0.00    -0.383 OA
BRANCH  30  31
ATOM     31  C   UNL     1     -48.291  25.434  26.144  1.00  0.00     0.036 C 
ATOM     32  H   UNL     1     -48.621  24.952  27.068  1.00  0.00     0.053 H 
ATOM     33  H   UNL     1     -47.640  26.276  26.400  1.00  0.00     0.053 H 
ATOM     34  H   UNL     1     -47.744  24.701  25.545  1.00  0.00     0.053 H 
ENDBRANCH  30  31
ENDBRANCH  27  30
ENDBRANCH  24  27
ENDBRANCH  22  24
ENDBRANCH   3  22
BRANCH   7  35
ATOM     35  O   UNL     1     -46.798  34.805  26.433  1.00  0.00    -0.489 OA
BRANCH  35  36
ATOM     36  C   UNL     1     -47.533  35.289  27.568  1.00  0.00     0.115 C 
ATOM     37  H   UNL     1     -47.033  34.874  28.450  1.00  0.00     0.076 H 
ATOM     38  H   UNL     1     -48.545  34.865  27.554  1.00  0.00     0.076 H 
BRANCH  36  39
ATOM     39  C   UNL     1     -47.573  36.791  27.735  1.00  0.00     0.010 A 
ATOM     40  C   UNL     1     -48.790  37.430  27.932  1.00  0.00     0.034 A 
ATOM     41  C   UNL     1     -46.431  37.602  27.684  1.00  0.00    -0.028 A 
ATOM     42  N   UNL     1     -48.929  38.769  28.037  1.00  0.00    -0.262 NA
ATOM     43  H   UNL     1     -49.720  36.872  28.005  1.00  0.00     0.084 H 
ATOM     44  C   UNL     1     -46.538  38.998  27.719  1.00  0.00     0.066 A 
ATOM     45  H   UNL     1     -45.465  37.116  27.597  1.00  0.00     0.065 H 
ATOM     46  C   UNL     1     -47.806  39.524  27.919  1.00  0.00     0.051 A 
ATOM     47  H   UNL     1     -48.012  40.587  27.965  1.00  0.00     0.086 H 
BRANCH  44  48
ATOM     48  N   UNL     1     -45.394  39.824  27.488  1.00  0.00    -0.299 N 
ATOM     49  C   UNL     1     -45.244  40.678  26.404  1.00  0.00     0.018 A 
ATOM     50  C   UNL     1     -44.274  39.991  28.299  1.00  0.00     0.150 A 
ATOM     51  C   UNL     1     -44.060  41.386  26.504  1.00  0.00     0.012 A 
ATOM     52  H   UNL     1     -46.011  40.760  25.648  1.00  0.00     0.083 H 
ATOM     53  C   UNL     1     -43.442  40.945  27.717  1.00  0.00     0.067 A 
ATOM     54  N   UNL     1     -44.016  39.342  29.452  1.00  0.00    -0.218 NA
ATOM     55  C   UNL     1     -42.256  41.257  28.405  1.00  0.00     0.136 A 
ATOM     56  C   UNL     1     -42.856  39.717  30.009  1.00  0.00     0.120 A 
ATOM     57  N   UNL     1     -41.978  40.624  29.558  1.00  0.00    -0.219 NA
ATOM     58  H   UNL     1     -42.595  39.226  30.942  1.00  0.00     0.106 H 
BRANCH  51  59
ATOM     59  C   UNL     1     -43.540  42.440  25.572  1.00  0.00     0.085 C 
ATOM     60  C   UNL     1     -43.820  43.882  25.986  1.00  0.00    -0.020 C 
ATOM     61  O   UNL     1     -44.095  42.298  24.243  1.00  0.00    -0.373 OA
ATOM     62  H   UNL     1     -42.455  42.302  25.469  1.00  0.00     0.066 H 
ATOM     63  C   UNL     1     -43.777  44.602  24.662  1.00  0.00    -0.027 C 
ATOM     64  H   UNL     1     -44.821  43.991  26.418  1.00  0.00     0.030 H 
ATOM     65  H   UNL     1     -43.095  44.262  26.713  1.00  0.00     0.030 H 
ATOM     66  C   UNL     1     -44.449  43.599  23.753  1.00  0.00     0.048 C 
ATOM     67  H   UNL     1     -42.736  44.753  24.354  1.00  0.00     0.029 H 
ATOM     68  H   UNL     1     -44.279  45.573  24.673  1.00  0.00     0.029 H 
ATOM     69  H   UNL     1     -45.540  43.688  23.799  1.00  0.00     0.057 H 
ATOM     70  H   UNL     1     -44.135  43.698  22.711  1.00  0.00     0.057 H 
ENDBRANCH  51  59
BRANCH  55  71
ATOM     71  N   UNL     1     -41.327  42.186  27.952  1.00  0.00    -0.383 N 
ATOM     72  H   UNL     1     -40.629  41.765  27.336  1.00  0.00     0.158 HD
ATOM     73  H   UNL     1     -40.952  42.710  28.733  1.00  0.00     0.158 HD
ENDBRANCH  55  71
ENDBRANCH  44  48
ENDBRANCH  36  39
ENDBRANCH  35  36
ENDBRANCH   7  35
TORSDOF 13
ENDMDL
MODEL 2
REMARK VINA RESULT:      -8.8      2.147     12.517
REMARK SMILES CCc1cc(NCCOC)c2ccc(OCc3cncc(-n4cc([C@@H]5CCCO5)c5c(N)ncnc54)c3)cc2n1
REMARK SMILES IDX 3 1 4 2 5 3 11 4 12 5 13 6 14 7 38 8 39 9 40 10 2 15 1 18
REMARK SMILES IDX 6 22 7 24 8 27 9 30 10 31 15 35 16 36 17 39 18 40 37 41
REMARK SMILES IDX 19 42 21 44 20 46 22 48 23 49 36 50 24 51 30 53 35 54 31 55
REMARK SMILES IDX 34 56 33 57 25 59 26 60 29 61 27 63 28 66 32 71
REMARK H PARENT 4 11 12 12 13 13 38 14 2 16 2 17 1 19 1 20 1 21 6 23 7 25 7 26
REMARK H PARENT 8 28 8 29 10 32 10 33 10 34 16 37 16 38 18 43 37 45 20 47
REMARK H PARENT 23 52 34 58 25 62 26 64 26 65 27 67 27 68 28 69 28 70 32 72
REMARK H PARENT 32 73
REMARK Flexibility Score: inf
ROOT
ATOM      1  C   UNL     1     -43.118  41.441  28.139  1.00  0.00     0.043 A 
ATOM      2  C   UNL     1     -43.764  42.197  27.174  1.00  0.00    -0.017 A 
ATOM      3  C   UNL     1     -44.836  41.643  26.470  1.00  0.00     0.045 A 
ATOM      4  C   UNL     1     -45.231  40.309  26.758  1.00  0.00     0.024 A 
ATOM      5  C   UNL     1     -46.286  39.622  26.107  1.00  0.00    -0.047 A 
ATOM      6  C   UNL     1     -46.668  38.335  26.491  1.00  0.00    -0.019 A 
ATOM      7  C   UNL     1     -46.014  37.715  27.545  1.00  0.00     0.122 A 
ATOM      8  C   UNL     1     -44.933  38.361  28.149  1.00  0.00     0.007 A 
ATOM      9  C   UNL     1     -44.532  39.638  27.785  1.00  0.00     0.076 A 
ATOM     10  N   UNL     1     -43.512  40.189  28.460  1.00  0.00    -0.253 NA
ATOM     11  H   UNL     1     -43.427  43.204  26.950  1.00  0.00     0.066 H 
ATOM     12  H   UNL     1     -46.846  40.090  25.302  1.00  0.00     0.063 H 
ATOM     13  H   UNL     1     -47.495  37.868  25.967  1.00  0.00     0.066 H 
ATOM     14  H   UNL     1     -44.408  37.866  28.964  1.00  0.00     0.069 H 
ENDROOT
BRANCH   1  15
ATOM     15  C   UNL     1     -41.955  42.010  28.907  1.00  0.00    -0.013 C 
ATOM     16  H   UNL     1     -42.208  43.003  29.295  1.00  0.00     0.033 H 
ATOM     17  H   UNL     1     -41.109  42.149  28.222  1.00  0.00     0.033 H 
BRANCH  15  18
ATOM     18  C   UNL     1     -41.539  41.096  30.047  1.00  0.00    -0.060 C 
ATOM     19  H   UNL     1     -42.387  40.859  30.698  1.00  0.00     0.023 H 
ATOM     20  H   UNL     1     -41.131  40.152  29.668  1.00  0.00     0.023 H 
ATOM     21  H   UNL     1     -40.767  41.577  30.657  1.00  0.00     0.023 H 
ENDBRANCH  15  18
ENDBRANCH   1  15
BRANCH   3  22
ATOM     22  N   UNL     1     -45.519  42.460  25.537  1.00  0.00    -0.382 N 
ATOM     23  H   UNL     1     -46.160  41.924  24.955  1.00  0.00     0.160 HD
BRANCH  22  24
ATOM     24  C   UNL     1     -46.267  43.584  26.133  1.00  0.00     0.038 C 
ATOM     25  H   UNL     1     -45.908  43.821  27.140  1.00  0.00     0.051 H 
ATOM     26  H   UNL     1     -46.068  44.461  25.506  1.00  0.00     0.051 H 
BRANCH  24  27
ATOM     27  C   UNL     1     -47.782  43.327  26.149  1.00  0.00     0.063 C 
ATOM     28  H   UNL     1     -48.014  42.346  25.719  1.00  0.00     0.059 H 
ATOM     29  H   UNL     1     -48.143  43.349  27.185  1.00  0.00     0.059 H 
BRANCH  27  30
ATOM     30  O   UNL     1     -48.448  44.353  25.401  1.00  0.00    -0.383 OA
BRANCH  30  31
ATOM     31  C   UNL     1     -47.611  45.491  25.226  1.00  0.00     0.036 C 
ATOM     32  H   UNL     1     -48.074  46.340  25.736  1.00  0.00     0.053 H 
ATOM     33  H   UNL     1     -47.507  45.732  24.164  1.00  0.00     0.053 H 
ATOM     34  H   UNL     1     -46.628  45.312  25.671  1.00  0.00     0.053 H 
ENDBRANCH  30  31
ENDBRANCH  27  30
ENDBRANCH  24  27
ENDBRANCH  22  24
ENDBRANCH   3  22
BRANCH   7  35
ATOM     35  O   UNL     1     -46.368  36.526  28.124  1.00  0.00    -0.489 OA
BRANCH  35  36
ATOM     36  C   UNL     1     -46.150  35.309  27.395  1.00  0.00     0.115 C 
ATOM     37  H   UNL     1     -45.636  34.631  28.085  1.00  0.00     0.076 H 
ATOM     38  H   UNL     1     -45.455  35.499  26.568  1.00  0.00     0.076 H 
BRANCH  36  39
ATOM     39  C   UNL     1     -47.395  34.602  26.908  1.00  0.00     0.010 A 
ATOM     40  C   UNL     1     -48.633  35.218  27.038  1.00  0.00     0.034 A 
ATOM     41  C   UNL     1     -47.380  33.323  26.336  1.00  0.00    -0.028 A 
ATOM     42  N   UNL     1     -49.801  34.643  26.682  1.00  0.00    -0.262 NA
ATOM     43  H   UNL     1     -48.729  36.218  27.452  1.00  0.00     0.084 H 
ATOM     44  C   UNL     1     -48.573  32.663  26.016  1.00  0.00     0.066 A 
ATOM     45  H   UNL     1     -46.417  32.852  26.165  1.00  0.00     0.065 H 
ATOM     46  C   UNL     1     -49.750  33.379  26.190  1.00  0.00     0.051 A 
ATOM     47  H   UNL     1     -50.732  32.974  25.977  1.00  0.00     0.086 H 
BRANCH  44  48
ATOM     48  N   UNL     1     -48.563  31.295  25.601  1.00  0.00    -0.299 N 
ATOM     49  C   UNL     1     -48.488  30.210  26.463  1.00  0.00     0.018 A 
ATOM     50  C   UNL     1     -48.692  30.785  24.312  1.00  0.00     0.150 A 
ATOM     51  C   UNL     1     -48.567  29.022  25.757  1.00  0.00     0.012 A 
ATOM     52  H   UNL     1     -48.423  30.349  27.533  1.00  0.00     0.083 H 
ATOM     53  C   UNL     1     -48.699  29.394  24.382  1.00  0.00     0.067 A 
ATOM     54  N   UNL     1     -48.788  31.501  23.173  1.00  0.00    -0.218 NA
ATOM     55  C   UNL     1     -48.834  28.698  23.168  1.00  0.00     0.136 A 
ATOM     56  C   UNL     1     -48.903  30.729  22.084  1.00  0.00     0.120 A 
ATOM     57  N   UNL     1     -48.932  29.390  22.019  1.00  0.00    -0.219 NA
ATOM     58  H   UNL     1     -48.983  31.252  21.135  1.00  0.00     0.106 H 
BRANCH  51  59
ATOM     59  C   UNL     1     -48.570  27.627  26.307  1.00  0.00     0.085 C 
ATOM     60  C   UNL     1     -47.495  26.698  25.752  1.00  0.00    -0.020 C 
ATOM     61  O   UNL     1     -49.831  26.959  26.063  1.00  0.00    -0.373 OA
ATOM     62  H   UNL     1     -48.461  27.689  27.399  1.00  0.00     0.066 H 
ATOM     63  C   UNL     1     -48.113  25.340  25.967  1.00  0.00    -0.027 C 
ATOM     64  H   UNL     1     -47.342  26.854  24.677  1.00  0.00     0.030 H 
ATOM     65  H   UNL     1     -46.529  26.821  26.252  1.00  0.00     0.030 H 
ATOM     66  C   UNL     1     -49.563  25.614  25.641  1.00  0.00     0.048 C 
ATOM     67  H   UNL     1     -48.010  25.046  27.017  1.00  0.00     0.029 H 
ATOM     68  H   UNL     1     -47.676  24.554  25.344  1.00  0.00     0.029 H 
ATOM     69  H   UNL     1     -49.746  25.559  24.562  1.00  0.00     0.057 H 
ATOM     70  H   UNL     1     -50.245  24.927  26.146  1.00  0.00     0.057 H 
ENDBRANCH  51  59
BRANCH  55  71
ATOM     71  N   UNL     1     -48.857  27.311  23.075  1.00  0.00    -0.383 N 
ATOM     72  H   UNL     1     -49.705  26.911  23.481  1.00  0.00     0.158 HD
ATOM     73  H   UNL     1     -47.988  26.926  23.426  1.00  0.00     0.158 HD
ENDBRANCH  55  71
ENDBRANCH  44  48
ENDBRANCH  36  39
ENDBRANCH  35  36
ENDBRANCH   7  35
TORSDOF 13
ENDMDL
MODEL 3
REMARK VINA RESULT:      -8.8      2.002     12.404
REMARK SMILES CCc1cc(NCCOC)c2ccc(OCc3cncc(-n4cc([C@@H]5CCCO5)c5c(N)ncnc54)c3)cc2n1
REMARK SMILES IDX 3 1 4 2 5 3 11 4 12 5 13 6 14 7 38 8 39 9 40 10 2 15 1 18
REMARK SMILES IDX 6 22 7 24 8 27 9 30 10 31 15 35 16 36 17 39 18 40 37 41
REMARK SMILES IDX 19 42 21 44 20 46 22 48 23 49 36 50 24 51 30 53 35 54 31 55
REMARK SMILES IDX 34 56 33 57 25 59 26 60 29 61 27 63 28 66 32 71
REMARK H PARENT 4 11 12 12 13 13 38 14 2 16 2 17 1 19 1 20 1 21 6 23 7 25 7 26
REMARK H PARENT 8 28 8 29 10 32 10 33 10 34 16 37 16 38 18 43 37 45 20 47
REMARK H PARENT 23 52 34 58 25 62 26 64 26 65 27 67 27 68 28 69 28 70 32 72
REMARK H PARENT 32 73
REMARK Flexibility Score: inf
ROOT
ATOM      1  C   UNL     1     -46.009  40.619  26.847  1.00  0.00     0.043 A 
ATOM      2  C   UNL     1     -44.798  40.616  27.520  1.00  0.00    -0.017 A 
ATOM      3  C   UNL     1     -44.477  39.543  28.355  1.00  0.00     0.045 A 
ATOM      4  C   UNL     1     -45.411  38.482  28.498  1.00  0.00     0.024 A 
ATOM      5  C   UNL     1     -45.220  37.346  29.325  1.00  0.00    -0.047 A 
ATOM      6  C   UNL     1     -46.149  36.305  29.363  1.00  0.00    -0.019 A 
ATOM      7  C   UNL     1     -47.280  36.369  28.563  1.00  0.00     0.122 A 
ATOM      8  C   UNL     1     -47.505  37.513  27.793  1.00  0.00     0.007 A 
ATOM      9  C   UNL     1     -46.599  38.562  27.740  1.00  0.00     0.076 A 
ATOM     10  N   UNL     1     -46.887  39.596  26.934  1.00  0.00    -0.253 NA
ATOM     11  H   UNL     1     -44.112  41.451  27.417  1.00  0.00     0.066 H 
ATOM     12  H   UNL     1     -44.329  37.243  29.938  1.00  0.00     0.063 H 
ATOM     13  H   UNL     1     -45.938  35.453  30.001  1.00  0.00     0.066 H 
ATOM     14  H   UNL     1     -48.402  37.571  27.180  1.00  0.00     0.069 H 
ENDROOT
BRANCH   1  15
ATOM     15  C   UNL     1     -46.384  41.767  25.947  1.00  0.00    -0.013 C 
ATOM     16  H   UNL     1     -47.152  42.386  26.425  1.00  0.00     0.033 H 
ATOM     17  H   UNL     1     -46.833  41.367  25.028  1.00  0.00     0.033 H 
BRANCH  15  18
ATOM     18  C   UNL     1     -45.175  42.616  25.593  1.00  0.00    -0.060 C 
ATOM     19  H   UNL     1     -44.256  42.020  25.593  1.00  0.00     0.023 H 
ATOM     20  H   UNL     1     -45.285  43.065  24.600  1.00  0.00     0.023 H 
ATOM     21  H   UNL     1     -45.055  43.426  26.319  1.00  0.00     0.023 H 
ENDBRANCH  15  18
ENDBRANCH   1  15
BRANCH   3  22
ATOM     22  N   UNL     1     -43.206  39.536  28.978  1.00  0.00    -0.382 N 
ATOM     23  H   UNL     1     -42.466  39.259  28.336  1.00  0.00     0.160 HD
BRANCH  22  24
ATOM     24  C   UNL     1     -42.819  40.816  29.603  1.00  0.00     0.038 C 
ATOM     25  H   UNL     1     -43.654  41.524  29.628  1.00  0.00     0.051 H 
ATOM     26  H   UNL     1     -42.557  40.590  30.644  1.00  0.00     0.051 H 
BRANCH  24  27
ATOM     27  C   UNL     1     -41.598  41.448  28.918  1.00  0.00     0.063 C 
ATOM     28  H   UNL     1     -41.023  42.053  29.628  1.00  0.00     0.059 H 
ATOM     29  H   UNL     1     -40.948  40.654  28.530  1.00  0.00     0.059 H 
BRANCH  27  30
ATOM     30  O   UNL     1     -42.035  42.268  27.826  1.00  0.00    -0.383 OA
BRANCH  30  31
ATOM     31  C   UNL     1     -41.420  41.875  26.605  1.00  0.00     0.036 C 
ATOM     32  H   UNL     1     -41.568  40.800  26.476  1.00  0.00     0.053 H 
ATOM     33  H   UNL     1     -40.345  42.082  26.631  1.00  0.00     0.053 H 
ATOM     34  H   UNL     1     -41.884  42.394  25.761  1.00  0.00     0.053 H 
ENDBRANCH  30  31
ENDBRANCH  27  30
ENDBRANCH  24  27
ENDBRANCH  22  24
ENDBRANCH   3  22
BRANCH   7  35
ATOM     35  O   UNL     1     -48.197  35.369  28.385  1.00  0.00    -0.489 OA
BRANCH  35  36
ATOM     36  C   UNL     1     -48.717  35.133  27.068  1.00  0.00     0.115 C 
ATOM     37  H   UNL     1     -48.601  36.076  26.523  1.00  0.00     0.076 H 
ATOM     38  H   UNL     1     -49.796  34.940  27.132  1.00  0.00     0.076 H 
BRANCH  36  39
ATOM     39  C   UNL     1     -48.018  34.058  26.267  1.00  0.00     0.010 A 
ATOM     40  C   UNL     1     -46.709  34.254  25.846  1.00  0.00     0.034 A 
ATOM     41  C   UNL     1     -48.628  32.852  25.900  1.00  0.00    -0.028 A 
ATOM     42  N   UNL     1     -46.024  33.377  25.083  1.00  0.00    -0.262 NA
ATOM     43  H   UNL     1     -46.157  35.154  26.106  1.00  0.00     0.084 H 
ATOM     44  C   UNL     1     -47.978  31.945  25.053  1.00  0.00     0.066 A 
ATOM     45  H   UNL     1     -49.626  32.650  26.275  1.00  0.00     0.065 H 
ATOM     46  C   UNL     1     -46.672  32.248  24.695  1.00  0.00     0.051 A 
ATOM     47  H   UNL     1     -46.070  31.624  24.046  1.00  0.00     0.086 H 
BRANCH  44  48
ATOM     48  N   UNL     1     -48.669  30.804  24.537  1.00  0.00    -0.299 N 
ATOM     49  C   UNL     1     -48.545  29.515  25.036  1.00  0.00     0.018 A 
ATOM     50  C   UNL     1     -49.618  30.759  23.519  1.00  0.00     0.150 A 
ATOM     51  C   UNL     1     -49.393  28.651  24.365  1.00  0.00     0.012 A 
ATOM     52  H   UNL     1     -47.891  29.298  25.868  1.00  0.00     0.083 H 
ATOM     53  C   UNL     1     -50.078  29.450  23.397  1.00  0.00     0.067 A 
ATOM     54  N   UNL     1     -50.031  31.797  22.763  1.00  0.00    -0.218 NA
ATOM     55  C   UNL     1     -51.059  29.211  22.418  1.00  0.00     0.136 A 
ATOM     56  C   UNL     1     -50.959  31.445  21.862  1.00  0.00     0.120 A 
ATOM     57  N   UNL     1     -51.487  30.230  21.652  1.00  0.00    -0.219 NA
ATOM     58  H   UNL     1     -51.329  32.240  21.223  1.00  0.00     0.106 H 
BRANCH  51  59
ATOM     59  C   UNL     1     -49.602  27.188  24.621  1.00  0.00     0.085 C 
ATOM     60  C   UNL     1     -50.641  26.848  25.686  1.00  0.00    -0.020 C 
ATOM     61  O   UNL     1     -48.379  26.540  25.045  1.00  0.00    -0.373 OA
ATOM     62  H   UNL     1     -49.891  26.712  23.675  1.00  0.00     0.066 H 
ATOM     63  C   UNL     1     -50.185  25.486  26.144  1.00  0.00    -0.027 C 
ATOM     64  H   UNL     1     -50.594  27.543  26.533  1.00  0.00     0.030 H 
ATOM     65  H   UNL     1     -51.663  26.858  25.298  1.00  0.00     0.030 H 
ATOM     66  C   UNL     1     -48.683  25.650  26.128  1.00  0.00     0.048 C 
ATOM     67  H   UNL     1     -50.491  24.727  25.415  1.00  0.00     0.029 H 
ATOM     68  H   UNL     1     -50.573  25.199  27.125  1.00  0.00     0.029 H 
ATOM     69  H   UNL     1     -48.323  26.114  27.053  1.00  0.00     0.057 H 
ATOM     70  H   UNL     1     -48.158  24.702  25.985  1.00  0.00     0.057 H 
ENDBRANCH  51  59
BRANCH  55  71
ATOM     71  N   UNL     1     -51.614  27.961  22.176  1.00  0.00    -0.383 N 
ATOM     72  H   UNL     1     -51.252  27.248  22.811  1.00  0.00     0.158 HD
ATOM     73  H   UNL     1     -51.544  27.735  21.191  1.00  0.00     0.158 HD
ENDBRANCH  55  71
ENDBRANCH  44  48
ENDBRANCH  36  39
ENDBRANCH  35  36
ENDBRANCH   7  35
TORSDOF 13
ENDMDL
MODEL 4
REMARK VINA RESULT:      -8.7      2.081      3.142
REMARK SMILES CCc1cc(NCCOC)c2ccc(OCc3cncc(-n4cc([C@@H]5CCCO5)c5c(N)ncnc54)c3)cc2n1
REMARK SMILES IDX 3 1 4 2 5 3 11 4 12 5 13 6 14 7 38 8 39 9 40 10 2 15 1 18
REMARK SMILES IDX 6 22 7 24 8 27 9 30 10 31 15 35 16 36 17 39 18 40 37 41
REMARK SMILES IDX 19 42 21 44 20 46 22 48 23 49 36 50 24 51 30 53 35 54 31 55
REMARK SMILES IDX 34 56 33 57 25 59 26 60 29 61 27 63 28 66 32 71
REMARK H PARENT 4 11 12 12 13 13 38 14 2 16 2 17 1 19 1 20 1 21 6 23 7 25 7 26
REMARK H PARENT 8 28 8 29 10 32 10 33 10 34 16 37 16 38 18 43 37 45 20 47
REMARK H PARENT 23 52 34 58 25 62 26 64 26 65 27 67 27 68 28 69 28 70 32 72
REMARK H PARENT 32 73
REMARK Flexibility Score: inf
ROOT
ATOM      1  C   UNL     1     -46.303  30.168  23.087  1.00  0.00     0.043 A 
ATOM      2  C   UNL     1     -47.422  29.471  23.515  1.00  0.00    -0.017 A 
ATOM      3  C   UNL     1     -48.277  30.052  24.456  1.00  0.00     0.045 A 
ATOM      4  C   UNL     1     -47.967  31.346  24.957  1.00  0.00     0.024 A 
ATOM      5  C   UNL     1     -48.736  32.040  25.925  1.00  0.00    -0.047 A 
ATOM      6  C   UNL     1     -48.413  33.339  26.321  1.00  0.00    -0.019 A 
ATOM      7  C   UNL     1     -47.326  33.978  25.744  1.00  0.00     0.122 A 
ATOM      8  C   UNL     1     -46.528  33.277  24.836  1.00  0.00     0.007 A 
ATOM      9  C   UNL     1     -46.825  31.985  24.429  1.00  0.00     0.076 A 
ATOM     10  N   UNL     1     -46.021  31.417  23.517  1.00  0.00    -0.253 NA
ATOM     11  H   UNL     1     -47.624  28.473  23.139  1.00  0.00     0.066 H 
ATOM     12  H   UNL     1     -49.616  31.586  26.371  1.00  0.00     0.063 H 
ATOM     13  H   UNL     1     -49.051  33.825  27.051  1.00  0.00     0.066 H 
ATOM     14  H   UNL     1     -45.663  33.772  24.399  1.00  0.00     0.069 H 
ENDROOT
BRANCH   1  15
ATOM     15  C   UNL     1     -45.362  29.562  22.080  1.00  0.00    -0.013 C 
ATOM     16  H   UNL     1     -44.666  30.323  21.709  1.00  0.00     0.033 H 
ATOM     17  H   UNL     1     -45.940  29.217  21.214  1.00  0.00     0.033 H 
BRANCH  15  18
ATOM     18  C   UNL     1     -44.590  28.394  22.671  1.00  0.00    -0.060 C 
ATOM     19  H   UNL     1     -45.147  27.457  22.570  1.00  0.00     0.023 H 
ATOM     20  H   UNL     1     -43.623  28.267  22.172  1.00  0.00     0.023 H 
ATOM     21  H   UNL     1     -44.401  28.564  23.736  1.00  0.00     0.023 H 
ENDBRANCH  15  18
ENDBRANCH   1  15
BRANCH   3  22
ATOM     22  N   UNL     1     -49.447  29.346  24.825  1.00  0.00    -0.382 N 
ATOM     23  H   UNL     1     -50.224  29.972  25.028  1.00  0.00     0.160 HD
BRANCH  22  24
ATOM     24  C   UNL     1     -49.903  28.350  23.836  1.00  0.00     0.038 C 
ATOM     25  H   UNL     1     -50.275  28.826  22.923  1.00  0.00     0.051 H 
ATOM     26  H   UNL     1     -49.023  27.760  23.555  1.00  0.00     0.051 H 
BRANCH  24  27
ATOM     27  C   UNL     1     -50.963  27.402  24.418  1.00  0.00     0.063 C 
ATOM     28  H   UNL     1     -50.618  26.965  25.361  1.00  0.00     0.059 H 
ATOM     29  H   UNL     1     -51.886  27.963  24.610  1.00  0.00     0.059 H 
BRANCH  27  30
ATOM     30  O   UNL     1     -51.239  26.358  23.474  1.00  0.00    -0.383 OA
BRANCH  30  31
ATOM     31  C   UNL     1     -51.814  26.880  22.281  1.00  0.00     0.036 C 
ATOM     32  H   UNL     1     -51.216  27.735  21.956  1.00  0.00     0.053 H 
ATOM     33  H   UNL     1     -52.840  27.216  22.464  1.00  0.00     0.053 H 
ATOM     34  H   UNL     1     -51.800  26.124  21.490  1.00  0.00     0.053 H 
ENDBRANCH  30  31
ENDBRANCH  27  30
ENDBRANCH  24  27
ENDBRANCH  22  24
ENDBRANCH   3  22
BRANCH   7  35
ATOM     35  O   UNL     1     -46.976  35.289  25.921  1.00  0.00    -0.489 OA
BRANCH  35  36
ATOM     36  C   UNL     1     -47.376  35.956  27.128  1.00  0.00     0.115 C 
ATOM     37  H   UNL     1     -47.381  35.188  27.909  1.00  0.00     0.076 H 
ATOM     38  H   UNL     1     -48.412  36.304  27.025  1.00  0.00     0.076 H 
BRANCH  36  39
ATOM     39  C   UNL     1     -46.470  37.072  27.595  1.00  0.00     0.010 A 
ATOM     40  C   UNL     1     -45.710  36.908  28.745  1.00  0.00     0.034 A 
ATOM     41  C   UNL     1     -46.359  38.301  26.931  1.00  0.00    -0.028 A 
ATOM     42  N   UNL     1     -44.916  37.867  29.267  1.00  0.00    -0.262 NA
ATOM     43  H   UNL     1     -45.724  35.978  29.307  1.00  0.00     0.084 H 
ATOM     44  C   UNL     1     -45.600  39.346  27.474  1.00  0.00     0.066 A 
ATOM     45  H   UNL     1     -46.892  38.426  25.994  1.00  0.00     0.065 H 
ATOM     46  C   UNL     1     -44.884  39.065  28.629  1.00  0.00     0.051 A 
ATOM     47  H   UNL     1     -44.263  39.792  29.139  1.00  0.00     0.086 H 
BRANCH  44  48
ATOM     48  N   UNL     1     -45.631  40.652  26.891  1.00  0.00    -0.299 N 
ATOM     49  C   UNL     1     -44.541  41.280  26.306  1.00  0.00     0.018 A 
ATOM     50  C   UNL     1     -46.726  41.497  26.730  1.00  0.00     0.150 A 
ATOM     51  C   UNL     1     -44.913  42.503  25.775  1.00  0.00     0.012 A 
ATOM     52  H   UNL     1     -43.574  40.800  26.266  1.00  0.00     0.083 H 
ATOM     53  C   UNL     1     -46.311  42.638  26.048  1.00  0.00     0.067 A 
ATOM     54  N   UNL     1     -47.983  41.270  27.163  1.00  0.00    -0.218 NA
ATOM     55  C   UNL     1     -47.291  43.610  25.782  1.00  0.00     0.136 A 
ATOM     56  C   UNL     1     -48.824  42.269  26.859  1.00  0.00     0.120 A 
ATOM     57  N   UNL     1     -48.552  43.407  26.202  1.00  0.00    -0.219 NA
ATOM     58  H   UNL     1     -49.852  42.142  27.184  1.00  0.00     0.106 H 
BRANCH  51  59
ATOM     59  C   UNL     1     -44.055  43.475  25.022  1.00  0.00     0.085 C 
ATOM     60  C   UNL     1     -43.923  43.213  23.524  1.00  0.00    -0.020 C 
ATOM     61  O   UNL     1     -42.702  43.504  25.536  1.00  0.00    -0.373 OA
ATOM     62  H   UNL     1     -44.464  44.483  25.174  1.00  0.00     0.066 H 
ATOM     63  C   UNL     1     -42.607  43.877  23.205  1.00  0.00    -0.027 C 
ATOM     64  H   UNL     1     -43.842  42.142  23.307  1.00  0.00     0.030 H 
ATOM     65  H   UNL     1     -44.763  43.613  22.949  1.00  0.00     0.030 H 
ATOM     66  C   UNL     1     -41.791  43.531  24.428  1.00  0.00     0.048 C 
ATOM     67  H   UNL     1     -42.745  44.962  23.137  1.00  0.00     0.029 H 
ATOM     68  H   UNL     1     -42.152  43.528  22.274  1.00  0.00     0.029 H 
ATOM     69  H   UNL     1     -41.343  42.535  24.339  1.00  0.00     0.057 H 
ATOM     70  H   UNL     1     -40.996  44.255  24.623  1.00  0.00     0.057 H 
ENDBRANCH  51  59
BRANCH  55  71
ATOM     71  N   UNL     1     -47.032  44.800  25.113  1.00  0.00    -0.383 N 
ATOM     72  H   UNL     1     -46.843  45.571  25.756  1.00  0.00     0.158 HD
ATOM     73  H   UNL     1     -47.755  44.978  24.427  1.00  0.00     0.158 HD
ENDBRANCH  55  71
ENDBRANCH  44  48
ENDBRANCH  36  39
ENDBRANCH  35  36
ENDBRANCH   7  35
TORSDOF 13
ENDMDL
MODEL 5
REMARK VINA RESULT:      -8.7      1.978      3.428
REMARK SMILES CCc1cc(NCCOC)c2ccc(OCc3cncc(-n4cc([C@@H]5CCCO5)c5c(N)ncnc54)c3)cc2n1
REMARK SMILES IDX 3 1 4 2 5 3 11 4 12 5 13 6 14 7 38 8 39 9 40 10 2 15 1 18
REMARK SMILES IDX 6 22 7 24 8 27 9 30 10 31 15 35 16 36 17 39 18 40 37 41
REMARK SMILES IDX 19 42 21 44 20 46 22 48 23 49 36 50 24 51 30 53 35 54 31 55
REMARK SMILES IDX 34 56 33 57 25 59 26 60 29 61 27 63 28 66 32 71
REMARK H PARENT 4 11 12 12 13 13 38 14 2 16 2 17 1 19 1 20 1 21 6 23 7 25 7 26
REMARK H PARENT 8 28 8 29 10 32 10 33 10 34 16 37 16 38 18 43 37 45 20 47
REMARK H PARENT 23 52 34 58 25 62 26 64 26 65 27 67 27 68 28 69 28 70 32 72
REMARK H PARENT 32 73
REMARK Flexibility Score: inf
ROOT
ATOM      1  C   UNL     1     -48.749  28.933  25.149  1.00  0.00     0.043 A 
ATOM      2  C   UNL     1     -48.402  28.878  23.809  1.00  0.00    -0.017 A 
ATOM      3  C   UNL     1     -47.676  29.928  23.241  1.00  0.00     0.045 A 
ATOM      4  C   UNL     1     -47.321  31.036  24.057  1.00  0.00     0.024 A 
ATOM      5  C   UNL     1     -46.606  32.173  23.605  1.00  0.00    -0.047 A 
ATOM      6  C   UNL     1     -46.227  33.194  24.479  1.00  0.00    -0.019 A 
ATOM      7  C   UNL     1     -46.540  33.091  25.826  1.00  0.00     0.122 A 
ATOM      8  C   UNL     1     -47.299  32.004  26.267  1.00  0.00     0.007 A 
ATOM      9  C   UNL     1     -47.690  30.978  25.418  1.00  0.00     0.076 A 
ATOM     10  N   UNL     1     -48.377  29.956  25.950  1.00  0.00    -0.253 NA
ATOM     11  H   UNL     1     -48.708  28.034  23.198  1.00  0.00     0.066 H 
ATOM     12  H   UNL     1     -46.309  32.271  22.564  1.00  0.00     0.063 H 
ATOM     13  H   UNL     1     -45.664  34.030  24.077  1.00  0.00     0.066 H 
ATOM     14  H   UNL     1     -47.561  31.933  27.320  1.00  0.00     0.069 H 
ENDROOT
BRANCH   1  15
ATOM     15  C   UNL     1     -49.537  27.818  25.784  1.00  0.00    -0.013 C 
ATOM     16  H   UNL     1     -49.911  27.134  25.014  1.00  0.00     0.033 H 
ATOM     17  H   UNL     1     -50.420  28.243  26.280  1.00  0.00     0.033 H 
BRANCH  15  18
ATOM     18  C   UNL     1     -48.704  27.055  26.801  1.00  0.00    -0.060 C 
ATOM     19  H   UNL     1     -49.191  27.037  27.781  1.00  0.00     0.023 H 
ATOM     20  H   UNL     1     -48.545  26.019  26.483  1.00  0.00     0.023 H 
ATOM     21  H   UNL     1     -47.722  27.527  26.917  1.00  0.00     0.023 H 
ENDBRANCH  15  18
ENDBRANCH   1  15
BRANCH   3  22
ATOM     22  N   UNL     1     -47.279  29.814  21.887  1.00  0.00    -0.382 N 
ATOM     23  H   UNL     1     -46.752  28.960  21.713  1.00  0.00     0.160 HD
BRANCH  22  24
ATOM     24  C   UNL     1     -48.386  29.878  20.913  1.00  0.00     0.038 C 
ATOM     25  H   UNL     1     -48.380  29.017  20.236  1.00  0.00     0.051 H 
ATOM     26  H   UNL     1     -49.316  29.826  21.490  1.00  0.00     0.051 H 
BRANCH  24  27
ATOM     27  C   UNL     1     -48.378  31.190  20.114  1.00  0.00     0.063 C 
ATOM     28  H   UNL     1     -47.437  31.732  20.266  1.00  0.00     0.059 H 
ATOM     29  H   UNL     1     -48.482  30.965  19.045  1.00  0.00     0.059 H 
BRANCH  27  30
ATOM     30  O   UNL     1     -49.480  32.008  20.528  1.00  0.00    -0.383 OA
BRANCH  30  31
ATOM     31  C   UNL     1     -50.423  31.258  21.287  1.00  0.00     0.036 C 
ATOM     32  H   UNL     1     -49.950  30.961  22.226  1.00  0.00     0.053 H 
ATOM     33  H   UNL     1     -50.725  30.358  20.743  1.00  0.00     0.053 H 
ATOM     34  H   UNL     1     -51.299  31.872  21.517  1.00  0.00     0.053 H 
ENDBRANCH  30  31
ENDBRANCH  27  30
ENDBRANCH  24  27
ENDBRANCH  22  24
ENDBRANCH   3  22
BRANCH   7  35
ATOM     35  O   UNL     1     -46.114  33.932  26.818  1.00  0.00    -0.489 OA
BRANCH  35  36
ATOM     36  C   UNL     1     -47.063  34.819  27.430  1.00  0.00     0.115 C 
ATOM     37  H   UNL     1     -47.673  34.196  28.094  1.00  0.00     0.076 H 
ATOM     38  H   UNL     1     -47.741  35.212  26.661  1.00  0.00     0.076 H 
BRANCH  36  39
ATOM     39  C   UNL     1     -46.478  35.934  28.265  1.00  0.00     0.010 A 
ATOM     40  C   UNL     1     -46.582  35.887  29.649  1.00  0.00     0.034 A 
ATOM     41  C   UNL     1     -45.835  37.051  27.714  1.00  0.00    -0.028 A 
ATOM     42  N   UNL     1     -46.139  36.862  30.471  1.00  0.00    -0.262 NA
ATOM     43  H   UNL     1     -47.048  35.046  30.155  1.00  0.00     0.084 H 
ATOM     44  C   UNL     1     -45.421  38.116  28.526  1.00  0.00     0.066 A 
ATOM     45  H   UNL     1     -45.685  37.075  26.640  1.00  0.00     0.065 H 
ATOM     46  C   UNL     1     -45.578  37.956  29.896  1.00  0.00     0.051 A 
ATOM     47  H   UNL     1     -45.296  38.710  30.621  1.00  0.00     0.086 H 
BRANCH  44  48
ATOM     48  N   UNL     1     -44.930  39.328  27.947  1.00  0.00    -0.299 N 
ATOM     49  C   UNL     1     -45.475  39.945  26.830  1.00  0.00     0.018 A 
ATOM     50  C   UNL     1     -43.896  40.142  28.402  1.00  0.00     0.150 A 
ATOM     51  C   UNL     1     -44.817  41.133  26.562  1.00  0.00     0.012 A 
ATOM     52  H   UNL     1     -46.326  39.522  26.317  1.00  0.00     0.083 H 
ATOM     53  C   UNL     1     -43.809  41.256  27.569  1.00  0.00     0.067 A 
ATOM     54  N   UNL     1     -43.098  39.906  29.462  1.00  0.00    -0.218 NA
ATOM     55  C   UNL     1     -42.820  42.205  27.882  1.00  0.00     0.136 A 
ATOM     56  C   UNL     1     -42.191  40.874  29.654  1.00  0.00     0.120 A 
ATOM     57  N   UNL     1     -42.012  41.992  28.936  1.00  0.00    -0.219 NA
ATOM     58  H   UNL     1     -41.518  40.737  30.495  1.00  0.00     0.106 H 
BRANCH  51  59
ATOM     59  C   UNL     1     -45.118  42.124  25.478  1.00  0.00     0.085 C 
ATOM     60  C   UNL     1     -44.041  42.277  24.408  1.00  0.00    -0.020 C 
ATOM     61  O   UNL     1     -45.332  43.452  26.012  1.00  0.00    -0.373 OA
ATOM     62  H   UNL     1     -46.061  41.829  24.997  1.00  0.00     0.066 H 
ATOM     63  C   UNL     1     -44.304  43.671  23.896  1.00  0.00    -0.027 C 
ATOM     64  H   UNL     1     -43.034  42.240  24.840  1.00  0.00     0.030 H 
ATOM     65  H   UNL     1     -44.104  41.509  23.631  1.00  0.00     0.030 H 
ATOM     66  C   UNL     1     -44.655  44.398  25.173  1.00  0.00     0.048 C 
ATOM     67  H   UNL     1     -45.164  43.662  23.217  1.00  0.00     0.029 H 
ATOM     68  H   UNL     1     -43.453  44.114  23.372  1.00  0.00     0.029 H 
ATOM     69  H   UNL     1     -43.755  44.730  25.703  1.00  0.00     0.057 H 
ATOM     70  H   UNL     1     -45.299  45.264  25.001  1.00  0.00     0.057 H 
ENDBRANCH  51  59
BRANCH  55  71
ATOM     71  N   UNL     1     -42.609  43.365  27.147  1.00  0.00    -0.383 N 
ATOM     72  H   UNL     1     -42.545  44.193  27.743  1.00  0.00     0.158 HD
ATOM     73  H   UNL     1     -43.283  43.427  26.394  1.00  0.00     0.158 HD
ENDBRANCH  55  71
ENDBRANCH  44  48
ENDBRANCH  36  39
ENDBRANCH  35  36
ENDBRANCH   7  35
TORSDOF 13
ENDMDL
MODEL 6
REMARK VINA RESULT:      -8.6      1.899      2.239
REMARK SMILES CCc1cc(NCCOC)c2ccc(OCc3cncc(-n4cc([C@@H]5CCCO5)c5c(N)ncnc54)c3)cc2n1
REMARK SMILES IDX 3 1 4 2 5 3 11 4 12 5 13 6 14 7 38 8 39 9 40 10 2 15 1 18
REMARK SMILES IDX 6 22 7 24 8 27 9 30 10 31 15 35 16 36 17 39 18 40 37 41
REMARK SMILES IDX 19 42 21 44 20 46 22 48 23 49 36 50 24 51 30 53 35 54 31 55
REMARK SMILES IDX 34 56 33 57 25 59 26 60 29 61 27 63 28 66 32 71
REMARK H PARENT 4 11 12 12 13 13 38 14 2 16 2 17 1 19 1 20 1 21 6 23 7 25 7 26
REMARK H PARENT 8 28 8 29 10 32 10 33 10 34 16 37 16 38 18 43 37 45 20 47
REMARK H PARENT 23 52 34 58 25 62 26 64 26 65 27 67 27 68 28 69 28 70 32 72
REMARK H PARENT 32 73
REMARK Flexibility Score: inf
ROOT
ATOM      1  C   UNL     1     -46.417  30.314  22.726  1.00  0.00     0.043 A 
ATOM      2  C   UNL     1     -47.658  29.702  22.648  1.00  0.00    -0.017 A 
ATOM      3  C   UNL     1     -48.704  30.163  23.451  1.00  0.00     0.045 A 
ATOM      4  C   UNL     1     -48.462  31.248  24.338  1.00  0.00     0.024 A 
ATOM      5  C   UNL     1     -49.426  31.799  25.218  1.00  0.00    -0.047 A 
ATOM      6  C   UNL     1     -49.141  32.912  26.011  1.00  0.00    -0.019 A 
ATOM      7  C   UNL     1     -47.892  33.508  25.927  1.00  0.00     0.122 A 
ATOM      8  C   UNL     1     -46.917  32.932  25.108  1.00  0.00     0.007 A 
ATOM      9  C   UNL     1     -47.175  31.824  24.313  1.00  0.00     0.076 A 
ATOM     10  N   UNL     1     -46.184  31.376  23.527  1.00  0.00    -0.253 NA
ATOM     11  H   UNL     1     -47.812  28.857  21.985  1.00  0.00     0.066 H 
ATOM     12  H   UNL     1     -50.428  31.383  25.283  1.00  0.00     0.063 H 
ATOM     13  H   UNL     1     -49.926  33.301  26.650  1.00  0.00     0.066 H 
ATOM     14  H   UNL     1     -45.930  33.388  25.057  1.00  0.00     0.069 H 
ENDROOT
BRANCH   1  15
ATOM     15  C   UNL     1     -45.270  29.832  21.878  1.00  0.00    -0.013 C 
ATOM     16  H   UNL     1     -44.558  30.648  21.707  1.00  0.00     0.033 H 
ATOM     17  H   UNL     1     -45.653  29.541  20.891  1.00  0.00     0.033 H 
BRANCH  15  18
ATOM     18  C   UNL     1     -44.563  28.647  22.516  1.00  0.00    -0.060 C 
ATOM     19  H   UNL     1     -45.250  28.059  23.133  1.00  0.00     0.023 H 
ATOM     20  H   UNL     1     -44.141  27.983  21.754  1.00  0.00     0.023 H 
ATOM     21  H   UNL     1     -43.744  28.994  23.154  1.00  0.00     0.023 H 
ENDBRANCH  15  18
ENDBRANCH   1  15
BRANCH   3  22
ATOM     22  N   UNL     1     -49.977  29.563  23.303  1.00  0.00    -0.382 N 
ATOM     23  H   UNL     1     -50.420  29.816  22.422  1.00  0.00     0.160 HD
BRANCH  22  24
ATOM     24  C   UNL     1     -49.981  28.091  23.415  1.00  0.00     0.038 C 
ATOM     25  H   UNL     1     -48.991  27.666  23.217  1.00  0.00     0.051 H 
ATOM     26  H   UNL     1     -50.229  27.855  24.456  1.00  0.00     0.051 H 
BRANCH  24  27
ATOM     27  C   UNL     1     -51.035  27.445  22.502  1.00  0.00     0.063 C 
ATOM     28  H   UNL     1     -50.564  26.759  21.789  1.00  0.00     0.059 H 
ATOM     29  H   UNL     1     -51.746  26.877  23.114  1.00  0.00     0.059 H 
BRANCH  27  30
ATOM     30  O   UNL     1     -51.744  28.470  21.792  1.00  0.00    -0.383 OA
BRANCH  30  31
ATOM     31  C   UNL     1     -51.613  28.308  20.384  1.00  0.00     0.036 C 
ATOM     32  H   UNL     1     -51.887  27.281  20.129  1.00  0.00     0.053 H 
ATOM     33  H   UNL     1     -50.579  28.484  20.071  1.00  0.00     0.053 H 
ATOM     34  H   UNL     1     -52.288  28.990  19.859  1.00  0.00     0.053 H 
ENDBRANCH  30  31
ENDBRANCH  27  30
ENDBRANCH  24  27
ENDBRANCH  22  24
ENDBRANCH   3  22
BRANCH   7  35
ATOM     35  O   UNL     1     -47.516  34.679  26.527  1.00  0.00    -0.489 OA
BRANCH  35  36
ATOM     36  C   UNL     1     -46.183  34.795  27.046  1.00  0.00     0.115 C 
ATOM     37  H   UNL     1     -45.541  35.006  26.184  1.00  0.00     0.076 H 
ATOM     38  H   UNL     1     -45.862  33.825  27.444  1.00  0.00     0.076 H 
BRANCH  36  39
ATOM     39  C   UNL     1     -45.963  35.899  28.055  1.00  0.00     0.010 A 
ATOM     40  C   UNL     1     -46.513  35.791  29.326  1.00  0.00     0.034 A 
ATOM     41  C   UNL     1     -45.235  37.063  27.776  1.00  0.00    -0.028 A 
ATOM     42  N   UNL     1     -46.416  36.747  30.273  1.00  0.00    -0.262 NA
ATOM     43  H   UNL     1     -47.075  34.911  29.629  1.00  0.00     0.084 H 
ATOM     44  C   UNL     1     -45.167  38.109  28.706  1.00  0.00     0.066 A 
ATOM     45  H   UNL     1     -44.742  37.138  26.813  1.00  0.00     0.065 H 
ATOM     46  C   UNL     1     -45.756  37.887  29.943  1.00  0.00     0.051 A 
ATOM     47  H   UNL     1     -45.767  38.621  30.740  1.00  0.00     0.086 H 
BRANCH  44  48
ATOM     48  N   UNL     1     -44.577  39.363  28.352  1.00  0.00    -0.299 N 
ATOM     49  C   UNL     1     -45.049  40.203  27.353  1.00  0.00     0.018 A 
ATOM     50  C   UNL     1     -43.500  40.009  28.954  1.00  0.00     0.150 A 
ATOM     51  C   UNL     1     -44.302  41.367  27.304  1.00  0.00     0.012 A 
ATOM     52  H   UNL     1     -45.915  39.938  26.764  1.00  0.00     0.083 H 
ATOM     53  C   UNL     1     -43.314  41.240  28.329  1.00  0.00     0.067 A 
ATOM     54  N   UNL     1     -42.747  39.535  29.968  1.00  0.00    -0.218 NA
ATOM     55  C   UNL     1     -42.268  42.045  28.815  1.00  0.00     0.136 A 
ATOM     56  C   UNL     1     -41.780  40.386  30.336  1.00  0.00     0.120 A 
ATOM     57  N   UNL     1     -41.504  41.595  29.825  1.00  0.00    -0.219 NA
ATOM     58  H   UNL     1     -41.140  40.057  31.149  1.00  0.00     0.106 H 
BRANCH  51  59
ATOM     59  C   UNL     1     -44.506  42.549  26.404  1.00  0.00     0.085 C 
ATOM     60  C   UNL     1     -45.775  42.521  25.556  1.00  0.00    -0.020 C 
ATOM     61  O   UNL     1     -43.412  42.703  25.469  1.00  0.00    -0.373 OA
ATOM     62  H   UNL     1     -44.510  43.455  27.025  1.00  0.00     0.066 H 
ATOM     63  C   UNL     1     -45.397  43.408  24.398  1.00  0.00    -0.027 C 
ATOM     64  H   UNL     1     -45.986  41.514  25.179  1.00  0.00     0.030 H 
ATOM     65  H   UNL     1     -46.656  42.870  26.103  1.00  0.00     0.030 H 
ATOM     66  C   UNL     1     -43.953  43.018  24.178  1.00  0.00     0.048 C 
ATOM     67  H   UNL     1     -45.462  44.460  24.698  1.00  0.00     0.029 H 
ATOM     68  H   UNL     1     -46.019  43.263  23.511  1.00  0.00     0.029 H 
ATOM     69  H   UNL     1     -43.875  42.120  23.554  1.00  0.00     0.057 H 
ATOM     70  H   UNL     1     -43.367  43.816  23.717  1.00  0.00     0.057 H 
ENDBRANCH  51  59
BRANCH  55  71
ATOM     71  N   UNL     1     -41.958  43.296  28.295  1.00  0.00    -0.383 N 
ATOM     72  H   UNL     1     -42.151  43.357  27.294  1.00  0.00     0.158 HD
ATOM     73  H   UNL     1     -41.020  43.563  28.570  1.00  0.00     0.158 HD
ENDBRANCH  55  71
ENDBRANCH  44  48
ENDBRANCH  36  39
ENDBRANCH  35  36
ENDBRANCH   7  35
TORSDOF 13
ENDMDL
MODEL 7
REMARK VINA RESULT:      -8.5      2.253      4.138
REMARK SMILES CCc1cc(NCCOC)c2ccc(OCc3cncc(-n4cc([C@@H]5CCCO5)c5c(N)ncnc54)c3)cc2n1
REMARK SMILES IDX 3 1 4 2 5 3 11 4 12 5 13 6 14 7 38 8 39 9 40 10 2 15 1 18
REMARK SMILES IDX 6 22 7 24 8 27 9 30 10 31 15 35 16 36 17 39 18 40 37 41
REMARK SMILES IDX 19 42 21 44 20 46 22 48 23 49 36 50 24 51 30 53 35 54 31 55
REMARK SMILES IDX 34 56 33 57 25 59 26 60 29 61 27 63 28 66 32 71
REMARK H PARENT 4 11 12 12 13 13 38 14 2 16 2 17 1 19 1 20 1 21 6 23 7 25 7 26
REMARK H PARENT 8 28 8 29 10 32 10 33 10 34 16 37 16 38 18 43 37 45 20 47
REMARK H PARENT 23 52 34 58 25 62 26 64 26 65 27 67 27 68 28 69 28 70 32 72
REMARK H PARENT 32 73
REMARK Flexibility Score: inf
ROOT
ATOM      1  C   UNL     1     -48.916  29.002  24.554  1.00  0.00     0.043 A 
ATOM      2  C   UNL     1     -48.068  29.005  23.458  1.00  0.00    -0.017 A 
ATOM      3  C   UNL     1     -47.206  30.086  23.257  1.00  0.00     0.045 A 
ATOM      4  C   UNL     1     -47.230  31.164  24.183  1.00  0.00     0.024 A 
ATOM      5  C   UNL     1     -46.425  32.327  24.086  1.00  0.00    -0.047 A 
ATOM      6  C   UNL     1     -46.448  33.316  25.071  1.00  0.00    -0.019 A 
ATOM      7  C   UNL     1     -47.263  33.155  26.181  1.00  0.00     0.122 A 
ATOM      8  C   UNL     1     -48.105  32.042  26.252  1.00  0.00     0.007 A 
ATOM      9  C   UNL     1     -48.103  31.047  25.285  1.00  0.00     0.076 A 
ATOM     10  N   UNL     1     -48.916  29.996  25.470  1.00  0.00    -0.253 NA
ATOM     11  H   UNL     1     -48.087  28.183  22.749  1.00  0.00     0.066 H 
ATOM     12  H   UNL     1     -45.746  32.470  23.250  1.00  0.00     0.063 H 
ATOM     13  H   UNL     1     -45.795  34.174  24.951  1.00  0.00     0.066 H 
ATOM     14  H   UNL     1     -48.759  31.926  27.114  1.00  0.00     0.069 H 
ENDROOT
BRANCH   1  15
ATOM     15  C   UNL     1     -49.860  27.853  24.791  1.00  0.00    -0.013 C 
ATOM     16  H   UNL     1     -50.787  28.215  25.251  1.00  0.00     0.033 H 
ATOM     17  H   UNL     1     -49.405  27.160  25.510  1.00  0.00     0.033 H 
BRANCH  15  18
ATOM     18  C   UNL     1     -50.172  27.113  23.502  1.00  0.00    -0.060 C 
ATOM     19  H   UNL     1     -51.050  26.469  23.615  1.00  0.00     0.023 H 
ATOM     20  H   UNL     1     -50.371  27.813  22.683  1.00  0.00     0.023 H 
ATOM     21  H   UNL     1     -49.324  26.484  23.211  1.00  0.00     0.023 H 
ENDBRANCH  15  18
ENDBRANCH   1  15
BRANCH   3  22
ATOM     22  N   UNL     1     -46.305  30.031  22.167  1.00  0.00    -0.382 N 
ATOM     23  H   UNL     1     -46.225  29.091  21.783  1.00  0.00     0.160 HD
BRANCH  22  24
ATOM     24  C   UNL     1     -46.621  30.955  21.060  1.00  0.00     0.038 C 
ATOM     25  H   UNL     1     -46.562  32.002  21.376  1.00  0.00     0.051 H 
ATOM     26  H   UNL     1     -45.847  30.806  20.297  1.00  0.00     0.051 H 
BRANCH  24  27
ATOM     27  C   UNL     1     -47.991  30.659  20.432  1.00  0.00     0.063 C 
ATOM     28  H   UNL     1     -47.900  30.511  19.350  1.00  0.00     0.059 H 
ATOM     29  H   UNL     1     -48.404  29.745  20.875  1.00  0.00     0.059 H 
BRANCH  27  30
ATOM     30  O   UNL     1     -48.883  31.750  20.698  1.00  0.00    -0.383 OA
BRANCH  30  31
ATOM     31  C   UNL     1     -50.141  31.285  21.174  1.00  0.00     0.036 C 
ATOM     32  H   UNL     1     -50.911  31.582  20.458  1.00  0.00     0.053 H 
ATOM     33  H   UNL     1     -50.373  31.732  22.146  1.00  0.00     0.053 H 
ATOM     34  H   UNL     1     -50.139  30.194  21.250  1.00  0.00     0.053 H 
ENDBRANCH  30  31
ENDBRANCH  27  30
ENDBRANCH  24  27
ENDBRANCH  22  24
ENDBRANCH   3  22
BRANCH   7  35
ATOM     35  O   UNL     1     -47.285  33.960  27.288  1.00  0.00    -0.489 OA
BRANCH  35  36
ATOM     36  C   UNL     1     -47.792  35.297  27.162  1.00  0.00     0.115 C 
ATOM     37  H   UNL     1     -48.650  35.360  27.841  1.00  0.00     0.076 H 
ATOM     38  H   UNL     1     -48.185  35.443  26.148  1.00  0.00     0.076 H 
BRANCH  36  39
ATOM     39  C   UNL     1     -46.834  36.403  27.539  1.00  0.00     0.010 A 
ATOM     40  C   UNL     1     -45.890  36.188  28.534  1.00  0.00     0.034 A 
ATOM     41  C   UNL     1     -46.850  37.672  26.944  1.00  0.00    -0.028 A 
ATOM     42  N   UNL     1     -45.030  37.131  28.975  1.00  0.00    -0.262 NA
ATOM     43  H   UNL     1     -45.798  35.226  29.032  1.00  0.00     0.084 H 
ATOM     44  C   UNL     1     -46.023  38.699  27.417  1.00  0.00     0.066 A 
ATOM     45  H   UNL     1     -47.534  37.840  26.119  1.00  0.00     0.065 H 
ATOM     46  C   UNL     1     -45.120  38.366  28.417  1.00  0.00     0.051 A 
ATOM     47  H   UNL     1     -44.430  39.075  28.860  1.00  0.00     0.086 H 
BRANCH  44  48
ATOM     48  N   UNL     1     -46.167  40.036  26.930  1.00  0.00    -0.299 N 
ATOM     49  C   UNL     1     -45.183  40.736  26.246  1.00  0.00     0.018 A 
ATOM     50  C   UNL     1     -47.295  40.852  26.973  1.00  0.00     0.150 A 
ATOM     51  C   UNL     1     -45.655  41.976  25.851  1.00  0.00     0.012 A 
ATOM     52  H   UNL     1     -44.219  40.293  26.045  1.00  0.00     0.083 H 
ATOM     53  C   UNL     1     -47.006  42.046  26.317  1.00  0.00     0.067 A 
ATOM     54  N   UNL     1     -48.475  40.556  27.556  1.00  0.00    -0.218 NA
ATOM     55  C   UNL     1     -48.038  42.998  26.250  1.00  0.00     0.136 A 
ATOM     56  C   UNL     1     -49.374  41.542  27.433  1.00  0.00     0.120 A 
ATOM     57  N   UNL     1     -49.224  42.726  26.822  1.00  0.00    -0.219 NA
ATOM     58  H   UNL     1     -50.345  41.361  27.885  1.00  0.00     0.106 H 
BRANCH  51  59
ATOM     59  C   UNL     1     -44.933  43.021  25.054  1.00  0.00     0.085 C 
ATOM     60  C   UNL     1     -43.546  42.626  24.554  1.00  0.00    -0.020 C 
ATOM     61  O   UNL     1     -44.744  44.237  25.814  1.00  0.00    -0.373 OA
ATOM     62  H   UNL     1     -45.560  43.289  24.193  1.00  0.00     0.066 H 
ATOM     63  C   UNL     1     -42.879  43.967  24.390  1.00  0.00    -0.027 C 
ATOM     64  H   UNL     1     -42.997  42.044  25.303  1.00  0.00     0.030 H 
ATOM     65  H   UNL     1     -43.581  42.040  23.630  1.00  0.00     0.030 H 
ATOM     66  C   UNL     1     -43.411  44.717  25.589  1.00  0.00     0.048 C 
ATOM     67  H   UNL     1     -43.222  44.443  23.464  1.00  0.00     0.029 H 
ATOM     68  H   UNL     1     -41.787  43.916  24.368  1.00  0.00     0.029 H 
ATOM     69  H   UNL     1     -42.822  44.500  26.487  1.00  0.00     0.057 H 
ATOM     70  H   UNL     1     -43.429  45.798  25.436  1.00  0.00     0.057 H 
ENDBRANCH  51  59
BRANCH  55  71
ATOM     71  N   UNL     1     -47.903  44.235  25.631  1.00  0.00    -0.383 N 
ATOM     72  H   UNL     1     -47.101  44.759  25.986  1.00  0.00     0.158 HD
ATOM     73  H   UNL     1     -48.785  44.732  25.651  1.00  0.00     0.158 HD
ENDBRANCH  55  71
ENDBRANCH  44  48
ENDBRANCH  36  39
ENDBRANCH  35  36
ENDBRANCH   7  35
TORSDOF 13
ENDMDL
