MODEL 1
REMARK VINA RESULT:     -10.2      0.000      0.000
REMARK SMILES CCc1cc(N(C)C)c2ccc(OC[C@H]3O[C@@H](n4cc(-c5ccn(C)n5)c5c(N)ncnc54)[C@@H](F)[C@@H]3O)cc2n1
REMARK SMILES IDX 14 1 13 4 12 5 3 6 4 7 40 8 5 9 39 11 9 12 38 13 10 14 11 16
REMARK SMILES IDX 2 19 1 22 6 26 7 27 8 31 15 35 16 36 36 37 17 39 34 40 35 43
REMARK SMILES IDX 37 45 18 47 19 48 33 49 20 50 27 52 32 53 28 54 31 55 30 56
REMARK SMILES IDX 21 58 22 59 26 60 23 61 24 63 25 65 29 69
REMARK H PARENT 14 2 14 3 4 10 38 15 10 17 11 18 2 20 2 21 1 23 1 24 1 25 7 28
REMARK H PARENT 7 29 7 30 8 32 8 33 8 34 15 38 36 41 17 42 34 44 37 46 19 51
REMARK H PARENT 31 57 22 62 23 64 25 66 25 67 25 68 29 70 29 71
REMARK Flexibility Score: inf
ROOT
ATOM      1  C   UNL     1     -47.185  36.169  27.249  1.00  0.00     0.117 C 
ATOM      2  H   UNL     1     -48.125  35.697  27.563  1.00  0.00     0.073 H 
ATOM      3  H   UNL     1     -47.350  37.233  27.048  1.00  0.00     0.073 H 
ENDROOT
BRANCH   1   4
ATOM      4  O   UNL     1     -46.686  35.550  26.065  1.00  0.00    -0.491 OA
BRANCH   4   5
ATOM      5  C   UNL     1     -47.141  34.297  25.766  1.00  0.00     0.121 A 
ATOM      6  C   UNL     1     -46.207  30.474  23.091  1.00  0.00     0.043 A 
ATOM      7  C   UNL     1     -47.283  29.761  23.602  1.00  0.00    -0.016 A 
ATOM      8  N   UNL     1     -45.916  31.733  23.483  1.00  0.00    -0.253 NA
ATOM      9  C   UNL     1     -48.113  30.361  24.554  1.00  0.00     0.047 A 
ATOM     10  H   UNL     1     -47.481  28.758  23.243  1.00  0.00     0.066 H 
ATOM     11  C   UNL     1     -46.700  32.323  24.401  1.00  0.00     0.076 A 
ATOM     12  C   UNL     1     -47.819  31.685  24.970  1.00  0.00     0.024 A 
ATOM     13  C   UNL     1     -46.387  33.613  24.806  1.00  0.00     0.007 A 
ATOM     14  C   UNL     1     -48.586  32.385  25.929  1.00  0.00    -0.047 A 
ATOM     15  H   UNL     1     -45.517  34.101  24.370  1.00  0.00     0.069 H 
ATOM     16  C   UNL     1     -48.254  33.684  26.321  1.00  0.00    -0.019 A 
ATOM     17  H   UNL     1     -49.452  31.905  26.380  1.00  0.00     0.063 H 
ATOM     18  H   UNL     1     -48.884  34.180  27.051  1.00  0.00     0.066 H 
BRANCH   6  19
ATOM     19  C   UNL     1     -45.292  29.857  22.067  1.00  0.00    -0.013 C 
ATOM     20  H   UNL     1     -44.508  30.578  21.810  1.00  0.00     0.033 H 
ATOM     21  H   UNL     1     -45.842  29.652  21.140  1.00  0.00     0.033 H 
BRANCH  19  22
ATOM     22  C   UNL     1     -44.657  28.576  22.585  1.00  0.00    -0.060 C 
ATOM     23  H   UNL     1     -43.942  28.787  23.387  1.00  0.00     0.023 H 
ATOM     24  H   UNL     1     -44.119  28.067  21.779  1.00  0.00     0.023 H 
ATOM     25  H   UNL     1     -45.413  27.888  22.979  1.00  0.00     0.023 H 
ENDBRANCH  19  22
ENDBRANCH   6  19
BRANCH   9  26
ATOM     26  N   UNL     1     -49.249  29.690  25.083  1.00  0.00    -0.377 N 
BRANCH  26  27
ATOM     27  C   UNL     1     -50.364  29.728  24.131  1.00  0.00     0.006 C 
ATOM     28  H   UNL     1     -50.397  30.677  23.583  1.00  0.00     0.046 H 
ATOM     29  H   UNL     1     -51.326  29.578  24.635  1.00  0.00     0.046 H 
ATOM     30  H   UNL     1     -50.255  28.918  23.400  1.00  0.00     0.046 H 
ENDBRANCH  26  27
BRANCH  26  31
ATOM     31  C   UNL     1     -48.972  28.362  25.633  1.00  0.00     0.006 C 
ATOM     32  H   UNL     1     -48.689  27.642  24.858  1.00  0.00     0.046 H 
ATOM     33  H   UNL     1     -49.870  27.981  26.130  1.00  0.00     0.046 H 
ATOM     34  H   UNL     1     -48.180  28.407  26.390  1.00  0.00     0.046 H 
ENDBRANCH  26  31
ENDBRANCH   9  26
ENDBRANCH   4   5
ENDBRANCH   1   4
BRANCH   1  35
ATOM     35  C   UNL     1     -46.169  36.009  28.391  1.00  0.00     0.123 C 
ATOM     36  O   UNL     1     -44.992  36.777  28.061  1.00  0.00    -0.345 OA
ATOM     37  C   UNL     1     -46.665  36.479  29.760  1.00  0.00     0.119 C 
ATOM     38  H   UNL     1     -45.856  34.960  28.425  1.00  0.00     0.067 H 
ATOM     39  C   UNL     1     -44.819  37.802  29.063  1.00  0.00     0.169 C 
ATOM     40  C   UNL     1     -46.072  37.860  29.923  1.00  0.00     0.173 C 
ATOM     41  H   UNL     1     -47.757  36.462  29.833  1.00  0.00     0.066 H 
ATOM     42  H   UNL     1     -43.954  37.489  29.660  1.00  0.00     0.088 H 
ATOM     43  F   UNL     1     -46.967  38.779  29.471  1.00  0.00    -0.239 F 
ATOM     44  H   UNL     1     -45.838  38.121  30.960  1.00  0.00     0.074 H 
BRANCH  37  45
ATOM     45  O   UNL     1     -46.154  35.610  30.782  1.00  0.00    -0.387 OA
ATOM     46  H   UNL     1     -45.727  34.855  30.338  1.00  0.00     0.211 HD
ENDBRANCH  37  45
BRANCH  39  47
ATOM     47  N   UNL     1     -44.487  39.066  28.431  1.00  0.00    -0.302 N 
ATOM     48  C   UNL     1     -45.106  39.634  27.347  1.00  0.00     0.019 A 
ATOM     49  C   UNL     1     -43.510  39.911  28.892  1.00  0.00     0.148 A 
ATOM     50  C   UNL     1     -44.536  40.874  27.122  1.00  0.00     0.033 A 
ATOM     51  H   UNL     1     -45.921  39.126  26.849  1.00  0.00     0.083 H 
ATOM     52  C   UNL     1     -43.484  41.042  28.080  1.00  0.00     0.071 A 
ATOM     53  N   UNL     1     -42.730  39.664  29.960  1.00  0.00    -0.218 NA
ATOM     54  C   UNL     1     -42.509  42.003  28.400  1.00  0.00     0.137 A 
ATOM     55  C   UNL     1     -41.865  40.668  30.177  1.00  0.00     0.120 A 
ATOM     56  N   UNL     1     -41.717  41.804  29.475  1.00  0.00    -0.219 NA
ATOM     57  H   UNL     1     -41.200  40.549  31.026  1.00  0.00     0.106 H 
BRANCH  50  58
ATOM     58  C   UNL     1     -44.970  41.842  26.106  1.00  0.00     0.095 A 
ATOM     59  C   UNL     1     -46.198  42.544  26.148  1.00  0.00    -0.016 A 
ATOM     60  N   UNL     1     -44.236  42.200  25.043  1.00  0.00    -0.173 NA
ATOM     61  C   UNL     1     -46.188  43.354  25.036  1.00  0.00     0.025 A 
ATOM     62  H   UNL     1     -46.982  42.481  26.889  1.00  0.00     0.066 H 
ATOM     63  N   UNL     1     -44.998  43.116  24.417  1.00  0.00    -0.275 N 
ATOM     64  H   UNL     1     -46.905  44.070  24.661  1.00  0.00     0.084 H 
BRANCH  63  65
ATOM     65  C   UNL     1     -44.509  43.742  23.214  1.00  0.00     0.030 C 
ATOM     66  H   UNL     1     -43.420  43.829  23.265  1.00  0.00     0.048 H 
ATOM     67  H   UNL     1     -44.960  44.734  23.134  1.00  0.00     0.048 H 
ATOM     68  H   UNL     1     -44.792  43.120  22.362  1.00  0.00     0.048 H 
ENDBRANCH  63  65
ENDBRANCH  50  58
BRANCH  54  69
ATOM     69  N   UNL     1     -42.295  43.167  27.677  1.00  0.00    -0.383 N 
ATOM     70  H   UNL     1     -41.560  43.056  26.971  1.00  0.00     0.158 HD
ATOM     71  H   UNL     1     -43.161  43.589  27.378  1.00  0.00     0.158 HD
ENDBRANCH  54  69
ENDBRANCH  39  47
ENDBRANCH   1  35
TORSDOF 13
ENDMDL
MODEL 2
REMARK VINA RESULT:     -10.0      0.867      2.359
REMARK SMILES CCc1cc(N(C)C)c2ccc(OC[C@H]3O[C@@H](n4cc(-c5ccn(C)n5)c5c(N)ncnc54)[C@@H](F)[C@@H]3O)cc2n1
REMARK SMILES IDX 14 1 13 4 12 5 3 6 4 7 40 8 5 9 39 11 9 12 38 13 10 14 11 16
REMARK SMILES IDX 2 19 1 22 6 26 7 27 8 31 15 35 16 36 36 37 17 39 34 40 35 43
REMARK SMILES IDX 37 45 18 47 19 48 33 49 20 50 27 52 32 53 28 54 31 55 30 56
REMARK SMILES IDX 21 58 22 59 26 60 23 61 24 63 25 65 29 69
REMARK H PARENT 14 2 14 3 4 10 38 15 10 17 11 18 2 20 2 21 1 23 1 24 1 25 7 28
REMARK H PARENT 7 29 7 30 8 32 8 33 8 34 15 38 36 41 17 42 34 44 37 46 19 51
REMARK H PARENT 31 57 22 62 23 64 25 66 25 67 25 68 29 70 29 71
REMARK Flexibility Score: inf
ROOT
ATOM      1  C   UNL     1     -47.296  36.255  27.179  1.00  0.00     0.117 C 
ATOM      2  H   UNL     1     -47.891  37.132  27.463  1.00  0.00     0.073 H 
ATOM      3  H   UNL     1     -46.794  36.437  26.222  1.00  0.00     0.073 H 
ENDROOT
BRANCH   1   4
ATOM      4  O   UNL     1     -48.130  35.106  27.048  1.00  0.00    -0.491 OA
BRANCH   4   5
ATOM      5  C   UNL     1     -47.722  34.120  26.196  1.00  0.00     0.121 A 
ATOM      6  C   UNL     1     -48.914  29.823  24.535  1.00  0.00     0.043 A 
ATOM      7  C   UNL     1     -47.819  29.765  23.684  1.00  0.00    -0.016 A 
ATOM      8  N   UNL     1     -49.152  30.877  25.344  1.00  0.00    -0.253 NA
ATOM      9  C   UNL     1     -46.913  30.830  23.660  1.00  0.00     0.047 A 
ATOM     10  H   UNL     1     -47.666  28.889  23.065  1.00  0.00     0.066 H 
ATOM     11  C   UNL     1     -48.295  31.912  25.330  1.00  0.00     0.076 A 
ATOM     12  C   UNL     1     -47.151  31.942  24.509  1.00  0.00     0.024 A 
ATOM     13  C   UNL     1     -48.554  32.996  26.157  1.00  0.00     0.007 A 
ATOM     14  C   UNL     1     -46.305  33.073  24.562  1.00  0.00    -0.047 A 
ATOM     15  H   UNL     1     -49.443  32.974  26.785  1.00  0.00     0.069 H 
ATOM     16  C   UNL     1     -46.584  34.152  25.403  1.00  0.00    -0.019 A 
ATOM     17  H   UNL     1     -45.419  33.112  23.932  1.00  0.00     0.063 H 
ATOM     18  H   UNL     1     -45.895  34.990  25.414  1.00  0.00     0.066 H 
BRANCH   6  19
ATOM     19  C   UNL     1     -49.910  28.695  24.584  1.00  0.00    -0.013 C 
ATOM     20  H   UNL     1     -50.103  28.347  23.563  1.00  0.00     0.033 H 
ATOM     21  H   UNL     1     -50.870  29.052  24.979  1.00  0.00     0.033 H 
BRANCH  19  22
ATOM     22  C   UNL     1     -49.402  27.538  25.431  1.00  0.00    -0.060 C 
ATOM     23  H   UNL     1     -49.979  27.444  26.356  1.00  0.00     0.023 H 
ATOM     24  H   UNL     1     -48.354  27.699  25.703  1.00  0.00     0.023 H 
ATOM     25  H   UNL     1     -49.472  26.588  24.890  1.00  0.00     0.023 H 
ENDBRANCH  19  22
ENDBRANCH   6  19
BRANCH   9  26
ATOM     26  N   UNL     1     -45.755  30.807  22.835  1.00  0.00    -0.377 N 
BRANCH  26  27
ATOM     27  C   UNL     1     -45.241  29.440  22.700  1.00  0.00     0.006 C 
ATOM     28  H   UNL     1     -45.937  28.798  22.147  1.00  0.00     0.046 H 
ATOM     29  H   UNL     1     -45.045  28.988  23.679  1.00  0.00     0.046 H 
ATOM     30  H   UNL     1     -44.290  29.454  22.157  1.00  0.00     0.046 H 
ENDBRANCH  26  27
BRANCH  26  31
ATOM     31  C   UNL     1     -45.895  31.526  21.568  1.00  0.00     0.006 C 
ATOM     32  H   UNL     1     -46.455  30.950  20.823  1.00  0.00     0.046 H 
ATOM     33  H   UNL     1     -44.901  31.728  21.154  1.00  0.00     0.046 H 
ATOM     34  H   UNL     1     -46.385  32.495  21.717  1.00  0.00     0.046 H 
ENDBRANCH  26  31
ENDBRANCH   9  26
ENDBRANCH   4   5
ENDBRANCH   1   4
BRANCH   1  35
ATOM     35  C   UNL     1     -46.247  36.017  28.276  1.00  0.00     0.123 C 
ATOM     36  O   UNL     1     -45.068  36.785  27.951  1.00  0.00    -0.345 OA
ATOM     37  C   UNL     1     -46.691  36.417  29.685  1.00  0.00     0.119 C 
ATOM     38  H   UNL     1     -45.950  34.962  28.242  1.00  0.00     0.067 H 
ATOM     39  C   UNL     1     -44.847  37.750  29.002  1.00  0.00     0.169 C 
ATOM     40  C   UNL     1     -46.071  37.778  29.905  1.00  0.00     0.173 C 
ATOM     41  H   UNL     1     -47.781  36.412  29.792  1.00  0.00     0.066 H 
ATOM     42  H   UNL     1     -43.969  37.390  29.552  1.00  0.00     0.088 H 
ATOM     43  F   UNL     1     -46.964  38.734  29.532  1.00  0.00    -0.239 F 
ATOM     44  H   UNL     1     -45.800  37.977  30.946  1.00  0.00     0.074 H 
BRANCH  37  45
ATOM     45  O   UNL     1     -46.163  35.485  30.640  1.00  0.00    -0.387 OA
ATOM     46  H   UNL     1     -46.567  34.618  30.457  1.00  0.00     0.211 HD
ENDBRANCH  37  45
BRANCH  39  47
ATOM     47  N   UNL     1     -44.514  39.042  28.430  1.00  0.00    -0.302 N 
ATOM     48  C   UNL     1     -45.134  39.661  27.375  1.00  0.00     0.019 A 
ATOM     49  C   UNL     1     -43.535  39.862  28.929  1.00  0.00     0.148 A 
ATOM     50  C   UNL     1     -44.563  40.910  27.209  1.00  0.00     0.033 A 
ATOM     51  H   UNL     1     -45.951  39.179  26.856  1.00  0.00     0.083 H 
ATOM     52  C   UNL     1     -43.509  41.030  28.171  1.00  0.00     0.071 A 
ATOM     53  N   UNL     1     -42.753  39.564  29.983  1.00  0.00    -0.218 NA
ATOM     54  C   UNL     1     -42.531  41.974  28.534  1.00  0.00     0.137 A 
ATOM     55  C   UNL     1     -41.886  40.555  30.245  1.00  0.00     0.120 A 
ATOM     56  N   UNL     1     -41.738  41.722  29.598  1.00  0.00    -0.219 NA
ATOM     57  H   UNL     1     -41.220  40.395  31.086  1.00  0.00     0.106 H 
BRANCH  50  58
ATOM     58  C   UNL     1     -44.998  41.925  26.241  1.00  0.00     0.095 A 
ATOM     59  C   UNL     1     -44.329  42.205  25.025  1.00  0.00    -0.016 A 
ATOM     60  N   UNL     1     -46.100  42.676  26.378  1.00  0.00    -0.173 NA
ATOM     61  C   UNL     1     -45.077  43.187  24.419  1.00  0.00     0.025 A 
ATOM     62  H   UNL     1     -43.431  41.748  24.634  1.00  0.00     0.066 H 
ATOM     63  N   UNL     1     -46.121  43.427  25.261  1.00  0.00    -0.275 N 
ATOM     64  H   UNL     1     -44.960  43.703  23.477  1.00  0.00     0.084 H 
BRANCH  63  65
ATOM     65  C   UNL     1     -47.198  44.364  25.057  1.00  0.00     0.030 C 
ATOM     66  H   UNL     1     -47.921  43.941  24.355  1.00  0.00     0.048 H 
ATOM     67  H   UNL     1     -46.778  45.288  24.652  1.00  0.00     0.048 H 
ATOM     68  H   UNL     1     -47.679  44.550  26.020  1.00  0.00     0.048 H 
ENDBRANCH  63  65
ENDBRANCH  50  58
BRANCH  54  69
ATOM     69  N   UNL     1     -42.317  43.171  27.867  1.00  0.00    -0.383 N 
ATOM     70  H   UNL     1     -42.495  43.985  28.464  1.00  0.00     0.158 HD
ATOM     71  H   UNL     1     -41.454  43.161  27.344  1.00  0.00     0.158 HD
ENDBRANCH  54  69
ENDBRANCH  39  47
ENDBRANCH   1  35
TORSDOF 13
ENDMDL
MODEL 3
REMARK VINA RESULT:      -8.1      2.001      2.655
REMARK SMILES CCc1cc(N(C)C)c2ccc(OC[C@H]3O[C@@H](n4cc(-c5ccn(C)n5)c5c(N)ncnc54)[C@@H](F)[C@@H]3O)cc2n1
REMARK SMILES IDX 14 1 13 4 12 5 3 6 4 7 40 8 5 9 39 11 9 12 38 13 10 14 11 16
REMARK SMILES IDX 2 19 1 22 6 26 7 27 8 31 15 35 16 36 36 37 17 39 34 40 35 43
REMARK SMILES IDX 37 45 18 47 19 48 33 49 20 50 27 52 32 53 28 54 31 55 30 56
REMARK SMILES IDX 21 58 22 59 26 60 23 61 24 63 25 65 29 69
REMARK H PARENT 14 2 14 3 4 10 38 15 10 17 11 18 2 20 2 21 1 23 1 24 1 25 7 28
REMARK H PARENT 7 29 7 30 8 32 8 33 8 34 15 38 36 41 17 42 34 44 37 46 19 51
REMARK H PARENT 31 57 22 62 23 64 25 66 25 67 25 68 29 70 29 71
REMARK Flexibility Score: inf
ROOT
ATOM      1  C   UNL     1     -45.866  35.175  26.596  1.00  0.00     0.117 C 
ATOM      2  H   UNL     1     -45.504  35.935  25.892  1.00  0.00     0.073 H 
ATOM      3  H   UNL     1     -45.347  34.225  26.420  1.00  0.00     0.073 H 
ENDROOT
BRANCH   1   4
ATOM      4  O   UNL     1     -47.267  34.969  26.431  1.00  0.00    -0.491 OA
BRANCH   4   5
ATOM      5  C   UNL     1     -47.677  33.766  25.933  1.00  0.00     0.121 A 
ATOM      6  C   UNL     1     -46.362  30.227  23.036  1.00  0.00     0.043 A 
ATOM      7  C   UNL     1     -47.508  29.487  23.297  1.00  0.00    -0.016 A 
ATOM      8  N   UNL     1     -46.129  31.430  23.601  1.00  0.00    -0.253 NA
ATOM      9  C   UNL     1     -48.472  30.001  24.170  1.00  0.00     0.047 A 
ATOM     10  H   UNL     1     -47.654  28.533  22.806  1.00  0.00     0.066 H 
ATOM     11  C   UNL     1     -47.041  31.937  24.447  1.00  0.00     0.076 A 
ATOM     12  C   UNL     1     -48.239  31.268  24.766  1.00  0.00     0.024 A 
ATOM     13  C   UNL     1     -46.788  33.170  25.032  1.00  0.00     0.007 A 
ATOM     14  C   UNL     1     -49.141  31.880  25.666  1.00  0.00    -0.047 A 
ATOM     15  H   UNL     1     -45.858  33.682  24.789  1.00  0.00     0.069 H 
ATOM     16  C   UNL     1     -48.866  33.122  26.241  1.00  0.00    -0.019 A 
ATOM     17  H   UNL     1     -50.069  31.374  25.925  1.00  0.00     0.063 H 
ATOM     18  H   UNL     1     -49.599  33.552  26.916  1.00  0.00     0.066 H 
BRANCH   6  19
ATOM     19  C   UNL     1     -45.303  29.701  22.103  1.00  0.00    -0.013 C 
ATOM     20  H   UNL     1     -44.551  30.482  21.944  1.00  0.00     0.033 H 
ATOM     21  H   UNL     1     -45.738  29.481  21.120  1.00  0.00     0.033 H 
BRANCH  19  22
ATOM     22  C   UNL     1     -44.635  28.455  22.664  1.00  0.00    -0.060 C 
ATOM     23  H   UNL     1     -44.041  27.948  21.897  1.00  0.00     0.023 H 
ATOM     24  H   UNL     1     -45.391  27.750  23.025  1.00  0.00     0.023 H 
ATOM     25  H   UNL     1     -43.971  28.700  23.499  1.00  0.00     0.023 H 
ENDBRANCH  19  22
ENDBRANCH   6  19
BRANCH   9  26
ATOM     26  N   UNL     1     -49.680  29.304  24.443  1.00  0.00    -0.377 N 
BRANCH  26  27
ATOM     27  C   UNL     1     -50.554  29.298  23.265  1.00  0.00     0.006 C 
ATOM     28  H   UNL     1     -50.682  28.286  22.861  1.00  0.00     0.046 H 
ATOM     29  H   UNL     1     -50.163  29.948  22.474  1.00  0.00     0.046 H 
ATOM     30  H   UNL     1     -51.544  29.681  23.536  1.00  0.00     0.046 H 
ENDBRANCH  26  27
BRANCH  26  31
ATOM     31  C   UNL     1     -49.499  27.992  25.065  1.00  0.00     0.006 C 
ATOM     32  H   UNL     1     -48.537  27.906  25.583  1.00  0.00     0.046 H 
ATOM     33  H   UNL     1     -49.531  27.216  24.292  1.00  0.00     0.046 H 
ATOM     34  H   UNL     1     -50.308  27.775  25.772  1.00  0.00     0.046 H 
ENDBRANCH  26  31
ENDBRANCH   9  26
ENDBRANCH   4   5
ENDBRANCH   1   4
BRANCH   1  35
ATOM     35  C   UNL     1     -45.573  35.668  28.021  1.00  0.00     0.123 C 
ATOM     36  O   UNL     1     -45.203  37.061  27.952  1.00  0.00    -0.345 OA
ATOM     37  C   UNL     1     -46.748  35.544  28.995  1.00  0.00     0.119 C 
ATOM     38  H   UNL     1     -44.694  35.131  28.395  1.00  0.00     0.067 H 
ATOM     39  C   UNL     1     -46.173  37.830  28.695  1.00  0.00     0.169 C 
ATOM     40  C   UNL     1     -47.351  36.930  29.038  1.00  0.00     0.173 C 
ATOM     41  H   UNL     1     -47.458  34.769  28.691  1.00  0.00     0.066 H 
ATOM     42  H   UNL     1     -45.656  38.154  29.607  1.00  0.00     0.088 H 
ATOM     43  F   UNL     1     -48.344  37.006  28.112  1.00  0.00    -0.239 F 
ATOM     44  H   UNL     1     -47.790  37.191  30.006  1.00  0.00     0.074 H 
BRANCH  37  45
ATOM     45  O   UNL     1     -46.258  35.190  30.297  1.00  0.00    -0.387 OA
ATOM     46  H   UNL     1     -45.874  35.992  30.695  1.00  0.00     0.211 HD
ENDBRANCH  37  45
BRANCH  39  47
ATOM     47  N   UNL     1     -46.545  39.019  27.949  1.00  0.00    -0.302 N 
ATOM     48  C   UNL     1     -47.814  39.489  27.728  1.00  0.00     0.019 A 
ATOM     49  C   UNL     1     -45.635  39.885  27.400  1.00  0.00     0.148 A 
ATOM     50  C   UNL     1     -47.719  40.689  27.047  1.00  0.00     0.033 A 
ATOM     51  H   UNL     1     -48.674  38.951  28.102  1.00  0.00     0.083 H 
ATOM     52  C   UNL     1     -46.330  40.929  26.794  1.00  0.00     0.071 A 
ATOM     53  N   UNL     1     -44.300  39.729  27.461  1.00  0.00    -0.218 NA
ATOM     54  C   UNL     1     -45.539  41.897  26.150  1.00  0.00     0.137 A 
ATOM     55  C   UNL     1     -43.661  40.732  26.837  1.00  0.00     0.120 A 
ATOM     56  N   UNL     1     -44.194  41.789  26.203  1.00  0.00    -0.219 NA
ATOM     57  H   UNL     1     -42.577  40.683  26.845  1.00  0.00     0.106 H 
BRANCH  50  58
ATOM     58  C   UNL     1     -48.846  41.560  26.690  1.00  0.00     0.095 A 
ATOM     59  C   UNL     1     -50.182  41.342  27.102  1.00  0.00    -0.016 A 
ATOM     60  N   UNL     1     -48.733  42.683  25.967  1.00  0.00    -0.173 NA
ATOM     61  C   UNL     1     -50.897  42.395  26.579  1.00  0.00     0.025 A 
ATOM     62  H   UNL     1     -50.575  40.537  27.707  1.00  0.00     0.066 H 
ATOM     63  N   UNL     1     -49.989  43.165  25.918  1.00  0.00    -0.275 N 
ATOM     64  H   UNL     1     -51.944  42.654  26.639  1.00  0.00     0.084 H 
BRANCH  63  65
ATOM     65  C   UNL     1     -50.248  44.398  25.216  1.00  0.00     0.030 C 
ATOM     66  H   UNL     1     -51.055  44.940  25.717  1.00  0.00     0.048 H 
ATOM     67  H   UNL     1     -50.539  44.156  24.191  1.00  0.00     0.048 H 
ATOM     68  H   UNL     1     -49.335  44.998  25.226  1.00  0.00     0.048 H 
ENDBRANCH  63  65
ENDBRANCH  50  58
BRANCH  54  69
ATOM     69  N   UNL     1     -46.049  42.980  25.449  1.00  0.00    -0.383 N 
ATOM     70  H   UNL     1     -46.932  42.756  24.979  1.00  0.00     0.158 HD
ATOM     71  H   UNL     1     -46.017  43.829  25.993  1.00  0.00     0.158 HD
ENDBRANCH  54  69
ENDBRANCH  39  47
ENDBRANCH   1  35
TORSDOF 13
ENDMDL
MODEL 4
REMARK VINA RESULT:      -8.1      3.293      4.797
REMARK SMILES CCc1cc(N(C)C)c2ccc(OC[C@H]3O[C@@H](n4cc(-c5ccn(C)n5)c5c(N)ncnc54)[C@@H](F)[C@@H]3O)cc2n1
REMARK SMILES IDX 14 1 13 4 12 5 3 6 4 7 40 8 5 9 39 11 9 12 38 13 10 14 11 16
REMARK SMILES IDX 2 19 1 22 6 26 7 27 8 31 15 35 16 36 36 37 17 39 34 40 35 43
REMARK SMILES IDX 37 45 18 47 19 48 33 49 20 50 27 52 32 53 28 54 31 55 30 56
REMARK SMILES IDX 21 58 22 59 26 60 23 61 24 63 25 65 29 69
REMARK H PARENT 14 2 14 3 4 10 38 15 10 17 11 18 2 20 2 21 1 23 1 24 1 25 7 28
REMARK H PARENT 7 29 7 30 8 32 8 33 8 34 15 38 36 41 17 42 34 44 37 46 19 51
REMARK H PARENT 31 57 22 62 23 64 25 66 25 67 25 68 29 70 29 71
REMARK Flexibility Score: inf
ROOT
ATOM      1  C   UNL     1     -48.318  34.215  26.417  1.00  0.00     0.117 C 
ATOM      2  H   UNL     1     -48.981  34.843  27.026  1.00  0.00     0.073 H 
ATOM      3  H   UNL     1     -48.608  34.276  25.363  1.00  0.00     0.073 H 
ENDROOT
BRANCH   1   4
ATOM      4  O   UNL     1     -48.395  32.854  26.837  1.00  0.00    -0.491 OA
BRANCH   4   5
ATOM      5  C   UNL     1     -48.742  31.922  25.902  1.00  0.00     0.121 A 
ATOM      6  C   UNL     1     -48.822  27.235  25.083  1.00  0.00     0.043 A 
ATOM      7  C   UNL     1     -49.415  27.387  23.836  1.00  0.00    -0.016 A 
ATOM      8  N   UNL     1     -48.516  28.283  25.875  1.00  0.00    -0.253 NA
ATOM      9  C   UNL     1     -49.701  28.672  23.365  1.00  0.00     0.047 A 
ATOM     10  H   UNL     1     -49.628  26.513  23.233  1.00  0.00     0.066 H 
ATOM     11  C   UNL     1     -48.789  29.525  25.442  1.00  0.00     0.076 A 
ATOM     12  C   UNL     1     -49.379  29.782  24.188  1.00  0.00     0.024 A 
ATOM     13  C   UNL     1     -48.480  30.597  26.268  1.00  0.00     0.007 A 
ATOM     14  C   UNL     1     -49.629  31.123  23.817  1.00  0.00    -0.047 A 
ATOM     15  H   UNL     1     -48.031  30.395  27.239  1.00  0.00     0.069 H 
ATOM     16  C   UNL     1     -49.308  32.185  24.663  1.00  0.00    -0.019 A 
ATOM     17  H   UNL     1     -50.087  31.337  22.853  1.00  0.00     0.063 H 
ATOM     18  H   UNL     1     -49.510  33.196  24.323  1.00  0.00     0.066 H 
BRANCH   6  19
ATOM     19  C   UNL     1     -48.503  25.865  25.620  1.00  0.00    -0.013 C 
ATOM     20  H   UNL     1     -48.880  25.111  24.920  1.00  0.00     0.033 H 
ATOM     21  H   UNL     1     -49.027  25.697  26.570  1.00  0.00     0.033 H 
BRANCH  19  22
ATOM     22  C   UNL     1     -47.007  25.677  25.816  1.00  0.00    -0.060 C 
ATOM     23  H   UNL     1     -46.786  25.289  26.815  1.00  0.00     0.023 H 
ATOM     24  H   UNL     1     -46.487  26.635  25.705  1.00  0.00     0.023 H 
ATOM     25  H   UNL     1     -46.593  24.978  25.082  1.00  0.00     0.023 H 
ENDBRANCH  19  22
ENDBRANCH   6  19
BRANCH   9  26
ATOM     26  N   UNL     1     -50.272  28.888  22.082  1.00  0.00    -0.377 N 
BRANCH  26  27
ATOM     27  C   UNL     1     -49.277  28.670  21.027  1.00  0.00     0.006 C 
ATOM     28  H   UNL     1     -49.694  28.858  20.030  1.00  0.00     0.046 H 
ATOM     29  H   UNL     1     -48.880  27.648  21.057  1.00  0.00     0.046 H 
ATOM     30  H   UNL     1     -48.429  29.348  21.172  1.00  0.00     0.046 H 
ENDBRANCH  26  27
BRANCH  26  31
ATOM     31  C   UNL     1     -51.546  28.201  21.858  1.00  0.00     0.006 C 
ATOM     32  H   UNL     1     -52.337  28.887  21.538  1.00  0.00     0.046 H 
ATOM     33  H   UNL     1     -51.872  27.730  22.792  1.00  0.00     0.046 H 
ATOM     34  H   UNL     1     -51.438  27.403  21.115  1.00  0.00     0.046 H 
ENDBRANCH  26  31
ENDBRANCH   9  26
ENDBRANCH   4   5
ENDBRANCH   1   4
BRANCH   1  35
ATOM     35  C   UNL     1     -46.882  34.734  26.590  1.00  0.00     0.123 C 
ATOM     36  O   UNL     1     -46.853  36.124  26.203  1.00  0.00    -0.345 OA
ATOM     37  C   UNL     1     -46.330  34.633  28.014  1.00  0.00     0.119 C 
ATOM     38  H   UNL     1     -46.238  34.201  25.880  1.00  0.00     0.067 H 
ATOM     39  C   UNL     1     -46.470  36.910  27.352  1.00  0.00     0.169 C 
ATOM     40  C   UNL     1     -46.506  36.022  28.586  1.00  0.00     0.173 C 
ATOM     41  H   UNL     1     -46.832  33.855  28.598  1.00  0.00     0.066 H 
ATOM     42  H   UNL     1     -45.447  37.250  27.149  1.00  0.00     0.088 H 
ATOM     43  F   UNL     1     -47.700  36.083  29.232  1.00  0.00    -0.239 F 
ATOM     44  H   UNL     1     -45.733  36.303  29.308  1.00  0.00     0.074 H 
BRANCH  37  45
ATOM     45  O   UNL     1     -44.935  34.302  27.968  1.00  0.00    -0.387 OA
ATOM     46  H   UNL     1     -44.861  33.332  28.025  1.00  0.00     0.211 HD
ENDBRANCH  37  45
BRANCH  39  47
ATOM     47  N   UNL     1     -47.316  38.086  27.455  1.00  0.00    -0.302 N 
ATOM     48  C   UNL     1     -48.583  38.146  27.974  1.00  0.00     0.019 A 
ATOM     49  C   UNL     1     -46.914  39.344  27.085  1.00  0.00     0.148 A 
ATOM     50  C   UNL     1     -48.996  39.467  27.961  1.00  0.00     0.033 A 
ATOM     51  H   UNL     1     -49.072  37.254  28.341  1.00  0.00     0.083 H 
ATOM     52  C   UNL     1     -47.950  40.235  27.353  1.00  0.00     0.071 A 
ATOM     53  N   UNL     1     -45.710  39.637  26.561  1.00  0.00    -0.218 NA
ATOM     54  C   UNL     1     -47.712  41.575  27.000  1.00  0.00     0.137 A 
ATOM     55  C   UNL     1     -45.597  40.949  26.297  1.00  0.00     0.120 A 
ATOM     56  N   UNL     1     -46.509  41.916  26.488  1.00  0.00    -0.219 NA
ATOM     57  H   UNL     1     -44.651  41.270  25.875  1.00  0.00     0.106 H 
BRANCH  50  58
ATOM     58  C   UNL     1     -50.261  39.972  28.508  1.00  0.00     0.095 A 
ATOM     59  C   UNL     1     -51.530  39.410  28.231  1.00  0.00    -0.016 A 
ATOM     60  N   UNL     1     -50.356  40.999  29.365  1.00  0.00    -0.173 NA
ATOM     61  C   UNL     1     -52.423  40.160  28.959  1.00  0.00     0.025 A 
ATOM     62  H   UNL     1     -51.765  38.566  27.597  1.00  0.00     0.066 H 
ATOM     63  N   UNL     1     -51.675  41.087  29.619  1.00  0.00    -0.275 N 
ATOM     64  H   UNL     1     -53.497  40.095  29.068  1.00  0.00     0.084 H 
BRANCH  63  65
ATOM     65  C   UNL     1     -52.155  42.096  30.531  1.00  0.00     0.030 C 
ATOM     66  H   UNL     1     -51.305  42.590  31.008  1.00  0.00     0.048 H 
ATOM     67  H   UNL     1     -52.777  41.609  31.286  1.00  0.00     0.048 H 
ATOM     68  H   UNL     1     -52.738  42.824  29.963  1.00  0.00     0.048 H 
ENDBRANCH  63  65
ENDBRANCH  50  58
BRANCH  54  69
ATOM     69  N   UNL     1     -48.640  42.596  27.141  1.00  0.00    -0.383 N 
ATOM     70  H   UNL     1     -49.273  42.438  27.932  1.00  0.00     0.158 HD
ATOM     71  H   UNL     1     -48.212  43.507  27.067  1.00  0.00     0.158 HD
ENDBRANCH  54  69
ENDBRANCH  39  47
ENDBRANCH   1  35
TORSDOF 13
ENDMDL
MODEL 5
REMARK VINA RESULT:      -8.1      2.460      3.890
REMARK SMILES CCc1cc(N(C)C)c2ccc(OC[C@H]3O[C@@H](n4cc(-c5ccn(C)n5)c5c(N)ncnc54)[C@@H](F)[C@@H]3O)cc2n1
REMARK SMILES IDX 14 1 13 4 12 5 3 6 4 7 40 8 5 9 39 11 9 12 38 13 10 14 11 16
REMARK SMILES IDX 2 19 1 22 6 26 7 27 8 31 15 35 16 36 36 37 17 39 34 40 35 43
REMARK SMILES IDX 37 45 18 47 19 48 33 49 20 50 27 52 32 53 28 54 31 55 30 56
REMARK SMILES IDX 21 58 22 59 26 60 23 61 24 63 25 65 29 69
REMARK H PARENT 14 2 14 3 4 10 38 15 10 17 11 18 2 20 2 21 1 23 1 24 1 25 7 28
REMARK H PARENT 7 29 7 30 8 32 8 33 8 34 15 38 36 41 17 42 34 44 37 46 19 51
REMARK H PARENT 31 57 22 62 23 64 25 66 25 67 25 68 29 70 29 71
REMARK Flexibility Score: inf
ROOT
ATOM      1  C   UNL     1     -48.464  35.318  26.827  1.00  0.00     0.117 C 
ATOM      2  H   UNL     1     -49.018  35.897  27.577  1.00  0.00     0.073 H 
ATOM      3  H   UNL     1     -48.753  35.638  25.819  1.00  0.00     0.073 H 
ENDROOT
BRANCH   1   4
ATOM      4  O   UNL     1     -48.745  33.926  26.963  1.00  0.00    -0.491 OA
BRANCH   4   5
ATOM      5  C   UNL     1     -48.162  33.072  26.071  1.00  0.00     0.121 A 
ATOM      6  C   UNL     1     -48.453  28.657  24.320  1.00  0.00     0.043 A 
ATOM      7  C   UNL     1     -47.401  28.858  23.437  1.00  0.00    -0.016 A 
ATOM      8  N   UNL     1     -48.886  29.616  25.166  1.00  0.00    -0.253 NA
ATOM      9  C   UNL     1     -46.748  30.094  23.418  1.00  0.00     0.047 A 
ATOM     10  H   UNL     1     -47.084  28.050  22.788  1.00  0.00     0.066 H 
ATOM     11  C   UNL     1     -48.274  30.812  25.158  1.00  0.00     0.076 A 
ATOM     12  C   UNL     1     -47.192  31.108  24.306  1.00  0.00     0.024 A 
ATOM     13  C   UNL     1     -48.732  31.796  26.023  1.00  0.00     0.007 A 
ATOM     14  C   UNL     1     -46.610  32.394  24.368  1.00  0.00    -0.047 A 
ATOM     15  H   UNL     1     -49.574  31.566  26.675  1.00  0.00     0.069 H 
ATOM     16  C   UNL     1     -47.086  33.368  25.248  1.00  0.00    -0.019 A 
ATOM     17  H   UNL     1     -45.775  32.639  23.714  1.00  0.00     0.063 H 
ATOM     18  H   UNL     1     -46.595  34.335  25.263  1.00  0.00     0.066 H 
BRANCH   6  19
ATOM     19  C   UNL     1     -49.180  27.339  24.365  1.00  0.00    -0.013 C 
ATOM     20  H   UNL     1     -49.188  26.904  23.359  1.00  0.00     0.033 H 
ATOM     21  H   UNL     1     -50.229  27.492  24.646  1.00  0.00     0.033 H 
BRANCH  19  22
ATOM     22  C   UNL     1     -48.521  26.371  25.335  1.00  0.00    -0.060 C 
ATOM     23  H   UNL     1     -49.270  25.835  25.926  1.00  0.00     0.023 H 
ATOM     24  H   UNL     1     -47.869  26.913  26.028  1.00  0.00     0.023 H 
ATOM     25  H   UNL     1     -47.913  25.629  24.806  1.00  0.00     0.023 H 
ENDBRANCH  19  22
ENDBRANCH   6  19
BRANCH   9  26
ATOM     26  N   UNL     1     -45.642  30.341  22.560  1.00  0.00    -0.377 N 
BRANCH  26  27
ATOM     27  C   UNL     1     -44.866  29.115  22.347  1.00  0.00     0.006 C 
ATOM     28  H   UNL     1     -43.791  29.323  22.276  1.00  0.00     0.046 H 
ATOM     29  H   UNL     1     -45.185  28.594  21.437  1.00  0.00     0.046 H 
ATOM     30  H   UNL     1     -45.023  28.426  23.184  1.00  0.00     0.046 H 
ENDBRANCH  26  27
BRANCH  26  31
ATOM     31  C   UNL     1     -45.973  31.066  21.332  1.00  0.00     0.006 C 
ATOM     32  H   UNL     1     -46.984  30.841  20.976  1.00  0.00     0.046 H 
ATOM     33  H   UNL     1     -45.270  30.780  20.542  1.00  0.00     0.046 H 
ATOM     34  H   UNL     1     -45.874  32.148  21.475  1.00  0.00     0.046 H 
ENDBRANCH  26  31
ENDBRANCH   9  26
ENDBRANCH   4   5
ENDBRANCH   1   4
BRANCH   1  35
ATOM     35  C   UNL     1     -46.964  35.573  27.041  1.00  0.00     0.123 C 
ATOM     36  O   UNL     1     -46.608  36.791  26.354  1.00  0.00    -0.345 OA
ATOM     37  C   UNL     1     -46.543  35.722  28.505  1.00  0.00     0.119 C 
ATOM     38  H   UNL     1     -46.407  34.766  26.552  1.00  0.00     0.067 H 
ATOM     39  C   UNL     1     -46.140  37.746  27.329  1.00  0.00     0.169 C 
ATOM     40  C   UNL     1     -46.449  37.215  28.721  1.00  0.00     0.173 C 
ATOM     41  H   UNL     1     -47.239  35.225  29.189  1.00  0.00     0.066 H 
ATOM     42  H   UNL     1     -45.057  37.819  27.175  1.00  0.00     0.088 H 
ATOM     43  F   UNL     1     -47.641  37.667  29.193  1.00  0.00    -0.239 F 
ATOM     44  H   UNL     1     -45.682  37.510  29.445  1.00  0.00     0.074 H 
BRANCH  37  45
ATOM     45  O   UNL     1     -45.253  35.123  28.698  1.00  0.00    -0.387 OA
ATOM     46  H   UNL     1     -45.332  34.483  29.428  1.00  0.00     0.211 HD
ENDBRANCH  37  45
BRANCH  39  47
ATOM     47  N   UNL     1     -46.715  39.053  27.064  1.00  0.00    -0.302 N 
ATOM     48  C   UNL     1     -48.021  39.430  27.240  1.00  0.00     0.019 A 
ATOM     49  C   UNL     1     -45.981  40.132  26.640  1.00  0.00     0.148 A 
ATOM     50  C   UNL     1     -48.126  40.779  26.950  1.00  0.00     0.033 A 
ATOM     51  H   UNL     1     -48.757  38.720  27.591  1.00  0.00     0.083 H 
ATOM     52  C   UNL     1     -46.834  41.227  26.523  1.00  0.00     0.071 A 
ATOM     53  N   UNL     1     -44.658  40.106  26.396  1.00  0.00    -0.218 NA
ATOM     54  C   UNL     1     -46.242  42.417  26.064  1.00  0.00     0.137 A 
ATOM     55  C   UNL     1     -44.211  41.308  25.995  1.00  0.00     0.120 A 
ATOM     56  N   UNL     1     -44.913  42.440  25.825  1.00  0.00    -0.219 NA
ATOM     57  H   UNL     1     -43.150  41.374  25.781  1.00  0.00     0.106 H 
BRANCH  50  58
ATOM     58  C   UNL     1     -49.340  41.592  27.095  1.00  0.00     0.095 A 
ATOM     59  C   UNL     1     -50.019  41.798  28.320  1.00  0.00    -0.016 A 
ATOM     60  N   UNL     1     -49.923  42.263  26.092  1.00  0.00    -0.173 NA
ATOM     61  C   UNL     1     -51.069  42.632  28.013  1.00  0.00     0.025 A 
ATOM     62  H   UNL     1     -49.774  41.406  29.296  1.00  0.00     0.066 H 
ATOM     63  N   UNL     1     -50.964  42.883  26.679  1.00  0.00    -0.275 N 
ATOM     64  H   UNL     1     -51.847  43.065  28.627  1.00  0.00     0.084 H 
BRANCH  63  65
ATOM     65  C   UNL     1     -51.826  43.724  25.887  1.00  0.00     0.030 C 
ATOM     66  H   UNL     1     -51.228  44.268  25.150  1.00  0.00     0.048 H 
ATOM     67  H   UNL     1     -52.328  44.429  26.554  1.00  0.00     0.048 H 
ATOM     68  H   UNL     1     -52.555  43.089  25.378  1.00  0.00     0.048 H 
ENDBRANCH  63  65
ENDBRANCH  50  58
BRANCH  54  69
ATOM     69  N   UNL     1     -46.936  43.595  25.834  1.00  0.00    -0.383 N 
ATOM     70  H   UNL     1     -47.296  44.009  26.700  1.00  0.00     0.158 HD
ATOM     71  H   UNL     1     -46.442  44.206  25.201  1.00  0.00     0.158 HD
ENDBRANCH  54  69
ENDBRANCH  39  47
ENDBRANCH   1  35
TORSDOF 13
ENDMDL
MODEL 6
REMARK VINA RESULT:      -8.1      1.645      2.084
REMARK SMILES CCc1cc(N(C)C)c2ccc(OC[C@H]3O[C@@H](n4cc(-c5ccn(C)n5)c5c(N)ncnc54)[C@@H](F)[C@@H]3O)cc2n1
REMARK SMILES IDX 14 1 13 4 12 5 3 6 4 7 40 8 5 9 39 11 9 12 38 13 10 14 11 16
REMARK SMILES IDX 2 19 1 22 6 26 7 27 8 31 15 35 16 36 36 37 17 39 34 40 35 43
REMARK SMILES IDX 37 45 18 47 19 48 33 49 20 50 27 52 32 53 28 54 31 55 30 56
REMARK SMILES IDX 21 58 22 59 26 60 23 61 24 63 25 65 29 69
REMARK H PARENT 14 2 14 3 4 10 38 15 10 17 11 18 2 20 2 21 1 23 1 24 1 25 7 28
REMARK H PARENT 7 29 7 30 8 32 8 33 8 34 15 38 36 41 17 42 34 44 37 46 19 51
REMARK H PARENT 31 57 22 62 23 64 25 66 25 67 25 68 29 70 29 71
REMARK Flexibility Score: inf
ROOT
ATOM      1  C   UNL     1     -45.772  34.743  27.760  1.00  0.00     0.117 C 
ATOM      2  H   UNL     1     -44.862  35.334  27.923  1.00  0.00     0.073 H 
ATOM      3  H   UNL     1     -45.679  33.768  28.252  1.00  0.00     0.073 H 
ENDROOT
BRANCH   1   4
ATOM      4  O   UNL     1     -45.989  34.535  26.366  1.00  0.00    -0.491 OA
BRANCH   4   5
ATOM      5  C   UNL     1     -46.626  33.387  25.989  1.00  0.00     0.121 A 
ATOM      6  C   UNL     1     -47.417  30.558  22.245  1.00  0.00     0.043 A 
ATOM      7  C   UNL     1     -48.156  29.650  22.993  1.00  0.00    -0.016 A 
ATOM      8  N   UNL     1     -46.877  31.673  22.782  1.00  0.00    -0.253 NA
ATOM      9  C   UNL     1     -48.364  29.892  24.354  1.00  0.00     0.047 A 
ATOM     10  H   UNL     1     -48.580  28.778  22.511  1.00  0.00     0.066 H 
ATOM     11  C   UNL     1     -47.062  31.919  24.089  1.00  0.00     0.076 A 
ATOM     12  C   UNL     1     -47.805  31.063  24.928  1.00  0.00     0.024 A 
ATOM     13  C   UNL     1     -46.494  33.061  24.635  1.00  0.00     0.007 A 
ATOM     14  C   UNL     1     -47.947  31.404  26.292  1.00  0.00    -0.047 A 
ATOM     15  H   UNL     1     -45.915  33.717  23.986  1.00  0.00     0.069 H 
ATOM     16  C   UNL     1     -47.368  32.560  26.818  1.00  0.00    -0.019 A 
ATOM     17  H   UNL     1     -48.515  30.752  26.953  1.00  0.00     0.063 H 
ATOM     18  H   UNL     1     -47.519  32.781  27.870  1.00  0.00     0.066 H 
BRANCH   6  19
ATOM     19  C   UNL     1     -47.172  30.326  20.778  1.00  0.00    -0.013 C 
ATOM     20  H   UNL     1     -47.507  29.317  20.517  1.00  0.00     0.033 H 
ATOM     21  H   UNL     1     -46.097  30.363  20.562  1.00  0.00     0.033 H 
BRANCH  19  22
ATOM     22  C   UNL     1     -47.906  31.346  19.922  1.00  0.00    -0.060 C 
ATOM     23  H   UNL     1     -48.991  31.251  20.039  1.00  0.00     0.023 H 
ATOM     24  H   UNL     1     -47.667  31.195  18.864  1.00  0.00     0.023 H 
ATOM     25  H   UNL     1     -47.626  32.370  20.192  1.00  0.00     0.023 H 
ENDBRANCH  19  22
ENDBRANCH   6  19
BRANCH   9  26
ATOM     26  N   UNL     1     -49.144  29.016  25.158  1.00  0.00    -0.377 N 
BRANCH  26  27
ATOM     27  C   UNL     1     -50.385  28.646  24.470  1.00  0.00     0.006 C 
ATOM     28  H   UNL     1     -50.458  29.120  23.483  1.00  0.00     0.046 H 
ATOM     29  H   UNL     1     -51.267  28.923  25.060  1.00  0.00     0.046 H 
ATOM     30  H   UNL     1     -50.421  27.561  24.328  1.00  0.00     0.046 H 
ENDBRANCH  26  27
BRANCH  26  31
ATOM     31  C   UNL     1     -48.405  27.883  25.717  1.00  0.00     0.006 C 
ATOM     32  H   UNL     1     -47.962  28.116  26.691  1.00  0.00     0.046 H 
ATOM     33  H   UNL     1     -47.590  27.611  25.037  1.00  0.00     0.046 H 
ATOM     34  H   UNL     1     -49.049  27.002  25.815  1.00  0.00     0.046 H 
ENDBRANCH  26  31
ENDBRANCH   9  26
ENDBRANCH   4   5
ENDBRANCH   1   4
BRANCH   1  35
ATOM     35  C   UNL     1     -46.955  35.516  28.364  1.00  0.00     0.123 C 
ATOM     36  O   UNL     1     -46.442  36.706  28.999  1.00  0.00    -0.345 OA
ATOM     37  C   UNL     1     -48.021  35.947  27.354  1.00  0.00     0.119 C 
ATOM     38  H   UNL     1     -47.393  34.903  29.160  1.00  0.00     0.067 H 
ATOM     39  C   UNL     1     -47.005  37.858  28.335  1.00  0.00     0.169 C 
ATOM     40  C   UNL     1     -47.702  37.396  27.064  1.00  0.00     0.173 C 
ATOM     41  H   UNL     1     -48.025  35.314  26.461  1.00  0.00     0.066 H 
ATOM     42  H   UNL     1     -47.730  38.280  29.041  1.00  0.00     0.088 H 
ATOM     43  F   UNL     1     -46.887  37.458  25.977  1.00  0.00    -0.239 F 
ATOM     44  H   UNL     1     -48.583  38.007  26.842  1.00  0.00     0.074 H 
BRANCH  37  45
ATOM     45  O   UNL     1     -49.321  35.849  27.954  1.00  0.00    -0.387 OA
ATOM     46  H   UNL     1     -49.533  36.719  28.339  1.00  0.00     0.211 HD
ENDBRANCH  37  45
BRANCH  39  47
ATOM     47  N   UNL     1     -45.975  38.855  28.106  1.00  0.00    -0.302 N 
ATOM     48  C   UNL     1     -45.953  39.805  27.118  1.00  0.00     0.019 A 
ATOM     49  C   UNL     1     -44.881  39.014  28.917  1.00  0.00     0.148 A 
ATOM     50  C   UNL     1     -44.841  40.604  27.309  1.00  0.00     0.033 A 
ATOM     51  H   UNL     1     -46.747  39.856  26.385  1.00  0.00     0.083 H 
ATOM     52  C   UNL     1     -44.124  40.079  28.432  1.00  0.00     0.071 A 
ATOM     53  N   UNL     1     -44.615  38.257  29.997  1.00  0.00    -0.218 NA
ATOM     54  C   UNL     1     -42.939  40.357  29.137  1.00  0.00     0.137 A 
ATOM     55  C   UNL     1     -43.477  38.643  30.597  1.00  0.00     0.120 A 
ATOM     56  N   UNL     1     -42.644  39.634  30.239  1.00  0.00    -0.219 NA
ATOM     57  H   UNL     1     -43.192  38.084  31.482  1.00  0.00     0.106 H 
BRANCH  50  58
ATOM     58  C   UNL     1     -44.495  41.791  26.516  1.00  0.00     0.095 A 
ATOM     59  C   UNL     1     -44.419  41.811  25.104  1.00  0.00    -0.016 A 
ATOM     60  N   UNL     1     -44.252  43.002  27.038  1.00  0.00    -0.173 NA
ATOM     61  C   UNL     1     -44.100  43.108  24.778  1.00  0.00     0.025 A 
ATOM     62  H   UNL     1     -44.584  40.997  24.412  1.00  0.00     0.066 H 
ATOM     63  N   UNL     1     -44.017  43.776  25.962  1.00  0.00    -0.275 N 
ATOM     64  H   UNL     1     -43.948  43.595  23.825  1.00  0.00     0.084 H 
BRANCH  63  65
ATOM     65  C   UNL     1     -43.726  45.176  26.147  1.00  0.00     0.030 C 
ATOM     66  H   UNL     1     -44.435  45.605  26.860  1.00  0.00     0.048 H 
ATOM     67  H   UNL     1     -43.817  45.678  25.180  1.00  0.00     0.048 H 
ATOM     68  H   UNL     1     -42.709  45.268  26.534  1.00  0.00     0.048 H 
ENDBRANCH  63  65
ENDBRANCH  50  58
BRANCH  54  69
ATOM     69  N   UNL     1     -42.032  41.342  28.777  1.00  0.00    -0.383 N 
ATOM     70  H   UNL     1     -41.172  41.300  29.335  1.00  0.00     0.158 HD
ATOM     71  H   UNL     1     -41.930  41.412  27.776  1.00  0.00     0.158 HD
ENDBRANCH  54  69
ENDBRANCH  39  47
ENDBRANCH   1  35
TORSDOF 13
ENDMDL
MODEL 7
REMARK VINA RESULT:      -7.7      4.742      8.181
REMARK SMILES CCc1cc(N(C)C)c2ccc(OC[C@H]3O[C@@H](n4cc(-c5ccn(C)n5)c5c(N)ncnc54)[C@@H](F)[C@@H]3O)cc2n1
REMARK SMILES IDX 14 1 13 4 12 5 3 6 4 7 40 8 5 9 39 11 9 12 38 13 10 14 11 16
REMARK SMILES IDX 2 19 1 22 6 26 7 27 8 31 15 35 16 36 36 37 17 39 34 40 35 43
REMARK SMILES IDX 37 45 18 47 19 48 33 49 20 50 27 52 32 53 28 54 31 55 30 56
REMARK SMILES IDX 21 58 22 59 26 60 23 61 24 63 25 65 29 69
REMARK H PARENT 14 2 14 3 4 10 38 15 10 17 11 18 2 20 2 21 1 23 1 24 1 25 7 28
REMARK H PARENT 7 29 7 30 8 32 8 33 8 34 15 38 36 41 17 42 34 44 37 46 19 51
REMARK H PARENT 31 57 22 62 23 64 25 66 25 67 25 68 29 70 29 71
REMARK Flexibility Score: inf
ROOT
ATOM      1  C   UNL     1     -48.421  37.506  27.874  1.00  0.00     0.117 C 
ATOM      2  H   UNL     1     -49.101  36.876  27.286  1.00  0.00     0.073 H 
ATOM      3  H   UNL     1     -48.905  37.809  28.809  1.00  0.00     0.073 H 
ENDROOT
BRANCH   1   4
ATOM      4  O   UNL     1     -48.065  38.676  27.140  1.00  0.00    -0.491 OA
BRANCH   4   5
ATOM      5  C   UNL     1     -48.504  39.879  27.616  1.00  0.00     0.121 A 
ATOM      6  C   UNL     1     -49.176  44.421  26.367  1.00  0.00     0.043 A 
ATOM      7  C   UNL     1     -49.705  44.761  27.605  1.00  0.00    -0.016 A 
ATOM      8  N   UNL     1     -48.758  43.172  26.073  1.00  0.00    -0.253 NA
ATOM      9  C   UNL     1     -49.806  43.784  28.599  1.00  0.00     0.047 A 
ATOM     10  H   UNL     1     -50.014  45.782  27.794  1.00  0.00     0.066 H 
ATOM     11  C   UNL     1     -48.852  42.218  27.015  1.00  0.00     0.076 A 
ATOM     12  C   UNL     1     -49.365  42.468  28.303  1.00  0.00     0.024 A 
ATOM     13  C   UNL     1     -48.430  40.934  26.701  1.00  0.00     0.007 A 
ATOM     14  C   UNL     1     -49.425  41.402  29.229  1.00  0.00    -0.047 A 
ATOM     15  H   UNL     1     -48.041  40.742  25.702  1.00  0.00     0.069 H 
ATOM     16  C   UNL     1     -48.992  40.118  28.892  1.00  0.00    -0.019 A 
ATOM     17  H   UNL     1     -49.821  41.578  30.227  1.00  0.00     0.063 H 
ATOM     18  H   UNL     1     -49.049  39.340  29.645  1.00  0.00     0.066 H 
BRANCH   6  19
ATOM     19  C   UNL     1     -49.057  45.449  25.273  1.00  0.00    -0.013 C 
ATOM     20  H   UNL     1     -48.330  46.210  25.578  1.00  0.00     0.033 H 
ATOM     21  H   UNL     1     -50.013  45.968  25.132  1.00  0.00     0.033 H 
BRANCH  19  22
ATOM     22  C   UNL     1     -48.614  44.818  23.961  1.00  0.00    -0.060 C 
ATOM     23  H   UNL     1     -47.587  45.105  23.713  1.00  0.00     0.023 H 
ATOM     24  H   UNL     1     -49.263  45.150  23.144  1.00  0.00     0.023 H 
ATOM     25  H   UNL     1     -48.658  43.725  24.010  1.00  0.00     0.023 H 
ENDBRANCH  19  22
ENDBRANCH   6  19
BRANCH   9  26
ATOM     26  N   UNL     1     -50.305  44.086  29.896  1.00  0.00    -0.377 N 
BRANCH  26  27
ATOM     27  C   UNL     1     -49.345  44.905  30.644  1.00  0.00     0.006 C 
ATOM     28  H   UNL     1     -48.968  44.379  31.530  1.00  0.00     0.046 H 
ATOM     29  H   UNL     1     -49.792  45.854  30.960  1.00  0.00     0.046 H 
ATOM     30  H   UNL     1     -48.489  45.149  30.005  1.00  0.00     0.046 H 
ENDBRANCH  26  27
BRANCH  26  31
ATOM     31  C   UNL     1     -51.677  44.595  29.917  1.00  0.00     0.006 C 
ATOM     32  H   UNL     1     -52.398  43.864  29.536  1.00  0.00     0.046 H 
ATOM     33  H   UNL     1     -51.742  45.488  29.286  1.00  0.00     0.046 H 
ATOM     34  H   UNL     1     -51.970  44.895  30.930  1.00  0.00     0.046 H 
ENDBRANCH  26  31
ENDBRANCH   9  26
ENDBRANCH   4   5
ENDBRANCH   1   4
BRANCH   1  35
ATOM     35  C   UNL     1     -47.162  36.682  28.186  1.00  0.00     0.123 C 
ATOM     36  O   UNL     1     -46.046  37.278  27.492  1.00  0.00    -0.345 OA
ATOM     37  C   UNL     1     -46.800  36.603  29.671  1.00  0.00     0.119 C 
ATOM     38  H   UNL     1     -47.295  35.681  27.760  1.00  0.00     0.067 H 
ATOM     39  C   UNL     1     -45.082  37.720  28.470  1.00  0.00     0.169 C 
ATOM     40  C   UNL     1     -45.715  37.640  29.851  1.00  0.00     0.173 C 
ATOM     41  H   UNL     1     -47.669  36.764  30.318  1.00  0.00     0.066 H 
ATOM     42  H   UNL     1     -44.239  37.022  28.391  1.00  0.00     0.088 H 
ATOM     43  F   UNL     1     -46.288  38.815  30.225  1.00  0.00    -0.239 F 
ATOM     44  H   UNL     1     -44.979  37.380  30.619  1.00  0.00     0.074 H 
BRANCH  37  45
ATOM     45  O   UNL     1     -46.279  35.300  29.971  1.00  0.00    -0.387 OA
ATOM     46  H   UNL     1     -46.915  34.644  29.632  1.00  0.00     0.211 HD
ENDBRANCH  37  45
BRANCH  39  47
ATOM     47  N   UNL     1     -44.595  39.045  28.128  1.00  0.00    -0.302 N 
ATOM     48  C   UNL     1     -45.034  39.845  27.106  1.00  0.00     0.019 A 
ATOM     49  C   UNL     1     -43.636  39.709  28.849  1.00  0.00     0.148 A 
ATOM     50  C   UNL     1     -44.367  41.054  27.184  1.00  0.00     0.033 A 
ATOM     51  H   UNL     1     -45.808  39.504  26.432  1.00  0.00     0.083 H 
ATOM     52  C   UNL     1     -43.438  40.961  28.271  1.00  0.00     0.071 A 
ATOM     53  N   UNL     1     -43.016  39.212  29.935  1.00  0.00    -0.218 NA
ATOM     54  C   UNL     1     -42.455  41.765  28.875  1.00  0.00     0.137 A 
ATOM     55  C   UNL     1     -42.127  40.086  30.434  1.00  0.00     0.120 A 
ATOM     56  N   UNL     1     -41.822  41.312  29.978  1.00  0.00    -0.219 NA
ATOM     57  H   UNL     1     -41.585  39.763  31.317  1.00  0.00     0.106 H 
BRANCH  50  58
ATOM     58  C   UNL     1     -44.607  42.220  26.324  1.00  0.00     0.095 A 
ATOM     59  C   UNL     1     -44.573  42.186  24.910  1.00  0.00    -0.016 A 
ATOM     60  N   UNL     1     -44.925  43.440  26.778  1.00  0.00    -0.173 NA
ATOM     61  C   UNL     1     -44.878  43.467  24.511  1.00  0.00     0.025 A 
ATOM     62  H   UNL     1     -44.367  41.345  24.263  1.00  0.00     0.066 H 
ATOM     63  N   UNL     1     -45.084  44.171  25.658  1.00  0.00    -0.275 N 
ATOM     64  H   UNL     1     -44.979  43.911  23.531  1.00  0.00     0.084 H 
BRANCH  63  65
ATOM     65  C   UNL     1     -45.450  45.561  25.766  1.00  0.00     0.030 C 
ATOM     66  H   UNL     1     -46.181  45.807  24.991  1.00  0.00     0.048 H 
ATOM     67  H   UNL     1     -44.549  46.166  25.637  1.00  0.00     0.048 H 
ATOM     68  H   UNL     1     -45.887  45.727  26.754  1.00  0.00     0.048 H 
ENDBRANCH  63  65
ENDBRANCH  50  58
BRANCH  54  69
ATOM     69  N   UNL     1     -42.080  43.017  28.412  1.00  0.00    -0.383 N 
ATOM     70  H   UNL     1     -41.760  42.991  27.438  1.00  0.00     0.158 HD
ATOM     71  H   UNL     1     -42.754  43.727  28.658  1.00  0.00     0.158 HD
ENDBRANCH  54  69
ENDBRANCH  39  47
ENDBRANCH   1  35
TORSDOF 13
ENDMDL
