MODEL 1
REMARK VINA RESULT:      -9.4      0.000      0.000
REMARK SMILES CNc1ccc2ccc(OCc3cncc(-n4cc(CCN(C)C)c5c(N)ncnc54)c3)cc2n1
REMARK SMILES IDX 12 1 13 2 14 3 15 4 16 5 32 6 11 10 10 13 9 14 3 15 4 16
REMARK SMILES IDX 35 17 5 18 34 20 6 21 33 23 7 24 8 26 2 29 1 31 17 35 18 36
REMARK SMILES IDX 31 37 19 38 25 40 30 41 26 42 29 43 28 44 20 46 21 49 22 52
REMARK SMILES IDX 23 53 24 57 27 61
REMARK H PARENT 13 7 15 8 32 9 11 11 11 12 4 19 5 22 33 25 7 27 8 28 2 30 1 32
REMARK H PARENT 1 33 1 34 18 39 29 45 20 47 20 48 21 50 21 51 23 54 23 55
REMARK H PARENT 23 56 24 58 24 59 24 60 27 62 27 63
REMARK Flexibility Score: inf
ROOT
ATOM      1  C   UNL     1     -46.652  35.217  26.858  1.00  0.00     0.010 A 
ATOM      2  C   UNL     1     -46.098  34.730  28.033  1.00  0.00     0.034 A 
ATOM      3  N   UNL     1     -45.997  33.418  28.329  1.00  0.00    -0.262 NA
ATOM      4  C   UNL     1     -46.460  32.537  27.404  1.00  0.00     0.051 A 
ATOM      5  C   UNL     1     -47.020  32.904  26.186  1.00  0.00     0.066 A 
ATOM      6  C   UNL     1     -47.102  34.279  25.918  1.00  0.00    -0.028 A 
ATOM      7  H   UNL     1     -45.707  35.395  28.798  1.00  0.00     0.084 H 
ATOM      8  H   UNL     1     -46.362  31.508  27.731  1.00  0.00     0.086 H 
ATOM      9  H   UNL     1     -47.498  34.655  24.980  1.00  0.00     0.065 H 
ENDROOT
BRANCH   1  10
ATOM     10  C   UNL     1     -46.698  36.703  26.612  1.00  0.00     0.115 C 
ATOM     11  H   UNL     1     -47.555  36.901  25.957  1.00  0.00     0.076 H 
ATOM     12  H   UNL     1     -45.812  37.061  26.072  1.00  0.00     0.076 H 
BRANCH  10  13
ATOM     13  O   UNL     1     -46.914  37.473  27.798  1.00  0.00    -0.489 OA
BRANCH  13  14
ATOM     14  C   UNL     1     -45.838  38.054  28.413  1.00  0.00     0.122 A 
ATOM     15  C   UNL     1     -42.631  41.538  27.939  1.00  0.00     0.126 A 
ATOM     16  C   UNL     1     -42.039  41.235  29.155  1.00  0.00    -0.019 A 
ATOM     17  N   UNL     1     -43.677  40.844  27.453  1.00  0.00    -0.231 NA
ATOM     18  C   UNL     1     -42.555  40.190  29.914  1.00  0.00    -0.049 A 
ATOM     19  H   UNL     1     -41.175  41.788  29.505  1.00  0.00     0.066 H 
ATOM     20  C   UNL     1     -44.181  39.832  28.183  1.00  0.00     0.076 A 
ATOM     21  C   UNL     1     -43.650  39.466  29.433  1.00  0.00     0.001 A 
ATOM     22  H   UNL     1     -42.097  39.945  30.867  1.00  0.00     0.063 H 
ATOM     23  C   UNL     1     -45.268  39.115  27.701  1.00  0.00     0.007 A 
ATOM     24  C   UNL     1     -44.214  38.404  30.159  1.00  0.00    -0.049 A 
ATOM     25  H   UNL     1     -45.686  39.395  26.736  1.00  0.00     0.069 H 
ATOM     26  C   UNL     1     -45.308  37.701  29.650  1.00  0.00    -0.019 A 
ATOM     27  H   UNL     1     -43.808  38.121  31.128  1.00  0.00     0.063 H 
ATOM     28  H   UNL     1     -45.721  36.900  30.253  1.00  0.00     0.066 H 
BRANCH  15  29
ATOM     29  N   UNL     1     -42.160  42.565  27.118  1.00  0.00    -0.373 N 
ATOM     30  H   UNL     1     -41.210  42.270  26.889  1.00  0.00     0.161 HD
BRANCH  29  31
ATOM     31  C   UNL     1     -42.950  42.767  25.915  1.00  0.00     0.005 C 
ATOM     32  H   UNL     1     -43.964  42.370  26.026  1.00  0.00     0.045 H 
ATOM     33  H   UNL     1     -43.039  43.841  25.723  1.00  0.00     0.045 H 
ATOM     34  H   UNL     1     -42.474  42.309  25.040  1.00  0.00     0.045 H 
ENDBRANCH  29  31
ENDBRANCH  15  29
ENDBRANCH  13  14
ENDBRANCH  10  13
ENDBRANCH   1  10
BRANCH   5  35
ATOM     35  N   UNL     1     -47.504  31.936  25.248  1.00  0.00    -0.299 N 
ATOM     36  C   UNL     1     -48.529  31.034  25.493  1.00  0.00     0.015 A 
ATOM     37  C   UNL     1     -47.062  31.707  23.946  1.00  0.00     0.150 A 
ATOM     38  C   UNL     1     -48.736  30.224  24.392  1.00  0.00    -0.015 A 
ATOM     39  H   UNL     1     -49.020  31.001  26.455  1.00  0.00     0.083 H 
ATOM     40  C   UNL     1     -47.816  30.672  23.392  1.00  0.00     0.065 A 
ATOM     41  N   UNL     1     -46.087  32.378  23.302  1.00  0.00    -0.218 NA
ATOM     42  C   UNL     1     -47.521  30.318  22.063  1.00  0.00     0.136 A 
ATOM     43  C   UNL     1     -45.889  31.943  22.053  1.00  0.00     0.120 A 
ATOM     44  N   UNL     1     -46.545  30.967  21.407  1.00  0.00    -0.219 NA
ATOM     45  H   UNL     1     -45.105  32.442  21.490  1.00  0.00     0.106 H 
BRANCH  38  46
ATOM     46  C   UNL     1     -49.722  29.096  24.249  1.00  0.00    -0.013 C 
ATOM     47  H   UNL     1     -50.485  29.219  25.027  1.00  0.00     0.033 H 
ATOM     48  H   UNL     1     -50.221  29.208  23.279  1.00  0.00     0.033 H 
BRANCH  46  49
ATOM     49  C   UNL     1     -49.114  27.682  24.336  1.00  0.00     0.002 C 
ATOM     50  H   UNL     1     -48.612  27.448  23.388  1.00  0.00     0.043 H 
ATOM     51  H   UNL     1     -49.925  26.945  24.415  1.00  0.00     0.043 H 
BRANCH  49  52
ATOM     52  N   UNL     1     -48.155  27.428  25.425  1.00  0.00    -0.309 NA
BRANCH  52  53
ATOM     53  C   UNL     1     -48.798  27.292  26.728  1.00  0.00    -0.014 C 
ATOM     54  H   UNL     1     -49.330  28.214  26.988  1.00  0.00     0.039 H 
ATOM     55  H   UNL     1     -48.084  27.078  27.530  1.00  0.00     0.039 H 
ATOM     56  H   UNL     1     -49.549  26.494  26.710  1.00  0.00     0.039 H 
ENDBRANCH  52  53
BRANCH  52  57
ATOM     57  C   UNL     1     -47.273  26.297  25.152  1.00  0.00    -0.014 C 
ATOM     58  H   UNL     1     -46.724  26.409  24.211  1.00  0.00     0.039 H 
ATOM     59  H   UNL     1     -46.549  26.163  25.963  1.00  0.00     0.039 H 
ATOM     60  H   UNL     1     -47.853  25.369  25.094  1.00  0.00     0.039 H 
ENDBRANCH  52  57
ENDBRANCH  49  52
ENDBRANCH  46  49
ENDBRANCH  38  46
BRANCH  42  61
ATOM     61  N   UNL     1     -48.196  29.338  21.345  1.00  0.00    -0.383 N 
ATOM     62  H   UNL     1     -47.913  29.267  20.377  1.00  0.00     0.158 HD
ATOM     63  H   UNL     1     -48.176  28.466  21.865  1.00  0.00     0.158 HD
ENDBRANCH  42  61
ENDBRANCH   5  35
TORSDOF 12
ENDMDL
MODEL 2
REMARK VINA RESULT:      -9.4      2.038     11.326
REMARK SMILES CNc1ccc2ccc(OCc3cncc(-n4cc(CCN(C)C)c5c(N)ncnc54)c3)cc2n1
REMARK SMILES IDX 12 1 13 2 14 3 15 4 16 5 32 6 11 10 10 13 9 14 3 15 4 16
REMARK SMILES IDX 35 17 5 18 34 20 6 21 33 23 7 24 8 26 2 29 1 31 17 35 18 36
REMARK SMILES IDX 31 37 19 38 25 40 30 41 26 42 29 43 28 44 20 46 21 49 22 52
REMARK SMILES IDX 23 53 24 57 27 61
REMARK H PARENT 13 7 15 8 32 9 11 11 11 12 4 19 5 22 33 25 7 27 8 28 2 30 1 32
REMARK H PARENT 1 33 1 34 18 39 29 45 20 47 20 48 21 50 21 51 23 54 23 55
REMARK H PARENT 23 56 24 58 24 59 24 60 27 62 27 63
REMARK Flexibility Score: inf
ROOT
ATOM      1  C   UNL     1     -45.796  35.910  28.339  1.00  0.00     0.010 A 
ATOM      2  C   UNL     1     -46.115  35.895  29.689  1.00  0.00     0.034 A 
ATOM      3  N   UNL     1     -46.032  36.974  30.494  1.00  0.00    -0.262 NA
ATOM      4  C   UNL     1     -45.619  38.138  29.928  1.00  0.00     0.051 A 
ATOM      5  C   UNL     1     -45.286  38.280  28.586  1.00  0.00     0.066 A 
ATOM      6  C   UNL     1     -45.392  37.133  27.785  1.00  0.00    -0.028 A 
ATOM      7  H   UNL     1     -46.458  34.990  30.184  1.00  0.00     0.084 H 
ATOM      8  H   UNL     1     -45.558  38.947  30.648  1.00  0.00     0.086 H 
ATOM      9  H   UNL     1     -45.180  37.159  26.721  1.00  0.00     0.065 H 
ENDROOT
BRANCH   1  10
ATOM     10  C   UNL     1     -45.945  34.654  27.520  1.00  0.00     0.115 C 
ATOM     11  H   UNL     1     -46.403  33.894  28.166  1.00  0.00     0.076 H 
ATOM     12  H   UNL     1     -44.975  34.246  27.209  1.00  0.00     0.076 H 
BRANCH  10  13
ATOM     13  O   UNL     1     -46.817  34.804  26.397  1.00  0.00    -0.489 OA
BRANCH  13  14
ATOM     14  C   UNL     1     -47.358  33.682  25.827  1.00  0.00     0.122 A 
ATOM     15  C   UNL     1     -46.417  30.160  22.768  1.00  0.00     0.126 A 
ATOM     16  C   UNL     1     -47.659  29.577  22.971  1.00  0.00    -0.019 A 
ATOM     17  N   UNL     1     -46.043  31.294  23.390  1.00  0.00    -0.231 NA
ATOM     18  C   UNL     1     -48.544  30.170  23.865  1.00  0.00    -0.049 A 
ATOM     19  H   UNL     1     -47.947  28.684  22.429  1.00  0.00     0.066 H 
ATOM     20  C   UNL     1     -46.895  31.873  24.256  1.00  0.00     0.076 A 
ATOM     21  C   UNL     1     -48.168  31.341  24.530  1.00  0.00     0.001 A 
ATOM     22  H   UNL     1     -49.519  29.721  24.028  1.00  0.00     0.063 H 
ATOM     23  C   UNL     1     -46.518  33.035  24.914  1.00  0.00     0.007 A 
ATOM     24  C   UNL     1     -49.020  31.980  25.446  1.00  0.00    -0.049 A 
ATOM     25  H   UNL     1     -45.533  33.450  24.709  1.00  0.00     0.069 H 
ATOM     26  C   UNL     1     -48.614  33.147  26.094  1.00  0.00    -0.019 A 
ATOM     27  H   UNL     1     -50.004  31.569  25.664  1.00  0.00     0.063 H 
ATOM     28  H   UNL     1     -49.298  33.597  26.806  1.00  0.00     0.066 H 
BRANCH  15  29
ATOM     29  N   UNL     1     -45.482  29.627  21.878  1.00  0.00    -0.373 N 
ATOM     30  H   UNL     1     -44.968  30.447  21.554  1.00  0.00     0.161 HD
BRANCH  29  31
ATOM     31  C   UNL     1     -44.587  28.653  22.479  1.00  0.00     0.005 C 
ATOM     32  H   UNL     1     -43.540  28.967  22.410  1.00  0.00     0.045 H 
ATOM     33  H   UNL     1     -44.829  28.555  23.542  1.00  0.00     0.045 H 
ATOM     34  H   UNL     1     -44.700  27.664  22.018  1.00  0.00     0.045 H 
ENDBRANCH  29  31
ENDBRANCH  15  29
ENDBRANCH  13  14
ENDBRANCH  10  13
ENDBRANCH   1  10
BRANCH   5  35
ATOM     35  N   UNL     1     -44.846  39.528  28.039  1.00  0.00    -0.299 N 
ATOM     36  C   UNL     1     -45.428  40.173  26.957  1.00  0.00     0.015 A 
ATOM     37  C   UNL     1     -43.781  40.323  28.462  1.00  0.00     0.150 A 
ATOM     38  C   UNL     1     -44.750  41.342  26.667  1.00  0.00    -0.015 A 
ATOM     39  H   UNL     1     -46.267  39.734  26.437  1.00  0.00     0.083 H 
ATOM     40  C   UNL     1     -43.713  41.453  27.647  1.00  0.00     0.065 A 
ATOM     41  N   UNL     1     -42.957  40.072  29.499  1.00  0.00    -0.218 NA
ATOM     42  C   UNL     1     -42.703  42.386  27.945  1.00  0.00     0.136 A 
ATOM     43  C   UNL     1     -42.032  41.022  29.674  1.00  0.00     0.120 A 
ATOM     44  N   UNL     1     -41.865  42.149  28.967  1.00  0.00    -0.219 NA
ATOM     45  H   UNL     1     -41.333  40.865  30.491  1.00  0.00     0.106 H 
BRANCH  38  46
ATOM     46  C   UNL     1     -45.028  42.318  25.556  1.00  0.00    -0.013 C 
ATOM     47  H   UNL     1     -46.041  42.122  25.185  1.00  0.00     0.033 H 
ATOM     48  H   UNL     1     -45.025  43.326  25.986  1.00  0.00     0.033 H 
BRANCH  46  49
ATOM     49  C   UNL     1     -44.028  42.274  24.383  1.00  0.00     0.002 C 
ATOM     50  H   UNL     1     -44.177  41.345  23.819  1.00  0.00     0.043 H 
ATOM     51  H   UNL     1     -43.007  42.201  24.783  1.00  0.00     0.043 H 
BRANCH  49  52
ATOM     52  N   UNL     1     -44.066  43.392  23.424  1.00  0.00    -0.309 NA
BRANCH  52  53
ATOM     53  C   UNL     1     -45.121  44.356  23.716  1.00  0.00    -0.014 C 
ATOM     54  H   UNL     1     -46.077  44.010  23.307  1.00  0.00     0.039 H 
ATOM     55  H   UNL     1     -44.915  45.347  23.297  1.00  0.00     0.039 H 
ATOM     56  H   UNL     1     -45.265  44.461  24.797  1.00  0.00     0.039 H 
ENDBRANCH  52  53
BRANCH  52  57
ATOM     57  C   UNL     1     -42.773  44.054  23.273  1.00  0.00    -0.014 C 
ATOM     58  H   UNL     1     -41.935  43.417  23.578  1.00  0.00     0.039 H 
ATOM     59  H   UNL     1     -42.614  44.364  22.235  1.00  0.00     0.039 H 
ATOM     60  H   UNL     1     -42.741  44.965  23.880  1.00  0.00     0.039 H 
ENDBRANCH  52  57
ENDBRANCH  49  52
ENDBRANCH  46  49
ENDBRANCH  38  46
BRANCH  42  61
ATOM     61  N   UNL     1     -42.515  43.582  27.261  1.00  0.00    -0.383 N 
ATOM     62  H   UNL     1     -43.248  43.798  26.599  1.00  0.00     0.158 HD
ATOM     63  H   UNL     1     -42.303  44.319  27.925  1.00  0.00     0.158 HD
ENDBRANCH  42  61
ENDBRANCH   5  35
TORSDOF 12
ENDMDL
MODEL 3
REMARK VINA RESULT:      -9.2      1.929      2.630
REMARK SMILES CNc1ccc2ccc(OCc3cncc(-n4cc(CCN(C)C)c5c(N)ncnc54)c3)cc2n1
REMARK SMILES IDX 12 1 13 2 14 3 15 4 16 5 32 6 11 10 10 13 9 14 3 15 4 16
REMARK SMILES IDX 35 17 5 18 34 20 6 21 33 23 7 24 8 26 2 29 1 31 17 35 18 36
REMARK SMILES IDX 31 37 19 38 25 40 30 41 26 42 29 43 28 44 20 46 21 49 22 52
REMARK SMILES IDX 23 53 24 57 27 61
REMARK H PARENT 13 7 15 8 32 9 11 11 11 12 4 19 5 22 33 25 7 27 8 28 2 30 1 32
REMARK H PARENT 1 33 1 34 18 39 29 45 20 47 20 48 21 50 21 51 23 54 23 55
REMARK H PARENT 23 56 24 58 24 59 24 60 27 62 27 63
REMARK Flexibility Score: inf
ROOT
ATOM      1  C   UNL     1     -47.909  34.140  26.291  1.00  0.00     0.010 A 
ATOM      2  C   UNL     1     -46.616  34.276  25.806  1.00  0.00     0.034 A 
ATOM      3  N   UNL     1     -45.996  33.346  25.050  1.00  0.00    -0.262 NA
ATOM      4  C   UNL     1     -46.698  32.224  24.748  1.00  0.00     0.051 A 
ATOM      5  C   UNL     1     -48.003  31.982  25.163  1.00  0.00     0.066 A 
ATOM      6  C   UNL     1     -48.611  32.977  25.944  1.00  0.00    -0.028 A 
ATOM      7  H   UNL     1     -46.019  35.159  26.015  1.00  0.00     0.084 H 
ATOM      8  H   UNL     1     -46.119  31.522  24.159  1.00  0.00     0.086 H 
ATOM      9  H   UNL     1     -49.637  32.885  26.287  1.00  0.00     0.065 H 
ENDROOT
BRANCH   1  10
ATOM     10  C   UNL     1     -48.522  35.248  27.109  1.00  0.00     0.115 C 
ATOM     11  H   UNL     1     -49.580  35.000  27.257  1.00  0.00     0.076 H 
ATOM     12  H   UNL     1     -48.504  36.210  26.582  1.00  0.00     0.076 H 
BRANCH  10  13
ATOM     13  O   UNL     1     -47.955  35.374  28.416  1.00  0.00    -0.489 OA
BRANCH  13  14
ATOM     14  C   UNL     1     -46.984  36.316  28.626  1.00  0.00     0.122 A 
ATOM     15  C   UNL     1     -45.027  40.222  26.737  1.00  0.00     0.126 A 
ATOM     16  C   UNL     1     -44.149  40.364  27.801  1.00  0.00    -0.019 A 
ATOM     17  N   UNL     1     -45.913  39.211  26.664  1.00  0.00    -0.231 NA
ATOM     18  C   UNL     1     -44.197  39.443  28.841  1.00  0.00    -0.049 A 
ATOM     19  H   UNL     1     -43.422  41.168  27.816  1.00  0.00     0.066 H 
ATOM     20  C   UNL     1     -45.964  38.317  27.668  1.00  0.00     0.076 A 
ATOM     21  C   UNL     1     -45.119  38.394  28.791  1.00  0.00     0.001 A 
ATOM     22  H   UNL     1     -43.511  39.546  29.677  1.00  0.00     0.063 H 
ATOM     23  C   UNL     1     -46.881  37.276  27.612  1.00  0.00     0.007 A 
ATOM     24  C   UNL     1     -45.213  37.438  29.815  1.00  0.00    -0.049 A 
ATOM     25  H   UNL     1     -47.540  37.212  26.749  1.00  0.00     0.069 H 
ATOM     26  C   UNL     1     -46.146  36.403  29.733  1.00  0.00    -0.019 A 
ATOM     27  H   UNL     1     -44.564  37.497  30.686  1.00  0.00     0.063 H 
ATOM     28  H   UNL     1     -46.195  35.697  30.556  1.00  0.00     0.066 H 
BRANCH  15  29
ATOM     29  N   UNL     1     -45.030  41.101  25.652  1.00  0.00    -0.373 N 
ATOM     30  H   UNL     1     -45.399  40.535  24.888  1.00  0.00     0.161 HD
BRANCH  29  31
ATOM     31  C   UNL     1     -45.838  42.291  25.860  1.00  0.00     0.005 C 
ATOM     32  H   UNL     1     -45.599  43.075  25.135  1.00  0.00     0.045 H 
ATOM     33  H   UNL     1     -46.893  42.032  25.725  1.00  0.00     0.045 H 
ATOM     34  H   UNL     1     -45.718  42.686  26.875  1.00  0.00     0.045 H 
ENDBRANCH  29  31
ENDBRANCH  15  29
ENDBRANCH  13  14
ENDBRANCH  10  13
ENDBRANCH   1  10
BRANCH   5  35
ATOM     35  N   UNL     1     -48.698  30.776  24.826  1.00  0.00    -0.299 N 
ATOM     36  C   UNL     1     -48.795  29.660  25.643  1.00  0.00     0.015 A 
ATOM     37  C   UNL     1     -49.391  30.484  23.652  1.00  0.00     0.150 A 
ATOM     38  C   UNL     1     -49.512  28.659  25.014  1.00  0.00    -0.015 A 
ATOM     39  H   UNL     1     -48.312  29.636  26.610  1.00  0.00     0.083 H 
ATOM     40  C   UNL     1     -49.917  29.196  23.751  1.00  0.00     0.065 A 
ATOM     41  N   UNL     1     -49.558  31.305  22.596  1.00  0.00    -0.218 NA
ATOM     42  C   UNL     1     -50.674  28.738  22.657  1.00  0.00     0.136 A 
ATOM     43  C   UNL     1     -50.282  30.754  21.615  1.00  0.00     0.120 A 
ATOM     44  N   UNL     1     -50.843  29.536  21.590  1.00  0.00    -0.219 NA
ATOM     45  H   UNL     1     -50.440  31.369  20.733  1.00  0.00     0.106 H 
BRANCH  38  46
ATOM     46  C   UNL     1     -49.820  27.279  25.531  1.00  0.00    -0.013 C 
ATOM     47  H   UNL     1     -49.908  27.344  26.622  1.00  0.00     0.033 H 
ATOM     48  H   UNL     1     -50.800  26.985  25.139  1.00  0.00     0.033 H 
BRANCH  46  49
ATOM     49  C   UNL     1     -48.789  26.197  25.156  1.00  0.00     0.002 C 
ATOM     50  H   UNL     1     -48.510  26.316  24.101  1.00  0.00     0.043 H 
ATOM     51  H   UNL     1     -49.267  25.209  25.211  1.00  0.00     0.043 H 
BRANCH  49  52
ATOM     52  N   UNL     1     -47.545  26.149  25.945  1.00  0.00    -0.309 NA
BRANCH  52  53
ATOM     53  C   UNL     1     -47.411  24.921  26.721  1.00  0.00    -0.014 C 
ATOM     54  H   UNL     1     -46.407  24.852  27.153  1.00  0.00     0.039 H 
ATOM     55  H   UNL     1     -47.581  24.022  26.119  1.00  0.00     0.039 H 
ATOM     56  H   UNL     1     -48.113  24.914  27.562  1.00  0.00     0.039 H 
ENDBRANCH  52  53
BRANCH  52  57
ATOM     57  C   UNL     1     -46.353  26.398  25.139  1.00  0.00    -0.014 C 
ATOM     58  H   UNL     1     -45.478  25.845  25.499  1.00  0.00     0.039 H 
ATOM     59  H   UNL     1     -46.528  26.128  24.092  1.00  0.00     0.039 H 
ATOM     60  H   UNL     1     -46.104  27.465  25.150  1.00  0.00     0.039 H 
ENDBRANCH  52  57
ENDBRANCH  49  52
ENDBRANCH  46  49
ENDBRANCH  38  46
BRANCH  42  61
ATOM     61  N   UNL     1     -51.301  27.498  22.602  1.00  0.00    -0.383 N 
ATOM     62  H   UNL     1     -52.179  27.458  23.100  1.00  0.00     0.158 HD
ATOM     63  H   UNL     1     -51.336  27.182  21.638  1.00  0.00     0.158 HD
ENDBRANCH  42  61
ENDBRANCH   5  35
TORSDOF 12
ENDMDL
MODEL 4
REMARK VINA RESULT:      -9.0      2.601     11.802
REMARK SMILES CNc1ccc2ccc(OCc3cncc(-n4cc(CCN(C)C)c5c(N)ncnc54)c3)cc2n1
REMARK SMILES IDX 12 1 13 2 14 3 15 4 16 5 32 6 11 10 10 13 9 14 3 15 4 16
REMARK SMILES IDX 35 17 5 18 34 20 6 21 33 23 7 24 8 26 2 29 1 31 17 35 18 36
REMARK SMILES IDX 31 37 19 38 25 40 30 41 26 42 29 43 28 44 20 46 21 49 22 52
REMARK SMILES IDX 23 53 24 57 27 61
REMARK H PARENT 13 7 15 8 32 9 11 11 11 12 4 19 5 22 33 25 7 27 8 28 2 30 1 32
REMARK H PARENT 1 33 1 34 18 39 29 45 20 47 20 48 21 50 21 51 23 54 23 55
REMARK H PARENT 23 56 24 58 24 59 24 60 27 62 27 63
REMARK Flexibility Score: inf
ROOT
ATOM      1  C   UNL     1     -47.647  34.964  26.486  1.00  0.00     0.010 A 
ATOM      2  C   UNL     1     -48.903  35.173  27.035  1.00  0.00     0.034 A 
ATOM      3  N   UNL     1     -49.266  36.304  27.675  1.00  0.00    -0.262 NA
ATOM      4  C   UNL     1     -48.336  37.289  27.767  1.00  0.00     0.051 A 
ATOM      5  C   UNL     1     -47.051  37.202  27.244  1.00  0.00     0.066 A 
ATOM      6  C   UNL     1     -46.718  36.011  26.583  1.00  0.00    -0.028 A 
ATOM      7  H   UNL     1     -49.683  34.418  26.979  1.00  0.00     0.084 H 
ATOM      8  H   UNL     1     -48.701  38.150  28.316  1.00  0.00     0.086 H 
ATOM      9  H   UNL     1     -45.747  35.868  26.119  1.00  0.00     0.065 H 
ENDROOT
BRANCH   1  10
ATOM     10  C   UNL     1     -47.347  33.673  25.770  1.00  0.00     0.115 C 
ATOM     11  H   UNL     1     -46.259  33.530  25.792  1.00  0.00     0.076 H 
ATOM     12  H   UNL     1     -47.628  33.713  24.709  1.00  0.00     0.076 H 
BRANCH  10  13
ATOM     13  O   UNL     1     -47.915  32.523  26.403  1.00  0.00    -0.489 OA
BRANCH  13  14
ATOM     14  C   UNL     1     -48.495  31.559  25.622  1.00  0.00     0.122 A 
ATOM     15  C   UNL     1     -49.191  26.863  25.298  1.00  0.00     0.126 A 
ATOM     16  C   UNL     1     -49.925  26.995  24.129  1.00  0.00    -0.019 A 
ATOM     17  N   UNL     1     -48.655  27.919  25.937  1.00  0.00    -0.231 NA
ATOM     18  C   UNL     1     -50.135  28.267  23.607  1.00  0.00    -0.049 A 
ATOM     19  H   UNL     1     -50.314  26.123  23.616  1.00  0.00     0.066 H 
ATOM     20  C   UNL     1     -48.856  29.152  25.436  1.00  0.00     0.076 A 
ATOM     21  C   UNL     1     -49.599  29.378  24.263  1.00  0.00     0.001 A 
ATOM     22  H   UNL     1     -50.707  28.380  22.690  1.00  0.00     0.063 H 
ATOM     23  C   UNL     1     -48.320  30.252  26.092  1.00  0.00     0.007 A 
ATOM     24  C   UNL     1     -49.783  30.685  23.782  1.00  0.00    -0.049 A 
ATOM     25  H   UNL     1     -47.747  30.085  27.001  1.00  0.00     0.069 H 
ATOM     26  C   UNL     1     -49.233  31.773  24.462  1.00  0.00    -0.019 A 
ATOM     27  H   UNL     1     -50.360  30.863  22.878  1.00  0.00     0.063 H 
ATOM     28  H   UNL     1     -49.416  32.765  24.064  1.00  0.00     0.066 H 
BRANCH  15  29
ATOM     29  N   UNL     1     -48.930  25.617  25.874  1.00  0.00    -0.373 N 
ATOM     30  H   UNL     1     -49.302  24.956  25.191  1.00  0.00     0.161 HD
BRANCH  29  31
ATOM     31  C   UNL     1     -47.521  25.370  26.128  1.00  0.00     0.005 C 
ATOM     32  H   UNL     1     -47.358  24.934  27.119  1.00  0.00     0.045 H 
ATOM     33  H   UNL     1     -47.147  24.652  25.391  1.00  0.00     0.045 H 
ATOM     34  H   UNL     1     -46.928  26.286  26.033  1.00  0.00     0.045 H 
ENDBRANCH  29  31
ENDBRANCH  15  29
ENDBRANCH  13  14
ENDBRANCH  10  13
ENDBRANCH   1  10
BRANCH   5  35
ATOM     35  N   UNL     1     -46.102  38.267  27.377  1.00  0.00    -0.299 N 
ATOM     36  C   UNL     1     -45.908  39.280  26.450  1.00  0.00     0.015 A 
ATOM     37  C   UNL     1     -45.209  38.495  28.423  1.00  0.00     0.150 A 
ATOM     38  C   UNL     1     -44.903  40.133  26.867  1.00  0.00    -0.015 A 
ATOM     39  H   UNL     1     -46.474  39.305  25.530  1.00  0.00     0.083 H 
ATOM     40  C   UNL     1     -44.474  39.647  28.142  1.00  0.00     0.065 A 
ATOM     41  N   UNL     1     -45.079  37.753  29.540  1.00  0.00    -0.218 NA
ATOM     42  C   UNL     1     -43.532  40.046  29.108  1.00  0.00     0.136 A 
ATOM     43  C   UNL     1     -44.145  38.223  30.375  1.00  0.00     0.120 A 
ATOM     44  N   UNL     1     -43.379  39.314  30.224  1.00  0.00    -0.219 NA
ATOM     45  H   UNL     1     -43.990  37.656  31.289  1.00  0.00     0.106 H 
BRANCH  38  46
ATOM     46  C   UNL     1     -44.355  41.336  26.146  1.00  0.00    -0.013 C 
ATOM     47  H   UNL     1     -43.677  41.856  26.833  1.00  0.00     0.033 H 
ATOM     48  H   UNL     1     -43.756  40.977  25.302  1.00  0.00     0.033 H 
BRANCH  46  49
ATOM     49  C   UNL     1     -45.418  42.321  25.619  1.00  0.00     0.002 C 
ATOM     50  H   UNL     1     -46.312  41.759  25.320  1.00  0.00     0.043 H 
ATOM     51  H   UNL     1     -45.052  42.783  24.692  1.00  0.00     0.043 H 
BRANCH  49  52
ATOM     52  N   UNL     1     -45.849  43.396  26.530  1.00  0.00    -0.309 NA
BRANCH  52  53
ATOM     53  C   UNL     1     -44.876  44.479  26.631  1.00  0.00    -0.014 C 
ATOM     54  H   UNL     1     -44.270  44.532  25.720  1.00  0.00     0.039 H 
ATOM     55  H   UNL     1     -44.196  44.356  27.481  1.00  0.00     0.039 H 
ATOM     56  H   UNL     1     -45.380  45.447  26.727  1.00  0.00     0.039 H 
ENDBRANCH  52  53
BRANCH  52  57
ATOM     57  C   UNL     1     -47.178  43.909  26.212  1.00  0.00    -0.014 C 
ATOM     58  H   UNL     1     -47.148  44.758  25.520  1.00  0.00     0.039 H 
ATOM     59  H   UNL     1     -47.802  43.124  25.771  1.00  0.00     0.039 H 
ATOM     60  H   UNL     1     -47.686  44.237  27.125  1.00  0.00     0.039 H 
ENDBRANCH  52  57
ENDBRANCH  49  52
ENDBRANCH  46  49
ENDBRANCH  38  46
BRANCH  42  61
ATOM     61  N   UNL     1     -42.743  41.186  29.009  1.00  0.00    -0.383 N 
ATOM     62  H   UNL     1     -42.257  41.426  29.862  1.00  0.00     0.158 HD
ATOM     63  H   UNL     1     -42.157  41.118  28.183  1.00  0.00     0.158 HD
ENDBRANCH  42  61
ENDBRANCH   5  35
TORSDOF 12
ENDMDL
MODEL 5
REMARK VINA RESULT:      -8.8      1.657      2.396
REMARK SMILES CNc1ccc2ccc(OCc3cncc(-n4cc(CCN(C)C)c5c(N)ncnc54)c3)cc2n1
REMARK SMILES IDX 12 1 13 2 14 3 15 4 16 5 32 6 11 10 10 13 9 14 3 15 4 16
REMARK SMILES IDX 35 17 5 18 34 20 6 21 33 23 7 24 8 26 2 29 1 31 17 35 18 36
REMARK SMILES IDX 31 37 19 38 25 40 30 41 26 42 29 43 28 44 20 46 21 49 22 52
REMARK SMILES IDX 23 53 24 57 27 61
REMARK H PARENT 13 7 15 8 32 9 11 11 11 12 4 19 5 22 33 25 7 27 8 28 2 30 1 32
REMARK H PARENT 1 33 1 34 18 39 29 45 20 47 20 48 21 50 21 51 23 54 23 55
REMARK H PARENT 23 56 24 58 24 59 24 60 27 62 27 63
REMARK Flexibility Score: inf
ROOT
ATOM      1  C   UNL     1     -47.963  34.672  26.575  1.00  0.00     0.010 A 
ATOM      2  C   UNL     1     -46.643  34.996  26.294  1.00  0.00     0.034 A 
ATOM      3  N   UNL     1     -45.788  34.175  25.650  1.00  0.00    -0.262 NA
ATOM      4  C   UNL     1     -46.269  32.969  25.252  1.00  0.00     0.051 A 
ATOM      5  C   UNL     1     -47.574  32.539  25.464  1.00  0.00     0.066 A 
ATOM      6  C   UNL     1     -48.430  33.426  26.133  1.00  0.00    -0.028 A 
ATOM      7  H   UNL     1     -46.217  35.952  26.585  1.00  0.00     0.084 H 
ATOM      8  H   UNL     1     -45.512  32.364  24.765  1.00  0.00     0.086 H 
ATOM      9  H   UNL     1     -49.472  33.185  26.315  1.00  0.00     0.065 H 
ENDROOT
BRANCH   1  10
ATOM     10  C   UNL     1     -48.845  35.669  27.281  1.00  0.00     0.115 C 
ATOM     11  H   UNL     1     -49.640  35.106  27.785  1.00  0.00     0.076 H 
ATOM     12  H   UNL     1     -49.349  36.345  26.578  1.00  0.00     0.076 H 
BRANCH  10  13
ATOM     13  O   UNL     1     -48.169  36.410  28.301  1.00  0.00    -0.489 OA
BRANCH  13  14
ATOM     14  C   UNL     1     -47.394  37.477  27.938  1.00  0.00     0.122 A 
ATOM     15  C   UNL     1     -43.465  39.884  29.132  1.00  0.00     0.126 A 
ATOM     16  C   UNL     1     -43.610  40.759  28.067  1.00  0.00    -0.019 A 
ATOM     17  N   UNL     1     -44.341  38.891  29.373  1.00  0.00    -0.231 NA
ATOM     18  C   UNL     1     -44.687  40.596  27.202  1.00  0.00    -0.049 A 
ATOM     19  H   UNL     1     -42.909  41.572  27.917  1.00  0.00     0.066 H 
ATOM     20  C   UNL     1     -45.385  38.727  28.540  1.00  0.00     0.076 A 
ATOM     21  C   UNL     1     -45.600  39.562  27.428  1.00  0.00     0.001 A 
ATOM     22  H   UNL     1     -44.809  41.278  26.366  1.00  0.00     0.063 H 
ATOM     23  C   UNL     1     -46.290  37.700  28.769  1.00  0.00     0.007 A 
ATOM     24  C   UNL     1     -46.703  39.349  26.585  1.00  0.00    -0.049 A 
ATOM     25  H   UNL     1     -46.128  37.049  29.626  1.00  0.00     0.069 H 
ATOM     26  C   UNL     1     -47.597  38.307  26.839  1.00  0.00    -0.019 A 
ATOM     27  H   UNL     1     -46.870  39.990  25.722  1.00  0.00     0.063 H 
ATOM     28  H   UNL     1     -48.424  38.168  26.152  1.00  0.00     0.066 H 
BRANCH  15  29
ATOM     29  N   UNL     1     -42.416  39.994  30.047  1.00  0.00    -0.373 N 
ATOM     30  H   UNL     1     -41.902  39.120  29.926  1.00  0.00     0.161 HD
BRANCH  29  31
ATOM     31  C   UNL     1     -41.555  41.142  29.820  1.00  0.00     0.005 C 
ATOM     32  H   UNL     1     -40.497  40.887  29.943  1.00  0.00     0.045 H 
ATOM     33  H   UNL     1     -41.688  41.490  28.790  1.00  0.00     0.045 H 
ATOM     34  H   UNL     1     -41.808  41.974  30.488  1.00  0.00     0.045 H 
ENDBRANCH  29  31
ENDBRANCH  15  29
ENDBRANCH  13  14
ENDBRANCH  10  13
ENDBRANCH   1  10
BRANCH   5  35
ATOM     35  N   UNL     1     -48.030  31.251  25.033  1.00  0.00    -0.299 N 
ATOM     36  C   UNL     1     -48.563  30.277  25.865  1.00  0.00     0.015 A 
ATOM     37  C   UNL     1     -48.030  30.727  23.741  1.00  0.00     0.150 A 
ATOM     38  C   UNL     1     -48.882  29.143  25.142  1.00  0.00    -0.015 A 
ATOM     39  H   UNL     1     -48.645  30.442  26.930  1.00  0.00     0.083 H 
ATOM     40  C   UNL     1     -48.567  29.441  23.778  1.00  0.00     0.065 A 
ATOM     41  N   UNL     1     -47.609  31.354  22.624  1.00  0.00    -0.218 NA
ATOM     42  C   UNL     1     -48.667  28.763  22.549  1.00  0.00     0.136 A 
ATOM     43  C   UNL     1     -47.742  30.605  21.523  1.00  0.00     0.120 A 
ATOM     44  N   UNL     1     -48.243  29.365  21.426  1.00  0.00    -0.219 NA
ATOM     45  H   UNL     1     -47.407  31.058  20.594  1.00  0.00     0.106 H 
BRANCH  38  46
ATOM     46  C   UNL     1     -49.449  27.848  25.659  1.00  0.00    -0.013 C 
ATOM     47  H   UNL     1     -50.449  28.057  26.056  1.00  0.00     0.033 H 
ATOM     48  H   UNL     1     -49.569  27.171  24.806  1.00  0.00     0.033 H 
BRANCH  46  49
ATOM     49  C   UNL     1     -48.598  27.147  26.736  1.00  0.00     0.002 C 
ATOM     50  H   UNL     1     -48.944  27.463  27.729  1.00  0.00     0.043 H 
ATOM     51  H   UNL     1     -47.563  27.510  26.670  1.00  0.00     0.043 H 
BRANCH  49  52
ATOM     52  N   UNL     1     -48.570  25.674  26.719  1.00  0.00    -0.309 NA
BRANCH  52  53
ATOM     53  C   UNL     1     -49.696  25.093  25.995  1.00  0.00    -0.014 C 
ATOM     54  H   UNL     1     -49.473  25.043  24.923  1.00  0.00     0.039 H 
ATOM     55  H   UNL     1     -50.620  25.667  26.120  1.00  0.00     0.039 H 
ATOM     56  H   UNL     1     -49.880  24.064  26.323  1.00  0.00     0.039 H 
ENDBRANCH  52  53
BRANCH  52  57
ATOM     57  C   UNL     1     -47.300  25.137  26.240  1.00  0.00    -0.014 C 
ATOM     58  H   UNL     1     -46.573  24.990  27.047  1.00  0.00     0.039 H 
ATOM     59  H   UNL     1     -47.451  24.180  25.730  1.00  0.00     0.039 H 
ATOM     60  H   UNL     1     -46.854  25.816  25.506  1.00  0.00     0.039 H 
ENDBRANCH  52  57
ENDBRANCH  49  52
ENDBRANCH  46  49
ENDBRANCH  38  46
BRANCH  42  61
ATOM     61  N   UNL     1     -49.210  27.492  22.397  1.00  0.00    -0.383 N 
ATOM     62  H   UNL     1     -48.705  26.767  22.888  1.00  0.00     0.158 HD
ATOM     63  H   UNL     1     -50.206  27.528  22.586  1.00  0.00     0.158 HD
ENDBRANCH  42  61
ENDBRANCH   5  35
TORSDOF 12
ENDMDL
MODEL 6
REMARK VINA RESULT:      -8.8      2.203     11.616
REMARK SMILES CNc1ccc2ccc(OCc3cncc(-n4cc(CCN(C)C)c5c(N)ncnc54)c3)cc2n1
REMARK SMILES IDX 12 1 13 2 14 3 15 4 16 5 32 6 11 10 10 13 9 14 3 15 4 16
REMARK SMILES IDX 35 17 5 18 34 20 6 21 33 23 7 24 8 26 2 29 1 31 17 35 18 36
REMARK SMILES IDX 31 37 19 38 25 40 30 41 26 42 29 43 28 44 20 46 21 49 22 52
REMARK SMILES IDX 23 53 24 57 27 61
REMARK H PARENT 13 7 15 8 32 9 11 11 11 12 4 19 5 22 33 25 7 27 8 28 2 30 1 32
REMARK H PARENT 1 33 1 34 18 39 29 45 20 47 20 48 21 50 21 51 23 54 23 55
REMARK H PARENT 23 56 24 58 24 59 24 60 27 62 27 63
REMARK Flexibility Score: inf
ROOT
ATOM      1  C   UNL     1     -47.008  35.983  27.601  1.00  0.00     0.010 A 
ATOM      2  C   UNL     1     -48.319  36.405  27.767  1.00  0.00     0.034 A 
ATOM      3  N   UNL     1     -48.685  37.698  27.879  1.00  0.00    -0.262 NA
ATOM      4  C   UNL     1     -47.698  38.629  27.810  1.00  0.00     0.051 A 
ATOM      5  C   UNL     1     -46.353  38.330  27.631  1.00  0.00     0.066 A 
ATOM      6  C   UNL     1     -46.018  36.973  27.516  1.00  0.00    -0.028 A 
ATOM      7  H   UNL     1     -49.143  35.698  27.819  1.00  0.00     0.084 H 
ATOM      8  H   UNL     1     -48.075  39.638  27.933  1.00  0.00     0.086 H 
ATOM      9  H   UNL     1     -44.996  36.649  27.345  1.00  0.00     0.065 H 
ENDROOT
BRANCH   1  10
ATOM     10  C   UNL     1     -46.705  34.513  27.464  1.00  0.00     0.115 C 
ATOM     11  H   UNL     1     -46.513  34.122  28.471  1.00  0.00     0.076 H 
ATOM     12  H   UNL     1     -45.790  34.332  26.886  1.00  0.00     0.076 H 
BRANCH  10  13
ATOM     13  O   UNL     1     -47.796  33.751  26.940  1.00  0.00    -0.489 OA
BRANCH  13  14
ATOM     14  C   UNL     1     -47.547  32.831  25.957  1.00  0.00     0.122 A 
ATOM     15  C   UNL     1     -49.021  28.654  24.218  1.00  0.00     0.126 A 
ATOM     16  C   UNL     1     -48.075  28.678  23.205  1.00  0.00    -0.019 A 
ATOM     17  N   UNL     1     -49.120  29.634  25.136  1.00  0.00    -0.231 NA
ATOM     18  C   UNL     1     -47.210  29.763  23.117  1.00  0.00    -0.049 A 
ATOM     19  H   UNL     1     -47.995  27.858  22.501  1.00  0.00     0.066 H 
ATOM     20  C   UNL     1     -48.285  30.686  25.056  1.00  0.00     0.076 A 
ATOM     21  C   UNL     1     -47.305  30.797  24.053  1.00  0.00     0.001 A 
ATOM     22  H   UNL     1     -46.465  29.790  22.327  1.00  0.00     0.063 H 
ATOM     23  C   UNL     1     -48.384  31.710  25.988  1.00  0.00     0.007 A 
ATOM     24  C   UNL     1     -46.460  31.918  24.010  1.00  0.00    -0.049 A 
ATOM     25  H   UNL     1     -49.141  31.632  26.765  1.00  0.00     0.069 H 
ATOM     26  C   UNL     1     -46.582  32.934  24.959  1.00  0.00    -0.019 A 
ATOM     27  H   UNL     1     -45.704  32.009  23.232  1.00  0.00     0.063 H 
ATOM     28  H   UNL     1     -45.920  33.788  24.877  1.00  0.00     0.066 H 
BRANCH  15  29
ATOM     29  N   UNL     1     -49.915  27.592  24.375  1.00  0.00    -0.373 N 
ATOM     30  H   UNL     1     -49.938  27.448  25.385  1.00  0.00     0.161 HD
BRANCH  29  31
ATOM     31  C   UNL     1     -51.245  27.861  23.855  1.00  0.00     0.005 C 
ATOM     32  H   UNL     1     -51.215  28.169  22.804  1.00  0.00     0.045 H 
ATOM     33  H   UNL     1     -51.841  26.945  23.909  1.00  0.00     0.045 H 
ATOM     34  H   UNL     1     -51.760  28.630  24.443  1.00  0.00     0.045 H 
ENDBRANCH  29  31
ENDBRANCH  15  29
ENDBRANCH  13  14
ENDBRANCH  10  13
ENDBRANCH   1  10
BRANCH   5  35
ATOM     35  N   UNL     1     -45.347  39.349  27.577  1.00  0.00    -0.299 N 
ATOM     36  C   UNL     1     -45.226  40.293  26.568  1.00  0.00     0.015 A 
ATOM     37  C   UNL     1     -44.321  39.592  28.489  1.00  0.00     0.150 A 
ATOM     38  C   UNL     1     -44.139  41.115  26.802  1.00  0.00    -0.015 A 
ATOM     39  H   UNL     1     -45.902  40.293  25.725  1.00  0.00     0.083 H 
ATOM     40  C   UNL     1     -43.576  40.685  28.045  1.00  0.00     0.065 A 
ATOM     41  N   UNL     1     -44.085  38.912  29.628  1.00  0.00    -0.218 NA
ATOM     42  C   UNL     1     -42.503  41.090  28.860  1.00  0.00     0.136 A 
ATOM     43  C   UNL     1     -43.034  39.381  30.309  1.00  0.00     0.120 A 
ATOM     44  N   UNL     1     -42.245  40.419  29.994  1.00  0.00    -0.219 NA
ATOM     45  H   UNL     1     -42.791  38.862  31.233  1.00  0.00     0.106 H 
BRANCH  38  46
ATOM     46  C   UNL     1     -43.633  42.242  25.942  1.00  0.00    -0.013 C 
ATOM     47  H   UNL     1     -43.537  43.130  26.578  1.00  0.00     0.033 H 
ATOM     48  H   UNL     1     -42.628  41.975  25.596  1.00  0.00     0.033 H 
BRANCH  46  49
ATOM     49  C   UNL     1     -44.509  42.573  24.717  1.00  0.00     0.002 C 
ATOM     50  H   UNL     1     -45.275  41.795  24.603  1.00  0.00     0.043 H 
ATOM     51  H   UNL     1     -43.897  42.502  23.807  1.00  0.00     0.043 H 
BRANCH  49  52
ATOM     52  N   UNL     1     -45.191  43.879  24.711  1.00  0.00    -0.309 NA
BRANCH  52  53
ATOM     53  C   UNL     1     -45.336  44.438  23.371  1.00  0.00    -0.014 C 
ATOM     54  H   UNL     1     -45.135  43.671  22.615  1.00  0.00     0.039 H 
ATOM     55  H   UNL     1     -44.656  45.276  23.188  1.00  0.00     0.039 H 
ATOM     56  H   UNL     1     -46.363  44.780  23.201  1.00  0.00     0.039 H 
ENDBRANCH  52  53
BRANCH  52  57
ATOM     57  C   UNL     1     -46.471  43.852  25.413  1.00  0.00    -0.014 C 
ATOM     58  H   UNL     1     -47.161  44.628  25.063  1.00  0.00     0.039 H 
ATOM     59  H   UNL     1     -46.957  42.878  25.299  1.00  0.00     0.039 H 
ATOM     60  H   UNL     1     -46.317  44.000  26.488  1.00  0.00     0.039 H 
ENDBRANCH  52  57
ENDBRANCH  49  52
ENDBRANCH  46  49
ENDBRANCH  38  46
BRANCH  42  61
ATOM     61  N   UNL     1     -41.682  42.179  28.590  1.00  0.00    -0.383 N 
ATOM     62  H   UNL     1     -40.940  41.982  27.933  1.00  0.00     0.158 HD
ATOM     63  H   UNL     1     -42.256  42.985  28.363  1.00  0.00     0.158 HD
ENDBRANCH  42  61
ENDBRANCH   5  35
TORSDOF 12
ENDMDL
MODEL 7
REMARK VINA RESULT:      -8.6      2.509     11.257
REMARK SMILES CNc1ccc2ccc(OCc3cncc(-n4cc(CCN(C)C)c5c(N)ncnc54)c3)cc2n1
REMARK SMILES IDX 12 1 13 2 14 3 15 4 16 5 32 6 11 10 10 13 9 14 3 15 4 16
REMARK SMILES IDX 35 17 5 18 34 20 6 21 33 23 7 24 8 26 2 29 1 31 17 35 18 36
REMARK SMILES IDX 31 37 19 38 25 40 30 41 26 42 29 43 28 44 20 46 21 49 22 52
REMARK SMILES IDX 23 53 24 57 27 61
REMARK H PARENT 13 7 15 8 32 9 11 11 11 12 4 19 5 22 33 25 7 27 8 28 2 30 1 32
REMARK H PARENT 1 33 1 34 18 39 29 45 20 47 20 48 21 50 21 51 23 54 23 55
REMARK H PARENT 23 56 24 58 24 59 24 60 27 62 27 63
REMARK Flexibility Score: inf
ROOT
ATOM      1  C   UNL     1     -46.955  35.878  27.511  1.00  0.00     0.010 A 
ATOM      2  C   UNL     1     -46.358  35.641  28.741  1.00  0.00     0.034 A 
ATOM      3  N   UNL     1     -45.664  36.569  29.431  1.00  0.00    -0.262 NA
ATOM      4  C   UNL     1     -45.564  37.806  28.878  1.00  0.00     0.051 A 
ATOM      5  C   UNL     1     -46.131  38.166  27.661  1.00  0.00     0.066 A 
ATOM      6  C   UNL     1     -46.847  37.171  26.979  1.00  0.00    -0.028 A 
ATOM      7  H   UNL     1     -46.418  34.671  29.227  1.00  0.00     0.084 H 
ATOM      8  H   UNL     1     -44.971  38.481  29.484  1.00  0.00     0.086 H 
ATOM      9  H   UNL     1     -47.347  37.371  26.037  1.00  0.00     0.065 H 
ENDROOT
BRANCH   1  10
ATOM     10  C   UNL     1     -47.729  34.778  26.831  1.00  0.00     0.115 C 
ATOM     11  H   UNL     1     -47.746  35.005  25.758  1.00  0.00     0.076 H 
ATOM     12  H   UNL     1     -48.778  34.750  27.154  1.00  0.00     0.076 H 
BRANCH  10  13
ATOM     13  O   UNL     1     -47.124  33.489  26.959  1.00  0.00    -0.489 OA
BRANCH  13  14
ATOM     14  C   UNL     1     -47.462  32.510  26.063  1.00  0.00     0.122 A 
ATOM     15  C   UNL     1     -46.471  30.851  21.714  1.00  0.00     0.126 A 
ATOM     16  C   UNL     1     -47.383  29.814  21.841  1.00  0.00    -0.019 A 
ATOM     17  N   UNL     1     -46.274  31.761  22.687  1.00  0.00    -0.231 NA
ATOM     18  C   UNL     1     -48.107  29.695  23.022  1.00  0.00    -0.049 A 
ATOM     19  H   UNL     1     -47.547  29.117  21.027  1.00  0.00     0.066 H 
ATOM     20  C   UNL     1     -46.971  31.650  23.832  1.00  0.00     0.076 A 
ATOM     21  C   UNL     1     -47.907  30.621  24.049  1.00  0.00     0.001 A 
ATOM     22  H   UNL     1     -48.825  28.886  23.129  1.00  0.00     0.063 H 
ATOM     23  C   UNL     1     -46.769  32.573  24.849  1.00  0.00     0.007 A 
ATOM     24  C   UNL     1     -48.607  30.546  25.264  1.00  0.00    -0.049 A 
ATOM     25  H   UNL     1     -46.045  33.369  24.689  1.00  0.00     0.069 H 
ATOM     26  C   UNL     1     -48.383  31.488  26.270  1.00  0.00    -0.019 A 
ATOM     27  H   UNL     1     -49.328  29.749  25.436  1.00  0.00     0.063 H 
ATOM     28  H   UNL     1     -48.934  31.380  27.198  1.00  0.00     0.066 H 
BRANCH  15  29
ATOM     29  N   UNL     1     -45.717  31.041  20.553  1.00  0.00    -0.373 N 
ATOM     30  H   UNL     1     -45.654  30.103  20.155  1.00  0.00     0.161 HD
BRANCH  29  31
ATOM     31  C   UNL     1     -46.314  31.971  19.610  1.00  0.00     0.005 C 
ATOM     32  H   UNL     1     -46.504  31.499  18.640  1.00  0.00     0.045 H 
ATOM     33  H   UNL     1     -47.278  32.308  20.003  1.00  0.00     0.045 H 
ATOM     34  H   UNL     1     -45.684  32.857  19.465  1.00  0.00     0.045 H 
ENDBRANCH  29  31
ENDBRANCH  15  29
ENDBRANCH  13  14
ENDBRANCH  10  13
ENDBRANCH   1  10
BRANCH   5  35
ATOM     35  N   UNL     1     -45.987  39.482  27.114  1.00  0.00    -0.299 N 
ATOM     36  C   UNL     1     -44.799  40.026  26.650  1.00  0.00     0.015 A 
ATOM     37  C   UNL     1     -46.973  40.453  26.943  1.00  0.00     0.150 A 
ATOM     38  C   UNL     1     -44.997  41.321  26.210  1.00  0.00    -0.015 A 
ATOM     39  H   UNL     1     -43.876  39.465  26.701  1.00  0.00     0.083 H 
ATOM     40  C   UNL     1     -46.393  41.585  26.371  1.00  0.00     0.065 A 
ATOM     41  N   UNL     1     -48.280  40.329  27.249  1.00  0.00    -0.218 NA
ATOM     42  C   UNL     1     -47.252  42.667  26.104  1.00  0.00     0.136 A 
ATOM     43  C   UNL     1     -48.991  41.425  26.963  1.00  0.00     0.120 A 
ATOM     44  N   UNL     1     -48.556  42.568  26.412  1.00  0.00    -0.219 NA
ATOM     45  H   UNL     1     -50.050  41.384  27.200  1.00  0.00     0.106 H 
BRANCH  38  46
ATOM     46  C   UNL     1     -43.970  42.277  25.665  1.00  0.00    -0.013 C 
ATOM     47  H   UNL     1     -43.126  41.685  25.294  1.00  0.00     0.033 H 
ATOM     48  H   UNL     1     -44.414  42.791  24.805  1.00  0.00     0.033 H 
BRANCH  46  49
ATOM     49  C   UNL     1     -43.463  43.332  26.668  1.00  0.00     0.002 C 
ATOM     50  H   UNL     1     -42.409  43.552  26.457  1.00  0.00     0.043 H 
ATOM     51  H   UNL     1     -43.465  42.899  27.678  1.00  0.00     0.043 H 
BRANCH  49  52
ATOM     52  N   UNL     1     -44.186  44.615  26.719  1.00  0.00    -0.309 NA
BRANCH  52  53
ATOM     53  C   UNL     1     -44.173  45.223  28.045  1.00  0.00    -0.014 C 
ATOM     54  H   UNL     1     -44.535  46.256  27.993  1.00  0.00     0.039 H 
ATOM     55  H   UNL     1     -43.173  45.239  28.491  1.00  0.00     0.039 H 
ATOM     56  H   UNL     1     -44.848  44.690  28.724  1.00  0.00     0.039 H 
ENDBRANCH  52  53
BRANCH  52  57
ATOM     57  C   UNL     1     -43.736  45.560  25.700  1.00  0.00    -0.014 C 
ATOM     58  H   UNL     1     -44.559  45.943  25.087  1.00  0.00     0.039 H 
ATOM     59  H   UNL     1     -43.220  46.409  26.159  1.00  0.00     0.039 H 
ATOM     60  H   UNL     1     -43.014  45.080  25.031  1.00  0.00     0.039 H 
ENDBRANCH  52  57
ENDBRANCH  49  52
ENDBRANCH  46  49
ENDBRANCH  38  46
BRANCH  42  61
ATOM     61  N   UNL     1     -46.852  43.856  25.504  1.00  0.00    -0.383 N 
ATOM     62  H   UNL     1     -47.125  44.686  26.012  1.00  0.00     0.158 HD
ATOM     63  H   UNL     1     -45.866  43.798  25.269  1.00  0.00     0.158 HD
ENDBRANCH  42  61
ENDBRANCH   5  35
TORSDOF 12
ENDMDL
