MODEL 1
REMARK VINA RESULT:     -11.0      0.000      0.000
REMARK SMILES Nc1ncnc2c1ccn2[C@@H]1C[C@H](COc2ccc3ccc(N4CCCC4)nc3c2)[C@@H](O)[C@H]1O
REMARK SMILES IDX 14 1 13 4 11 5 12 6 33 7 31 11 10 15 2 16 3 17 7 18 4 19
REMARK SMILES IDX 6 20 8 21 5 22 9 24 1 27 34 30 32 32 15 34 16 35 17 36 30 37
REMARK SMILES IDX 18 38 29 40 19 42 28 44 20 45 22 46 21 47 23 50 24 51 27 52
REMARK SMILES IDX 25 53 26 56
REMARK H PARENT 14 2 14 3 11 8 12 9 12 10 33 12 13 13 31 14 4 23 8 25 9 26
REMARK H PARENT 1 28 1 29 34 31 32 33 17 39 30 41 18 43 20 48 21 49 24 54
REMARK H PARENT 24 55 27 57 27 58 25 59 25 60 26 61 26 62
REMARK Flexibility Score: inf
ROOT
ATOM      1  C   UNL     1     -47.226  36.255  27.127  1.00  0.00     0.094 C 
ATOM      2  H   UNL     1     -46.650  36.336  26.199  1.00  0.00     0.071 H 
ATOM      3  H   UNL     1     -47.698  37.221  27.347  1.00  0.00     0.071 H 
ENDROOT
BRANCH   1   4
ATOM      4  C   UNL     1     -46.315  35.866  28.297  1.00  0.00     0.024 C 
ATOM      5  C   UNL     1     -44.972  37.841  28.913  1.00  0.00     0.064 C 
ATOM      6  C   UNL     1     -44.907  36.480  28.189  1.00  0.00    -0.021 C 
ATOM      7  C   UNL     1     -46.343  37.876  29.625  1.00  0.00     0.101 C 
ATOM      8  H   UNL     1     -44.153  37.871  29.646  1.00  0.00     0.056 H 
ATOM      9  H   UNL     1     -44.524  36.512  27.167  1.00  0.00     0.029 H 
ATOM     10  H   UNL     1     -44.212  35.836  28.745  1.00  0.00     0.029 H 
ATOM     11  C   UNL     1     -46.819  36.420  29.628  1.00  0.00     0.088 C 
ATOM     12  H   UNL     1     -47.063  38.503  29.086  1.00  0.00     0.065 H 
ATOM     13  H   UNL     1     -46.216  34.774  28.324  1.00  0.00     0.037 H 
ATOM     14  H   UNL     1     -47.902  36.334  29.762  1.00  0.00     0.063 H 
BRANCH   5  15
ATOM     15  N   UNL     1     -44.794  39.040  28.100  1.00  0.00    -0.327 N 
ATOM     16  C   UNL     1     -43.122  42.129  27.630  1.00  0.00     0.136 A 
ATOM     17  N   UNL     1     -42.292  42.162  28.690  1.00  0.00    -0.219 NA
ATOM     18  C   UNL     1     -43.973  41.028  27.470  1.00  0.00     0.061 A 
ATOM     19  C   UNL     1     -42.332  41.138  29.563  1.00  0.00     0.120 A 
ATOM     20  C   UNL     1     -43.898  40.035  28.435  1.00  0.00     0.145 A 
ATOM     21  C   UNL     1     -44.972  40.624  26.544  1.00  0.00    -0.031 A 
ATOM     22  N   UNL     1     -43.106  40.037  29.524  1.00  0.00    -0.218 NA
ATOM     23  H   UNL     1     -41.652  41.212  30.407  1.00  0.00     0.106 H 
ATOM     24  C   UNL     1     -45.469  39.406  26.965  1.00  0.00     0.007 A 
ATOM     25  H   UNL     1     -45.306  41.170  25.673  1.00  0.00     0.065 H 
ATOM     26  H   UNL     1     -46.250  38.796  26.530  1.00  0.00     0.082 H 
BRANCH  16  27
ATOM     27  N   UNL     1     -43.069  43.197  26.745  1.00  0.00    -0.383 N 
ATOM     28  H   UNL     1     -42.396  43.020  26.009  1.00  0.00     0.158 HD
ATOM     29  H   UNL     1     -43.969  43.554  26.456  1.00  0.00     0.158 HD
ENDBRANCH  16  27
ENDBRANCH   5  15
BRANCH   7  30
ATOM     30  O   UNL     1     -46.250  38.360  30.966  1.00  0.00    -0.388 OA
ATOM     31  H   UNL     1     -45.296  38.535  31.125  1.00  0.00     0.211 HD
ENDBRANCH   7  30
BRANCH  11  32
ATOM     32  O   UNL     1     -46.189  35.719  30.702  1.00  0.00    -0.390 OA
ATOM     33  H   UNL     1     -45.683  34.998  30.271  1.00  0.00     0.211 HD
ENDBRANCH  11  32
ENDBRANCH   1   4
BRANCH   1  34
ATOM     34  O   UNL     1     -48.232  35.252  26.989  1.00  0.00    -0.493 OA
BRANCH  34  35
ATOM     35  C   UNL     1     -47.919  34.151  26.240  1.00  0.00     0.121 A 
ATOM     36  C   UNL     1     -46.722  34.249  25.534  1.00  0.00    -0.019 A 
ATOM     37  C   UNL     1     -48.681  32.984  26.136  1.00  0.00     0.007 A 
ATOM     38  C   UNL     1     -46.293  33.196  24.730  1.00  0.00    -0.049 A 
ATOM     39  H   UNL     1     -46.119  35.151  25.612  1.00  0.00     0.066 H 
ATOM     40  C   UNL     1     -48.278  31.919  25.339  1.00  0.00     0.076 A 
ATOM     41  H   UNL     1     -49.614  32.864  26.675  1.00  0.00     0.069 H 
ATOM     42  C   UNL     1     -47.069  32.031  24.630  1.00  0.00     0.001 A 
ATOM     43  H   UNL     1     -45.356  33.288  24.187  1.00  0.00     0.063 H 
ATOM     44  N   UNL     1     -49.052  30.822  25.270  1.00  0.00    -0.231 NA
ATOM     45  C   UNL     1     -46.681  30.949  23.840  1.00  0.00    -0.049 A 
ATOM     46  C   UNL     1     -48.684  29.776  24.494  1.00  0.00     0.129 A 
ATOM     47  C   UNL     1     -47.492  29.819  23.778  1.00  0.00    -0.019 A 
ATOM     48  H   UNL     1     -45.752  30.971  23.277  1.00  0.00     0.063 H 
ATOM     49  H   UNL     1     -47.172  28.973  23.182  1.00  0.00     0.066 H 
BRANCH  46  50
ATOM     50  N   UNL     1     -49.500  28.667  24.467  1.00  0.00    -0.357 N 
ATOM     51  C   UNL     1     -49.811  28.046  23.185  1.00  0.00     0.019 C 
ATOM     52  C   UNL     1     -49.577  27.705  25.561  1.00  0.00     0.019 C 
ATOM     53  C   UNL     1     -50.609  26.811  23.589  1.00  0.00    -0.034 C 
ATOM     54  H   UNL     1     -48.895  27.744  22.663  1.00  0.00     0.049 H 
ATOM     55  H   UNL     1     -50.401  28.701  22.537  1.00  0.00     0.049 H 
ATOM     56  C   UNL     1     -49.923  26.382  24.876  1.00  0.00    -0.034 C 
ATOM     57  H   UNL     1     -48.637  27.602  26.113  1.00  0.00     0.049 H 
ATOM     58  H   UNL     1     -50.370  28.000  26.256  1.00  0.00     0.049 H 
ATOM     59  H   UNL     1     -51.653  27.084  23.793  1.00  0.00     0.029 H 
ATOM     60  H   UNL     1     -50.599  26.034  22.821  1.00  0.00     0.029 H 
ATOM     61  H   UNL     1     -49.004  25.831  24.642  1.00  0.00     0.029 H 
ATOM     62  H   UNL     1     -50.553  25.741  25.501  1.00  0.00     0.029 H 
ENDBRANCH  46  50
ENDBRANCH  34  35
ENDBRANCH   1  34
TORSDOF 8
ENDMDL
MODEL 2
REMARK VINA RESULT:     -10.1      2.724     11.625
REMARK SMILES Nc1ncnc2c1ccn2[C@@H]1C[C@H](COc2ccc3ccc(N4CCCC4)nc3c2)[C@@H](O)[C@H]1O
REMARK SMILES IDX 14 1 13 4 11 5 12 6 33 7 31 11 10 15 2 16 3 17 7 18 4 19
REMARK SMILES IDX 6 20 8 21 5 22 9 24 1 27 34 30 32 32 15 34 16 35 17 36 30 37
REMARK SMILES IDX 18 38 29 40 19 42 28 44 20 45 22 46 21 47 23 50 24 51 27 52
REMARK SMILES IDX 25 53 26 56
REMARK H PARENT 14 2 14 3 11 8 12 9 12 10 33 12 13 13 31 14 4 23 8 25 9 26
REMARK H PARENT 1 28 1 29 34 31 32 33 17 39 30 41 18 43 20 48 21 49 24 54
REMARK H PARENT 24 55 27 57 27 58 25 59 25 60 26 61 26 62
REMARK Flexibility Score: inf
ROOT
ATOM      1  C   UNL     1     -47.485  31.590  24.312  1.00  0.00     0.094 C 
ATOM      2  H   UNL     1     -48.179  30.963  24.881  1.00  0.00     0.071 H 
ATOM      3  H   UNL     1     -48.054  32.323  23.726  1.00  0.00     0.071 H 
ENDROOT
BRANCH   1   4
ATOM      4  C   UNL     1     -46.641  30.736  23.359  1.00  0.00     0.024 C 
ATOM      5  C   UNL     1     -47.924  28.701  22.813  1.00  0.00     0.064 C 
ATOM      6  C   UNL     1     -46.745  29.228  23.657  1.00  0.00    -0.021 C 
ATOM      7  C   UNL     1     -48.322  29.860  21.872  1.00  0.00     0.101 C 
ATOM      8  H   UNL     1     -47.565  27.838  22.236  1.00  0.00     0.056 H 
ATOM      9  H   UNL     1     -46.793  28.998  24.724  1.00  0.00     0.029 H 
ATOM     10  H   UNL     1     -45.828  28.746  23.292  1.00  0.00     0.029 H 
ATOM     11  C   UNL     1     -47.133  30.825  21.917  1.00  0.00     0.088 C 
ATOM     12  H   UNL     1     -49.229  30.370  22.218  1.00  0.00     0.065 H 
ATOM     13  H   UNL     1     -45.589  31.035  23.448  1.00  0.00     0.037 H 
ATOM     14  H   UNL     1     -47.404  31.838  21.603  1.00  0.00     0.063 H 
BRANCH   5  15
ATOM     15  N   UNL     1     -49.094  28.211  23.534  1.00  0.00    -0.327 N 
ATOM     16  C   UNL     1     -50.395  26.108  26.074  1.00  0.00     0.136 A 
ATOM     17  N   UNL     1     -49.278  25.537  26.563  1.00  0.00    -0.219 NA
ATOM     18  C   UNL     1     -50.282  27.027  25.022  1.00  0.00     0.061 A 
ATOM     19  C   UNL     1     -48.098  25.862  26.002  1.00  0.00     0.120 A 
ATOM     20  C   UNL     1     -49.003  27.282  24.551  1.00  0.00     0.145 A 
ATOM     21  C   UNL     1     -51.170  27.808  24.236  1.00  0.00    -0.031 A 
ATOM     22  N   UNL     1     -47.862  26.716  24.989  1.00  0.00    -0.218 NA
ATOM     23  H   UNL     1     -47.225  25.370  26.423  1.00  0.00     0.106 H 
ATOM     24  C   UNL     1     -50.415  28.514  23.321  1.00  0.00     0.007 A 
ATOM     25  H   UNL     1     -52.248  27.839  24.316  1.00  0.00     0.065 H 
ATOM     26  H   UNL     1     -50.736  29.196  22.545  1.00  0.00     0.082 H 
BRANCH  16  27
ATOM     27  N   UNL     1     -51.602  25.756  26.662  1.00  0.00    -0.383 N 
ATOM     28  H   UNL     1     -51.723  24.750  26.657  1.00  0.00     0.158 HD
ATOM     29  H   UNL     1     -51.805  26.230  27.531  1.00  0.00     0.158 HD
ENDBRANCH  16  27
ENDBRANCH   5  15
BRANCH   7  30
ATOM     30  O   UNL     1     -48.543  29.422  20.530  1.00  0.00    -0.388 OA
ATOM     31  H   UNL     1     -48.014  28.601  20.422  1.00  0.00     0.211 HD
ENDBRANCH   7  30
BRANCH  11  32
ATOM     32  O   UNL     1     -46.110  30.355  21.036  1.00  0.00    -0.390 OA
ATOM     33  H   UNL     1     -46.376  30.675  20.148  1.00  0.00     0.211 HD
ENDBRANCH  11  32
ENDBRANCH   1   4
BRANCH   1  34
ATOM     34  O   UNL     1     -46.602  32.272  25.203  1.00  0.00    -0.493 OA
BRANCH  34  35
ATOM     35  C   UNL     1     -47.071  33.412  25.797  1.00  0.00     0.121 A 
ATOM     36  C   UNL     1     -48.410  33.361  26.176  1.00  0.00    -0.019 A 
ATOM     37  C   UNL     1     -46.335  34.575  26.040  1.00  0.00     0.007 A 
ATOM     38  C   UNL     1     -49.008  34.460  26.788  1.00  0.00    -0.049 A 
ATOM     39  H   UNL     1     -48.991  32.460  25.996  1.00  0.00     0.066 H 
ATOM     40  C   UNL     1     -46.907  35.687  26.646  1.00  0.00     0.076 A 
ATOM     41  H   UNL     1     -45.288  34.652  25.768  1.00  0.00     0.069 H 
ATOM     42  C   UNL     1     -48.259  35.624  27.023  1.00  0.00     0.001 A 
ATOM     43  H   UNL     1     -50.054  34.404  27.080  1.00  0.00     0.063 H 
ATOM     44  N   UNL     1     -46.153  36.782  26.852  1.00  0.00    -0.231 NA
ATOM     45  C   UNL     1     -48.813  36.749  27.634  1.00  0.00    -0.049 A 
ATOM     46  C   UNL     1     -46.692  37.879  27.433  1.00  0.00     0.129 A 
ATOM     47  C   UNL     1     -48.022  37.876  27.841  1.00  0.00    -0.019 A 
ATOM     48  H   UNL     1     -49.850  36.757  27.958  1.00  0.00     0.063 H 
ATOM     49  H   UNL     1     -48.452  38.737  28.338  1.00  0.00     0.066 H 
BRANCH  46  50
ATOM     50  N   UNL     1     -45.879  38.971  27.637  1.00  0.00    -0.357 N 
ATOM     51  C   UNL     1     -44.706  38.833  28.492  1.00  0.00     0.019 C 
ATOM     52  C   UNL     1     -45.699  40.029  26.649  1.00  0.00     0.019 C 
ATOM     53  C   UNL     1     -44.023  40.190  28.357  1.00  0.00    -0.034 C 
ATOM     54  H   UNL     1     -44.042  38.042  28.123  1.00  0.00     0.049 H 
ATOM     55  H   UNL     1     -44.972  38.628  29.534  1.00  0.00     0.049 H 
ATOM     56  C   UNL     1     -44.281  40.545  26.902  1.00  0.00    -0.034 C 
ATOM     57  H   UNL     1     -45.785  39.675  25.616  1.00  0.00     0.049 H 
ATOM     58  H   UNL     1     -46.435  40.821  26.818  1.00  0.00     0.049 H 
ATOM     59  H   UNL     1     -44.506  40.925  29.014  1.00  0.00     0.029 H 
ATOM     60  H   UNL     1     -42.959  40.152  28.605  1.00  0.00     0.029 H 
ATOM     61  H   UNL     1     -43.570  40.014  26.258  1.00  0.00     0.029 H 
ATOM     62  H   UNL     1     -44.185  41.617  26.702  1.00  0.00     0.029 H 
ENDBRANCH  46  50
ENDBRANCH  34  35
ENDBRANCH   1  34
TORSDOF 8
ENDMDL
MODEL 3
REMARK VINA RESULT:     -10.0      1.748      2.423
REMARK SMILES Nc1ncnc2c1ccn2[C@@H]1C[C@H](COc2ccc3ccc(N4CCCC4)nc3c2)[C@@H](O)[C@H]1O
REMARK SMILES IDX 14 1 13 4 11 5 12 6 33 7 31 11 10 15 2 16 3 17 7 18 4 19
REMARK SMILES IDX 6 20 8 21 5 22 9 24 1 27 34 30 32 32 15 34 16 35 17 36 30 37
REMARK SMILES IDX 18 38 29 40 19 42 28 44 20 45 22 46 21 47 23 50 24 51 27 52
REMARK SMILES IDX 25 53 26 56
REMARK H PARENT 14 2 14 3 11 8 12 9 12 10 33 12 13 13 31 14 4 23 8 25 9 26
REMARK H PARENT 1 28 1 29 34 31 32 33 17 39 30 41 18 43 20 48 21 49 24 54
REMARK H PARENT 24 55 27 57 27 58 25 59 25 60 26 61 26 62
REMARK Flexibility Score: inf
ROOT
ATOM      1  C   UNL     1     -45.377  36.042  27.272  1.00  0.00     0.094 C 
ATOM      2  H   UNL     1     -44.942  35.042  27.175  1.00  0.00     0.071 H 
ATOM      3  H   UNL     1     -44.685  36.781  26.850  1.00  0.00     0.071 H 
ENDROOT
BRANCH   1   4
ATOM      4  C   UNL     1     -45.630  36.381  28.746  1.00  0.00     0.024 C 
ATOM      5  C   UNL     1     -45.285  38.805  29.047  1.00  0.00     0.064 C 
ATOM      6  C   UNL     1     -44.642  37.425  29.298  1.00  0.00    -0.021 C 
ATOM      7  C   UNL     1     -46.728  38.518  28.574  1.00  0.00     0.101 C 
ATOM      8  H   UNL     1     -45.291  39.352  30.000  1.00  0.00     0.056 H 
ATOM      9  H   UNL     1     -43.625  37.307  28.916  1.00  0.00     0.029 H 
ATOM     10  H   UNL     1     -44.568  37.281  30.384  1.00  0.00     0.029 H 
ATOM     11  C   UNL     1     -46.982  37.057  28.958  1.00  0.00     0.088 C 
ATOM     12  H   UNL     1     -46.831  38.642  27.489  1.00  0.00     0.065 H 
ATOM     13  H   UNL     1     -45.536  35.465  29.343  1.00  0.00     0.037 H 
ATOM     14  H   UNL     1     -47.797  36.608  28.381  1.00  0.00     0.063 H 
BRANCH   5  15
ATOM     15  N   UNL     1     -44.612  39.694  28.106  1.00  0.00    -0.327 N 
ATOM     16  C   UNL     1     -41.933  41.927  27.475  1.00  0.00     0.136 A 
ATOM     17  N   UNL     1     -41.270  41.906  28.647  1.00  0.00    -0.219 NA
ATOM     18  C   UNL     1     -43.089  41.146  27.336  1.00  0.00     0.061 A 
ATOM     19  C   UNL     1     -41.761  41.145  29.644  1.00  0.00     0.120 A 
ATOM     20  C   UNL     1     -43.472  40.398  28.438  1.00  0.00     0.145 A 
ATOM     21  C   UNL     1     -44.053  40.905  26.321  1.00  0.00    -0.031 A 
ATOM     22  N   UNL     1     -42.858  40.365  29.636  1.00  0.00    -0.218 NA
ATOM     23  H   UNL     1     -41.198  41.167  30.573  1.00  0.00     0.106 H 
ATOM     24  C   UNL     1     -44.985  40.021  26.828  1.00  0.00     0.007 A 
ATOM     25  H   UNL     1     -44.076  41.343  25.333  1.00  0.00     0.065 H 
ATOM     26  H   UNL     1     -45.874  39.618  26.360  1.00  0.00     0.082 H 
BRANCH  16  27
ATOM     27  N   UNL     1     -41.414  42.721  26.462  1.00  0.00    -0.383 N 
ATOM     28  H   UNL     1     -41.011  43.569  26.842  1.00  0.00     0.158 HD
ATOM     29  H   UNL     1     -40.859  42.227  25.777  1.00  0.00     0.158 HD
ENDBRANCH  16  27
ENDBRANCH   5  15
BRANCH   7  30
ATOM     30  O   UNL     1     -47.689  39.362  29.210  1.00  0.00    -0.388 OA
ATOM     31  H   UNL     1     -48.557  38.915  29.101  1.00  0.00     0.211 HD
ENDBRANCH   7  30
BRANCH  11  32
ATOM     32  O   UNL     1     -47.336  36.987  30.341  1.00  0.00    -0.390 OA
ATOM     33  H   UNL     1     -47.396  36.028  30.537  1.00  0.00     0.211 HD
ENDBRANCH  11  32
ENDBRANCH   1   4
BRANCH   1  34
ATOM     34  O   UNL     1     -46.623  36.102  26.579  1.00  0.00    -0.493 OA
BRANCH  34  35
ATOM     35  C   UNL     1     -47.187  34.913  26.202  1.00  0.00     0.121 A 
ATOM     36  C   UNL     1     -48.500  34.732  26.628  1.00  0.00    -0.019 A 
ATOM     37  C   UNL     1     -46.566  33.910  25.452  1.00  0.00     0.007 A 
ATOM     38  C   UNL     1     -49.185  33.560  26.313  1.00  0.00    -0.049 A 
ATOM     39  H   UNL     1     -48.994  35.508  27.208  1.00  0.00     0.066 H 
ATOM     40  C   UNL     1     -47.225  32.731  25.126  1.00  0.00     0.076 A 
ATOM     41  H   UNL     1     -45.548  34.016  25.094  1.00  0.00     0.069 H 
ATOM     42  C   UNL     1     -48.549  32.559  25.563  1.00  0.00     0.001 A 
ATOM     43  H   UNL     1     -50.210  33.435  26.652  1.00  0.00     0.063 H 
ATOM     44  N   UNL     1     -46.577  31.797  24.407  1.00  0.00    -0.231 NA
ATOM     45  C   UNL     1     -49.194  31.370  25.221  1.00  0.00    -0.049 A 
ATOM     46  C   UNL     1     -47.196  30.637  24.085  1.00  0.00     0.129 A 
ATOM     47  C   UNL     1     -48.512  30.411  24.475  1.00  0.00    -0.019 A 
ATOM     48  H   UNL     1     -50.221  31.183  25.520  1.00  0.00     0.063 H 
ATOM     49  H   UNL     1     -49.027  29.500  24.192  1.00  0.00     0.066 H 
BRANCH  46  50
ATOM     50  N   UNL     1     -46.500  29.716  23.334  1.00  0.00    -0.357 N 
ATOM     51  C   UNL     1     -45.243  30.113  22.711  1.00  0.00     0.019 C 
ATOM     52  C   UNL     1     -46.540  28.281  23.593  1.00  0.00     0.019 C 
ATOM     53  C   UNL     1     -44.739  28.809  22.099  1.00  0.00    -0.034 C 
ATOM     54  H   UNL     1     -44.529  30.473  23.462  1.00  0.00     0.049 H 
ATOM     55  H   UNL     1     -45.382  30.880  21.943  1.00  0.00     0.049 H 
ATOM     56  C   UNL     1     -45.175  27.774  23.124  1.00  0.00    -0.034 C 
ATOM     57  H   UNL     1     -46.683  28.036  24.651  1.00  0.00     0.049 H 
ATOM     58  H   UNL     1     -47.344  27.823  23.008  1.00  0.00     0.049 H 
ATOM     59  H   UNL     1     -45.240  28.622  21.141  1.00  0.00     0.029 H 
ATOM     60  H   UNL     1     -43.659  28.814  21.930  1.00  0.00     0.029 H 
ATOM     61  H   UNL     1     -44.471  27.766  23.965  1.00  0.00     0.029 H 
ATOM     62  H   UNL     1     -45.224  26.762  22.712  1.00  0.00     0.029 H 
ENDBRANCH  46  50
ENDBRANCH  34  35
ENDBRANCH   1  34
TORSDOF 8
ENDMDL
MODEL 4
REMARK VINA RESULT:      -9.3      4.390     11.161
REMARK SMILES Nc1ncnc2c1ccn2[C@@H]1C[C@H](COc2ccc3ccc(N4CCCC4)nc3c2)[C@@H](O)[C@H]1O
REMARK SMILES IDX 14 1 13 4 11 5 12 6 33 7 31 11 10 15 2 16 3 17 7 18 4 19
REMARK SMILES IDX 6 20 8 21 5 22 9 24 1 27 34 30 32 32 15 34 16 35 17 36 30 37
REMARK SMILES IDX 18 38 29 40 19 42 28 44 20 45 22 46 21 47 23 50 24 51 27 52
REMARK SMILES IDX 25 53 26 56
REMARK H PARENT 14 2 14 3 11 8 12 9 12 10 33 12 13 13 31 14 4 23 8 25 9 26
REMARK H PARENT 1 28 1 29 34 31 32 33 17 39 30 41 18 43 20 48 21 49 24 54
REMARK H PARENT 24 55 27 57 27 58 25 59 25 60 26 61 26 62
REMARK Flexibility Score: inf
ROOT
ATOM      1  C   UNL     1     -49.345  31.158  24.222  1.00  0.00     0.094 C 
ATOM      2  H   UNL     1     -49.901  30.241  24.444  1.00  0.00     0.071 H 
ATOM      3  H   UNL     1     -50.024  32.018  24.278  1.00  0.00     0.071 H 
ENDROOT
BRANCH   1   4
ATOM      4  C   UNL     1     -48.736  31.094  22.816  1.00  0.00     0.024 C 
ATOM      5  C   UNL     1     -47.726  28.864  22.518  1.00  0.00     0.064 C 
ATOM      6  C   UNL     1     -47.390  30.347  22.781  1.00  0.00    -0.021 C 
ATOM      7  C   UNL     1     -49.231  28.826  22.173  1.00  0.00     0.101 C 
ATOM      8  H   UNL     1     -47.123  28.529  21.662  1.00  0.00     0.056 H 
ATOM      9  H   UNL     1     -46.763  30.536  23.656  1.00  0.00     0.029 H 
ATOM     10  H   UNL     1     -46.817  30.719  21.921  1.00  0.00     0.029 H 
ATOM     11  C   UNL     1     -49.595  30.280  21.853  1.00  0.00     0.088 C 
ATOM     12  H   UNL     1     -49.832  28.469  23.018  1.00  0.00     0.065 H 
ATOM     13  H   UNL     1     -48.574  32.116  22.451  1.00  0.00     0.037 H 
ATOM     14  H   UNL     1     -50.668  30.473  21.946  1.00  0.00     0.063 H 
BRANCH   5  15
ATOM     15  N   UNL     1     -47.427  27.912  23.584  1.00  0.00    -0.327 N 
ATOM     16  C   UNL     1     -48.630  25.930  26.264  1.00  0.00     0.136 A 
ATOM     17  N   UNL     1     -49.949  26.207  26.247  1.00  0.00    -0.219 NA
ATOM     18  C   UNL     1     -47.796  26.548  25.324  1.00  0.00     0.061 A 
ATOM     19  C   UNL     1     -50.403  27.085  25.332  1.00  0.00     0.120 A 
ATOM     20  C   UNL     1     -48.400  27.418  24.429  1.00  0.00     0.145 A 
ATOM     21  C   UNL     1     -46.408  26.549  25.021  1.00  0.00    -0.031 A 
ATOM     22  N   UNL     1     -49.706  27.746  24.390  1.00  0.00    -0.218 NA
ATOM     23  H   UNL     1     -51.471  27.284  25.362  1.00  0.00     0.106 H 
ATOM     24  C   UNL     1     -46.209  27.407  23.958  1.00  0.00     0.007 A 
ATOM     25  H   UNL     1     -45.633  25.997  25.535  1.00  0.00     0.065 H 
ATOM     26  H   UNL     1     -45.288  27.682  23.460  1.00  0.00     0.082 H 
BRANCH  16  27
ATOM     27  N   UNL     1     -48.181  25.028  27.217  1.00  0.00    -0.383 N 
ATOM     28  H   UNL     1     -48.540  25.265  28.134  1.00  0.00     0.158 HD
ATOM     29  H   UNL     1     -48.246  24.056  26.946  1.00  0.00     0.158 HD
ENDBRANCH  16  27
ENDBRANCH   5  15
BRANCH   7  30
ATOM     30  O   UNL     1     -49.513  27.995  21.046  1.00  0.00    -0.388 OA
ATOM     31  H   UNL     1     -48.897  28.282  20.336  1.00  0.00     0.211 HD
ENDBRANCH   7  30
BRANCH  11  32
ATOM     32  O   UNL     1     -49.213  30.577  20.509  1.00  0.00    -0.390 OA
ATOM     33  H   UNL     1     -48.405  31.127  20.592  1.00  0.00     0.211 HD
ENDBRANCH  11  32
ENDBRANCH   1   4
BRANCH   1  34
ATOM     34  O   UNL     1     -48.284  31.325  25.163  1.00  0.00    -0.493 OA
BRANCH  34  35
ATOM     35  C   UNL     1     -48.020  32.598  25.588  1.00  0.00     0.121 A 
ATOM     36  C   UNL     1     -46.729  33.046  25.316  1.00  0.00    -0.019 A 
ATOM     37  C   UNL     1     -48.913  33.446  26.247  1.00  0.00     0.007 A 
ATOM     38  C   UNL     1     -46.335  34.325  25.702  1.00  0.00    -0.049 A 
ATOM     39  H   UNL     1     -46.027  32.395  24.799  1.00  0.00     0.066 H 
ATOM     40  C   UNL     1     -48.545  34.726  26.646  1.00  0.00     0.076 A 
ATOM     41  H   UNL     1     -49.930  33.139  26.470  1.00  0.00     0.069 H 
ATOM     42  C   UNL     1     -47.240  35.165  26.368  1.00  0.00     0.001 A 
ATOM     43  H   UNL     1     -45.324  34.660  25.481  1.00  0.00     0.063 H 
ATOM     44  N   UNL     1     -49.444  35.498  27.283  1.00  0.00    -0.231 NA
ATOM     45  C   UNL     1     -46.892  36.454  26.772  1.00  0.00    -0.049 A 
ATOM     46  C   UNL     1     -49.104  36.744  27.687  1.00  0.00     0.129 A 
ATOM     47  C   UNL     1     -47.832  37.244  27.430  1.00  0.00    -0.019 A 
ATOM     48  H   UNL     1     -45.902  36.855  26.575  1.00  0.00     0.063 H 
ATOM     49  H   UNL     1     -47.562  38.252  27.719  1.00  0.00     0.066 H 
BRANCH  46  50
ATOM     50  N   UNL     1     -50.061  37.504  28.322  1.00  0.00    -0.357 N 
ATOM     51  C   UNL     1     -50.041  38.953  28.155  1.00  0.00     0.019 C 
ATOM     52  C   UNL     1     -51.405  37.017  28.612  1.00  0.00     0.019 C 
ATOM     53  C   UNL     1     -51.303  39.397  28.888  1.00  0.00    -0.034 C 
ATOM     54  H   UNL     1     -50.109  39.227  27.096  1.00  0.00     0.049 H 
ATOM     55  H   UNL     1     -49.149  39.410  28.595  1.00  0.00     0.049 H 
ATOM     56  C   UNL     1     -52.278  38.273  28.578  1.00  0.00    -0.034 C 
ATOM     57  H   UNL     1     -51.771  36.292  27.877  1.00  0.00     0.049 H 
ATOM     58  H   UNL     1     -51.425  36.560  29.606  1.00  0.00     0.049 H 
ATOM     59  H   UNL     1     -51.117  39.445  29.969  1.00  0.00     0.029 H 
ATOM     60  H   UNL     1     -51.660  40.376  28.555  1.00  0.00     0.029 H 
ATOM     61  H   UNL     1     -52.695  38.410  27.573  1.00  0.00     0.029 H 
ATOM     62  H   UNL     1     -53.110  38.223  29.287  1.00  0.00     0.029 H 
ENDBRANCH  46  50
ENDBRANCH  34  35
ENDBRANCH   1  34
TORSDOF 8
ENDMDL
MODEL 5
REMARK VINA RESULT:      -9.1      5.372      9.066
REMARK SMILES Nc1ncnc2c1ccn2[C@@H]1C[C@H](COc2ccc3ccc(N4CCCC4)nc3c2)[C@@H](O)[C@H]1O
REMARK SMILES IDX 14 1 13 4 11 5 12 6 33 7 31 11 10 15 2 16 3 17 7 18 4 19
REMARK SMILES IDX 6 20 8 21 5 22 9 24 1 27 34 30 32 32 15 34 16 35 17 36 30 37
REMARK SMILES IDX 18 38 29 40 19 42 28 44 20 45 22 46 21 47 23 50 24 51 27 52
REMARK SMILES IDX 25 53 26 56
REMARK H PARENT 14 2 14 3 11 8 12 9 12 10 33 12 13 13 31 14 4 23 8 25 9 26
REMARK H PARENT 1 28 1 29 34 31 32 33 17 39 30 41 18 43 20 48 21 49 24 54
REMARK H PARENT 24 55 27 57 27 58 25 59 25 60 26 61 26 62
REMARK Flexibility Score: inf
ROOT
ATOM      1  C   UNL     1     -47.787  37.020  27.429  1.00  0.00     0.094 C 
ATOM      2  H   UNL     1     -48.177  36.388  26.625  1.00  0.00     0.071 H 
ATOM      3  H   UNL     1     -47.315  37.911  26.994  1.00  0.00     0.071 H 
ENDROOT
BRANCH   1   4
ATOM      4  C   UNL     1     -46.746  36.259  28.258  1.00  0.00     0.024 C 
ATOM      5  C   UNL     1     -44.894  37.806  28.772  1.00  0.00     0.064 C 
ATOM      6  C   UNL     1     -45.298  36.617  27.874  1.00  0.00    -0.021 C 
ATOM      7  C   UNL     1     -46.027  37.954  29.812  1.00  0.00     0.101 C 
ATOM      8  H   UNL     1     -43.946  37.549  29.265  1.00  0.00     0.056 H 
ATOM      9  H   UNL     1     -45.157  36.772  26.802  1.00  0.00     0.029 H 
ATOM     10  H   UNL     1     -44.656  35.765  28.137  1.00  0.00     0.029 H 
ATOM     11  C   UNL     1     -46.801  36.635  29.737  1.00  0.00     0.088 C 
ATOM     12  H   UNL     1     -46.692  38.792  29.570  1.00  0.00     0.065 H 
ATOM     13  H   UNL     1     -46.888  35.182  28.107  1.00  0.00     0.037 H 
ATOM     14  H   UNL     1     -47.817  36.723  30.133  1.00  0.00     0.063 H 
BRANCH   5  15
ATOM     15  N   UNL     1     -44.642  39.084  28.114  1.00  0.00    -0.327 N 
ATOM     16  C   UNL     1     -42.862  42.149  28.086  1.00  0.00     0.136 A 
ATOM     17  N   UNL     1     -42.087  42.032  29.181  1.00  0.00    -0.219 NA
ATOM     18  C   UNL     1     -43.735  41.103  27.759  1.00  0.00     0.061 A 
ATOM     19  C   UNL     1     -42.200  40.915  29.925  1.00  0.00     0.120 A 
ATOM     20  C   UNL     1     -43.737  40.004  28.604  1.00  0.00     0.145 A 
ATOM     21  C   UNL     1     -44.696  40.842  26.746  1.00  0.00    -0.031 A 
ATOM     22  N   UNL     1     -43.001  39.853  29.722  1.00  0.00    -0.218 NA
ATOM     23  H   UNL     1     -41.561  40.868  30.804  1.00  0.00     0.106 H 
ATOM     24  C   UNL     1     -45.248  39.602  26.998  1.00  0.00     0.007 A 
ATOM     25  H   UNL     1     -44.971  41.497  25.930  1.00  0.00     0.065 H 
ATOM     26  H   UNL     1     -46.023  39.072  26.459  1.00  0.00     0.082 H 
BRANCH  16  27
ATOM     27  N   UNL     1     -42.735  43.309  27.336  1.00  0.00    -0.383 N 
ATOM     28  H   UNL     1     -42.084  43.950  27.774  1.00  0.00     0.158 HD
ATOM     29  H   UNL     1     -42.623  43.163  26.343  1.00  0.00     0.158 HD
ENDBRANCH  16  27
ENDBRANCH   5  15
BRANCH   7  30
ATOM     30  O   UNL     1     -45.529  38.152  31.137  1.00  0.00    -0.388 OA
ATOM     31  H   UNL     1     -45.051  37.327  31.372  1.00  0.00     0.211 HD
ENDBRANCH   7  30
BRANCH  11  32
ATOM     32  O   UNL     1     -46.118  35.642  30.504  1.00  0.00    -0.390 OA
ATOM     33  H   UNL     1     -45.167  35.859  30.407  1.00  0.00     0.211 HD
ENDBRANCH  11  32
ENDBRANCH   1   4
BRANCH   1  34
ATOM     34  O   UNL     1     -48.848  37.417  28.296  1.00  0.00    -0.493 OA
BRANCH  34  35
ATOM     35  C   UNL     1     -49.340  38.685  28.145  1.00  0.00     0.121 A 
ATOM     36  C   UNL     1     -50.727  38.784  28.218  1.00  0.00    -0.019 A 
ATOM     37  C   UNL     1     -48.582  39.839  27.931  1.00  0.00     0.007 A 
ATOM     38  C   UNL     1     -51.351  40.020  28.076  1.00  0.00    -0.049 A 
ATOM     39  H   UNL     1     -51.326  37.891  28.390  1.00  0.00     0.066 H 
ATOM     40  C   UNL     1     -49.179  41.086  27.782  1.00  0.00     0.076 A 
ATOM     41  H   UNL     1     -47.499  39.807  27.876  1.00  0.00     0.069 H 
ATOM     42  C   UNL     1     -50.579  41.172  27.856  1.00  0.00     0.001 A 
ATOM     43  H   UNL     1     -52.435  40.081  28.137  1.00  0.00     0.063 H 
ATOM     44  N   UNL     1     -48.402  42.163  27.572  1.00  0.00    -0.231 NA
ATOM     45  C   UNL     1     -51.158  42.433  27.710  1.00  0.00    -0.049 A 
ATOM     46  C   UNL     1     -48.962  43.386  27.417  1.00  0.00     0.129 A 
ATOM     47  C   UNL     1     -50.342  43.541  27.493  1.00  0.00    -0.019 A 
ATOM     48  H   UNL     1     -52.234  42.566  27.769  1.00  0.00     0.063 H 
ATOM     49  H   UNL     1     -50.797  44.520  27.404  1.00  0.00     0.066 H 
BRANCH  46  50
ATOM     50  N   UNL     1     -48.126  44.463  27.219  1.00  0.00    -0.357 N 
ATOM     51  C   UNL     1     -48.076  45.515  28.227  1.00  0.00     0.019 C 
ATOM     52  C   UNL     1     -46.878  44.378  26.471  1.00  0.00     0.019 C 
ATOM     53  C   UNL     1     -46.969  46.429  27.711  1.00  0.00    -0.034 C 
ATOM     54  H   UNL     1     -47.797  45.108  29.207  1.00  0.00     0.049 H 
ATOM     55  H   UNL     1     -49.024  46.055  28.313  1.00  0.00     0.049 H 
ATOM     56  C   UNL     1     -45.982  45.443  27.107  1.00  0.00    -0.034 C 
ATOM     57  H   UNL     1     -46.396  43.397  26.542  1.00  0.00     0.049 H 
ATOM     58  H   UNL     1     -47.063  44.609  25.417  1.00  0.00     0.049 H 
ATOM     59  H   UNL     1     -47.360  47.094  26.930  1.00  0.00     0.029 H 
ATOM     60  H   UNL     1     -46.529  47.044  28.500  1.00  0.00     0.029 H 
ATOM     61  H   UNL     1     -45.375  44.992  27.902  1.00  0.00     0.029 H 
ATOM     62  H   UNL     1     -45.305  45.906  26.384  1.00  0.00     0.029 H 
ENDBRANCH  46  50
ENDBRANCH  34  35
ENDBRANCH   1  34
TORSDOF 8
ENDMDL
MODEL 6
REMARK VINA RESULT:      -9.0      2.921     11.337
REMARK SMILES Nc1ncnc2c1ccn2[C@@H]1C[C@H](COc2ccc3ccc(N4CCCC4)nc3c2)[C@@H](O)[C@H]1O
REMARK SMILES IDX 14 1 13 4 11 5 12 6 33 7 31 11 10 15 2 16 3 17 7 18 4 19
REMARK SMILES IDX 6 20 8 21 5 22 9 24 1 27 34 30 32 32 15 34 16 35 17 36 30 37
REMARK SMILES IDX 18 38 29 40 19 42 28 44 20 45 22 46 21 47 23 50 24 51 27 52
REMARK SMILES IDX 25 53 26 56
REMARK H PARENT 14 2 14 3 11 8 12 9 12 10 33 12 13 13 31 14 4 23 8 25 9 26
REMARK H PARENT 1 28 1 29 34 31 32 33 17 39 30 41 18 43 20 48 21 49 24 54
REMARK H PARENT 24 55 27 57 27 58 25 59 25 60 26 61 26 62
REMARK Flexibility Score: inf
ROOT
ATOM      1  C   UNL     1     -47.163  31.675  24.960  1.00  0.00     0.094 C 
ATOM      2  H   UNL     1     -46.105  31.936  25.075  1.00  0.00     0.071 H 
ATOM      3  H   UNL     1     -47.358  30.719  25.463  1.00  0.00     0.071 H 
ENDROOT
BRANCH   1   4
ATOM      4  C   UNL     1     -47.528  31.541  23.477  1.00  0.00     0.024 C 
ATOM      5  C   UNL     1     -47.731  29.140  22.949  1.00  0.00     0.064 C 
ATOM      6  C   UNL     1     -46.809  30.367  22.787  1.00  0.00    -0.021 C 
ATOM      7  C   UNL     1     -49.061  29.683  23.518  1.00  0.00     0.101 C 
ATOM      8  H   UNL     1     -47.885  28.701  21.954  1.00  0.00     0.056 H 
ATOM      9  H   UNL     1     -45.780  30.227  23.126  1.00  0.00     0.029 H 
ATOM     10  H   UNL     1     -46.739  30.594  21.715  1.00  0.00     0.029 H 
ATOM     11  C   UNL     1     -49.001  31.195  23.275  1.00  0.00     0.088 C 
ATOM     12  H   UNL     1     -49.156  29.481  24.591  1.00  0.00     0.065 H 
ATOM     13  H   UNL     1     -47.255  32.468  22.957  1.00  0.00     0.037 H 
ATOM     14  H   UNL     1     -49.680  31.750  23.929  1.00  0.00     0.063 H 
BRANCH   5  15
ATOM     15  N   UNL     1     -47.240  28.040  23.774  1.00  0.00    -0.327 N 
ATOM     16  C   UNL     1     -47.900  25.679  26.334  1.00  0.00     0.136 A 
ATOM     17  N   UNL     1     -49.181  25.954  26.644  1.00  0.00    -0.219 NA
ATOM     18  C   UNL     1     -47.268  26.432  25.335  1.00  0.00     0.061 A 
ATOM     19  C   UNL     1     -49.795  26.958  25.988  1.00  0.00     0.120 A 
ATOM     20  C   UNL     1     -48.023  27.425  24.729  1.00  0.00     0.145 A 
ATOM     21  C   UNL     1     -45.979  26.479  24.740  1.00  0.00    -0.031 A 
ATOM     22  N   UNL     1     -49.296  27.753  25.024  1.00  0.00    -0.218 NA
ATOM     23  H   UNL     1     -50.824  27.149  26.278  1.00  0.00     0.106 H 
ATOM     24  C   UNL     1     -45.986  27.487  23.796  1.00  0.00     0.007 A 
ATOM     25  H   UNL     1     -45.129  25.857  24.987  1.00  0.00     0.065 H 
ATOM     26  H   UNL     1     -45.186  27.833  23.156  1.00  0.00     0.082 H 
BRANCH  16  27
ATOM     27  N   UNL     1     -47.284  24.645  27.024  1.00  0.00    -0.383 N 
ATOM     28  H   UNL     1     -47.227  24.858  28.013  1.00  0.00     0.158 HD
ATOM     29  H   UNL     1     -47.609  23.720  26.781  1.00  0.00     0.158 HD
ENDBRANCH  16  27
ENDBRANCH   5  15
BRANCH   7  30
ATOM     30  O   UNL     1     -50.202  29.130  22.860  1.00  0.00    -0.388 OA
ATOM     31  H   UNL     1     -50.790  29.889  22.652  1.00  0.00     0.211 HD
ENDBRANCH   7  30
BRANCH  11  32
ATOM     32  O   UNL     1     -49.373  31.471  21.924  1.00  0.00    -0.390 OA
ATOM     33  H   UNL     1     -50.059  32.169  21.989  1.00  0.00     0.211 HD
ENDBRANCH  11  32
ENDBRANCH   1   4
BRANCH   1  34
ATOM     34  O   UNL     1     -47.982  32.693  25.533  1.00  0.00    -0.493 OA
BRANCH  34  35
ATOM     35  C   UNL     1     -47.353  33.662  26.267  1.00  0.00     0.121 A 
ATOM     36  C   UNL     1     -46.399  33.186  27.163  1.00  0.00    -0.019 A 
ATOM     37  C   UNL     1     -47.587  35.037  26.184  1.00  0.00     0.007 A 
ATOM     38  C   UNL     1     -45.691  34.072  27.971  1.00  0.00    -0.049 A 
ATOM     39  H   UNL     1     -46.206  32.117  27.232  1.00  0.00     0.066 H 
ATOM     40  C   UNL     1     -46.897  35.944  26.980  1.00  0.00     0.076 A 
ATOM     41  H   UNL     1     -48.314  35.450  25.493  1.00  0.00     0.069 H 
ATOM     42  C   UNL     1     -45.939  35.450  27.883  1.00  0.00     0.001 A 
ATOM     43  H   UNL     1     -44.950  33.684  28.665  1.00  0.00     0.063 H 
ATOM     44  N   UNL     1     -47.167  37.256  26.864  1.00  0.00    -0.231 NA
ATOM     45  C   UNL     1     -45.254  36.377  28.669  1.00  0.00    -0.049 A 
ATOM     46  C   UNL     1     -46.513  38.156  27.635  1.00  0.00     0.129 A 
ATOM     47  C   UNL     1     -45.543  37.733  28.538  1.00  0.00    -0.019 A 
ATOM     48  H   UNL     1     -44.494  36.058  29.377  1.00  0.00     0.063 H 
ATOM     49  H   UNL     1     -44.990  38.449  29.135  1.00  0.00     0.066 H 
BRANCH  46  50
ATOM     50  N   UNL     1     -46.810  39.490  27.471  1.00  0.00    -0.357 N 
ATOM     51  C   UNL     1     -46.181  40.229  26.382  1.00  0.00     0.019 C 
ATOM     52  C   UNL     1     -48.095  40.074  27.841  1.00  0.00     0.019 C 
ATOM     53  C   UNL     1     -46.854  41.595  26.463  1.00  0.00    -0.034 C 
ATOM     54  H   UNL     1     -46.399  39.762  25.413  1.00  0.00     0.049 H 
ATOM     55  H   UNL     1     -45.097  40.315  26.509  1.00  0.00     0.049 H 
ATOM     56  C   UNL     1     -48.276  41.239  26.866  1.00  0.00    -0.034 C 
ATOM     57  H   UNL     1     -48.932  39.374  27.742  1.00  0.00     0.049 H 
ATOM     58  H   UNL     1     -48.051  40.436  28.872  1.00  0.00     0.049 H 
ATOM     59  H   UNL     1     -46.383  42.204  27.245  1.00  0.00     0.029 H 
ATOM     60  H   UNL     1     -46.803  42.145  25.519  1.00  0.00     0.029 H 
ATOM     61  H   UNL     1     -48.839  40.904  25.986  1.00  0.00     0.029 H 
ATOM     62  H   UNL     1     -48.815  42.079  27.314  1.00  0.00     0.029 H 
ENDBRANCH  46  50
ENDBRANCH  34  35
ENDBRANCH   1  34
TORSDOF 8
ENDMDL
MODEL 7
REMARK VINA RESULT:      -9.0      2.400     10.997
REMARK SMILES Nc1ncnc2c1ccn2[C@@H]1C[C@H](COc2ccc3ccc(N4CCCC4)nc3c2)[C@@H](O)[C@H]1O
REMARK SMILES IDX 14 1 13 4 11 5 12 6 33 7 31 11 10 15 2 16 3 17 7 18 4 19
REMARK SMILES IDX 6 20 8 21 5 22 9 24 1 27 34 30 32 32 15 34 16 35 17 36 30 37
REMARK SMILES IDX 18 38 29 40 19 42 28 44 20 45 22 46 21 47 23 50 24 51 27 52
REMARK SMILES IDX 25 53 26 56
REMARK H PARENT 14 2 14 3 11 8 12 9 12 10 33 12 13 13 31 14 4 23 8 25 9 26
REMARK H PARENT 1 28 1 29 34 31 32 33 17 39 30 41 18 43 20 48 21 49 24 54
REMARK H PARENT 24 55 27 57 27 58 25 59 25 60 26 61 26 62
REMARK Flexibility Score: inf
ROOT
ATOM      1  C   UNL     1     -46.634  36.920  26.612  1.00  0.00     0.094 C 
ATOM      2  H   UNL     1     -47.028  36.522  25.671  1.00  0.00     0.071 H 
ATOM      3  H   UNL     1     -45.540  36.829  26.615  1.00  0.00     0.071 H 
ENDROOT
BRANCH   1   4
ATOM      4  C   UNL     1     -47.202  36.146  27.807  1.00  0.00     0.024 C 
ATOM      5  C   UNL     1     -47.155  33.742  27.256  1.00  0.00     0.064 C 
ATOM      6  C   UNL     1     -48.091  34.962  27.384  1.00  0.00    -0.021 C 
ATOM      7  C   UNL     1     -45.795  34.191  27.835  1.00  0.00     0.101 C 
ATOM      8  H   UNL     1     -47.582  32.926  27.856  1.00  0.00     0.056 H 
ATOM      9  H   UNL     1     -48.708  35.172  26.507  1.00  0.00     0.029 H 
ATOM     10  H   UNL     1     -48.797  34.759  28.200  1.00  0.00     0.029 H 
ATOM     11  C   UNL     1     -46.108  35.465  28.625  1.00  0.00     0.088 C 
ATOM     12  H   UNL     1     -45.070  34.412  27.042  1.00  0.00     0.065 H 
ATOM     13  H   UNL     1     -47.802  36.828  28.421  1.00  0.00     0.037 H 
ATOM     14  H   UNL     1     -45.221  36.087  28.784  1.00  0.00     0.063 H 
BRANCH   5  15
ATOM     15  N   UNL     1     -46.975  33.175  25.923  1.00  0.00    -0.327 N 
ATOM     16  C   UNL     1     -47.709  30.559  23.648  1.00  0.00     0.136 A 
ATOM     17  N   UNL     1     -48.518  29.770  24.381  1.00  0.00    -0.219 NA
ATOM     18  C   UNL     1     -47.196  31.727  24.227  1.00  0.00     0.061 A 
ATOM     19  C   UNL     1     -48.783  30.133  25.650  1.00  0.00     0.120 A 
ATOM     20  C   UNL     1     -47.564  31.987  25.538  1.00  0.00     0.145 A 
ATOM     21  C   UNL     1     -46.332  32.780  23.827  1.00  0.00    -0.031 A 
ATOM     22  N   UNL     1     -48.346  31.217  26.318  1.00  0.00    -0.218 NA
ATOM     23  H   UNL     1     -49.433  29.461  26.206  1.00  0.00     0.106 H 
ATOM     24  C   UNL     1     -46.202  33.647  24.895  1.00  0.00     0.007 A 
ATOM     25  H   UNL     1     -45.840  32.887  22.870  1.00  0.00     0.065 H 
ATOM     26  H   UNL     1     -45.613  34.551  24.977  1.00  0.00     0.082 H 
BRANCH  16  27
ATOM     27  N   UNL     1     -47.445  30.165  22.344  1.00  0.00    -0.383 N 
ATOM     28  H   UNL     1     -48.080  29.430  22.055  1.00  0.00     0.158 HD
ATOM     29  H   UNL     1     -47.307  30.923  21.691  1.00  0.00     0.158 HD
ENDBRANCH  16  27
ENDBRANCH   5  15
BRANCH   7  30
ATOM     30  O   UNL     1     -45.219  33.210  28.700  1.00  0.00    -0.388 OA
ATOM     31  H   UNL     1     -45.614  32.350  28.436  1.00  0.00     0.211 HD
ENDBRANCH   7  30
BRANCH  11  32
ATOM     32  O   UNL     1     -46.626  35.109  29.908  1.00  0.00    -0.390 OA
ATOM     33  H   UNL     1     -45.838  35.032  30.486  1.00  0.00     0.211 HD
ENDBRANCH  11  32
ENDBRANCH   1   4
BRANCH   1  34
ATOM     34  O   UNL     1     -47.000  38.293  26.752  1.00  0.00    -0.493 OA
BRANCH  34  35
ATOM     35  C   UNL     1     -45.984  39.204  26.853  1.00  0.00     0.121 A 
ATOM     36  C   UNL     1     -45.167  39.042  27.970  1.00  0.00    -0.019 A 
ATOM     37  C   UNL     1     -45.717  40.240  25.955  1.00  0.00     0.007 A 
ATOM     38  C   UNL     1     -44.099  39.908  28.189  1.00  0.00    -0.049 A 
ATOM     39  H   UNL     1     -45.363  38.235  28.673  1.00  0.00     0.066 H 
ATOM     40  C   UNL     1     -44.660  41.121  26.151  1.00  0.00     0.076 A 
ATOM     41  H   UNL     1     -46.323  40.395  25.069  1.00  0.00     0.069 H 
ATOM     42  C   UNL     1     -43.844  40.948  27.283  1.00  0.00     0.001 A 
ATOM     43  H   UNL     1     -43.470  39.768  29.065  1.00  0.00     0.063 H 
ATOM     44  N   UNL     1     -44.452  42.104  25.258  1.00  0.00    -0.231 NA
ATOM     45  C   UNL     1     -42.785  41.840  27.458  1.00  0.00    -0.049 A 
ATOM     46  C   UNL     1     -43.433  42.978  25.433  1.00  0.00     0.129 A 
ATOM     47  C   UNL     1     -42.581  42.854  26.525  1.00  0.00    -0.019 A 
ATOM     48  H   UNL     1     -42.113  41.751  28.307  1.00  0.00     0.063 H 
ATOM     49  H   UNL     1     -41.742  43.527  26.655  1.00  0.00     0.066 H 
BRANCH  46  50
ATOM     50  N   UNL     1     -43.249  43.960  24.485  1.00  0.00    -0.357 N 
ATOM     51  C   UNL     1     -42.850  43.577  23.135  1.00  0.00     0.019 C 
ATOM     52  C   UNL     1     -43.981  45.222  24.489  1.00  0.00     0.019 C 
ATOM     53  C   UNL     1     -42.880  44.903  22.382  1.00  0.00    -0.034 C 
ATOM     54  H   UNL     1     -43.574  42.881  22.695  1.00  0.00     0.049 H 
ATOM     55  H   UNL     1     -41.851  43.131  23.107  1.00  0.00     0.049 H 
ATOM     56  C   UNL     1     -44.067  45.614  23.013  1.00  0.00    -0.034 C 
ATOM     57  H   UNL     1     -44.989  45.136  24.909  1.00  0.00     0.049 H 
ATOM     58  H   UNL     1     -43.420  45.971  25.056  1.00  0.00     0.049 H 
ATOM     59  H   UNL     1     -41.959  45.469  22.573  1.00  0.00     0.029 H 
ATOM     60  H   UNL     1     -42.986  44.771  21.302  1.00  0.00     0.029 H 
ATOM     61  H   UNL     1     -45.000  45.234  22.580  1.00  0.00     0.029 H 
ATOM     62  H   UNL     1     -44.041  46.698  22.867  1.00  0.00     0.029 H 
ENDBRANCH  46  50
ENDBRANCH  34  35
ENDBRANCH   1  34
TORSDOF 8
ENDMDL
