MODEL 1
REMARK VINA RESULT:     -10.1      0.000      0.000
REMARK SMILES O=C(NCc1ccc2cc(CNC3CC3)[nH]c2c1)c1cc(=O)n2ccccc2n1
REMARK SMILES IDX 5 1 6 2 7 3 8 4 9 5 10 6 16 7 17 8 18 9 4 15 3 18 1 19 2 20
REMARK SMILES IDX 19 22 20 23 29 24 21 25 28 27 22 28 23 29 27 30 24 31 26 32
REMARK SMILES IDX 25 34 11 38 12 41 13 43 14 44 15 45
REMARK H PARENT 6 10 7 11 9 12 16 13 18 14 4 16 4 17 3 21 20 26 27 33 24 35
REMARK H PARENT 26 36 25 37 11 39 11 40 12 42 13 46 14 47 14 48 15 49 15 50
REMARK Flexibility Score: inf
ROOT
ATOM      1  C   UNL     1     -48.218  34.711  26.550  1.00  0.00    -0.027 A 
ATOM      2  C   UNL     1     -46.957  34.879  25.961  1.00  0.00    -0.057 A 
ATOM      3  C   UNL     1     -46.373  33.858  25.199  1.00  0.00    -0.052 A 
ATOM      4  C   UNL     1     -47.061  32.642  25.031  1.00  0.00    -0.000 A 
ATOM      5  C   UNL     1     -46.777  31.430  24.340  1.00  0.00    -0.032 A 
ATOM      6  C   UNL     1     -47.840  30.570  24.532  1.00  0.00     0.030 A 
ATOM      7  N   UNL     1     -48.754  31.227  25.322  1.00  0.00    -0.357 N 
ATOM      8  C   UNL     1     -48.307  32.489  25.633  1.00  0.00     0.046 A 
ATOM      9  C   UNL     1     -48.909  33.498  26.395  1.00  0.00    -0.033 A 
ATOM     10  H   UNL     1     -46.413  35.812  26.088  1.00  0.00     0.063 H 
ATOM     11  H   UNL     1     -45.398  34.004  24.744  1.00  0.00     0.063 H 
ATOM     12  H   UNL     1     -45.888  31.214  23.764  1.00  0.00     0.065 H 
ATOM     13  H   UNL     1     -49.649  30.839  25.589  1.00  0.00     0.166 HD
ATOM     14  H   UNL     1     -49.881  33.345  26.858  1.00  0.00     0.065 H 
ENDROOT
BRANCH   1  15
ATOM     15  C   UNL     1     -48.823  35.812  27.385  1.00  0.00     0.043 C 
ATOM     16  H   UNL     1     -49.727  36.204  26.904  1.00  0.00     0.054 H 
ATOM     17  H   UNL     1     -49.119  35.425  28.366  1.00  0.00     0.054 H 
BRANCH  15  18
ATOM     18  N   UNL     1     -47.903  36.911  27.527  1.00  0.00    -0.347 N 
ATOM     19  O   UNL     1     -46.999  36.259  29.542  1.00  0.00    -0.268 OA
ATOM     20  C   UNL     1     -47.010  37.001  28.567  1.00  0.00     0.270 C 
ATOM     21  H   UNL     1     -47.722  37.513  26.732  1.00  0.00     0.164 HD
BRANCH  20  22
ATOM     22  C   UNL     1     -46.015  38.120  28.371  1.00  0.00     0.136 A 
ATOM     23  C   UNL     1     -46.209  38.908  27.312  1.00  0.00     0.035 A 
ATOM     24  N   UNL     1     -44.991  38.265  29.281  1.00  0.00    -0.225 NA
ATOM     25  C   UNL     1     -45.270  40.014  27.085  1.00  0.00     0.258 A 
ATOM     26  H   UNL     1     -47.018  38.785  26.604  1.00  0.00     0.071 H 
ATOM     27  C   UNL     1     -44.166  39.246  29.079  1.00  0.00     0.140 A 
ATOM     28  O   UNL     1     -45.438  40.743  26.110  1.00  0.00    -0.269 OA
ATOM     29  N   UNL     1     -44.250  40.140  28.018  1.00  0.00    -0.268 N 
ATOM     30  C   UNL     1     -43.044  39.444  30.042  1.00  0.00    -0.019 A 
ATOM     31  C   UNL     1     -43.322  41.167  27.871  1.00  0.00     0.014 A 
ATOM     32  C   UNL     1     -42.177  40.447  29.859  1.00  0.00    -0.057 A 
ATOM     33  H   UNL     1     -42.972  38.754  30.872  1.00  0.00     0.066 H 
ATOM     34  C   UNL     1     -42.317  41.338  28.738  1.00  0.00    -0.045 A 
ATOM     35  H   UNL     1     -43.448  41.828  27.018  1.00  0.00     0.082 H 
ATOM     36  H   UNL     1     -41.353  40.607  30.549  1.00  0.00     0.062 H 
ATOM     37  H   UNL     1     -41.600  42.142  28.615  1.00  0.00     0.064 H 
ENDBRANCH  20  22
ENDBRANCH  15  18
ENDBRANCH   1  15
BRANCH   6  38
ATOM     38  C   UNL     1     -48.078  29.181  24.058  1.00  0.00     0.036 C 
ATOM     39  H   UNL     1     -49.075  29.086  23.609  1.00  0.00     0.049 H 
ATOM     40  H   UNL     1     -47.355  28.965  23.261  1.00  0.00     0.049 H 
BRANCH  38  41
ATOM     41  N   UNL     1     -47.895  28.190  25.124  1.00  0.00    -0.308 NA
ATOM     42  H   UNL     1     -46.892  28.023  25.217  1.00  0.00     0.123 HD
BRANCH  41  43
ATOM     43  C   UNL     1     -48.567  26.911  24.843  1.00  0.00     0.007 C 
ATOM     44  C   UNL     1     -48.581  25.863  25.922  1.00  0.00    -0.036 C 
ATOM     45  C   UNL     1     -49.848  26.574  25.550  1.00  0.00    -0.036 C 
ATOM     46  H   UNL     1     -48.451  26.534  23.828  1.00  0.00     0.046 H 
ATOM     47  H   UNL     1     -48.138  26.098  26.883  1.00  0.00     0.028 H 
ATOM     48  H   UNL     1     -48.476  24.827  25.625  1.00  0.00     0.028 H 
ATOM     49  H   UNL     1     -50.600  26.028  24.992  1.00  0.00     0.028 H 
ATOM     50  H   UNL     1     -50.256  27.282  26.261  1.00  0.00     0.028 H 
ENDBRANCH  41  43
ENDBRANCH  38  41
ENDBRANCH   6  38
TORSDOF 6
ENDMDL
MODEL 2
REMARK VINA RESULT:      -9.8      2.308      3.856
REMARK SMILES O=C(NCc1ccc2cc(CNC3CC3)[nH]c2c1)c1cc(=O)n2ccccc2n1
REMARK SMILES IDX 5 1 6 2 7 3 8 4 9 5 10 6 16 7 17 8 18 9 4 15 3 18 1 19 2 20
REMARK SMILES IDX 19 22 20 23 29 24 21 25 28 27 22 28 23 29 27 30 24 31 26 32
REMARK SMILES IDX 25 34 11 38 12 41 13 43 14 44 15 45
REMARK H PARENT 6 10 7 11 9 12 16 13 18 14 4 16 4 17 3 21 20 26 27 33 24 35
REMARK H PARENT 26 36 25 37 11 39 11 40 12 42 13 46 14 47 14 48 15 49 15 50
REMARK Flexibility Score: inf
ROOT
ATOM      1  C   UNL     1     -46.386  36.329  28.230  1.00  0.00    -0.027 A 
ATOM      2  C   UNL     1     -47.776  36.337  28.046  1.00  0.00    -0.057 A 
ATOM      3  C   UNL     1     -48.398  35.418  27.192  1.00  0.00    -0.052 A 
ATOM      4  C   UNL     1     -47.613  34.477  26.500  1.00  0.00    -0.000 A 
ATOM      5  C   UNL     1     -47.902  33.427  25.584  1.00  0.00    -0.032 A 
ATOM      6  C   UNL     1     -46.709  32.828  25.230  1.00  0.00     0.030 A 
ATOM      7  N   UNL     1     -45.709  33.490  25.902  1.00  0.00    -0.357 N 
ATOM      8  C   UNL     1     -46.232  34.492  26.685  1.00  0.00     0.046 A 
ATOM      9  C   UNL     1     -45.592  35.399  27.538  1.00  0.00    -0.033 A 
ATOM     10  H   UNL     1     -48.393  37.063  28.571  1.00  0.00     0.063 H 
ATOM     11  H   UNL     1     -49.477  35.432  27.063  1.00  0.00     0.063 H 
ATOM     12  H   UNL     1     -48.881  33.142  25.223  1.00  0.00     0.065 H 
ATOM     13  H   UNL     1     -44.733  33.232  25.855  1.00  0.00     0.166 HD
ATOM     14  H   UNL     1     -44.512  35.390  27.656  1.00  0.00     0.065 H 
ENDROOT
BRANCH   1  15
ATOM     15  C   UNL     1     -45.730  37.340  29.138  1.00  0.00     0.043 C 
ATOM     16  H   UNL     1     -46.483  37.853  29.747  1.00  0.00     0.054 H 
ATOM     17  H   UNL     1     -45.041  36.839  29.827  1.00  0.00     0.054 H 
BRANCH  15  18
ATOM     18  N   UNL     1     -45.040  38.345  28.370  1.00  0.00    -0.347 N 
ATOM     19  O   UNL     1     -46.781  39.847  28.249  1.00  0.00    -0.268 OA
ATOM     20  C   UNL     1     -45.607  39.556  28.054  1.00  0.00     0.270 C 
ATOM     21  H   UNL     1     -44.034  38.283  28.262  1.00  0.00     0.164 HD
BRANCH  20  22
ATOM     22  C   UNL     1     -44.611  40.511  27.442  1.00  0.00     0.136 A 
ATOM     23  C   UNL     1     -43.481  40.708  28.124  1.00  0.00     0.035 A 
ATOM     24  N   UNL     1     -44.915  41.107  26.237  1.00  0.00    -0.225 NA
ATOM     25  C   UNL     1     -42.480  41.625  27.564  1.00  0.00     0.258 A 
ATOM     26  H   UNL     1     -43.253  40.234  29.069  1.00  0.00     0.071 H 
ATOM     27  C   UNL     1     -44.026  41.912  25.744  1.00  0.00     0.140 A 
ATOM     28  O   UNL     1     -41.438  41.816  28.188  1.00  0.00    -0.269 OA
ATOM     29  N   UNL     1     -42.809  42.208  26.348  1.00  0.00    -0.268 N 
ATOM     30  C   UNL     1     -44.311  42.576  24.440  1.00  0.00    -0.019 A 
ATOM     31  C   UNL     1     -41.909  43.086  25.754  1.00  0.00     0.014 A 
ATOM     32  C   UNL     1     -43.412  43.413  23.906  1.00  0.00    -0.057 A 
ATOM     33  H   UNL     1     -45.254  42.350  23.960  1.00  0.00     0.066 H 
ATOM     34  C   UNL     1     -42.171  43.679  24.583  1.00  0.00    -0.045 A 
ATOM     35  H   UNL     1     -40.977  43.272  26.282  1.00  0.00     0.082 H 
ATOM     36  H   UNL     1     -43.602  43.906  22.957  1.00  0.00     0.062 H 
ATOM     37  H   UNL     1     -41.462  44.362  24.127  1.00  0.00     0.064 H 
ENDBRANCH  20  22
ENDBRANCH  15  18
ENDBRANCH   1  15
BRANCH   6  38
ATOM     38  C   UNL     1     -46.411  31.701  24.306  1.00  0.00     0.036 C 
ATOM     39  H   UNL     1     -46.416  32.038  23.263  1.00  0.00     0.049 H 
ATOM     40  H   UNL     1     -45.393  31.350  24.517  1.00  0.00     0.049 H 
BRANCH  38  41
ATOM     41  N   UNL     1     -47.332  30.574  24.489  1.00  0.00    -0.308 NA
ATOM     42  H   UNL     1     -46.766  29.730  24.588  1.00  0.00     0.123 HD
BRANCH  41  43
ATOM     43  C   UNL     1     -48.257  30.397  23.358  1.00  0.00     0.007 C 
ATOM     44  C   UNL     1     -49.575  29.721  23.616  1.00  0.00    -0.036 C 
ATOM     45  C   UNL     1     -49.533  31.189  23.311  1.00  0.00    -0.036 C 
ATOM     46  H   UNL     1     -47.790  30.161  22.403  1.00  0.00     0.046 H 
ATOM     47  H   UNL     1     -49.820  29.426  24.629  1.00  0.00     0.028 H 
ATOM     48  H   UNL     1     -49.963  29.056  22.853  1.00  0.00     0.028 H 
ATOM     49  H   UNL     1     -49.879  31.524  22.341  1.00  0.00     0.028 H 
ATOM     50  H   UNL     1     -49.752  31.877  24.118  1.00  0.00     0.028 H 
ENDBRANCH  41  43
ENDBRANCH  38  41
ENDBRANCH   6  38
TORSDOF 6
ENDMDL
MODEL 3
REMARK VINA RESULT:      -9.8      1.539      2.118
REMARK SMILES O=C(NCc1ccc2cc(CNC3CC3)[nH]c2c1)c1cc(=O)n2ccccc2n1
REMARK SMILES IDX 5 1 6 2 7 3 8 4 9 5 10 6 16 7 17 8 18 9 4 15 3 18 1 19 2 20
REMARK SMILES IDX 19 22 20 23 29 24 21 25 28 27 22 28 23 29 27 30 24 31 26 32
REMARK SMILES IDX 25 34 11 38 12 41 13 43 14 44 15 45
REMARK H PARENT 6 10 7 11 9 12 16 13 18 14 4 16 4 17 3 21 20 26 27 33 24 35
REMARK H PARENT 26 36 25 37 11 39 11 40 12 42 13 46 14 47 14 48 15 49 15 50
REMARK Flexibility Score: inf
ROOT
ATOM      1  C   UNL     1     -48.054  33.782  26.097  1.00  0.00    -0.027 A 
ATOM      2  C   UNL     1     -46.808  33.923  25.472  1.00  0.00    -0.057 A 
ATOM      3  C   UNL     1     -46.269  32.892  24.691  1.00  0.00    -0.052 A 
ATOM      4  C   UNL     1     -46.988  31.691  24.541  1.00  0.00    -0.000 A 
ATOM      5  C   UNL     1     -46.752  30.476  23.840  1.00  0.00    -0.032 A 
ATOM      6  C   UNL     1     -47.828  29.639  24.061  1.00  0.00     0.030 A 
ATOM      7  N   UNL     1     -48.703  30.313  24.879  1.00  0.00    -0.357 N 
ATOM      8  C   UNL     1     -48.220  31.564  25.180  1.00  0.00     0.046 A 
ATOM      9  C   UNL     1     -48.777  32.585  25.960  1.00  0.00    -0.033 A 
ATOM     10  H   UNL     1     -46.239  34.843  25.585  1.00  0.00     0.063 H 
ATOM     11  H   UNL     1     -45.304  33.017  24.208  1.00  0.00     0.063 H 
ATOM     12  H   UNL     1     -45.885  30.241  23.238  1.00  0.00     0.065 H 
ATOM     13  H   UNL     1     -49.599  29.945  25.171  1.00  0.00     0.166 HD
ATOM     14  H   UNL     1     -49.738  32.453  26.452  1.00  0.00     0.065 H 
ENDROOT
BRANCH   1  15
ATOM     15  C   UNL     1     -48.610  34.894  26.951  1.00  0.00     0.043 C 
ATOM     16  H   UNL     1     -49.513  35.313  26.494  1.00  0.00     0.054 H 
ATOM     17  H   UNL     1     -48.895  34.509  27.937  1.00  0.00     0.054 H 
BRANCH  15  18
ATOM     18  N   UNL     1     -47.657  35.966  27.080  1.00  0.00    -0.347 N 
ATOM     19  O   UNL     1     -49.102  37.519  27.975  1.00  0.00    -0.268 OA
ATOM     20  C   UNL     1     -47.971  37.174  27.656  1.00  0.00     0.270 C 
ATOM     21  H   UNL     1     -46.668  35.767  26.977  1.00  0.00     0.164 HD
BRANCH  20  22
ATOM     22  C   UNL     1     -46.753  38.039  27.870  1.00  0.00     0.136 A 
ATOM     23  C   UNL     1     -46.046  37.805  28.978  1.00  0.00     0.035 A 
ATOM     24  N   UNL     1     -46.443  38.995  26.928  1.00  0.00    -0.225 NA
ATOM     25  C   UNL     1     -44.849  38.619  29.225  1.00  0.00     0.258 A 
ATOM     26  H   UNL     1     -46.299  37.050  29.710  1.00  0.00     0.071 H 
ATOM     27  C   UNL     1     -45.382  39.709  27.148  1.00  0.00     0.140 A 
ATOM     28  O   UNL     1     -44.194  38.413  30.245  1.00  0.00    -0.269 OA
ATOM     29  N   UNL     1     -44.557  39.571  28.259  1.00  0.00    -0.268 N 
ATOM     30  C   UNL     1     -45.005  40.753  26.153  1.00  0.00    -0.019 A 
ATOM     31  C   UNL     1     -43.436  40.379  28.423  1.00  0.00     0.014 A 
ATOM     32  C   UNL     1     -43.916  41.505  26.354  1.00  0.00    -0.057 A 
ATOM     33  H   UNL     1     -45.640  40.866  25.284  1.00  0.00     0.066 H 
ATOM     34  C   UNL     1     -43.104  41.315  27.525  1.00  0.00    -0.045 A 
ATOM     35  H   UNL     1     -42.836  40.217  29.315  1.00  0.00     0.082 H 
ATOM     36  H   UNL     1     -43.626  42.271  25.640  1.00  0.00     0.062 H 
ATOM     37  H   UNL     1     -42.228  41.939  27.662  1.00  0.00     0.064 H 
ENDBRANCH  20  22
ENDBRANCH  15  18
ENDBRANCH   1  15
BRANCH   6  38
ATOM     38  C   UNL     1     -48.111  28.256  23.592  1.00  0.00     0.036 C 
ATOM     39  H   UNL     1     -49.154  27.980  23.793  1.00  0.00     0.049 H 
ATOM     40  H   UNL     1     -47.987  28.236  22.501  1.00  0.00     0.049 H 
BRANCH  38  41
ATOM     41  N   UNL     1     -47.194  27.271  24.177  1.00  0.00    -0.308 NA
ATOM     42  H   UNL     1     -47.172  26.465  23.551  1.00  0.00     0.123 HD
BRANCH  41  43
ATOM     43  C   UNL     1     -47.608  26.824  25.516  1.00  0.00     0.007 C 
ATOM     44  C   UNL     1     -47.518  25.357  25.834  1.00  0.00    -0.036 C 
ATOM     45  C   UNL     1     -46.575  26.324  26.485  1.00  0.00    -0.036 C 
ATOM     46  H   UNL     1     -48.468  27.341  25.938  1.00  0.00     0.046 H 
ATOM     47  H   UNL     1     -47.112  24.685  25.088  1.00  0.00     0.028 H 
ATOM     48  H   UNL     1     -48.298  24.921  26.447  1.00  0.00     0.028 H 
ATOM     49  H   UNL     1     -46.717  26.557  27.533  1.00  0.00     0.028 H 
ATOM     50  H   UNL     1     -45.537  26.300  26.177  1.00  0.00     0.028 H 
ENDBRANCH  41  43
ENDBRANCH  38  41
ENDBRANCH   6  38
TORSDOF 6
ENDMDL
MODEL 4
REMARK VINA RESULT:      -9.7      2.481      3.721
REMARK SMILES O=C(NCc1ccc2cc(CNC3CC3)[nH]c2c1)c1cc(=O)n2ccccc2n1
REMARK SMILES IDX 5 1 6 2 7 3 8 4 9 5 10 6 16 7 17 8 18 9 4 15 3 18 1 19 2 20
REMARK SMILES IDX 19 22 20 23 29 24 21 25 28 27 22 28 23 29 27 30 24 31 26 32
REMARK SMILES IDX 25 34 11 38 12 41 13 43 14 44 15 45
REMARK H PARENT 6 10 7 11 9 12 16 13 18 14 4 16 4 17 3 21 20 26 27 33 24 35
REMARK H PARENT 26 36 25 37 11 39 11 40 12 42 13 46 14 47 14 48 15 49 15 50
REMARK Flexibility Score: inf
ROOT
ATOM      1  C   UNL     1     -46.556  35.631  28.644  1.00  0.00    -0.027 A 
ATOM      2  C   UNL     1     -47.747  36.164  28.134  1.00  0.00    -0.057 A 
ATOM      3  C   UNL     1     -48.481  35.487  27.150  1.00  0.00    -0.052 A 
ATOM      4  C   UNL     1     -48.007  34.255  26.662  1.00  0.00    -0.000 A 
ATOM      5  C   UNL     1     -48.483  33.323  25.698  1.00  0.00    -0.032 A 
ATOM      6  C   UNL     1     -47.584  32.276  25.636  1.00  0.00     0.030 A 
ATOM      7  N   UNL     1     -46.579  32.554  26.531  1.00  0.00    -0.357 N 
ATOM      8  C   UNL     1     -46.815  33.747  27.171  1.00  0.00     0.046 A 
ATOM      9  C   UNL     1     -46.070  34.406  28.156  1.00  0.00    -0.033 A 
ATOM     10  H   UNL     1     -48.121  37.118  28.499  1.00  0.00     0.063 H 
ATOM     11  H   UNL     1     -49.406  35.910  26.768  1.00  0.00     0.063 H 
ATOM     12  H   UNL     1     -49.388  33.412  25.112  1.00  0.00     0.065 H 
ATOM     13  H   UNL     1     -45.803  31.932  26.717  1.00  0.00     0.166 HD
ATOM     14  H   UNL     1     -45.139  33.986  28.530  1.00  0.00     0.065 H 
ENDROOT
BRANCH   1  15
ATOM     15  C   UNL     1     -45.768  36.383  29.687  1.00  0.00     0.043 C 
ATOM     16  H   UNL     1     -46.400  36.616  30.551  1.00  0.00     0.054 H 
ATOM     17  H   UNL     1     -44.936  35.769  30.050  1.00  0.00     0.054 H 
BRANCH  15  18
ATOM     18  N   UNL     1     -45.284  37.634  29.160  1.00  0.00    -0.347 N 
ATOM     19  O   UNL     1     -44.185  38.330  31.059  1.00  0.00    -0.268 OA
ATOM     20  C   UNL     1     -44.464  38.473  29.875  1.00  0.00     0.270 C 
ATOM     21  H   UNL     1     -45.333  37.804  28.161  1.00  0.00     0.164 HD
BRANCH  20  22
ATOM     22  C   UNL     1     -43.922  39.600  29.029  1.00  0.00     0.136 A 
ATOM     23  C   UNL     1     -42.835  40.220  29.493  1.00  0.00     0.035 A 
ATOM     24  N   UNL     1     -44.561  39.912  27.849  1.00  0.00    -0.225 NA
ATOM     25  C   UNL     1     -42.268  41.318  28.700  1.00  0.00     0.258 A 
ATOM     26  H   UNL     1     -42.341  39.965  30.421  1.00  0.00     0.071 H 
ATOM     27  C   UNL     1     -44.054  40.880  27.150  1.00  0.00     0.140 A 
ATOM     28  O   UNL     1     -41.270  41.898  29.122  1.00  0.00    -0.269 OA
ATOM     29  N   UNL     1     -42.928  41.610  27.515  1.00  0.00    -0.268 N 
ATOM     30  C   UNL     1     -44.710  41.249  25.863  1.00  0.00    -0.019 A 
ATOM     31  C   UNL     1     -42.448  42.637  26.708  1.00  0.00     0.014 A 
ATOM     32  C   UNL     1     -44.210  42.245  25.120  1.00  0.00    -0.057 A 
ATOM     33  H   UNL     1     -45.585  40.686  25.569  1.00  0.00     0.066 H 
ATOM     34  C   UNL     1     -43.043  42.964  25.554  1.00  0.00    -0.045 A 
ATOM     35  H   UNL     1     -41.564  43.166  27.055  1.00  0.00     0.082 H 
ATOM     36  H   UNL     1     -44.674  42.529  24.180  1.00  0.00     0.062 H 
ATOM     37  H   UNL     1     -42.660  43.766  24.932  1.00  0.00     0.064 H 
ENDBRANCH  20  22
ENDBRANCH  15  18
ENDBRANCH   1  15
BRANCH   6  38
ATOM     38  C   UNL     1     -47.568  31.042  24.805  1.00  0.00     0.036 C 
ATOM     39  H   UNL     1     -47.811  30.160  25.410  1.00  0.00     0.049 H 
ATOM     40  H   UNL     1     -48.358  31.132  24.049  1.00  0.00     0.049 H 
BRANCH  38  41
ATOM     41  N   UNL     1     -46.288  30.857  24.111  1.00  0.00    -0.308 NA
ATOM     42  H   UNL     1     -45.877  31.782  23.976  1.00  0.00     0.123 HD
BRANCH  41  43
ATOM     43  C   UNL     1     -46.434  30.205  22.800  1.00  0.00     0.007 C 
ATOM     44  C   UNL     1     -45.852  30.893  21.595  1.00  0.00    -0.036 C 
ATOM     45  C   UNL     1     -45.225  29.633  22.115  1.00  0.00    -0.036 C 
ATOM     46  H   UNL     1     -47.381  29.694  22.633  1.00  0.00     0.046 H 
ATOM     47  H   UNL     1     -45.308  31.819  21.736  1.00  0.00     0.028 H 
ATOM     48  H   UNL     1     -46.402  30.837  20.663  1.00  0.00     0.028 H 
ATOM     49  H   UNL     1     -45.356  28.720  21.547  1.00  0.00     0.028 H 
ATOM     50  H   UNL     1     -44.261  29.714  22.602  1.00  0.00     0.028 H 
ENDBRANCH  41  43
ENDBRANCH  38  41
ENDBRANCH   6  38
TORSDOF 6
ENDMDL
MODEL 5
REMARK VINA RESULT:      -9.5      1.749      2.422
REMARK SMILES O=C(NCc1ccc2cc(CNC3CC3)[nH]c2c1)c1cc(=O)n2ccccc2n1
REMARK SMILES IDX 5 1 6 2 7 3 8 4 9 5 10 6 16 7 17 8 18 9 4 15 3 18 1 19 2 20
REMARK SMILES IDX 19 22 20 23 29 24 21 25 28 27 22 28 23 29 27 30 24 31 26 32
REMARK SMILES IDX 25 34 11 38 12 41 13 43 14 44 15 45
REMARK H PARENT 6 10 7 11 9 12 16 13 18 14 4 16 4 17 3 21 20 26 27 33 24 35
REMARK H PARENT 26 36 25 37 11 39 11 40 12 42 13 46 14 47 14 48 15 49 15 50
REMARK Flexibility Score: inf
ROOT
ATOM      1  C   UNL     1     -46.370  34.710  27.294  1.00  0.00    -0.027 A 
ATOM      2  C   UNL     1     -47.764  34.782  27.163  1.00  0.00    -0.057 A 
ATOM      3  C   UNL     1     -48.453  33.937  26.284  1.00  0.00    -0.052 A 
ATOM      4  C   UNL     1     -47.731  33.006  25.513  1.00  0.00    -0.000 A 
ATOM      5  C   UNL     1     -48.095  32.021  24.553  1.00  0.00    -0.032 A 
ATOM      6  C   UNL     1     -46.941  31.397  24.122  1.00  0.00     0.030 A 
ATOM      7  N   UNL     1     -45.892  31.981  24.792  1.00  0.00    -0.357 N 
ATOM      8  C   UNL     1     -46.346  32.957  25.647  1.00  0.00     0.046 A 
ATOM      9  C   UNL     1     -45.640  33.791  26.523  1.00  0.00    -0.033 A 
ATOM     10  H   UNL     1     -48.332  35.501  27.749  1.00  0.00     0.063 H 
ATOM     11  H   UNL     1     -49.534  34.000  26.197  1.00  0.00     0.063 H 
ATOM     12  H   UNL     1     -49.097  31.795  24.215  1.00  0.00     0.065 H 
ATOM     13  H   UNL     1     -44.929  31.689  24.693  1.00  0.00     0.166 HD
ATOM     14  H   UNL     1     -44.557  33.733  26.600  1.00  0.00     0.065 H 
ENDROOT
BRANCH   1  15
ATOM     15  C   UNL     1     -45.642  35.642  28.230  1.00  0.00     0.043 C 
ATOM     16  H   UNL     1     -46.144  35.678  29.203  1.00  0.00     0.054 H 
ATOM     17  H   UNL     1     -44.621  35.283  28.404  1.00  0.00     0.054 H 
BRANCH  15  18
ATOM     18  N   UNL     1     -45.626  36.984  27.706  1.00  0.00    -0.347 N 
ATOM     19  O   UNL     1     -46.138  38.059  29.677  1.00  0.00    -0.268 OA
ATOM     20  C   UNL     1     -45.804  38.092  28.498  1.00  0.00     0.270 C 
ATOM     21  H   UNL     1     -45.235  37.154  26.786  1.00  0.00     0.164 HD
BRANCH  20  22
ATOM     22  C   UNL     1     -45.525  39.377  27.756  1.00  0.00     0.136 A 
ATOM     23  C   UNL     1     -46.575  39.976  27.190  1.00  0.00     0.035 A 
ATOM     24  N   UNL     1     -44.232  39.852  27.713  1.00  0.00    -0.225 NA
ATOM     25  C   UNL     1     -46.351  41.232  26.463  1.00  0.00     0.258 A 
ATOM     26  H   UNL     1     -47.586  39.594  27.232  1.00  0.00     0.071 H 
ATOM     27  C   UNL     1     -44.041  40.964  27.074  1.00  0.00     0.140 A 
ATOM     28  O   UNL     1     -47.312  41.789  25.935  1.00  0.00    -0.269 OA
ATOM     29  N   UNL     1     -45.042  41.690  26.438  1.00  0.00    -0.268 N 
ATOM     30  C   UNL     1     -42.658  41.518  27.005  1.00  0.00    -0.019 A 
ATOM     31  C   UNL     1     -44.753  42.876  25.771  1.00  0.00     0.014 A 
ATOM     32  C   UNL     1     -42.429  42.664  26.351  1.00  0.00    -0.057 A 
ATOM     33  H   UNL     1     -41.872  40.962  27.498  1.00  0.00     0.066 H 
ATOM     34  C   UNL     1     -43.509  43.367  25.712  1.00  0.00    -0.045 A 
ATOM     35  H   UNL     1     -45.584  43.391  25.296  1.00  0.00     0.082 H 
ATOM     36  H   UNL     1     -41.429  43.083  26.289  1.00  0.00     0.062 H 
ATOM     37  H   UNL     1     -43.294  44.293  25.189  1.00  0.00     0.064 H 
ENDBRANCH  20  22
ENDBRANCH  15  18
ENDBRANCH   1  15
BRANCH   6  38
ATOM     38  C   UNL     1     -46.721  30.312  23.129  1.00  0.00     0.036 C 
ATOM     39  H   UNL     1     -47.637  30.114  22.557  1.00  0.00     0.049 H 
ATOM     40  H   UNL     1     -45.970  30.659  22.408  1.00  0.00     0.049 H 
BRANCH  38  41
ATOM     41  N   UNL     1     -46.225  29.079  23.751  1.00  0.00    -0.308 NA
ATOM     42  H   UNL     1     -45.411  28.774  23.217  1.00  0.00     0.123 HD
BRANCH  41  43
ATOM     43  C   UNL     1     -47.223  27.997  23.759  1.00  0.00     0.007 C 
ATOM     44  C   UNL     1     -47.126  26.950  24.834  1.00  0.00    -0.036 C 
ATOM     45  C   UNL     1     -48.250  27.942  24.853  1.00  0.00    -0.036 C 
ATOM     46  H   UNL     1     -47.528  27.634  22.779  1.00  0.00     0.046 H 
ATOM     47  H   UNL     1     -46.357  27.048  25.591  1.00  0.00     0.028 H 
ATOM     48  H   UNL     1     -47.360  25.925  24.568  1.00  0.00     0.028 H 
ATOM     49  H   UNL     1     -49.244  27.600  24.590  1.00  0.00     0.028 H 
ATOM     50  H   UNL     1     -48.237  28.704  25.623  1.00  0.00     0.028 H 
ENDBRANCH  41  43
ENDBRANCH  38  41
ENDBRANCH   6  38
TORSDOF 6
ENDMDL
MODEL 6
REMARK VINA RESULT:      -9.4      1.987      2.910
REMARK SMILES O=C(NCc1ccc2cc(CNC3CC3)[nH]c2c1)c1cc(=O)n2ccccc2n1
REMARK SMILES IDX 5 1 6 2 7 3 8 4 9 5 10 6 16 7 17 8 18 9 4 15 3 18 1 19 2 20
REMARK SMILES IDX 19 22 20 23 29 24 21 25 28 27 22 28 23 29 27 30 24 31 26 32
REMARK SMILES IDX 25 34 11 38 12 41 13 43 14 44 15 45
REMARK H PARENT 6 10 7 11 9 12 16 13 18 14 4 16 4 17 3 21 20 26 27 33 24 35
REMARK H PARENT 26 36 25 37 11 39 11 40 12 42 13 46 14 47 14 48 15 49 15 50
REMARK Flexibility Score: inf
ROOT
ATOM      1  C   UNL     1     -47.893  35.156  26.984  1.00  0.00    -0.027 A 
ATOM      2  C   UNL     1     -46.559  35.143  26.555  1.00  0.00    -0.057 A 
ATOM      3  C   UNL     1     -46.082  34.139  25.702  1.00  0.00    -0.052 A 
ATOM      4  C   UNL     1     -46.956  33.122  25.277  1.00  0.00    -0.000 A 
ATOM      5  C   UNL     1     -46.817  31.983  24.434  1.00  0.00    -0.032 A 
ATOM      6  C   UNL     1     -48.037  31.338  24.383  1.00  0.00     0.030 A 
ATOM      7  N   UNL     1     -48.906  32.052  25.174  1.00  0.00    -0.357 N 
ATOM      8  C   UNL     1     -48.276  33.143  25.723  1.00  0.00     0.046 A 
ATOM      9  C   UNL     1     -48.772  34.140  26.572  1.00  0.00    -0.033 A 
ATOM     10  H   UNL     1     -45.871  35.921  26.881  1.00  0.00     0.063 H 
ATOM     11  H   UNL     1     -45.047  34.145  25.373  1.00  0.00     0.063 H 
ATOM     12  H   UNL     1     -45.918  31.672  23.921  1.00  0.00     0.065 H 
ATOM     13  H   UNL     1     -49.884  31.820  25.287  1.00  0.00     0.166 HD
ATOM     14  H   UNL     1     -49.806  34.126  26.908  1.00  0.00     0.065 H 
ENDROOT
BRANCH   1  15
ATOM     15  C   UNL     1     -48.384  36.232  27.919  1.00  0.00     0.043 C 
ATOM     16  H   UNL     1     -49.319  36.667  27.545  1.00  0.00     0.054 H 
ATOM     17  H   UNL     1     -48.596  35.809  28.907  1.00  0.00     0.054 H 
BRANCH  15  18
ATOM     18  N   UNL     1     -47.424  37.302  28.018  1.00  0.00    -0.347 N 
ATOM     19  O   UNL     1     -46.422  36.597  29.967  1.00  0.00    -0.268 OA
ATOM     20  C   UNL     1     -46.468  37.352  29.003  1.00  0.00     0.270 C 
ATOM     21  H   UNL     1     -47.273  37.908  27.219  1.00  0.00     0.164 HD
BRANCH  20  22
ATOM     22  C   UNL     1     -45.453  38.443  28.760  1.00  0.00     0.136 A 
ATOM     23  C   UNL     1     -44.505  38.590  29.688  1.00  0.00     0.035 A 
ATOM     24  N   UNL     1     -45.556  39.203  27.615  1.00  0.00    -0.225 NA
ATOM     25  C   UNL     1     -43.493  39.634  29.490  1.00  0.00     0.258 A 
ATOM     26  H   UNL     1     -44.434  37.985  30.582  1.00  0.00     0.071 H 
ATOM     27  C   UNL     1     -44.657  40.122  27.443  1.00  0.00     0.140 A 
ATOM     28  O   UNL     1     -42.618  39.779  30.342  1.00  0.00    -0.269 OA
ATOM     29  N   UNL     1     -43.617  40.383  28.328  1.00  0.00    -0.268 N 
ATOM     30  C   UNL     1     -44.727  40.967  26.216  1.00  0.00    -0.019 A 
ATOM     31  C   UNL     1     -42.692  41.390  28.070  1.00  0.00     0.014 A 
ATOM     32  C   UNL     1     -43.813  41.924  26.011  1.00  0.00    -0.057 A 
ATOM     33  H   UNL     1     -45.531  40.770  25.520  1.00  0.00     0.066 H 
ATOM     34  C   UNL     1     -42.761  42.145  26.967  1.00  0.00    -0.045 A 
ATOM     35  H   UNL     1     -41.906  41.539  28.806  1.00  0.00     0.082 H 
ATOM     36  H   UNL     1     -43.847  42.549  25.124  1.00  0.00     0.062 H 
ATOM     37  H   UNL     1     -42.035  42.928  26.775  1.00  0.00     0.064 H 
ENDBRANCH  20  22
ENDBRANCH  15  18
ENDBRANCH   1  15
BRANCH   6  38
ATOM     38  C   UNL     1     -48.467  30.103  23.674  1.00  0.00     0.036 C 
ATOM     39  H   UNL     1     -47.602  29.480  23.413  1.00  0.00     0.049 H 
ATOM     40  H   UNL     1     -49.082  29.512  24.364  1.00  0.00     0.049 H 
BRANCH  38  41
ATOM     41  N   UNL     1     -49.270  30.397  22.481  1.00  0.00    -0.308 NA
ATOM     42  H   UNL     1     -50.075  29.770  22.494  1.00  0.00     0.123 HD
BRANCH  41  43
ATOM     43  C   UNL     1     -48.529  30.196  21.226  1.00  0.00     0.007 C 
ATOM     44  C   UNL     1     -49.298  29.757  20.009  1.00  0.00    -0.036 C 
ATOM     45  C   UNL     1     -48.736  31.146  20.081  1.00  0.00    -0.036 C 
ATOM     46  H   UNL     1     -47.536  29.762  21.331  1.00  0.00     0.046 H 
ATOM     47  H   UNL     1     -50.373  29.647  20.084  1.00  0.00     0.028 H 
ATOM     48  H   UNL     1     -48.825  29.054  19.335  1.00  0.00     0.028 H 
ATOM     49  H   UNL     1     -47.875  31.386  19.467  1.00  0.00     0.028 H 
ATOM     50  H   UNL     1     -49.433  31.966  20.200  1.00  0.00     0.028 H 
ENDBRANCH  41  43
ENDBRANCH  38  41
ENDBRANCH   6  38
TORSDOF 6
ENDMDL
MODEL 7
REMARK VINA RESULT:      -9.4      2.812     10.909
REMARK SMILES O=C(NCc1ccc2cc(CNC3CC3)[nH]c2c1)c1cc(=O)n2ccccc2n1
REMARK SMILES IDX 5 1 6 2 7 3 8 4 9 5 10 6 16 7 17 8 18 9 4 15 3 18 1 19 2 20
REMARK SMILES IDX 19 22 20 23 29 24 21 25 28 27 22 28 23 29 27 30 24 31 26 32
REMARK SMILES IDX 25 34 11 38 12 41 13 43 14 44 15 45
REMARK H PARENT 6 10 7 11 9 12 16 13 18 14 4 16 4 17 3 21 20 26 27 33 24 35
REMARK H PARENT 26 36 25 37 11 39 11 40 12 42 13 46 14 47 14 48 15 49 15 50
REMARK Flexibility Score: inf
ROOT
ATOM      1  C   UNL     1     -46.818  33.728  25.799  1.00  0.00    -0.027 A 
ATOM      2  C   UNL     1     -48.148  34.096  26.042  1.00  0.00    -0.057 A 
ATOM      3  C   UNL     1     -48.469  35.050  27.017  1.00  0.00    -0.052 A 
ATOM      4  C   UNL     1     -47.437  35.643  27.769  1.00  0.00    -0.000 A 
ATOM      5  C   UNL     1     -47.400  36.619  28.803  1.00  0.00    -0.032 A 
ATOM      6  C   UNL     1     -46.081  36.808  29.165  1.00  0.00     0.030 A 
ATOM      7  N   UNL     1     -45.323  35.970  28.383  1.00  0.00    -0.357 N 
ATOM      8  C   UNL     1     -46.122  35.256  27.522  1.00  0.00     0.046 A 
ATOM      9  C   UNL     1     -45.781  34.308  26.550  1.00  0.00    -0.033 A 
ATOM     10  H   UNL     1     -48.955  33.641  25.471  1.00  0.00     0.063 H 
ATOM     11  H   UNL     1     -49.504  35.330  27.190  1.00  0.00     0.063 H 
ATOM     12  H   UNL     1     -48.251  37.128  29.235  1.00  0.00     0.065 H 
ATOM     13  H   UNL     1     -44.313  35.932  28.414  1.00  0.00     0.166 HD
ATOM     14  H   UNL     1     -44.745  34.022  26.385  1.00  0.00     0.065 H 
ENDROOT
BRANCH   1  15
ATOM     15  C   UNL     1     -46.492  32.684  24.761  1.00  0.00     0.043 C 
ATOM     16  H   UNL     1     -46.759  33.042  23.760  1.00  0.00     0.054 H 
ATOM     17  H   UNL     1     -45.416  32.478  24.755  1.00  0.00     0.054 H 
BRANCH  15  18
ATOM     18  N   UNL     1     -47.239  31.476  24.998  1.00  0.00    -0.347 N 
ATOM     19  O   UNL     1     -48.184  31.316  22.904  1.00  0.00    -0.268 OA
ATOM     20  C   UNL     1     -47.969  30.849  24.017  1.00  0.00     0.270 C 
ATOM     21  H   UNL     1     -47.042  30.924  25.826  1.00  0.00     0.164 HD
BRANCH  20  22
ATOM     22  C   UNL     1     -48.473  29.495  24.455  1.00  0.00     0.136 A 
ATOM     23  C   UNL     1     -49.788  29.290  24.352  1.00  0.00     0.035 A 
ATOM     24  N   UNL     1     -47.567  28.567  24.918  1.00  0.00    -0.225 NA
ATOM     25  C   UNL     1     -50.323  27.986  24.761  1.00  0.00     0.258 A 
ATOM     26  H   UNL     1     -50.490  30.027  23.985  1.00  0.00     0.071 H 
ATOM     27  C   UNL     1     -48.044  27.414  25.274  1.00  0.00     0.140 A 
ATOM     28  O   UNL     1     -51.534  27.789  24.673  1.00  0.00    -0.269 OA
ATOM     29  N   UNL     1     -49.389  27.067  25.220  1.00  0.00    -0.268 N 
ATOM     30  C   UNL     1     -47.099  26.376  25.777  1.00  0.00    -0.019 A 
ATOM     31  C   UNL     1     -49.821  25.807  25.622  1.00  0.00     0.014 A 
ATOM     32  C   UNL     1     -47.562  25.177  26.153  1.00  0.00    -0.057 A 
ATOM     33  H   UNL     1     -46.050  26.636  25.821  1.00  0.00     0.066 H 
ATOM     34  C   UNL     1     -48.967  24.880  26.075  1.00  0.00    -0.045 A 
ATOM     35  H   UNL     1     -50.887  25.605  25.554  1.00  0.00     0.082 H 
ATOM     36  H   UNL     1     -46.890  24.409  26.523  1.00  0.00     0.062 H 
ATOM     37  H   UNL     1     -49.314  23.901  26.385  1.00  0.00     0.064 H 
ENDBRANCH  20  22
ENDBRANCH  15  18
ENDBRANCH   1  15
BRANCH   6  38
ATOM     38  C   UNL     1     -45.460  37.691  30.189  1.00  0.00     0.036 C 
ATOM     39  H   UNL     1     -46.215  38.324  30.671  1.00  0.00     0.049 H 
ATOM     40  H   UNL     1     -45.038  37.052  30.976  1.00  0.00     0.049 H 
BRANCH  38  41
ATOM     41  N   UNL     1     -44.377  38.510  29.633  1.00  0.00    -0.308 NA
ATOM     42  H   UNL     1     -43.915  38.977  30.415  1.00  0.00     0.123 HD
BRANCH  41  43
ATOM     43  C   UNL     1     -44.856  39.530  28.687  1.00  0.00     0.007 C 
ATOM     44  C   UNL     1     -43.839  40.422  28.029  1.00  0.00    -0.036 C 
ATOM     45  C   UNL     1     -44.557  39.382  27.222  1.00  0.00    -0.036 C 
ATOM     46  H   UNL     1     -45.797  40.010  28.950  1.00  0.00     0.046 H 
ATOM     47  H   UNL     1     -42.789  40.259  28.238  1.00  0.00     0.028 H 
ATOM     48  H   UNL     1     -44.103  41.461  27.867  1.00  0.00     0.028 H 
ATOM     49  H   UNL     1     -45.316  39.707  26.520  1.00  0.00     0.028 H 
ATOM     50  H   UNL     1     -43.988  38.523  26.887  1.00  0.00     0.028 H 
ENDBRANCH  41  43
ENDBRANCH  38  41
ENDBRANCH   6  38
TORSDOF 6
ENDMDL
