MODEL 1
REMARK VINA RESULT:     -10.5      0.000      0.000
REMARK SMILES CNc1ccc2ccc(OC[C@H]3O[C@@H](n4cc(F)c5c(N)ncnc54)[C@@H](F)[C@@H]3O)cc2n1
REMARK SMILES IDX 11 1 10 4 9 5 3 6 4 7 32 8 5 9 31 11 6 12 30 14 7 15 8 17
REMARK SMILES IDX 2 20 1 22 12 26 13 27 28 28 14 30 26 31 27 34 29 36 15 38
REMARK SMILES IDX 16 39 25 40 17 41 19 43 24 44 18 45 20 46 23 47 22 48 21 50
REMARK H PARENT 11 2 11 3 4 10 5 13 30 16 7 18 8 19 2 21 1 23 1 24 1 25 12 29
REMARK H PARENT 28 32 14 33 26 35 29 37 16 42 23 49 21 51 21 52
REMARK Flexibility Score: inf
ROOT
ATOM      1  C   UNL     1     -45.786  35.141  28.056  1.00  0.00     0.117 C 
ATOM      2  H   UNL     1     -44.709  35.083  27.860  1.00  0.00     0.073 H 
ATOM      3  H   UNL     1     -46.064  34.173  28.485  1.00  0.00     0.073 H 
ENDROOT
BRANCH   1   4
ATOM      4  O   UNL     1     -46.402  35.374  26.783  1.00  0.00    -0.491 OA
BRANCH   4   5
ATOM      5  C   UNL     1     -46.948  34.315  26.114  1.00  0.00     0.121 A 
ATOM      6  C   UNL     1     -46.996  30.869  22.830  1.00  0.00     0.126 A 
ATOM      7  C   UNL     1     -48.260  30.444  23.219  1.00  0.00    -0.019 A 
ATOM      8  N   UNL     1     -46.383  31.906  23.435  1.00  0.00    -0.231 NA
ATOM      9  C   UNL     1     -48.906  31.095  24.267  1.00  0.00    -0.049 A 
ATOM     10  H   UNL     1     -48.748  29.625  22.703  1.00  0.00     0.066 H 
ATOM     11  C   UNL     1     -46.999  32.540  24.448  1.00  0.00     0.076 A 
ATOM     12  C   UNL     1     -48.276  32.166  24.905  1.00  0.00     0.001 A 
ATOM     13  H   UNL     1     -49.896  30.767  24.571  1.00  0.00     0.063 H 
ATOM     14  C   UNL     1     -46.357  33.604  25.067  1.00  0.00     0.007 A 
ATOM     15  C   UNL     1     -48.876  32.862  25.966  1.00  0.00    -0.049 A 
ATOM     16  H   UNL     1     -45.363  33.845  24.707  1.00  0.00     0.069 H 
ATOM     17  C   UNL     1     -48.209  33.930  26.565  1.00  0.00    -0.019 A 
ATOM     18  H   UNL     1     -49.861  32.580  26.329  1.00  0.00     0.063 H 
ATOM     19  H   UNL     1     -48.677  34.468  27.386  1.00  0.00     0.066 H 
BRANCH   6  20
ATOM     20  N   UNL     1     -46.380  30.211  21.749  1.00  0.00    -0.373 N 
ATOM     21  H   UNL     1     -45.603  29.661  22.102  1.00  0.00     0.161 HD
BRANCH  20  22
ATOM     22  C   UNL     1     -45.970  31.102  20.674  1.00  0.00     0.005 C 
ATOM     23  H   UNL     1     -45.838  32.130  21.031  1.00  0.00     0.045 H 
ATOM     24  H   UNL     1     -46.683  31.087  19.843  1.00  0.00     0.045 H 
ATOM     25  H   UNL     1     -45.005  30.764  20.281  1.00  0.00     0.045 H 
ENDBRANCH  20  22
ENDBRANCH   6  20
ENDBRANCH   4   5
ENDBRANCH   1   4
BRANCH   1  26
ATOM     26  C   UNL     1     -46.048  36.309  29.012  1.00  0.00     0.123 C 
ATOM     27  O   UNL     1     -44.892  37.158  29.149  1.00  0.00    -0.345 OA
ATOM     28  C   UNL     1     -47.178  37.207  28.525  1.00  0.00     0.119 C 
ATOM     29  H   UNL     1     -46.268  35.906  30.009  1.00  0.00     0.067 H 
ATOM     30  C   UNL     1     -45.357  38.507  29.352  1.00  0.00     0.170 C 
ATOM     31  C   UNL     1     -46.876  38.502  29.247  1.00  0.00     0.173 C 
ATOM     32  H   UNL     1     -47.163  37.347  27.440  1.00  0.00     0.066 H 
ATOM     33  H   UNL     1     -45.064  38.791  30.370  1.00  0.00     0.088 H 
ATOM     34  F   UNL     1     -47.379  39.558  28.566  1.00  0.00    -0.239 F 
ATOM     35  H   UNL     1     -47.335  38.505  30.243  1.00  0.00     0.074 H 
BRANCH  28  36
ATOM     36  O   UNL     1     -48.457  36.685  28.874  1.00  0.00    -0.387 OA
ATOM     37  H   UNL     1     -48.988  36.665  28.054  1.00  0.00     0.211 HD
ENDBRANCH  28  36
BRANCH  30  38
ATOM     38  N   UNL     1     -44.654  39.400  28.445  1.00  0.00    -0.300 N 
ATOM     39  C   UNL     1     -45.055  39.650  27.148  1.00  0.00     0.045 A 
ATOM     40  C   UNL     1     -43.522  40.136  28.721  1.00  0.00     0.150 A 
ATOM     41  C   UNL     1     -44.163  40.547  26.622  1.00  0.00     0.154 A 
ATOM     42  H   UNL     1     -45.929  39.181  26.719  1.00  0.00     0.085 H 
ATOM     43  C   UNL     1     -43.192  40.868  27.586  1.00  0.00     0.097 A 
ATOM     44  N   UNL     1     -42.850  40.150  29.887  1.00  0.00    -0.218 NA
ATOM     45  F   UNL     1     -44.224  41.042  25.381  1.00  0.00    -0.204 F 
ATOM     46  C   UNL     1     -42.064  41.691  27.660  1.00  0.00     0.139 A 
ATOM     47  C   UNL     1     -41.804  40.996  29.848  1.00  0.00     0.120 A 
ATOM     48  N   UNL     1     -41.379  41.751  28.818  1.00  0.00    -0.219 NA
ATOM     49  H   UNL     1     -41.225  41.080  30.762  1.00  0.00     0.106 H 
BRANCH  46  50
ATOM     50  N   UNL     1     -41.609  42.470  26.610  1.00  0.00    -0.383 N 
ATOM     51  H   UNL     1     -41.360  43.422  26.835  1.00  0.00     0.158 HD
ATOM     52  H   UNL     1     -41.004  41.955  25.982  1.00  0.00     0.158 HD
ENDBRANCH  46  50
ENDBRANCH  30  38
ENDBRANCH   1  26
TORSDOF 8
ENDMDL
MODEL 2
REMARK VINA RESULT:     -10.1      1.420      2.030
REMARK SMILES CNc1ccc2ccc(OC[C@H]3O[C@@H](n4cc(F)c5c(N)ncnc54)[C@@H](F)[C@@H]3O)cc2n1
REMARK SMILES IDX 11 1 10 4 9 5 3 6 4 7 32 8 5 9 31 11 6 12 30 14 7 15 8 17
REMARK SMILES IDX 2 20 1 22 12 26 13 27 28 28 14 30 26 31 27 34 29 36 15 38
REMARK SMILES IDX 16 39 25 40 17 41 19 43 24 44 18 45 20 46 23 47 22 48 21 50
REMARK H PARENT 11 2 11 3 4 10 5 13 30 16 7 18 8 19 2 21 1 23 1 24 1 25 12 29
REMARK H PARENT 28 32 14 33 26 35 29 37 16 42 23 49 21 51 21 52
REMARK Flexibility Score: inf
ROOT
ATOM      1  C   UNL     1     -45.935  35.189  27.524  1.00  0.00     0.117 C 
ATOM      2  H   UNL     1     -45.938  35.722  26.566  1.00  0.00     0.073 H 
ATOM      3  H   UNL     1     -44.988  34.641  27.557  1.00  0.00     0.073 H 
ENDROOT
BRANCH   1   4
ATOM      4  O   UNL     1     -47.073  34.319  27.488  1.00  0.00    -0.491 OA
BRANCH   4   5
ATOM      5  C   UNL     1     -47.138  33.362  26.514  1.00  0.00     0.121 A 
ATOM      6  C   UNL     1     -48.739  29.335  24.545  1.00  0.00     0.126 A 
ATOM      7  C   UNL     1     -47.922  29.494  23.432  1.00  0.00    -0.019 A 
ATOM      8  N   UNL     1     -48.738  30.229  25.553  1.00  0.00    -0.231 NA
ATOM      9  C   UNL     1     -47.094  30.609  23.347  1.00  0.00    -0.049 A 
ATOM     10  H   UNL     1     -47.917  28.750  22.644  1.00  0.00     0.066 H 
ATOM     11  C   UNL     1     -47.942  31.310  25.479  1.00  0.00     0.076 A 
ATOM     12  C   UNL     1     -47.092  31.545  24.383  1.00  0.00     0.001 A 
ATOM     13  H   UNL     1     -46.452  30.734  22.479  1.00  0.00     0.063 H 
ATOM     14  C   UNL     1     -47.952  32.228  26.521  1.00  0.00     0.007 A 
ATOM     15  C   UNL     1     -46.278  32.689  24.355  1.00  0.00    -0.049 A 
ATOM     16  H   UNL     1     -48.640  32.028  27.335  1.00  0.00     0.069 H 
ATOM     17  C   UNL     1     -46.307  33.591  25.418  1.00  0.00    -0.019 A 
ATOM     18  H   UNL     1     -45.620  32.883  23.513  1.00  0.00     0.063 H 
ATOM     19  H   UNL     1     -45.675  34.475  25.396  1.00  0.00     0.066 H 
BRANCH   6  20
ATOM     20  N   UNL     1     -49.544  28.183  24.617  1.00  0.00    -0.373 N 
ATOM     21  H   UNL     1     -50.506  28.444  24.425  1.00  0.00     0.161 HD
BRANCH  20  22
ATOM     22  C   UNL     1     -49.420  27.455  25.871  1.00  0.00     0.005 C 
ATOM     23  H   UNL     1     -49.530  26.375  25.724  1.00  0.00     0.045 H 
ATOM     24  H   UNL     1     -50.146  27.805  26.613  1.00  0.00     0.045 H 
ATOM     25  H   UNL     1     -48.421  27.630  26.286  1.00  0.00     0.045 H 
ENDBRANCH  20  22
ENDBRANCH   6  20
ENDBRANCH   4   5
ENDBRANCH   1   4
BRANCH   1  26
ATOM     26  C   UNL     1     -46.066  36.214  28.655  1.00  0.00     0.123 C 
ATOM     27  O   UNL     1     -44.878  37.018  28.790  1.00  0.00    -0.345 OA
ATOM     28  C   UNL     1     -47.213  37.189  28.417  1.00  0.00     0.119 C 
ATOM     29  H   UNL     1     -46.198  35.677  29.603  1.00  0.00     0.067 H 
ATOM     30  C   UNL     1     -45.281  38.331  29.226  1.00  0.00     0.170 C 
ATOM     31  C   UNL     1     -46.803  38.363  29.278  1.00  0.00     0.173 C 
ATOM     32  H   UNL     1     -47.301  37.481  27.366  1.00  0.00     0.066 H 
ATOM     33  H   UNL     1     -44.880  38.464  30.237  1.00  0.00     0.088 H 
ATOM     34  F   UNL     1     -47.340  39.513  28.805  1.00  0.00    -0.239 F 
ATOM     35  H   UNL     1     -47.160  38.232  30.305  1.00  0.00     0.074 H 
BRANCH  28  36
ATOM     36  O   UNL     1     -48.465  36.641  28.819  1.00  0.00    -0.387 OA
ATOM     37  H   UNL     1     -49.013  36.567  28.014  1.00  0.00     0.211 HD
ENDBRANCH  28  36
BRANCH  30  38
ATOM     38  N   UNL     1     -44.646  39.333  28.384  1.00  0.00    -0.300 N 
ATOM     39  C   UNL     1     -45.078  39.655  27.114  1.00  0.00     0.045 A 
ATOM     40  C   UNL     1     -43.558  40.116  28.708  1.00  0.00     0.150 A 
ATOM     41  C   UNL     1     -44.250  40.644  26.651  1.00  0.00     0.154 A 
ATOM     42  H   UNL     1     -45.926  39.167  26.656  1.00  0.00     0.085 H 
ATOM     43  C   UNL     1     -43.289  40.951  27.630  1.00  0.00     0.097 A 
ATOM     44  N   UNL     1     -42.875  40.083  29.866  1.00  0.00    -0.218 NA
ATOM     45  F   UNL     1     -44.357  41.228  25.452  1.00  0.00    -0.204 F 
ATOM     46  C   UNL     1     -42.213  41.836  27.758  1.00  0.00     0.139 A 
ATOM     47  C   UNL     1     -41.884  40.994  29.884  1.00  0.00     0.120 A 
ATOM     48  N   UNL     1     -41.519  41.851  28.912  1.00  0.00    -0.219 NA
ATOM     49  H   UNL     1     -41.300  41.044  30.798  1.00  0.00     0.106 H 
BRANCH  46  50
ATOM     50  N   UNL     1     -41.821  42.720  26.768  1.00  0.00    -0.383 N 
ATOM     51  H   UNL     1     -42.081  43.686  26.902  1.00  0.00     0.158 HD
ATOM     52  H   UNL     1     -40.891  42.520  26.420  1.00  0.00     0.158 HD
ENDBRANCH  46  50
ENDBRANCH  30  38
ENDBRANCH   1  26
TORSDOF 8
ENDMDL
MODEL 3
REMARK VINA RESULT:      -9.2      5.539     11.156
REMARK SMILES CNc1ccc2ccc(OC[C@H]3O[C@@H](n4cc(F)c5c(N)ncnc54)[C@@H](F)[C@@H]3O)cc2n1
REMARK SMILES IDX 11 1 10 4 9 5 3 6 4 7 32 8 5 9 31 11 6 12 30 14 7 15 8 17
REMARK SMILES IDX 2 20 1 22 12 26 13 27 28 28 14 30 26 31 27 34 29 36 15 38
REMARK SMILES IDX 16 39 25 40 17 41 19 43 24 44 18 45 20 46 23 47 22 48 21 50
REMARK H PARENT 11 2 11 3 4 10 5 13 30 16 7 18 8 19 2 21 1 23 1 24 1 25 12 29
REMARK H PARENT 28 32 14 33 26 35 29 37 16 42 23 49 21 51 21 52
REMARK Flexibility Score: inf
ROOT
ATOM      1  C   UNL     1     -49.726  31.724  24.428  1.00  0.00     0.117 C 
ATOM      2  H   UNL     1     -50.038  32.746  24.180  1.00  0.00     0.073 H 
ATOM      3  H   UNL     1     -50.647  31.179  24.659  1.00  0.00     0.073 H 
ENDROOT
BRANCH   1   4
ATOM      4  O   UNL     1     -48.861  31.847  25.564  1.00  0.00    -0.491 OA
BRANCH   4   5
ATOM      5  C   UNL     1     -48.407  33.088  25.913  1.00  0.00     0.121 A 
ATOM      6  C   UNL     1     -48.795  37.414  27.861  1.00  0.00     0.126 A 
ATOM      7  C   UNL     1     -47.493  37.747  27.507  1.00  0.00    -0.019 A 
ATOM      8  N   UNL     1     -49.324  36.212  27.555  1.00  0.00    -0.231 NA
ATOM      9  C   UNL     1     -46.710  36.814  26.833  1.00  0.00    -0.049 A 
ATOM     10  H   UNL     1     -47.095  38.728  27.738  1.00  0.00     0.066 H 
ATOM     11  C   UNL     1     -48.574  35.305  26.906  1.00  0.00     0.076 A 
ATOM     12  C   UNL     1     -47.246  35.563  26.519  1.00  0.00     0.001 A 
ATOM     13  H   UNL     1     -45.693  37.073  26.553  1.00  0.00     0.063 H 
ATOM     14  C   UNL     1     -49.127  34.068  26.600  1.00  0.00     0.007 A 
ATOM     15  C   UNL     1     -46.506  34.582  25.841  1.00  0.00    -0.049 A 
ATOM     16  H   UNL     1     -50.142  33.895  26.938  1.00  0.00     0.069 H 
ATOM     17  C   UNL     1     -47.089  33.351  25.544  1.00  0.00    -0.019 A 
ATOM     18  H   UNL     1     -45.479  34.769  25.540  1.00  0.00     0.063 H 
ATOM     19  H   UNL     1     -46.515  32.592  25.017  1.00  0.00     0.066 H 
BRANCH   6  20
ATOM     20  N   UNL     1     -49.573  38.388  28.515  1.00  0.00    -0.373 N 
ATOM     21  H   UNL     1     -49.331  38.390  29.501  1.00  0.00     0.161 HD
BRANCH  20  22
ATOM     22  C   UNL     1     -51.005  38.232  28.309  1.00  0.00     0.005 C 
ATOM     23  H   UNL     1     -51.362  38.847  27.476  1.00  0.00     0.045 H 
ATOM     24  H   UNL     1     -51.571  38.471  29.216  1.00  0.00     0.045 H 
ATOM     25  H   UNL     1     -51.217  37.186  28.061  1.00  0.00     0.045 H 
ENDBRANCH  20  22
ENDBRANCH   6  20
ENDBRANCH   4   5
ENDBRANCH   1   4
BRANCH   1  26
ATOM     26  C   UNL     1     -48.975  31.137  23.230  1.00  0.00     0.123 C 
ATOM     27  O   UNL     1     -47.730  30.528  23.623  1.00  0.00    -0.345 OA
ATOM     28  C   UNL     1     -49.776  30.047  22.528  1.00  0.00     0.119 C 
ATOM     29  H   UNL     1     -48.728  31.950  22.535  1.00  0.00     0.067 H 
ATOM     30  C   UNL     1     -47.487  29.412  22.745  1.00  0.00     0.170 C 
ATOM     31  C   UNL     1     -48.688  29.272  21.818  1.00  0.00     0.173 C 
ATOM     32  H   UNL     1     -50.320  29.409  23.232  1.00  0.00     0.066 H 
ATOM     33  H   UNL     1     -46.599  29.664  22.153  1.00  0.00     0.088 H 
ATOM     34  F   UNL     1     -49.070  27.990  21.611  1.00  0.00    -0.239 F 
ATOM     35  H   UNL     1     -48.476  29.714  20.838  1.00  0.00     0.074 H 
BRANCH  28  36
ATOM     36  O   UNL     1     -50.727  30.592  21.617  1.00  0.00    -0.387 OA
ATOM     37  H   UNL     1     -51.290  29.852  21.319  1.00  0.00     0.211 HD
ENDBRANCH  28  36
BRANCH  30  38
ATOM     38  N   UNL     1     -47.148  28.241  23.538  1.00  0.00    -0.300 N 
ATOM     39  C   UNL     1     -45.987  27.514  23.375  1.00  0.00     0.045 A 
ATOM     40  C   UNL     1     -47.891  27.691  24.561  1.00  0.00     0.150 A 
ATOM     41  C   UNL     1     -46.015  26.508  24.306  1.00  0.00     0.154 A 
ATOM     42  H   UNL     1     -45.249  27.771  22.629  1.00  0.00     0.085 H 
ATOM     43  C   UNL     1     -47.196  26.596  25.061  1.00  0.00     0.097 A 
ATOM     44  N   UNL     1     -49.081  28.136  25.004  1.00  0.00    -0.218 NA
ATOM     45  F   UNL     1     -45.051  25.593  24.467  1.00  0.00    -0.204 F 
ATOM     46  C   UNL     1     -47.785  25.893  26.117  1.00  0.00     0.139 A 
ATOM     47  C   UNL     1     -49.533  27.401  26.036  1.00  0.00     0.120 A 
ATOM     48  N   UNL     1     -48.964  26.321  26.606  1.00  0.00    -0.219 NA
ATOM     49  H   UNL     1     -50.480  27.714  26.465  1.00  0.00     0.106 H 
BRANCH  46  50
ATOM     50  N   UNL     1     -47.217  24.779  26.711  1.00  0.00    -0.383 N 
ATOM     51  H   UNL     1     -47.825  23.983  26.842  1.00  0.00     0.158 HD
ATOM     52  H   UNL     1     -46.273  24.609  26.388  1.00  0.00     0.158 HD
ENDBRANCH  46  50
ENDBRANCH  30  38
ENDBRANCH   1  26
TORSDOF 8
ENDMDL
MODEL 4
REMARK VINA RESULT:      -9.2      2.847      4.342
REMARK SMILES CNc1ccc2ccc(OC[C@H]3O[C@@H](n4cc(F)c5c(N)ncnc54)[C@@H](F)[C@@H]3O)cc2n1
REMARK SMILES IDX 11 1 10 4 9 5 3 6 4 7 32 8 5 9 31 11 6 12 30 14 7 15 8 17
REMARK SMILES IDX 2 20 1 22 12 26 13 27 28 28 14 30 26 31 27 34 29 36 15 38
REMARK SMILES IDX 16 39 25 40 17 41 19 43 24 44 18 45 20 46 23 47 22 48 21 50
REMARK H PARENT 11 2 11 3 4 10 5 13 30 16 7 18 8 19 2 21 1 23 1 24 1 25 12 29
REMARK H PARENT 28 32 14 33 26 35 29 37 16 42 23 49 21 51 21 52
REMARK Flexibility Score: inf
ROOT
ATOM      1  C   UNL     1     -45.510  38.527  28.825  1.00  0.00     0.117 C 
ATOM      2  H   UNL     1     -45.266  37.484  29.060  1.00  0.00     0.073 H 
ATOM      3  H   UNL     1     -45.731  39.005  29.785  1.00  0.00     0.073 H 
ENDROOT
BRANCH   1   4
ATOM      4  O   UNL     1     -46.653  38.474  27.962  1.00  0.00    -0.491 OA
BRANCH   4   5
ATOM      5  C   UNL     1     -47.089  37.255  27.524  1.00  0.00     0.121 A 
ATOM      6  C   UNL     1     -46.563  32.972  25.515  1.00  0.00     0.126 A 
ATOM      7  C   UNL     1     -47.910  32.672  25.680  1.00  0.00    -0.019 A 
ATOM      8  N   UNL     1     -46.049  34.150  25.917  1.00  0.00    -0.231 NA
ATOM      9  C   UNL     1     -48.747  33.604  26.287  1.00  0.00    -0.049 A 
ATOM     10  H   UNL     1     -48.310  31.729  25.326  1.00  0.00     0.066 H 
ATOM     11  C   UNL     1     -46.850  35.056  26.505  1.00  0.00     0.076 A 
ATOM     12  C   UNL     1     -48.222  34.825  26.714  1.00  0.00     0.001 A 
ATOM     13  H   UNL     1     -49.801  33.373  26.414  1.00  0.00     0.063 H 
ATOM     14  C   UNL     1     -46.309  36.266  26.921  1.00  0.00     0.007 A 
ATOM     15  C   UNL     1     -49.015  35.805  27.332  1.00  0.00    -0.049 A 
ATOM     16  H   UNL     1     -45.244  36.397  26.769  1.00  0.00     0.069 H 
ATOM     17  C   UNL     1     -48.445  37.012  27.734  1.00  0.00    -0.019 A 
ATOM     18  H   UNL     1     -50.075  35.636  27.501  1.00  0.00     0.063 H 
ATOM     19  H   UNL     1     -49.062  37.770  28.211  1.00  0.00     0.066 H 
BRANCH   6  20
ATOM     20  N   UNL     1     -45.747  32.022  24.872  1.00  0.00    -0.373 N 
ATOM     21  H   UNL     1     -44.887  32.475  24.580  1.00  0.00     0.161 HD
BRANCH  20  22
ATOM     22  C   UNL     1     -46.402  31.338  23.766  1.00  0.00     0.005 C 
ATOM     23  H   UNL     1     -46.381  30.250  23.896  1.00  0.00     0.045 H 
ATOM     24  H   UNL     1     -45.951  31.605  22.804  1.00  0.00     0.045 H 
ATOM     25  H   UNL     1     -47.452  31.645  23.730  1.00  0.00     0.045 H 
ENDBRANCH  20  22
ENDBRANCH   6  20
ENDBRANCH   4   5
ENDBRANCH   1   4
BRANCH   1  26
ATOM     26  C   UNL     1     -44.314  39.161  28.110  1.00  0.00     0.123 C 
ATOM     27  O   UNL     1     -44.663  39.629  26.792  1.00  0.00    -0.345 OA
ATOM     28  C   UNL     1     -43.772  40.372  28.859  1.00  0.00     0.119 C 
ATOM     29  H   UNL     1     -43.535  38.399  27.981  1.00  0.00     0.067 H 
ATOM     30  C   UNL     1     -43.869  40.799  26.515  1.00  0.00     0.170 C 
ATOM     31  C   UNL     1     -43.051  41.119  27.759  1.00  0.00     0.173 C 
ATOM     32  H   UNL     1     -44.567  40.983  29.297  1.00  0.00     0.066 H 
ATOM     33  H   UNL     1     -43.193  40.533  25.694  1.00  0.00     0.088 H 
ATOM     34  F   UNL     1     -42.986  42.442  28.042  1.00  0.00    -0.239 F 
ATOM     35  H   UNL     1     -42.023  40.755  27.653  1.00  0.00     0.074 H 
BRANCH  28  36
ATOM     36  O   UNL     1     -42.892  39.991  29.913  1.00  0.00    -0.387 OA
ATOM     37  H   UNL     1     -42.464  39.158  29.638  1.00  0.00     0.211 HD
ENDBRANCH  28  36
BRANCH  30  38
ATOM     38  N   UNL     1     -44.733  41.861  26.023  1.00  0.00    -0.300 N 
ATOM     39  C   UNL     1     -46.072  41.968  26.336  1.00  0.00     0.045 A 
ATOM     40  C   UNL     1     -44.369  42.912  25.208  1.00  0.00     0.150 A 
ATOM     41  C   UNL     1     -46.538  43.094  25.709  1.00  0.00     0.154 A 
ATOM     42  H   UNL     1     -46.572  41.251  26.972  1.00  0.00     0.085 H 
ATOM     43  C   UNL     1     -45.492  43.704  24.995  1.00  0.00     0.097 A 
ATOM     44  N   UNL     1     -43.142  43.138  24.706  1.00  0.00    -0.218 NA
ATOM     45  F   UNL     1     -47.797  43.541  25.781  1.00  0.00    -0.204 F 
ATOM     46  C   UNL     1     -45.334  44.835  24.188  1.00  0.00     0.139 A 
ATOM     47  C   UNL     1     -43.105  44.265  23.972  1.00  0.00     0.120 A 
ATOM     48  N   UNL     1     -44.114  45.110  23.687  1.00  0.00    -0.219 NA
ATOM     49  H   UNL     1     -42.139  44.528  23.550  1.00  0.00     0.106 H 
BRANCH  46  50
ATOM     50  N   UNL     1     -46.360  45.712  23.881  1.00  0.00    -0.383 N 
ATOM     51  H   UNL     1     -46.090  46.583  23.447  1.00  0.00     0.158 HD
ATOM     52  H   UNL     1     -47.179  45.235  23.523  1.00  0.00     0.158 HD
ENDBRANCH  46  50
ENDBRANCH  30  38
ENDBRANCH   1  26
TORSDOF 8
ENDMDL
MODEL 5
REMARK VINA RESULT:      -9.0      1.517      2.128
REMARK SMILES CNc1ccc2ccc(OC[C@H]3O[C@@H](n4cc(F)c5c(N)ncnc54)[C@@H](F)[C@@H]3O)cc2n1
REMARK SMILES IDX 11 1 10 4 9 5 3 6 4 7 32 8 5 9 31 11 6 12 30 14 7 15 8 17
REMARK SMILES IDX 2 20 1 22 12 26 13 27 28 28 14 30 26 31 27 34 29 36 15 38
REMARK SMILES IDX 16 39 25 40 17 41 19 43 24 44 18 45 20 46 23 47 22 48 21 50
REMARK H PARENT 11 2 11 3 4 10 5 13 30 16 7 18 8 19 2 21 1 23 1 24 1 25 12 29
REMARK H PARENT 28 32 14 33 26 35 29 37 16 42 23 49 21 51 21 52
REMARK Flexibility Score: inf
ROOT
ATOM      1  C   UNL     1     -46.098  35.405  26.842  1.00  0.00     0.117 C 
ATOM      2  H   UNL     1     -45.836  36.258  26.204  1.00  0.00     0.073 H 
ATOM      3  H   UNL     1     -45.345  34.637  26.638  1.00  0.00     0.073 H 
ENDROOT
BRANCH   1   4
ATOM      4  O   UNL     1     -47.413  35.006  26.437  1.00  0.00    -0.491 OA
BRANCH   4   5
ATOM      5  C   UNL     1     -47.573  33.795  25.826  1.00  0.00     0.121 A 
ATOM      6  C   UNL     1     -46.302  30.250  22.913  1.00  0.00     0.126 A 
ATOM      7  C   UNL     1     -47.448  29.524  23.213  1.00  0.00    -0.019 A 
ATOM      8  N   UNL     1     -46.065  31.454  23.470  1.00  0.00    -0.231 NA
ATOM      9  C   UNL     1     -48.367  30.043  24.120  1.00  0.00    -0.049 A 
ATOM     10  H   UNL     1     -47.634  28.569  22.735  1.00  0.00     0.066 H 
ATOM     11  C   UNL     1     -46.947  31.963  24.348  1.00  0.00     0.076 A 
ATOM     12  C   UNL     1     -48.127  31.287  24.709  1.00  0.00     0.001 A 
ATOM     13  H   UNL     1     -49.265  29.479  24.354  1.00  0.00     0.063 H 
ATOM     14  C   UNL     1     -46.691  33.203  24.919  1.00  0.00     0.007 A 
ATOM     15  C   UNL     1     -49.016  31.863  25.629  1.00  0.00    -0.049 A 
ATOM     16  H   UNL     1     -45.759  33.681  24.639  1.00  0.00     0.069 H 
ATOM     17  C   UNL     1     -48.734  33.111  26.183  1.00  0.00    -0.019 A 
ATOM     18  H   UNL     1     -49.928  31.348  25.917  1.00  0.00     0.063 H 
ATOM     19  H   UNL     1     -49.425  33.556  26.895  1.00  0.00     0.066 H 
BRANCH   6  20
ATOM     20  N   UNL     1     -45.405  29.713  21.971  1.00  0.00    -0.373 N 
ATOM     21  H   UNL     1     -45.925  29.447  21.140  1.00  0.00     0.161 HD
BRANCH  20  22
ATOM     22  C   UNL     1     -44.604  28.612  22.484  1.00  0.00     0.005 C 
ATOM     23  H   UNL     1     -44.923  28.314  23.489  1.00  0.00     0.045 H 
ATOM     24  H   UNL     1     -43.537  28.860  22.492  1.00  0.00     0.045 H 
ATOM     25  H   UNL     1     -44.731  27.744  21.828  1.00  0.00     0.045 H 
ENDBRANCH  20  22
ENDBRANCH   6  20
ENDBRANCH   4   5
ENDBRANCH   1   4
BRANCH   1  26
ATOM     26  C   UNL     1     -46.091  35.866  28.302  1.00  0.00     0.123 C 
ATOM     27  O   UNL     1     -44.829  36.453  28.674  1.00  0.00    -0.345 OA
ATOM     28  C   UNL     1     -47.148  36.930  28.574  1.00  0.00     0.119 C 
ATOM     29  H   UNL     1     -46.240  34.993  28.949  1.00  0.00     0.067 H 
ATOM     30  C   UNL     1     -45.091  37.486  29.644  1.00  0.00     0.170 C 
ATOM     31  C   UNL     1     -46.599  37.602  29.813  1.00  0.00     0.173 C 
ATOM     32  H   UNL     1     -47.246  37.642  27.748  1.00  0.00     0.066 H 
ATOM     33  H   UNL     1     -44.643  37.153  30.588  1.00  0.00     0.088 H 
ATOM     34  F   UNL     1     -47.042  38.879  29.900  1.00  0.00    -0.239 F 
ATOM     35  H   UNL     1     -46.931  37.077  30.716  1.00  0.00     0.074 H 
BRANCH  28  36
ATOM     36  O   UNL     1     -48.432  36.355  28.800  1.00  0.00    -0.387 OA
ATOM     37  H   UNL     1     -48.969  37.031  29.256  1.00  0.00     0.211 HD
ENDBRANCH  28  36
BRANCH  30  38
ATOM     38  N   UNL     1     -44.393  38.701  29.251  1.00  0.00    -0.300 N 
ATOM     39  C   UNL     1     -43.371  39.270  29.983  1.00  0.00     0.045 A 
ATOM     40  C   UNL     1     -44.612  39.450  28.115  1.00  0.00     0.150 A 
ATOM     41  C   UNL     1     -42.957  40.379  29.293  1.00  0.00     0.154 A 
ATOM     42  H   UNL     1     -43.026  38.843  30.914  1.00  0.00     0.085 H 
ATOM     43  C   UNL     1     -43.718  40.515  28.119  1.00  0.00     0.097 A 
ATOM     44  N   UNL     1     -45.528  39.198  27.163  1.00  0.00    -0.218 NA
ATOM     45  F   UNL     1     -41.970  41.194  29.682  1.00  0.00    -0.204 F 
ATOM     46  C   UNL     1     -43.775  41.403  27.040  1.00  0.00     0.139 A 
ATOM     47  C   UNL     1     -45.471  40.099  26.166  1.00  0.00     0.120 A 
ATOM     48  N   UNL     1     -44.663  41.171  26.054  1.00  0.00    -0.219 NA
ATOM     49  H   UNL     1     -46.167  39.948  25.346  1.00  0.00     0.106 H 
BRANCH  46  50
ATOM     50  N   UNL     1     -42.957  42.512  26.911  1.00  0.00    -0.383 N 
ATOM     51  H   UNL     1     -41.971  42.328  26.788  1.00  0.00     0.158 HD
ATOM     52  H   UNL     1     -43.379  43.239  26.348  1.00  0.00     0.158 HD
ENDBRANCH  46  50
ENDBRANCH  30  38
ENDBRANCH   1  26
TORSDOF 8
ENDMDL
MODEL 6
REMARK VINA RESULT:      -9.0      4.827     10.956
REMARK SMILES CNc1ccc2ccc(OC[C@H]3O[C@@H](n4cc(F)c5c(N)ncnc54)[C@@H](F)[C@@H]3O)cc2n1
REMARK SMILES IDX 11 1 10 4 9 5 3 6 4 7 32 8 5 9 31 11 6 12 30 14 7 15 8 17
REMARK SMILES IDX 2 20 1 22 12 26 13 27 28 28 14 30 26 31 27 34 29 36 15 38
REMARK SMILES IDX 16 39 25 40 17 41 19 43 24 44 18 45 20 46 23 47 22 48 21 50
REMARK H PARENT 11 2 11 3 4 10 5 13 30 16 7 18 8 19 2 21 1 23 1 24 1 25 12 29
REMARK H PARENT 28 32 14 33 26 35 29 37 16 42 23 49 21 51 21 52
REMARK Flexibility Score: inf
ROOT
ATOM      1  C   UNL     1     -48.040  32.247  25.062  1.00  0.00     0.117 C 
ATOM      2  H   UNL     1     -48.915  32.880  24.869  1.00  0.00     0.073 H 
ATOM      3  H   UNL     1     -48.362  31.512  25.807  1.00  0.00     0.073 H 
ENDROOT
BRANCH   1   4
ATOM      4  O   UNL     1     -47.026  33.128  25.561  1.00  0.00    -0.491 OA
BRANCH   4   5
ATOM      5  C   UNL     1     -47.406  34.311  26.130  1.00  0.00     0.121 A 
ATOM      6  C   UNL     1     -46.760  38.825  27.498  1.00  0.00     0.126 A 
ATOM      7  C   UNL     1     -48.043  38.902  28.027  1.00  0.00    -0.019 A 
ATOM      8  N   UNL     1     -46.303  37.697  26.920  1.00  0.00    -0.231 NA
ATOM      9  C   UNL     1     -48.882  37.795  27.946  1.00  0.00    -0.049 A 
ATOM     10  H   UNL     1     -48.383  39.810  28.512  1.00  0.00     0.066 H 
ATOM     11  C   UNL     1     -47.107  36.622  26.837  1.00  0.00     0.076 A 
ATOM     12  C   UNL     1     -48.420  36.624  27.341  1.00  0.00     0.001 A 
ATOM     13  H   UNL     1     -49.884  37.852  28.361  1.00  0.00     0.063 H 
ATOM     14  C   UNL     1     -46.628  35.466  26.235  1.00  0.00     0.007 A 
ATOM     15  C   UNL     1     -49.219  35.475  27.230  1.00  0.00    -0.049 A 
ATOM     16  H   UNL     1     -45.622  35.512  25.833  1.00  0.00     0.069 H 
ATOM     17  C   UNL     1     -48.709  34.327  26.625  1.00  0.00    -0.019 A 
ATOM     18  H   UNL     1     -50.235  35.465  27.614  1.00  0.00     0.063 H 
ATOM     19  H   UNL     1     -49.328  33.438  26.541  1.00  0.00     0.066 H 
BRANCH   6  20
ATOM     20  N   UNL     1     -45.924  39.950  27.621  1.00  0.00    -0.373 N 
ATOM     21  H   UNL     1     -46.257  40.675  26.992  1.00  0.00     0.161 HD
BRANCH  20  22
ATOM     22  C   UNL     1     -44.513  39.660  27.413  1.00  0.00     0.005 C 
ATOM     23  H   UNL     1     -44.216  38.726  27.905  1.00  0.00     0.045 H 
ATOM     24  H   UNL     1     -43.877  40.481  27.762  1.00  0.00     0.045 H 
ATOM     25  H   UNL     1     -44.329  39.540  26.341  1.00  0.00     0.045 H 
ENDBRANCH  20  22
ENDBRANCH   6  20
ENDBRANCH   4   5
ENDBRANCH   1   4
BRANCH   1  26
ATOM     26  C   UNL     1     -47.603  31.601  23.744  1.00  0.00     0.123 C 
ATOM     27  O   UNL     1     -46.533  30.656  23.939  1.00  0.00    -0.345 OA
ATOM     28  C   UNL     1     -48.736  30.827  23.081  1.00  0.00     0.119 C 
ATOM     29  H   UNL     1     -47.220  32.384  23.077  1.00  0.00     0.067 H 
ATOM     30  C   UNL     1     -46.691  29.604  22.968  1.00  0.00     0.170 C 
ATOM     31  C   UNL     1     -47.975  29.868  22.192  1.00  0.00     0.173 C 
ATOM     32  H   UNL     1     -49.354  30.289  23.805  1.00  0.00     0.066 H 
ATOM     33  H   UNL     1     -45.834  29.671  22.287  1.00  0.00     0.088 H 
ATOM     34  F   UNL     1     -48.707  28.754  21.954  1.00  0.00    -0.239 F 
ATOM     35  H   UNL     1     -47.755  30.330  21.223  1.00  0.00     0.074 H 
BRANCH  28  36
ATOM     36  O   UNL     1     -49.595  31.683  22.333  1.00  0.00    -0.387 OA
ATOM     37  H   UNL     1     -49.053  32.077  21.622  1.00  0.00     0.211 HD
ENDBRANCH  28  36
BRANCH  30  38
ATOM     38  N   UNL     1     -46.599  28.315  23.636  1.00  0.00    -0.300 N 
ATOM     39  C   UNL     1     -45.636  27.369  23.349  1.00  0.00     0.045 A 
ATOM     40  C   UNL     1     -47.412  27.846  24.645  1.00  0.00     0.150 A 
ATOM     41  C   UNL     1     -45.859  26.308  24.188  1.00  0.00     0.154 A 
ATOM     42  H   UNL     1     -44.884  27.528  22.590  1.00  0.00     0.085 H 
ATOM     43  C   UNL     1     -46.965  26.581  25.011  1.00  0.00     0.097 A 
ATOM     44  N   UNL     1     -48.456  28.497  25.189  1.00  0.00    -0.218 NA
ATOM     45  F   UNL     1     -45.121  25.192  24.217  1.00  0.00    -0.204 F 
ATOM     46  C   UNL     1     -47.662  25.926  26.031  1.00  0.00     0.139 A 
ATOM     47  C   UNL     1     -49.029  27.783  26.175  1.00  0.00     0.120 A 
ATOM     48  N   UNL     1     -48.698  26.555  26.618  1.00  0.00    -0.219 NA
ATOM     49  H   UNL     1     -49.867  28.254  26.680  1.00  0.00     0.106 H 
BRANCH  46  50
ATOM     50  N   UNL     1     -47.340  24.662  26.494  1.00  0.00    -0.383 N 
ATOM     51  H   UNL     1     -46.820  24.621  27.359  1.00  0.00     0.158 HD
ATOM     52  H   UNL     1     -48.093  23.999  26.360  1.00  0.00     0.158 HD
ENDBRANCH  46  50
ENDBRANCH  30  38
ENDBRANCH   1  26
TORSDOF 8
ENDMDL
MODEL 7
REMARK VINA RESULT:      -8.7      2.893     10.162
REMARK SMILES CNc1ccc2ccc(OC[C@H]3O[C@@H](n4cc(F)c5c(N)ncnc54)[C@@H](F)[C@@H]3O)cc2n1
REMARK SMILES IDX 11 1 10 4 9 5 3 6 4 7 32 8 5 9 31 11 6 12 30 14 7 15 8 17
REMARK SMILES IDX 2 20 1 22 12 26 13 27 28 28 14 30 26 31 27 34 29 36 15 38
REMARK SMILES IDX 16 39 25 40 17 41 19 43 24 44 18 45 20 46 23 47 22 48 21 50
REMARK H PARENT 11 2 11 3 4 10 5 13 30 16 7 18 8 19 2 21 1 23 1 24 1 25 12 29
REMARK H PARENT 28 32 14 33 26 35 29 37 16 42 23 49 21 51 21 52
REMARK Flexibility Score: inf
ROOT
ATOM      1  C   UNL     1     -48.389  35.146  27.177  1.00  0.00     0.117 C 
ATOM      2  H   UNL     1     -48.228  35.790  26.304  1.00  0.00     0.073 H 
ATOM      3  H   UNL     1     -49.474  35.033  27.268  1.00  0.00     0.073 H 
ENDROOT
BRANCH   1   4
ATOM      4  O   UNL     1     -47.815  35.846  28.287  1.00  0.00    -0.491 OA
BRANCH   4   5
ATOM      5  C   UNL     1     -47.006  36.920  28.039  1.00  0.00     0.121 A 
ATOM      6  C   UNL     1     -43.478  39.961  29.024  1.00  0.00     0.126 A 
ATOM      7  C   UNL     1     -43.695  40.672  27.850  1.00  0.00    -0.019 A 
ATOM      8  N   UNL     1     -44.230  38.890  29.348  1.00  0.00    -0.231 NA
ATOM      9  C   UNL     1     -44.701  40.263  26.980  1.00  0.00    -0.049 A 
ATOM     10  H   UNL     1     -43.097  41.547  27.619  1.00  0.00     0.066 H 
ATOM     11  C   UNL     1     -45.204  38.488  28.513  1.00  0.00     0.076 A 
ATOM     12  C   UNL     1     -45.480  39.150  27.303  1.00  0.00     0.001 A 
ATOM     13  H   UNL     1     -44.875  40.820  26.063  1.00  0.00     0.063 H 
ATOM     14  C   UNL     1     -45.969  37.380  28.854  1.00  0.00     0.007 A 
ATOM     15  C   UNL     1     -46.510  38.690  26.467  1.00  0.00    -0.049 A 
ATOM     16  H   UNL     1     -45.709  36.879  29.779  1.00  0.00     0.069 H 
ATOM     17  C   UNL     1     -47.265  37.578  26.838  1.00  0.00    -0.019 A 
ATOM     18  H   UNL     1     -46.730  39.192  25.529  1.00  0.00     0.063 H 
ATOM     19  H   UNL     1     -48.063  37.224  26.190  1.00  0.00     0.066 H 
BRANCH   6  20
ATOM     20  N   UNL     1     -42.473  40.415  29.897  1.00  0.00    -0.373 N 
ATOM     21  H   UNL     1     -42.863  40.495  30.831  1.00  0.00     0.161 HD
BRANCH  20  22
ATOM     22  C   UNL     1     -41.836  41.652  29.469  1.00  0.00     0.005 C 
ATOM     23  H   UNL     1     -41.082  41.988  30.189  1.00  0.00     0.045 H 
ATOM     24  H   UNL     1     -42.571  42.447  29.302  1.00  0.00     0.045 H 
ATOM     25  H   UNL     1     -41.326  41.477  28.516  1.00  0.00     0.045 H 
ENDBRANCH  20  22
ENDBRANCH   6  20
ENDBRANCH   4   5
ENDBRANCH   1   4
BRANCH   1  26
ATOM     26  C   UNL     1     -47.673  33.813  26.941  1.00  0.00     0.123 C 
ATOM     27  O   UNL     1     -48.598  32.759  26.609  1.00  0.00    -0.345 OA
ATOM     28  C   UNL     1     -46.684  33.889  25.784  1.00  0.00     0.119 C 
ATOM     29  H   UNL     1     -47.169  33.515  27.868  1.00  0.00     0.067 H 
ATOM     30  C   UNL     1     -47.932  31.859  25.701  1.00  0.00     0.170 C 
ATOM     31  C   UNL     1     -46.557  32.434  25.390  1.00  0.00     0.173 C 
ATOM     32  H   UNL     1     -47.060  34.493  24.952  1.00  0.00     0.066 H 
ATOM     33  H   UNL     1     -47.816  30.906  26.232  1.00  0.00     0.088 H 
ATOM     34  F   UNL     1     -46.201  32.321  24.089  1.00  0.00    -0.239 F 
ATOM     35  H   UNL     1     -45.784  31.938  25.987  1.00  0.00     0.074 H 
BRANCH  28  36
ATOM     36  O   UNL     1     -45.437  34.445  26.190  1.00  0.00    -0.387 OA
ATOM     37  H   UNL     1     -45.093  33.877  26.906  1.00  0.00     0.211 HD
ENDBRANCH  28  36
BRANCH  30  38
ATOM     38  N   UNL     1     -48.795  31.603  24.559  1.00  0.00    -0.300 N 
ATOM     39  C   UNL     1     -49.991  32.257  24.338  1.00  0.00     0.045 A 
ATOM     40  C   UNL     1     -48.565  30.713  23.531  1.00  0.00     0.150 A 
ATOM     41  C   UNL     1     -50.501  31.765  23.165  1.00  0.00     0.154 A 
ATOM     42  H   UNL     1     -50.368  33.007  25.018  1.00  0.00     0.085 H 
ATOM     43  C   UNL     1     -49.628  30.797  22.639  1.00  0.00     0.097 A 
ATOM     44  N   UNL     1     -47.498  29.904  23.407  1.00  0.00    -0.218 NA
ATOM     45  F   UNL     1     -51.652  32.163  22.609  1.00  0.00    -0.204 F 
ATOM     46  C   UNL     1     -49.586  29.968  21.513  1.00  0.00     0.139 A 
ATOM     47  C   UNL     1     -47.554  29.178  22.276  1.00  0.00     0.120 A 
ATOM     48  N   UNL     1     -48.522  29.162  21.340  1.00  0.00    -0.219 NA
ATOM     49  H   UNL     1     -46.713  28.516  22.093  1.00  0.00     0.106 H 
BRANCH  46  50
ATOM     50  N   UNL     1     -50.574  29.935  20.544  1.00  0.00    -0.383 N 
ATOM     51  H   UNL     1     -50.875  29.019  20.244  1.00  0.00     0.158 HD
ATOM     52  H   UNL     1     -51.281  30.645  20.690  1.00  0.00     0.158 HD
ENDBRANCH  46  50
ENDBRANCH  30  38
ENDBRANCH   1  26
TORSDOF 8
ENDMDL
