MODEL 1
REMARK VINA RESULT:     -10.6      0.000      0.000
REMARK SMILES Nc1cc(OCc2cncc(-n3ccc4c(N)ncnc43)c2)ccc1C(=O)N1CCNCC1
REMARK SMILES IDX 6 1 5 4 4 5 2 6 3 7 25 8 24 10 23 11 1 14 26 17 27 18 28 19
REMARK SMILES IDX 29 20 33 21 30 22 32 25 31 28 7 34 8 35 22 36 9 37 11 39
REMARK SMILES IDX 10 41 12 43 13 44 21 45 14 46 15 48 20 49 16 51 19 52 18 53
REMARK SMILES IDX 17 55
REMARK H PARENT 6 2 6 3 3 9 24 12 23 13 1 15 1 16 29 23 29 24 33 26 33 27
REMARK H PARENT 30 29 30 30 32 31 32 32 31 33 8 38 22 40 10 42 13 47 14 50
REMARK H PARENT 19 54 17 56 17 57
REMARK Flexibility Score: inf
ROOT
ATOM      1  C   UNL     1     -46.928  35.304  26.049  1.00  0.00     0.115 C 
ATOM      2  H   UNL     1     -48.002  35.108  25.951  1.00  0.00     0.076 H 
ATOM      3  H   UNL     1     -46.686  36.018  25.252  1.00  0.00     0.076 H 
ENDROOT
BRANCH   1   4
ATOM      4  O   UNL     1     -46.160  34.125  25.790  1.00  0.00    -0.489 OA
BRANCH   4   5
ATOM      5  C   UNL     1     -46.804  33.010  25.331  1.00  0.00     0.121 A 
ATOM      6  C   UNL     1     -47.025  30.910  24.106  1.00  0.00     0.048 A 
ATOM      7  C   UNL     1     -46.248  31.993  24.548  1.00  0.00     0.004 A 
ATOM      8  C   UNL     1     -48.347  30.806  24.570  1.00  0.00     0.063 A 
ATOM      9  H   UNL     1     -45.207  32.021  24.248  1.00  0.00     0.068 H 
ATOM     10  C   UNL     1     -48.924  31.835  25.324  1.00  0.00    -0.044 A 
ATOM     11  C   UNL     1     -48.150  32.933  25.698  1.00  0.00    -0.019 A 
ATOM     12  H   UNL     1     -49.969  31.784  25.618  1.00  0.00     0.063 H 
ATOM     13  H   UNL     1     -48.595  33.731  26.287  1.00  0.00     0.066 H 
BRANCH   6  14
ATOM     14  N   UNL     1     -46.391  29.864  23.402  1.00  0.00    -0.398 N 
ATOM     15  H   UNL     1     -45.621  30.216  22.825  1.00  0.00     0.156 HD
ATOM     16  H   UNL     1     -46.070  29.111  24.004  1.00  0.00     0.156 HD
ENDBRANCH   6  14
BRANCH   8  17
ATOM     17  C   UNL     1     -49.184  29.645  24.194  1.00  0.00     0.256 C 
ATOM     18  O   UNL     1     -49.749  29.686  23.102  1.00  0.00    -0.269 OA
ATOM     19  N   UNL     1     -49.286  28.569  25.072  1.00  0.00    -0.336 N 
ATOM     20  C   UNL     1     -48.597  28.470  26.365  1.00  0.00     0.033 C 
ATOM     21  C   UNL     1     -50.315  27.559  24.816  1.00  0.00     0.033 C 
ATOM     22  C   UNL     1     -48.221  27.020  26.723  1.00  0.00     0.013 C 
ATOM     23  H   UNL     1     -47.689  29.078  26.366  1.00  0.00     0.051 H 
ATOM     24  H   UNL     1     -49.280  28.875  27.123  1.00  0.00     0.051 H 
ATOM     25  C   UNL     1     -49.869  26.144  25.222  1.00  0.00     0.013 C 
ATOM     26  H   UNL     1     -51.195  27.854  25.401  1.00  0.00     0.051 H 
ATOM     27  H   UNL     1     -50.609  27.562  23.762  1.00  0.00     0.051 H 
ATOM     28  N   UNL     1     -49.346  26.076  26.600  1.00  0.00    -0.313 NA
ATOM     29  H   UNL     1     -47.402  26.682  26.076  1.00  0.00     0.045 H 
ATOM     30  H   UNL     1     -47.842  26.986  27.750  1.00  0.00     0.045 H 
ATOM     31  H   UNL     1     -49.098  25.785  24.529  1.00  0.00     0.045 H 
ATOM     32  H   UNL     1     -50.717  25.457  25.132  1.00  0.00     0.045 H 
ATOM     33  H   UNL     1     -50.086  26.369  27.238  1.00  0.00     0.122 HD
ENDBRANCH   8  17
ENDBRANCH   4   5
ENDBRANCH   1   4
BRANCH   1  34
ATOM     34  C   UNL     1     -46.567  35.948  27.360  1.00  0.00     0.010 A 
ATOM     35  C   UNL     1     -47.042  35.444  28.562  1.00  0.00     0.034 A 
ATOM     36  C   UNL     1     -45.707  37.054  27.415  1.00  0.00    -0.028 A 
ATOM     37  N   UNL     1     -46.730  35.961  29.769  1.00  0.00    -0.262 NA
ATOM     38  H   UNL     1     -47.708  34.585  28.591  1.00  0.00     0.084 H 
ATOM     39  C   UNL     1     -45.373  37.634  28.643  1.00  0.00     0.066 A 
ATOM     40  H   UNL     1     -45.304  37.429  26.480  1.00  0.00     0.065 H 
ATOM     41  C   UNL     1     -45.912  37.042  29.782  1.00  0.00     0.051 A 
ATOM     42  H   UNL     1     -45.737  37.416  30.785  1.00  0.00     0.086 H 
BRANCH  39  43
ATOM     43  N   UNL     1     -44.523  38.780  28.742  1.00  0.00    -0.300 N 
ATOM     44  C   UNL     1     -43.647  39.036  29.790  1.00  0.00     0.012 A 
ATOM     45  C   UNL     1     -44.404  39.842  27.839  1.00  0.00     0.150 A 
ATOM     46  C   UNL     1     -42.982  40.217  29.556  1.00  0.00    -0.031 A 
ATOM     47  H   UNL     1     -43.536  38.356  30.622  1.00  0.00     0.082 H 
ATOM     48  C   UNL     1     -43.452  40.733  28.327  1.00  0.00     0.061 A 
ATOM     49  N   UNL     1     -45.100  40.016  26.696  1.00  0.00    -0.218 NA
ATOM     50  H   UNL     1     -42.241  40.663  30.207  1.00  0.00     0.065 H 
ATOM     51  C   UNL     1     -43.188  41.878  27.560  1.00  0.00     0.136 A 
ATOM     52  C   UNL     1     -44.767  41.145  26.052  1.00  0.00     0.120 A 
ATOM     53  N   UNL     1     -43.856  42.064  26.410  1.00  0.00    -0.219 NA
ATOM     54  H   UNL     1     -45.296  41.339  25.124  1.00  0.00     0.106 H 
BRANCH  51  55
ATOM     55  N   UNL     1     -42.255  42.841  27.915  1.00  0.00    -0.383 N 
ATOM     56  H   UNL     1     -41.987  42.845  28.889  1.00  0.00     0.158 HD
ATOM     57  H   UNL     1     -41.500  42.875  27.239  1.00  0.00     0.158 HD
ENDBRANCH  51  55
ENDBRANCH  39  43
ENDBRANCH   1  34
TORSDOF 7
ENDMDL
MODEL 2
REMARK VINA RESULT:     -10.0      1.949      2.550
REMARK SMILES Nc1cc(OCc2cncc(-n3ccc4c(N)ncnc43)c2)ccc1C(=O)N1CCNCC1
REMARK SMILES IDX 6 1 5 4 4 5 2 6 3 7 25 8 24 10 23 11 1 14 26 17 27 18 28 19
REMARK SMILES IDX 29 20 33 21 30 22 32 25 31 28 7 34 8 35 22 36 9 37 11 39
REMARK SMILES IDX 10 41 12 43 13 44 21 45 14 46 15 48 20 49 16 51 19 52 18 53
REMARK SMILES IDX 17 55
REMARK H PARENT 6 2 6 3 3 9 24 12 23 13 1 15 1 16 29 23 29 24 33 26 33 27
REMARK H PARENT 30 29 30 30 32 31 32 32 31 33 8 38 22 40 10 42 13 47 14 50
REMARK H PARENT 19 54 17 56 17 57
REMARK Flexibility Score: inf
ROOT
ATOM      1  C   UNL     1     -46.759  35.449  26.562  1.00  0.00     0.115 C 
ATOM      2  H   UNL     1     -47.290  36.065  25.826  1.00  0.00     0.076 H 
ATOM      3  H   UNL     1     -45.855  35.095  26.051  1.00  0.00     0.076 H 
ENDROOT
BRANCH   1   4
ATOM      4  O   UNL     1     -47.517  34.286  26.907  1.00  0.00    -0.489 OA
BRANCH   4   5
ATOM      5  C   UNL     1     -47.557  33.242  26.025  1.00  0.00     0.121 A 
ATOM      6  C   UNL     1     -46.701  31.761  24.284  1.00  0.00     0.048 A 
ATOM      7  C   UNL     1     -46.525  32.831  25.176  1.00  0.00     0.004 A 
ATOM      8  C   UNL     1     -47.900  31.030  24.349  1.00  0.00     0.063 A 
ATOM      9  H   UNL     1     -45.567  33.337  25.172  1.00  0.00     0.068 H 
ATOM     10  C   UNL     1     -48.953  31.455  25.169  1.00  0.00    -0.044 A 
ATOM     11  C   UNL     1     -48.777  32.560  26.001  1.00  0.00    -0.019 A 
ATOM     12  H   UNL     1     -49.903  30.930  25.161  1.00  0.00     0.063 H 
ATOM     13  H   UNL     1     -49.592  32.888  26.642  1.00  0.00     0.066 H 
BRANCH   6  14
ATOM     14  N   UNL     1     -45.596  31.326  23.521  1.00  0.00    -0.398 N 
ATOM     15  H   UNL     1     -45.684  30.338  23.268  1.00  0.00     0.156 HD
ATOM     16  H   UNL     1     -45.432  31.894  22.694  1.00  0.00     0.156 HD
ENDBRANCH   6  14
BRANCH   8  17
ATOM     17  C   UNL     1     -48.105  29.848  23.483  1.00  0.00     0.256 C 
ATOM     18  O   UNL     1     -47.549  28.802  23.814  1.00  0.00    -0.269 OA
ATOM     19  N   UNL     1     -48.914  29.966  22.356  1.00  0.00    -0.336 N 
ATOM     20  C   UNL     1     -49.623  31.187  21.951  1.00  0.00     0.033 C 
ATOM     21  C   UNL     1     -48.894  28.882  21.371  1.00  0.00     0.033 C 
ATOM     22  C   UNL     1     -50.962  30.887  21.252  1.00  0.00     0.013 C 
ATOM     23  H   UNL     1     -49.814  31.826  22.817  1.00  0.00     0.051 H 
ATOM     24  H   UNL     1     -48.959  31.729  21.266  1.00  0.00     0.051 H 
ATOM     25  C   UNL     1     -50.262  28.663  20.704  1.00  0.00     0.013 C 
ATOM     26  H   UNL     1     -48.151  29.161  20.613  1.00  0.00     0.051 H 
ATOM     27  H   UNL     1     -48.557  27.947  21.829  1.00  0.00     0.051 H 
ATOM     28  N   UNL     1     -50.845  29.904  20.160  1.00  0.00    -0.313 NA
ATOM     29  H   UNL     1     -51.686  30.515  21.989  1.00  0.00     0.045 H 
ATOM     30  H   UNL     1     -51.376  31.817  20.849  1.00  0.00     0.045 H 
ATOM     31  H   UNL     1     -50.962  28.227  21.428  1.00  0.00     0.045 H 
ATOM     32  H   UNL     1     -50.158  27.937  19.891  1.00  0.00     0.045 H 
ATOM     33  H   UNL     1     -50.206  30.276  19.457  1.00  0.00     0.122 HD
ENDBRANCH   8  17
ENDBRANCH   4   5
ENDBRANCH   1   4
BRANCH   1  34
ATOM     34  C   UNL     1     -46.320  36.229  27.772  1.00  0.00     0.010 A 
ATOM     35  C   UNL     1     -46.677  35.829  29.051  1.00  0.00     0.034 A 
ATOM     36  C   UNL     1     -45.504  37.362  27.649  1.00  0.00    -0.028 A 
ATOM     37  N   UNL     1     -46.290  36.471  30.174  1.00  0.00    -0.262 NA
ATOM     38  H   UNL     1     -47.303  34.956  29.218  1.00  0.00     0.084 H 
ATOM     39  C   UNL     1     -45.096  38.070  28.785  1.00  0.00     0.066 A 
ATOM     40  H   UNL     1     -45.192  37.657  26.653  1.00  0.00     0.065 H 
ATOM     41  C   UNL     1     -45.517  37.575  30.016  1.00  0.00     0.051 A 
ATOM     42  H   UNL     1     -45.277  38.050  30.961  1.00  0.00     0.086 H 
BRANCH  39  43
ATOM     43  N   UNL     1     -44.287  39.247  28.703  1.00  0.00    -0.300 N 
ATOM     44  C   UNL     1     -43.301  39.603  29.615  1.00  0.00     0.012 A 
ATOM     45  C   UNL     1     -44.324  40.248  27.726  1.00  0.00     0.150 A 
ATOM     46  C   UNL     1     -42.718  40.786  29.225  1.00  0.00    -0.031 A 
ATOM     47  H   UNL     1     -43.062  38.985  30.468  1.00  0.00     0.082 H 
ATOM     48  C   UNL     1     -43.356  41.201  28.033  1.00  0.00     0.061 A 
ATOM     49  N   UNL     1     -45.160  40.320  26.669  1.00  0.00    -0.218 NA
ATOM     50  H   UNL     1     -41.922  41.299  29.749  1.00  0.00     0.065 H 
ATOM     51  C   UNL     1     -43.234  42.298  27.167  1.00  0.00     0.136 A 
ATOM     52  C   UNL     1     -44.954  41.412  25.918  1.00  0.00     0.120 A 
ATOM     53  N   UNL     1     -44.045  42.383  26.100  1.00  0.00    -0.219 NA
ATOM     54  H   UNL     1     -45.601  41.525  25.053  1.00  0.00     0.106 H 
BRANCH  51  55
ATOM     55  N   UNL     1     -42.305  43.313  27.340  1.00  0.00    -0.383 N 
ATOM     56  H   UNL     1     -42.271  43.714  28.267  1.00  0.00     0.158 HD
ATOM     57  H   UNL     1     -41.416  43.059  26.926  1.00  0.00     0.158 HD
ENDBRANCH  51  55
ENDBRANCH  39  43
ENDBRANCH   1  34
TORSDOF 7
ENDMDL
MODEL 3
REMARK VINA RESULT:      -9.9      2.514      4.907
REMARK SMILES Nc1cc(OCc2cncc(-n3ccc4c(N)ncnc43)c2)ccc1C(=O)N1CCNCC1
REMARK SMILES IDX 6 1 5 4 4 5 2 6 3 7 25 8 24 10 23 11 1 14 26 17 27 18 28 19
REMARK SMILES IDX 29 20 33 21 30 22 32 25 31 28 7 34 8 35 22 36 9 37 11 39
REMARK SMILES IDX 10 41 12 43 13 44 21 45 14 46 15 48 20 49 16 51 19 52 18 53
REMARK SMILES IDX 17 55
REMARK H PARENT 6 2 6 3 3 9 24 12 23 13 1 15 1 16 29 23 29 24 33 26 33 27
REMARK H PARENT 30 29 30 30 32 31 32 32 31 33 8 38 22 40 10 42 13 47 14 50
REMARK H PARENT 19 54 17 56 17 57
REMARK Flexibility Score: inf
ROOT
ATOM      1  C   UNL     1     -44.669  38.309  29.038  1.00  0.00     0.115 C 
ATOM      2  H   UNL     1     -44.135  37.400  29.342  1.00  0.00     0.076 H 
ATOM      3  H   UNL     1     -45.429  38.476  29.812  1.00  0.00     0.076 H 
ENDROOT
BRANCH   1   4
ATOM      4  O   UNL     1     -45.373  38.109  27.809  1.00  0.00    -0.489 OA
BRANCH   4   5
ATOM      5  C   UNL     1     -45.935  36.887  27.565  1.00  0.00     0.121 A 
ATOM      6  C   UNL     1     -46.187  34.467  27.774  1.00  0.00     0.048 A 
ATOM      7  C   UNL     1     -45.553  35.667  28.135  1.00  0.00     0.004 A 
ATOM      8  C   UNL     1     -47.299  34.533  26.918  1.00  0.00     0.063 A 
ATOM      9  H   UNL     1     -44.747  35.614  28.857  1.00  0.00     0.068 H 
ATOM     10  C   UNL     1     -47.668  35.742  26.315  1.00  0.00    -0.044 A 
ATOM     11  C   UNL     1     -46.982  36.912  26.640  1.00  0.00    -0.019 A 
ATOM     12  H   UNL     1     -48.482  35.774  25.597  1.00  0.00     0.063 H 
ATOM     13  H   UNL     1     -47.269  37.852  26.176  1.00  0.00     0.066 H 
BRANCH   6  14
ATOM     14  N   UNL     1     -45.828  33.282  28.451  1.00  0.00    -0.398 N 
ATOM     15  H   UNL     1     -46.453  33.100  29.241  1.00  0.00     0.156 HD
ATOM     16  H   UNL     1     -45.778  32.471  27.840  1.00  0.00     0.156 HD
ENDBRANCH   6  14
BRANCH   8  17
ATOM     17  C   UNL     1     -48.048  33.306  26.567  1.00  0.00     0.256 C 
ATOM     18  O   UNL     1     -49.187  33.191  27.018  1.00  0.00    -0.269 OA
ATOM     19  N   UNL     1     -47.447  32.356  25.746  1.00  0.00    -0.336 N 
ATOM     20  C   UNL     1     -46.106  32.477  25.159  1.00  0.00     0.033 C 
ATOM     21  C   UNL     1     -48.081  31.041  25.626  1.00  0.00     0.033 C 
ATOM     22  C   UNL     1     -46.003  31.804  23.778  1.00  0.00     0.013 C 
ATOM     23  H   UNL     1     -45.823  33.529  25.059  1.00  0.00     0.051 H 
ATOM     24  H   UNL     1     -45.407  32.001  25.858  1.00  0.00     0.051 H 
ATOM     25  C   UNL     1     -47.913  30.428  24.225  1.00  0.00     0.013 C 
ATOM     26  H   UNL     1     -47.605  30.395  26.375  1.00  0.00     0.051 H 
ATOM     27  H   UNL     1     -49.145  31.098  25.875  1.00  0.00     0.051 H 
ATOM     28  N   UNL     1     -46.512  30.420  23.762  1.00  0.00    -0.313 NA
ATOM     29  H   UNL     1     -46.558  32.395  23.039  1.00  0.00     0.045 H 
ATOM     30  H   UNL     1     -44.957  31.800  23.454  1.00  0.00     0.045 H 
ATOM     31  H   UNL     1     -48.524  30.983  23.502  1.00  0.00     0.045 H 
ATOM     32  H   UNL     1     -48.288  29.400  24.232  1.00  0.00     0.045 H 
ATOM     33  H   UNL     1     -45.962  29.865  24.418  1.00  0.00     0.122 HD
ENDBRANCH   8  17
ENDBRANCH   4   5
ENDBRANCH   1   4
BRANCH   1  34
ATOM     34  C   UNL     1     -43.783  39.525  29.002  1.00  0.00     0.010 A 
ATOM     35  C   UNL     1     -42.901  39.800  30.037  1.00  0.00     0.034 A 
ATOM     36  C   UNL     1     -43.789  40.397  27.904  1.00  0.00    -0.028 A 
ATOM     37  N   UNL     1     -42.062  40.858  30.047  1.00  0.00    -0.262 NA
ATOM     38  H   UNL     1     -42.841  39.162  30.915  1.00  0.00     0.084 H 
ATOM     39  C   UNL     1     -42.952  41.516  27.882  1.00  0.00     0.066 A 
ATOM     40  H   UNL     1     -44.451  40.164  27.076  1.00  0.00     0.065 H 
ATOM     41  C   UNL     1     -42.111  41.691  28.978  1.00  0.00     0.051 A 
ATOM     42  H   UNL     1     -41.432  42.531  29.078  1.00  0.00     0.086 H 
BRANCH  39  43
ATOM     43  N   UNL     1     -42.947  42.446  26.795  1.00  0.00    -0.300 N 
ATOM     44  C   UNL     1     -41.821  42.826  26.074  1.00  0.00     0.012 A 
ATOM     45  C   UNL     1     -44.034  43.143  26.257  1.00  0.00     0.150 A 
ATOM     46  C   UNL     1     -42.181  43.726  25.099  1.00  0.00    -0.031 A 
ATOM     47  H   UNL     1     -40.843  42.419  26.285  1.00  0.00     0.082 H 
ATOM     48  C   UNL     1     -43.576  43.932  25.205  1.00  0.00     0.061 A 
ATOM     49  N   UNL     1     -45.315  43.101  26.680  1.00  0.00    -0.218 NA
ATOM     50  H   UNL     1     -41.508  44.191  24.390  1.00  0.00     0.065 H 
ATOM     51  C   UNL     1     -44.521  44.718  24.529  1.00  0.00     0.136 A 
ATOM     52  C   UNL     1     -46.124  43.895  25.964  1.00  0.00     0.120 A 
ATOM     53  N   UNL     1     -45.805  44.680  24.922  1.00  0.00    -0.219 NA
ATOM     54  H   UNL     1     -47.169  43.903  26.260  1.00  0.00     0.106 H 
BRANCH  51  55
ATOM     55  N   UNL     1     -44.211  45.538  23.455  1.00  0.00    -0.383 N 
ATOM     56  H   UNL     1     -43.506  46.238  23.635  1.00  0.00     0.158 HD
ATOM     57  H   UNL     1     -44.099  44.993  22.608  1.00  0.00     0.158 HD
ENDBRANCH  51  55
ENDBRANCH  39  43
ENDBRANCH   1  34
TORSDOF 7
ENDMDL
MODEL 4
REMARK VINA RESULT:      -9.6      1.613      2.499
REMARK SMILES Nc1cc(OCc2cncc(-n3ccc4c(N)ncnc43)c2)ccc1C(=O)N1CCNCC1
REMARK SMILES IDX 6 1 5 4 4 5 2 6 3 7 25 8 24 10 23 11 1 14 26 17 27 18 28 19
REMARK SMILES IDX 29 20 33 21 30 22 32 25 31 28 7 34 8 35 22 36 9 37 11 39
REMARK SMILES IDX 10 41 12 43 13 44 21 45 14 46 15 48 20 49 16 51 19 52 18 53
REMARK SMILES IDX 17 55
REMARK H PARENT 6 2 6 3 3 9 24 12 23 13 1 15 1 16 29 23 29 24 33 26 33 27
REMARK H PARENT 30 29 30 30 32 31 32 32 31 33 8 38 22 40 10 42 13 47 14 50
REMARK H PARENT 19 54 17 56 17 57
REMARK Flexibility Score: inf
ROOT
ATOM      1  C   UNL     1     -45.963  34.483  27.114  1.00  0.00     0.115 C 
ATOM      2  H   UNL     1     -45.834  34.723  26.052  1.00  0.00     0.076 H 
ATOM      3  H   UNL     1     -45.105  33.855  27.380  1.00  0.00     0.076 H 
ENDROOT
BRANCH   1   4
ATOM      4  O   UNL     1     -47.134  33.689  27.326  1.00  0.00    -0.489 OA
BRANCH   4   5
ATOM      5  C   UNL     1     -47.666  33.007  26.268  1.00  0.00     0.121 A 
ATOM      6  C   UNL     1     -49.450  32.155  24.835  1.00  0.00     0.048 A 
ATOM      7  C   UNL     1     -49.021  32.920  25.932  1.00  0.00     0.004 A 
ATOM      8  C   UNL     1     -48.475  31.576  24.005  1.00  0.00     0.063 A 
ATOM      9  H   UNL     1     -49.778  33.427  26.519  1.00  0.00     0.068 H 
ATOM     10  C   UNL     1     -47.119  31.627  24.351  1.00  0.00    -0.044 A 
ATOM     11  C   UNL     1     -46.722  32.340  25.482  1.00  0.00    -0.019 A 
ATOM     12  H   UNL     1     -46.376  31.116  23.746  1.00  0.00     0.063 H 
ATOM     13  H   UNL     1     -45.669  32.385  25.749  1.00  0.00     0.066 H 
BRANCH   6  14
ATOM     14  N   UNL     1     -50.817  32.180  24.485  1.00  0.00    -0.398 N 
ATOM     15  H   UNL     1     -50.966  31.815  23.540  1.00  0.00     0.156 HD
ATOM     16  H   UNL     1     -51.412  31.697  25.153  1.00  0.00     0.156 HD
ENDBRANCH   6  14
BRANCH   8  17
ATOM     17  C   UNL     1     -48.872  30.823  22.795  1.00  0.00     0.256 C 
ATOM     18  O   UNL     1     -48.733  31.384  21.710  1.00  0.00    -0.269 OA
ATOM     19  N   UNL     1     -49.368  29.529  22.934  1.00  0.00    -0.336 N 
ATOM     20  C   UNL     1     -49.513  28.815  24.208  1.00  0.00     0.033 C 
ATOM     21  C   UNL     1     -50.002  28.901  21.773  1.00  0.00     0.033 C 
ATOM     22  C   UNL     1     -49.296  27.297  24.062  1.00  0.00     0.013 C 
ATOM     23  H   UNL     1     -48.807  29.200  24.949  1.00  0.00     0.051 H 
ATOM     24  H   UNL     1     -50.529  29.012  24.571  1.00  0.00     0.051 H 
ATOM     25  C   UNL     1     -49.757  27.384  21.713  1.00  0.00     0.013 C 
ATOM     26  H   UNL     1     -51.078  29.101  21.857  1.00  0.00     0.051 H 
ATOM     27  H   UNL     1     -49.657  29.364  20.843  1.00  0.00     0.051 H 
ATOM     28  N   UNL     1     -50.089  26.695  22.975  1.00  0.00    -0.313 NA
ATOM     29  H   UNL     1     -48.233  27.093  23.880  1.00  0.00     0.045 H 
ATOM     30  H   UNL     1     -49.553  26.801  25.004  1.00  0.00     0.045 H 
ATOM     31  H   UNL     1     -48.707  27.187  21.464  1.00  0.00     0.045 H 
ATOM     32  H   UNL     1     -50.358  26.951  20.906  1.00  0.00     0.045 H 
ATOM     33  H   UNL     1     -51.078  26.848  23.172  1.00  0.00     0.122 HD
ENDBRANCH   8  17
ENDBRANCH   4   5
ENDBRANCH   1   4
BRANCH   1  34
ATOM     34  C   UNL     1     -45.927  35.700  27.998  1.00  0.00     0.010 A 
ATOM     35  C   UNL     1     -46.394  35.652  29.304  1.00  0.00     0.034 A 
ATOM     36  C   UNL     1     -45.384  36.911  27.547  1.00  0.00    -0.028 A 
ATOM     37  N   UNL     1     -46.360  36.702  30.152  1.00  0.00    -0.262 NA
ATOM     38  H   UNL     1     -46.821  34.743  29.719  1.00  0.00     0.084 H 
ATOM     39  C   UNL     1     -45.348  38.030  28.385  1.00  0.00     0.066 A 
ATOM     40  H   UNL     1     -44.984  36.943  26.538  1.00  0.00     0.065 H 
ATOM     41  C   UNL     1     -45.847  37.863  29.674  1.00  0.00     0.051 A 
ATOM     42  H   UNL     1     -45.885  38.663  30.405  1.00  0.00     0.086 H 
BRANCH  39  43
ATOM     43  N   UNL     1     -44.829  39.291  27.955  1.00  0.00    -0.300 N 
ATOM     44  C   UNL     1     -45.260  39.992  26.835  1.00  0.00     0.012 A 
ATOM     45  C   UNL     1     -43.815  40.050  28.549  1.00  0.00     0.150 A 
ATOM     46  C   UNL     1     -44.552  41.166  26.726  1.00  0.00    -0.031 A 
ATOM     47  H   UNL     1     -46.053  39.624  26.201  1.00  0.00     0.082 H 
ATOM     48  C   UNL     1     -43.638  41.213  27.803  1.00  0.00     0.061 A 
ATOM     49  N   UNL     1     -43.093  39.726  29.642  1.00  0.00    -0.218 NA
ATOM     50  H   UNL     1     -44.677  41.908  25.947  1.00  0.00     0.065 H 
ATOM     51  C   UNL     1     -42.655  42.114  28.237  1.00  0.00     0.136 A 
ATOM     52  C   UNL     1     -42.182  40.658  29.958  1.00  0.00     0.120 A 
ATOM     53  N   UNL     1     -41.935  41.820  29.332  1.00  0.00    -0.219 NA
ATOM     54  H   UNL     1     -41.569  40.450  30.830  1.00  0.00     0.106 H 
BRANCH  51  55
ATOM     55  N   UNL     1     -42.382  43.317  27.603  1.00  0.00    -0.383 N 
ATOM     56  H   UNL     1     -41.475  43.377  27.162  1.00  0.00     0.158 HD
ATOM     57  H   UNL     1     -43.174  43.617  27.047  1.00  0.00     0.158 HD
ENDBRANCH  51  55
ENDBRANCH  39  43
ENDBRANCH   1  34
TORSDOF 7
ENDMDL
MODEL 5
REMARK VINA RESULT:      -9.6      1.708      2.248
REMARK SMILES Nc1cc(OCc2cncc(-n3ccc4c(N)ncnc43)c2)ccc1C(=O)N1CCNCC1
REMARK SMILES IDX 6 1 5 4 4 5 2 6 3 7 25 8 24 10 23 11 1 14 26 17 27 18 28 19
REMARK SMILES IDX 29 20 33 21 30 22 32 25 31 28 7 34 8 35 22 36 9 37 11 39
REMARK SMILES IDX 10 41 12 43 13 44 21 45 14 46 15 48 20 49 16 51 19 52 18 53
REMARK SMILES IDX 17 55
REMARK H PARENT 6 2 6 3 3 9 24 12 23 13 1 15 1 16 29 23 29 24 33 26 33 27
REMARK H PARENT 30 29 30 30 32 31 32 32 31 33 8 38 22 40 10 42 13 47 14 50
REMARK H PARENT 19 54 17 56 17 57
REMARK Flexibility Score: inf
ROOT
ATOM      1  C   UNL     1     -47.141  35.081  27.931  1.00  0.00     0.115 C 
ATOM      2  H   UNL     1     -47.686  34.525  28.703  1.00  0.00     0.076 H 
ATOM      3  H   UNL     1     -47.904  35.421  27.220  1.00  0.00     0.076 H 
ENDROOT
BRANCH   1   4
ATOM      4  O   UNL     1     -46.256  34.225  27.204  1.00  0.00    -0.489 OA
BRANCH   4   5
ATOM      5  C   UNL     1     -46.776  33.412  26.235  1.00  0.00     0.121 A 
ATOM      6  C   UNL     1     -46.705  31.906  24.315  1.00  0.00     0.048 A 
ATOM      7  C   UNL     1     -46.052  32.681  25.287  1.00  0.00     0.004 A 
ATOM      8  C   UNL     1     -48.103  31.783  24.390  1.00  0.00     0.063 A 
ATOM      9  H   UNL     1     -44.969  32.705  25.268  1.00  0.00     0.068 H 
ATOM     10  C   UNL     1     -48.839  32.538  25.312  1.00  0.00    -0.044 A 
ATOM     11  C   UNL     1     -48.172  33.350  26.227  1.00  0.00    -0.019 A 
ATOM     12  H   UNL     1     -49.924  32.494  25.317  1.00  0.00     0.063 H 
ATOM     13  H   UNL     1     -48.742  33.933  26.947  1.00  0.00     0.066 H 
BRANCH   6  14
ATOM     14  N   UNL     1     -45.926  31.113  23.446  1.00  0.00    -0.398 N 
ATOM     15  H   UNL     1     -46.410  30.245  23.198  1.00  0.00     0.156 HD
ATOM     16  H   UNL     1     -45.629  31.607  22.608  1.00  0.00     0.156 HD
ENDBRANCH   6  14
BRANCH   8  17
ATOM     17  C   UNL     1     -48.831  30.919  23.435  1.00  0.00     0.256 C 
ATOM     18  O   UNL     1     -49.136  31.409  22.349  1.00  0.00    -0.269 OA
ATOM     19  N   UNL     1     -49.126  29.606  23.796  1.00  0.00    -0.336 N 
ATOM     20  C   UNL     1     -48.745  28.977  25.067  1.00  0.00     0.033 C 
ATOM     21  C   UNL     1     -50.069  28.853  22.967  1.00  0.00     0.033 C 
ATOM     22  C   UNL     1     -48.455  27.472  24.917  1.00  0.00     0.013 C 
ATOM     23  H   UNL     1     -47.861  29.464  25.489  1.00  0.00     0.051 H 
ATOM     24  H   UNL     1     -49.581  29.127  25.761  1.00  0.00     0.051 H 
ATOM     25  C   UNL     1     -49.723  27.356  22.887  1.00  0.00     0.013 C 
ATOM     26  H   UNL     1     -51.059  28.983  23.423  1.00  0.00     0.051 H 
ATOM     27  H   UNL     1     -50.118  29.271  21.957  1.00  0.00     0.051 H 
ATOM     28  N   UNL     1     -49.522  26.739  24.212  1.00  0.00    -0.313 NA
ATOM     29  H   UNL     1     -47.511  27.331  24.376  1.00  0.00     0.045 H 
ATOM     30  H   UNL     1     -48.317  27.028  25.908  1.00  0.00     0.045 H 
ATOM     31  H   UNL     1     -48.814  27.217  22.287  1.00  0.00     0.045 H 
ATOM     32  H   UNL     1     -50.527  26.825  22.368  1.00  0.00     0.045 H 
ATOM     33  H   UNL     1     -50.387  26.835  24.744  1.00  0.00     0.122 HD
ENDBRANCH   8  17
ENDBRANCH   4   5
ENDBRANCH   1   4
BRANCH   1  34
ATOM     34  C   UNL     1     -46.446  36.302  28.470  1.00  0.00     0.010 A 
ATOM     35  C   UNL     1     -46.007  36.356  29.785  1.00  0.00     0.034 A 
ATOM     36  C   UNL     1     -46.182  37.410  27.652  1.00  0.00    -0.028 A 
ATOM     37  N   UNL     1     -45.353  37.410  30.316  1.00  0.00    -0.262 NA
ATOM     38  H   UNL     1     -46.174  35.529  30.472  1.00  0.00     0.084 H 
ATOM     39  C   UNL     1     -45.525  38.532  28.166  1.00  0.00     0.066 A 
ATOM     40  H   UNL     1     -46.490  37.357  26.613  1.00  0.00     0.065 H 
ATOM     41  C   UNL     1     -45.134  38.472  29.501  1.00  0.00     0.051 A 
ATOM     42  H   UNL     1     -44.634  39.288  30.011  1.00  0.00     0.086 H 
BRANCH  39  43
ATOM     43  N   UNL     1     -45.262  39.693  27.374  1.00  0.00    -0.300 N 
ATOM     44  C   UNL     1     -44.024  40.031  26.839  1.00  0.00     0.012 A 
ATOM     45  C   UNL     1     -46.161  40.695  26.992  1.00  0.00     0.150 A 
ATOM     46  C   UNL     1     -44.135  41.203  26.127  1.00  0.00    -0.031 A 
ATOM     47  H   UNL     1     -43.152  39.409  26.978  1.00  0.00     0.082 H 
ATOM     48  C   UNL     1     -45.479  41.630  26.217  1.00  0.00     0.061 A 
ATOM     49  N   UNL     1     -47.466  40.783  27.325  1.00  0.00    -0.218 NA
ATOM     50  H   UNL     1     -43.328  41.701  25.605  1.00  0.00     0.065 H 
ATOM     51  C   UNL     1     -46.212  42.725  25.735  1.00  0.00     0.136 A 
ATOM     52  C   UNL     1     -48.060  41.871  26.813  1.00  0.00     0.120 A 
ATOM     53  N   UNL     1     -47.516  42.825  26.040  1.00  0.00    -0.219 NA
ATOM     54  H   UNL     1     -49.113  41.996  27.048  1.00  0.00     0.106 H 
BRANCH  51  55
ATOM     55  N   UNL     1     -45.668  43.721  24.940  1.00  0.00    -0.383 N 
ATOM     56  H   UNL     1     -44.831  44.155  25.302  1.00  0.00     0.158 HD
ATOM     57  H   UNL     1     -45.642  43.432  23.969  1.00  0.00     0.158 HD
ENDBRANCH  51  55
ENDBRANCH  39  43
ENDBRANCH   1  34
TORSDOF 7
ENDMDL
MODEL 6
REMARK VINA RESULT:      -9.4      2.018      2.840
REMARK SMILES Nc1cc(OCc2cncc(-n3ccc4c(N)ncnc43)c2)ccc1C(=O)N1CCNCC1
REMARK SMILES IDX 6 1 5 4 4 5 2 6 3 7 25 8 24 10 23 11 1 14 26 17 27 18 28 19
REMARK SMILES IDX 29 20 33 21 30 22 32 25 31 28 7 34 8 35 22 36 9 37 11 39
REMARK SMILES IDX 10 41 12 43 13 44 21 45 14 46 15 48 20 49 16 51 19 52 18 53
REMARK SMILES IDX 17 55
REMARK H PARENT 6 2 6 3 3 9 24 12 23 13 1 15 1 16 29 23 29 24 33 26 33 27
REMARK H PARENT 30 29 30 30 32 31 32 32 31 33 8 38 22 40 10 42 13 47 14 50
REMARK H PARENT 19 54 17 56 17 57
REMARK Flexibility Score: inf
ROOT
ATOM      1  C   UNL     1     -46.596  34.840  26.595  1.00  0.00     0.115 C 
ATOM      2  H   UNL     1     -46.077  34.806  25.630  1.00  0.00     0.076 H 
ATOM      3  H   UNL     1     -45.886  34.432  27.325  1.00  0.00     0.076 H 
ENDROOT
BRANCH   1   4
ATOM      4  O   UNL     1     -47.734  33.974  26.603  1.00  0.00    -0.489 OA
BRANCH   4   5
ATOM      5  C   UNL     1     -47.717  32.859  25.811  1.00  0.00     0.121 A 
ATOM      6  C   UNL     1     -46.825  31.338  24.122  1.00  0.00     0.048 A 
ATOM      7  C   UNL     1     -46.711  32.495  24.910  1.00  0.00     0.004 A 
ATOM      8  C   UNL     1     -47.918  30.484  24.349  1.00  0.00     0.063 A 
ATOM      9  H   UNL     1     -45.824  33.106  24.783  1.00  0.00     0.068 H 
ATOM     10  C   UNL     1     -48.948  30.856  25.223  1.00  0.00    -0.044 A 
ATOM     11  C   UNL     1     -48.842  32.042  25.947  1.00  0.00    -0.019 A 
ATOM     12  H   UNL     1     -49.825  30.227  25.338  1.00  0.00     0.063 H 
ATOM     13  H   UNL     1     -49.639  32.330  26.629  1.00  0.00     0.066 H 
BRANCH   6  14
ATOM     14  N   UNL     1     -45.739  30.968  23.302  1.00  0.00    -0.398 N 
ATOM     15  H   UNL     1     -46.054  30.697  22.366  1.00  0.00     0.156 HD
ATOM     16  H   UNL     1     -45.018  31.682  23.243  1.00  0.00     0.156 HD
ENDBRANCH   6  14
BRANCH   8  17
ATOM     17  C   UNL     1     -48.045  29.215  23.598  1.00  0.00     0.256 C 
ATOM     18  O   UNL     1     -47.252  28.316  23.871  1.00  0.00    -0.269 OA
ATOM     19  N   UNL     1     -49.047  29.092  22.639  1.00  0.00    -0.336 N 
ATOM     20  C   UNL     1     -50.034  30.130  22.314  1.00  0.00     0.033 C 
ATOM     21  C   UNL     1     -48.996  27.949  21.725  1.00  0.00     0.033 C 
ATOM     22  C   UNL     1     -51.394  29.540  21.897  1.00  0.00     0.013 C 
ATOM     23  H   UNL     1     -50.187  30.797  23.166  1.00  0.00     0.051 H 
ATOM     24  H   UNL     1     -49.616  30.720  21.489  1.00  0.00     0.051 H 
ATOM     25  C   UNL     1     -50.394  27.436  21.340  1.00  0.00     0.013 C 
ATOM     26  H   UNL     1     -48.464  28.289  20.828  1.00  0.00     0.051 H 
ATOM     27  H   UNL     1     -48.413  27.130  22.158  1.00  0.00     0.051 H 
ATOM     28  N   UNL     1     -51.288  28.504  20.854  1.00  0.00    -0.313 NA
ATOM     29  H   UNL     1     -51.893  29.110  22.775  1.00  0.00     0.045 H 
ATOM     30  H   UNL     1     -52.041  30.344  21.532  1.00  0.00     0.045 H 
ATOM     31  H   UNL     1     -50.861  26.946  22.205  1.00  0.00     0.045 H 
ATOM     32  H   UNL     1     -50.299  26.673  20.561  1.00  0.00     0.045 H 
ATOM     33  H   UNL     1     -50.865  28.921  20.024  1.00  0.00     0.122 HD
ENDBRANCH   8  17
ENDBRANCH   4   5
ENDBRANCH   1   4
BRANCH   1  34
ATOM     34  C   UNL     1     -46.937  36.241  27.028  1.00  0.00     0.010 A 
ATOM     35  C   UNL     1     -48.203  36.558  27.500  1.00  0.00     0.034 A 
ATOM     36  C   UNL     1     -45.978  37.263  27.006  1.00  0.00    -0.028 A 
ATOM     37  N   UNL     1     -48.558  37.787  27.928  1.00  0.00    -0.262 NA
ATOM     38  H   UNL     1     -48.992  35.811  27.549  1.00  0.00     0.084 H 
ATOM     39  C   UNL     1     -46.308  38.556  27.421  1.00  0.00     0.066 A 
ATOM     40  H   UNL     1     -44.976  37.011  26.672  1.00  0.00     0.065 H 
ATOM     41  C   UNL     1     -47.610  38.755  27.873  1.00  0.00     0.051 A 
ATOM     42  H   UNL     1     -47.983  39.719  28.203  1.00  0.00     0.086 H 
BRANCH  39  43
ATOM     43  N   UNL     1     -45.368  39.634  27.388  1.00  0.00    -0.300 N 
ATOM     44  C   UNL     1     -45.320  40.621  26.411  1.00  0.00     0.012 A 
ATOM     45  C   UNL     1     -44.339  39.904  28.296  1.00  0.00     0.150 A 
ATOM     46  C   UNL     1     -44.300  41.500  26.695  1.00  0.00    -0.031 A 
ATOM     47  H   UNL     1     -46.023  40.650  25.592  1.00  0.00     0.082 H 
ATOM     48  C   UNL     1     -43.676  41.056  27.883  1.00  0.00     0.061 A 
ATOM     49  N   UNL     1     -44.002  39.175  29.381  1.00  0.00    -0.218 NA
ATOM     50  H   UNL     1     -44.031  42.366  26.103  1.00  0.00     0.065 H 
ATOM     51  C   UNL     1     -42.598  41.496  28.666  1.00  0.00     0.136 A 
ATOM     52  C   UNL     1     -42.957  39.688  30.047  1.00  0.00     0.120 A 
ATOM     53  N   UNL     1     -42.256  40.796  29.760  1.00  0.00    -0.219 NA
ATOM     54  H   UNL     1     -42.640  39.142  30.930  1.00  0.00     0.106 H 
BRANCH  51  55
ATOM     55  N   UNL     1     -41.859  42.635  28.385  1.00  0.00    -0.383 N 
ATOM     56  H   UNL     1     -41.307  42.594  27.540  1.00  0.00     0.158 HD
ATOM     57  H   UNL     1     -42.420  43.469  28.517  1.00  0.00     0.158 HD
ENDBRANCH  51  55
ENDBRANCH  39  43
ENDBRANCH   1  34
TORSDOF 7
ENDMDL
MODEL 7
REMARK VINA RESULT:      -9.4      3.036     11.595
REMARK SMILES Nc1cc(OCc2cncc(-n3ccc4c(N)ncnc43)c2)ccc1C(=O)N1CCNCC1
REMARK SMILES IDX 6 1 5 4 4 5 2 6 3 7 25 8 24 10 23 11 1 14 26 17 27 18 28 19
REMARK SMILES IDX 29 20 33 21 30 22 32 25 31 28 7 34 8 35 22 36 9 37 11 39
REMARK SMILES IDX 10 41 12 43 13 44 21 45 14 46 15 48 20 49 16 51 19 52 18 53
REMARK SMILES IDX 17 55
REMARK H PARENT 6 2 6 3 3 9 24 12 23 13 1 15 1 16 29 23 29 24 33 26 33 27
REMARK H PARENT 30 29 30 30 32 31 32 32 31 33 8 38 22 40 10 42 13 47 14 50
REMARK H PARENT 19 54 17 56 17 57
REMARK Flexibility Score: inf
ROOT
ATOM      1  C   UNL     1     -47.093  36.588  26.808  1.00  0.00     0.115 C 
ATOM      2  H   UNL     1     -46.704  37.037  25.886  1.00  0.00     0.076 H 
ATOM      3  H   UNL     1     -48.162  36.836  26.827  1.00  0.00     0.076 H 
ENDROOT
BRANCH   1   4
ATOM      4  O   UNL     1     -46.511  37.196  27.964  1.00  0.00    -0.489 OA
BRANCH   4   5
ATOM      5  C   UNL     1     -45.737  38.311  27.802  1.00  0.00     0.121 A 
ATOM      6  C   UNL     1     -44.100  40.002  28.451  1.00  0.00     0.048 A 
ATOM      7  C   UNL     1     -44.812  38.822  28.719  1.00  0.00     0.004 A 
ATOM      8  C   UNL     1     -44.245  40.594  27.184  1.00  0.00     0.063 A 
ATOM      9  H   UNL     1     -44.634  38.330  29.668  1.00  0.00     0.068 H 
ATOM     10  C   UNL     1     -45.193  40.112  26.273  1.00  0.00    -0.044 A 
ATOM     11  C   UNL     1     -45.935  38.974  26.588  1.00  0.00    -0.019 A 
ATOM     12  H   UNL     1     -45.352  40.618  25.326  1.00  0.00     0.063 H 
ATOM     13  H   UNL     1     -46.668  38.596  25.879  1.00  0.00     0.066 H 
BRANCH   6  14
ATOM     14  N   UNL     1     -43.111  40.419  29.367  1.00  0.00    -0.398 N 
ATOM     15  H   UNL     1     -43.488  40.487  30.317  1.00  0.00     0.156 HD
ATOM     16  H   UNL     1     -42.279  39.834  29.354  1.00  0.00     0.156 HD
ENDBRANCH   6  14
BRANCH   8  17
ATOM     17  C   UNL     1     -43.460  41.796  26.825  1.00  0.00     0.256 C 
ATOM     18  O   UNL     1     -42.236  41.720  26.920  1.00  0.00    -0.269 OA
ATOM     19  N   UNL     1     -44.128  42.938  26.392  1.00  0.00    -0.336 N 
ATOM     20  C   UNL     1     -45.584  43.052  26.230  1.00  0.00     0.033 C 
ATOM     21  C   UNL     1     -43.375  44.190  26.298  1.00  0.00     0.033 C 
ATOM     22  C   UNL     1     -45.977  43.990  25.074  1.00  0.00     0.013 C 
ATOM     23  H   UNL     1     -46.030  42.070  26.053  1.00  0.00     0.051 H 
ATOM     24  H   UNL     1     -45.980  43.441  27.176  1.00  0.00     0.051 H 
ATOM     25  C   UNL     1     -43.844  45.079  25.134  1.00  0.00     0.013 C 
ATOM     26  H   UNL     1     -43.522  44.715  27.250  1.00  0.00     0.051 H 
ATOM     27  H   UNL     1     -42.303  43.992  26.198  1.00  0.00     0.051 H 
ATOM     28  N   UNL     1     -45.302  45.300  25.128  1.00  0.00    -0.313 NA
ATOM     29  H   UNL     1     -45.744  43.510  24.115  1.00  0.00     0.045 H 
ATOM     30  H   UNL     1     -47.060  44.149  25.089  1.00  0.00     0.045 H 
ATOM     31  H   UNL     1     -43.547  44.626  24.179  1.00  0.00     0.045 H 
ATOM     32  H   UNL     1     -43.340  46.049  25.192  1.00  0.00     0.045 H 
ATOM     33  H   UNL     1     -45.559  45.761  26.001  1.00  0.00     0.122 HD
ENDBRANCH   8  17
ENDBRANCH   4   5
ENDBRANCH   1   4
BRANCH   1  34
ATOM     34  C   UNL     1     -46.974  35.088  26.825  1.00  0.00     0.010 A 
ATOM     35  C   UNL     1     -46.313  34.433  27.854  1.00  0.00     0.034 A 
ATOM     36  C   UNL     1     -47.562  34.300  25.825  1.00  0.00    -0.028 A 
ATOM     37  N   UNL     1     -46.199  33.091  27.939  1.00  0.00    -0.262 NA
ATOM     38  H   UNL     1     -45.840  34.983  28.664  1.00  0.00     0.084 H 
ATOM     39  C   UNL     1     -47.450  32.907  25.862  1.00  0.00     0.066 A 
ATOM     40  H   UNL     1     -48.111  34.807  25.039  1.00  0.00     0.065 H 
ATOM     41  C   UNL     1     -46.762  32.362  26.943  1.00  0.00     0.051 A 
ATOM     42  H   UNL     1     -46.598  31.297  27.067  1.00  0.00     0.086 H 
BRANCH  39  43
ATOM     43  N   UNL     1     -48.010  32.068  24.848  1.00  0.00    -0.300 N 
ATOM     44  C   UNL     1     -49.361  31.773  24.711  1.00  0.00     0.012 A 
ATOM     45  C   UNL     1     -47.336  31.392  23.824  1.00  0.00     0.150 A 
ATOM     46  C   UNL     1     -49.545  30.947  23.627  1.00  0.00    -0.031 A 
ATOM     47  H   UNL     1     -50.106  32.185  25.376  1.00  0.00     0.082 H 
ATOM     48  C   UNL     1     -48.273  30.701  23.060  1.00  0.00     0.061 A 
ATOM     49  N   UNL     1     -46.005  31.371  23.606  1.00  0.00    -0.218 NA
ATOM     50  H   UNL     1     -50.495  30.557  23.285  1.00  0.00     0.065 H 
ATOM     51  C   UNL     1     -47.793  29.951  21.976  1.00  0.00     0.136 A 
ATOM     52  C   UNL     1     -45.665  30.620  22.548  1.00  0.00     0.120 A 
ATOM     53  N   UNL     1     -46.473  29.929  21.729  1.00  0.00    -0.219 NA
ATOM     54  H   UNL     1     -44.603  30.564  22.324  1.00  0.00     0.106 H 
BRANCH  51  55
ATOM     55  N   UNL     1     -48.611  29.229  21.121  1.00  0.00    -0.383 N 
ATOM     56  H   UNL     1     -49.298  28.642  21.573  1.00  0.00     0.158 HD
ATOM     57  H   UNL     1     -48.946  29.814  20.364  1.00  0.00     0.158 HD
ENDBRANCH  51  55
ENDBRANCH  39  43
ENDBRANCH   1  34
TORSDOF 7
ENDMDL
