MODEL 1
REMARK VINA RESULT:      -9.5      0.000      0.000
REMARK SMILES C#CCNCc1cc2ccc(CNC(=O)c3cc(=O)n4ccccc4n3)cc2[nH]1
REMARK SMILES IDX 6 1 7 2 8 3 9 4 10 5 11 6 27 7 28 8 29 9 5 15 4 18 3 20 2 23
REMARK SMILES IDX 1 24 12 26 13 29 14 30 15 32 16 33 17 34 26 35 18 36 25 38
REMARK SMILES IDX 19 39 20 40 24 41 21 42 23 43 22 45
REMARK H PARENT 7 10 9 11 10 12 27 13 29 14 5 16 5 17 4 19 3 21 3 22 1 25
REMARK H PARENT 12 27 12 28 13 31 17 37 24 44 21 46 23 47 22 48
REMARK Flexibility Score: inf
ROOT
ATOM      1  C   UNL     1     -47.697  30.005  23.802  1.00  0.00     0.030 A 
ATOM      2  C   UNL     1     -46.577  30.814  23.751  1.00  0.00    -0.032 A 
ATOM      3  C   UNL     1     -46.840  31.981  24.519  1.00  0.00    -0.000 A 
ATOM      4  C   UNL     1     -46.104  33.141  24.823  1.00  0.00    -0.052 A 
ATOM      5  C   UNL     1     -46.680  34.129  25.632  1.00  0.00    -0.057 A 
ATOM      6  C   UNL     1     -47.974  33.977  26.150  1.00  0.00    -0.027 A 
ATOM      7  C   UNL     1     -48.720  32.826  25.846  1.00  0.00    -0.033 A 
ATOM      8  C   UNL     1     -48.126  31.850  25.035  1.00  0.00     0.046 A 
ATOM      9  N   UNL     1     -48.622  30.645  24.594  1.00  0.00    -0.357 N 
ATOM     10  H   UNL     1     -45.665  30.592  23.213  1.00  0.00     0.065 H 
ATOM     11  H   UNL     1     -45.099  33.272  24.433  1.00  0.00     0.063 H 
ATOM     12  H   UNL     1     -46.104  35.025  25.854  1.00  0.00     0.063 H 
ATOM     13  H   UNL     1     -49.730  32.701  26.228  1.00  0.00     0.065 H 
ATOM     14  H   UNL     1     -49.544  30.291  24.812  1.00  0.00     0.166 HD
ENDROOT
BRANCH   1  15
ATOM     15  C   UNL     1     -47.977  28.679  23.187  1.00  0.00     0.037 C 
ATOM     16  H   UNL     1     -49.065  28.542  23.145  1.00  0.00     0.049 H 
ATOM     17  H   UNL     1     -47.639  28.643  22.144  1.00  0.00     0.049 H 
BRANCH  15  18
ATOM     18  N   UNL     1     -47.420  27.584  23.975  1.00  0.00    -0.301 NA
ATOM     19  H   UNL     1     -47.320  26.776  23.364  1.00  0.00     0.124 HD
BRANCH  18  20
ATOM     20  C   UNL     1     -48.233  27.194  25.126  1.00  0.00     0.058 C 
ATOM     21  H   UNL     1     -48.343  28.016  25.841  1.00  0.00     0.057 H 
ATOM     22  H   UNL     1     -49.243  26.977  24.760  1.00  0.00     0.057 H 
BRANCH  20  23
ATOM     23  C   UNL     1     -47.717  25.990  25.791  1.00  0.00    -0.091 C 
ATOM     24  C   UNL     1     -47.290  25.007  26.333  1.00  0.00    -0.119 C 
ATOM     25  H   UNL     1     -46.914  24.138  26.823  1.00  0.00     0.124 H 
ENDBRANCH  20  23
ENDBRANCH  18  20
ENDBRANCH  15  18
ENDBRANCH   1  15
BRANCH   6  26
ATOM     26  C   UNL     1     -48.589  35.061  27.000  1.00  0.00     0.043 C 
ATOM     27  H   UNL     1     -48.939  34.648  27.953  1.00  0.00     0.054 H 
ATOM     28  H   UNL     1     -49.461  35.492  26.492  1.00  0.00     0.054 H 
BRANCH  26  29
ATOM     29  N   UNL     1     -47.623  36.086  27.304  1.00  0.00    -0.347 N 
ATOM     30  C   UNL     1     -47.981  37.342  27.724  1.00  0.00     0.270 C 
ATOM     31  H   UNL     1     -46.667  35.980  26.980  1.00  0.00     0.164 HD
ATOM     32  O   UNL     1     -49.123  37.679  28.018  1.00  0.00    -0.268 OA
BRANCH  30  33
ATOM     33  C   UNL     1     -46.805  38.288  27.769  1.00  0.00     0.136 A 
ATOM     34  C   UNL     1     -46.717  39.174  26.775  1.00  0.00     0.035 A 
ATOM     35  N   UNL     1     -45.908  38.181  28.809  1.00  0.00    -0.225 NA
ATOM     36  C   UNL     1     -45.586  40.109  26.775  1.00  0.00     0.258 A 
ATOM     37  H   UNL     1     -47.428  39.248  25.963  1.00  0.00     0.071 H 
ATOM     38  C   UNL     1     -44.908  39.009  28.804  1.00  0.00     0.140 A 
ATOM     39  O   UNL     1     -45.496  40.930  25.863  1.00  0.00    -0.269 OA
ATOM     40  N   UNL     1     -44.695  39.980  27.831  1.00  0.00    -0.268 N 
ATOM     41  C   UNL     1     -43.910  38.928  29.908  1.00  0.00    -0.019 A 
ATOM     42  C   UNL     1     -43.597  40.831  27.899  1.00  0.00     0.014 A 
ATOM     43  C   UNL     1     -42.869  39.769  29.930  1.00  0.00    -0.057 A 
ATOM     44  H   UNL     1     -44.066  38.175  30.669  1.00  0.00     0.066 H 
ATOM     45  C   UNL     1     -42.704  40.753  28.893  1.00  0.00    -0.045 A 
ATOM     46  H   UNL     1     -43.493  41.567  27.106  1.00  0.00     0.082 H 
ATOM     47  H   UNL     1     -42.131  39.726  30.724  1.00  0.00     0.062 H 
ATOM     48  H   UNL     1     -41.851  41.423  28.937  1.00  0.00     0.064 H 
ENDBRANCH  30  33
ENDBRANCH  26  29
ENDBRANCH   6  26
TORSDOF 7
ENDMDL
MODEL 2
REMARK VINA RESULT:      -9.4      2.333      3.853
REMARK SMILES C#CCNCc1cc2ccc(CNC(=O)c3cc(=O)n4ccccc4n3)cc2[nH]1
REMARK SMILES IDX 6 1 7 2 8 3 9 4 10 5 11 6 27 7 28 8 29 9 5 15 4 18 3 20 2 23
REMARK SMILES IDX 1 24 12 26 13 29 14 30 15 32 16 33 17 34 26 35 18 36 25 38
REMARK SMILES IDX 19 39 20 40 24 41 21 42 23 43 22 45
REMARK H PARENT 7 10 9 11 10 12 27 13 29 14 5 16 5 17 4 19 3 21 3 22 1 25
REMARK H PARENT 12 27 12 28 13 31 17 37 24 44 21 46 23 47 22 48
REMARK Flexibility Score: inf
ROOT
ATOM      1  C   UNL     1     -46.668  32.497  24.936  1.00  0.00     0.030 A 
ATOM      2  C   UNL     1     -47.869  33.126  25.206  1.00  0.00    -0.032 A 
ATOM      3  C   UNL     1     -47.651  34.062  26.253  1.00  0.00    -0.000 A 
ATOM      4  C   UNL     1     -48.477  34.967  26.945  1.00  0.00    -0.052 A 
ATOM      5  C   UNL     1     -47.926  35.766  27.956  1.00  0.00    -0.057 A 
ATOM      6  C   UNL     1     -46.566  35.685  28.282  1.00  0.00    -0.027 A 
ATOM      7  C   UNL     1     -45.734  34.780  27.600  1.00  0.00    -0.033 A 
ATOM      8  C   UNL     1     -46.304  33.990  26.594  1.00  0.00     0.046 A 
ATOM      9  N   UNL     1     -45.728  33.042  25.780  1.00  0.00    -0.357 N 
ATOM     10  H   UNL     1     -48.808  32.929  24.705  1.00  0.00     0.065 H 
ATOM     11  H   UNL     1     -49.533  35.044  26.702  1.00  0.00     0.063 H 
ATOM     12  H   UNL     1     -48.576  36.456  28.489  1.00  0.00     0.063 H 
ATOM     13  H   UNL     1     -44.680  34.695  27.852  1.00  0.00     0.065 H 
ATOM     14  H   UNL     1     -44.753  32.775  25.814  1.00  0.00     0.166 HD
ENDROOT
BRANCH   1  15
ATOM     15  C   UNL     1     -46.314  31.440  23.950  1.00  0.00     0.037 C 
ATOM     16  H   UNL     1     -45.284  31.613  23.614  1.00  0.00     0.049 H 
ATOM     17  H   UNL     1     -46.305  30.447  24.415  1.00  0.00     0.049 H 
BRANCH  15  18
ATOM     18  N   UNL     1     -47.179  31.480  22.775  1.00  0.00    -0.301 NA
ATOM     19  H   UNL     1     -47.641  32.387  22.756  1.00  0.00     0.124 HD
BRANCH  18  20
ATOM     20  C   UNL     1     -48.206  30.440  22.747  1.00  0.00     0.058 C 
ATOM     21  H   UNL     1     -49.111  30.750  23.279  1.00  0.00     0.057 H 
ATOM     22  H   UNL     1     -48.506  30.299  21.701  1.00  0.00     0.057 H 
BRANCH  20  23
ATOM     23  C   UNL     1     -47.714  29.155  23.260  1.00  0.00    -0.091 C 
ATOM     24  C   UNL     1     -47.314  28.105  23.685  1.00  0.00    -0.119 C 
ATOM     25  H   UNL     1     -46.964  27.169  24.056  1.00  0.00     0.124 H 
ENDBRANCH  20  23
ENDBRANCH  18  20
ENDBRANCH  15  18
ENDBRANCH   1  15
BRANCH   6  26
ATOM     26  C   UNL     1     -45.993  36.535  29.388  1.00  0.00     0.043 C 
ATOM     27  H   UNL     1     -45.339  35.937  30.032  1.00  0.00     0.054 H 
ATOM     28  H   UNL     1     -46.799  36.929  30.019  1.00  0.00     0.054 H 
BRANCH  26  29
ATOM     29  N   UNL     1     -45.200  37.612  28.850  1.00  0.00    -0.347 N 
ATOM     30  C   UNL     1     -44.505  38.490  29.644  1.00  0.00     0.270 C 
ATOM     31  H   UNL     1     -45.334  37.894  27.885  1.00  0.00     0.164 HD
ATOM     32  O   UNL     1     -44.367  38.373  30.856  1.00  0.00    -0.268 OA
BRANCH  30  33
ATOM     33  C   UNL     1     -43.933  39.644  28.856  1.00  0.00     0.136 A 
ATOM     34  C   UNL     1     -42.886  40.272  29.398  1.00  0.00     0.035 A 
ATOM     35  N   UNL     1     -44.513  39.978  27.653  1.00  0.00    -0.225 NA
ATOM     36  C   UNL     1     -42.301  41.404  28.669  1.00  0.00     0.258 A 
ATOM     37  H   UNL     1     -42.440  40.000  30.345  1.00  0.00     0.071 H 
ATOM     38  C   UNL     1     -43.993  40.981  27.013  1.00  0.00     0.140 A 
ATOM     39  O   UNL     1     -41.337  41.988  29.160  1.00  0.00    -0.269 OA
ATOM     40  N   UNL     1     -42.905  41.721  27.461  1.00  0.00    -0.268 N 
ATOM     41  C   UNL     1     -44.591  41.380  25.707  1.00  0.00    -0.019 A 
ATOM     42  C   UNL     1     -42.407  42.783  26.714  1.00  0.00     0.014 A 
ATOM     43  C   UNL     1     -44.076  42.410  25.024  1.00  0.00    -0.057 A 
ATOM     44  H   UNL     1     -45.439  40.811  25.350  1.00  0.00     0.066 H 
ATOM     45  C   UNL     1     -42.948  43.137  25.542  1.00  0.00    -0.045 A 
ATOM     46  H   UNL     1     -41.554  43.319  27.124  1.00  0.00     0.082 H 
ATOM     47  H   UNL     1     -44.497  42.717  24.072  1.00  0.00     0.062 H 
ATOM     48  H   UNL     1     -42.550  43.968  24.966  1.00  0.00     0.064 H 
ENDBRANCH  30  33
ENDBRANCH  26  29
ENDBRANCH   6  26
TORSDOF 7
ENDMDL
MODEL 3
REMARK VINA RESULT:      -9.3      1.612      2.306
REMARK SMILES C#CCNCc1cc2ccc(CNC(=O)c3cc(=O)n4ccccc4n3)cc2[nH]1
REMARK SMILES IDX 6 1 7 2 8 3 9 4 10 5 11 6 27 7 28 8 29 9 5 15 4 18 3 20 2 23
REMARK SMILES IDX 1 24 12 26 13 29 14 30 15 32 16 33 17 34 26 35 18 36 25 38
REMARK SMILES IDX 19 39 20 40 24 41 21 42 23 43 22 45
REMARK H PARENT 7 10 9 11 10 12 27 13 29 14 5 16 5 17 4 19 3 21 3 22 1 25
REMARK H PARENT 12 27 12 28 13 31 17 37 24 44 21 46 23 47 22 48
REMARK Flexibility Score: inf
ROOT
ATOM      1  C   UNL     1     -47.993  31.105  24.744  1.00  0.00     0.030 A 
ATOM      2  C   UNL     1     -46.797  31.796  24.694  1.00  0.00    -0.032 A 
ATOM      3  C   UNL     1     -46.975  33.037  25.365  1.00  0.00    -0.000 A 
ATOM      4  C   UNL     1     -46.140  34.139  25.624  1.00  0.00    -0.052 A 
ATOM      5  C   UNL     1     -46.649  35.236  26.333  1.00  0.00    -0.057 A 
ATOM      6  C   UNL     1     -47.973  35.249  26.794  1.00  0.00    -0.027 A 
ATOM      7  C   UNL     1     -48.816  34.155  26.534  1.00  0.00    -0.033 A 
ATOM      8  C   UNL     1     -48.289  33.069  25.823  1.00  0.00     0.046 A 
ATOM      9  N   UNL     1     -48.883  31.888  25.443  1.00  0.00    -0.357 N 
ATOM     10  H   UNL     1     -45.889  31.448  24.219  1.00  0.00     0.065 H 
ATOM     11  H   UNL     1     -45.111  34.143  25.277  1.00  0.00     0.063 H 
ATOM     12  H   UNL     1     -45.996  36.085  26.521  1.00  0.00     0.063 H 
ATOM     13  H   UNL     1     -49.850  34.157  26.872  1.00  0.00     0.065 H 
ATOM     14  H   UNL     1     -49.844  31.643  25.638  1.00  0.00     0.166 HD
ENDROOT
BRANCH   1  15
ATOM     15  C   UNL     1     -48.378  29.771  24.209  1.00  0.00     0.037 C 
ATOM     16  H   UNL     1     -48.869  29.917  23.239  1.00  0.00     0.049 H 
ATOM     17  H   UNL     1     -47.496  29.155  23.999  1.00  0.00     0.049 H 
BRANCH  15  18
ATOM     18  N   UNL     1     -49.321  29.084  25.087  1.00  0.00    -0.301 NA
ATOM     19  H   UNL     1     -49.690  29.766  25.747  1.00  0.00     0.124 HD
BRANCH  18  20
ATOM     20  C   UNL     1     -48.742  27.976  25.845  1.00  0.00     0.058 C 
ATOM     21  H   UNL     1     -48.457  28.283  26.857  1.00  0.00     0.057 H 
ATOM     22  H   UNL     1     -49.523  27.217  25.971  1.00  0.00     0.057 H 
BRANCH  20  23
ATOM     23  C   UNL     1     -47.607  27.356  25.149  1.00  0.00    -0.091 C 
ATOM     24  C   UNL     1     -46.679  26.845  24.583  1.00  0.00    -0.119 C 
ATOM     25  H   UNL     1     -45.860  26.390  24.074  1.00  0.00     0.124 H 
ENDBRANCH  20  23
ENDBRANCH  18  20
ENDBRANCH  15  18
ENDBRANCH   1  15
BRANCH   6  26
ATOM     26  C   UNL     1     -48.513  36.446  27.535  1.00  0.00     0.043 C 
ATOM     27  H   UNL     1     -49.147  36.127  28.369  1.00  0.00     0.054 H 
ATOM     28  H   UNL     1     -49.135  37.055  26.868  1.00  0.00     0.054 H 
BRANCH  26  29
ATOM     29  N   UNL     1     -47.440  37.235  28.086  1.00  0.00    -0.347 N 
ATOM     30  C   UNL     1     -46.903  38.316  27.434  1.00  0.00     0.270 C 
ATOM     31  H   UNL     1     -46.895  36.863  28.857  1.00  0.00     0.164 HD
ATOM     32  O   UNL     1     -47.357  38.805  26.406  1.00  0.00    -0.268 OA
BRANCH  30  33
ATOM     33  C   UNL     1     -45.661  38.838  28.117  1.00  0.00     0.136 A 
ATOM     34  C   UNL     1     -45.338  38.265  29.279  1.00  0.00     0.035 A 
ATOM     35  N   UNL     1     -44.952  39.855  27.518  1.00  0.00    -0.225 NA
ATOM     36  C   UNL     1     -44.142  38.745  29.981  1.00  0.00     0.258 A 
ATOM     37  H   UNL     1     -45.904  37.467  29.740  1.00  0.00     0.071 H 
ATOM     38  C   UNL     1     -43.896  40.277  28.144  1.00  0.00     0.140 A 
ATOM     39  O   UNL     1     -43.836  38.223  31.052  1.00  0.00    -0.269 OA
ATOM     40  N   UNL     1     -43.446  39.771  29.359  1.00  0.00    -0.268 N 
ATOM     41  C   UNL     1     -43.099  41.379  27.534  1.00  0.00    -0.019 A 
ATOM     42  C   UNL     1     -42.302  40.280  29.964  1.00  0.00     0.014 A 
ATOM     43  C   UNL     1     -42.005  41.835  28.155  1.00  0.00    -0.057 A 
ATOM     44  H   UNL     1     -43.442  41.781  26.589  1.00  0.00     0.066 H 
ATOM     45  C   UNL     1     -41.591  41.269  29.412  1.00  0.00    -0.045 A 
ATOM     46  H   UNL     1     -42.008  39.836  30.913  1.00  0.00     0.082 H 
ATOM     47  H   UNL     1     -41.411  42.637  27.729  1.00  0.00     0.062 H 
ATOM     48  H   UNL     1     -40.699  41.658  29.894  1.00  0.00     0.064 H 
ENDBRANCH  30  33
ENDBRANCH  26  29
ENDBRANCH   6  26
TORSDOF 7
ENDMDL
MODEL 4
REMARK VINA RESULT:      -9.0      2.938      4.925
REMARK SMILES C#CCNCc1cc2ccc(CNC(=O)c3cc(=O)n4ccccc4n3)cc2[nH]1
REMARK SMILES IDX 6 1 7 2 8 3 9 4 10 5 11 6 27 7 28 8 29 9 5 15 4 18 3 20 2 23
REMARK SMILES IDX 1 24 12 26 13 29 14 30 15 32 16 33 17 34 26 35 18 36 25 38
REMARK SMILES IDX 19 39 20 40 24 41 21 42 23 43 22 45
REMARK H PARENT 7 10 9 11 10 12 27 13 29 14 5 16 5 17 4 19 3 21 3 22 1 25
REMARK H PARENT 12 27 12 28 13 31 17 37 24 44 21 46 23 47 22 48
REMARK Flexibility Score: inf
ROOT
ATOM      1  C   UNL     1     -47.063  32.963  25.535  1.00  0.00     0.030 A 
ATOM      2  C   UNL     1     -48.144  33.738  25.909  1.00  0.00    -0.032 A 
ATOM      3  C   UNL     1     -47.659  34.833  26.674  1.00  0.00    -0.000 A 
ATOM      4  C   UNL     1     -48.269  35.925  27.319  1.00  0.00    -0.052 A 
ATOM      5  C   UNL     1     -47.472  36.848  28.009  1.00  0.00    -0.057 A 
ATOM      6  C   UNL     1     -46.079  36.707  28.061  1.00  0.00    -0.027 A 
ATOM      7  C   UNL     1     -45.461  35.617  27.425  1.00  0.00    -0.033 A 
ATOM      8  C   UNL     1     -46.274  34.704  26.741  1.00  0.00     0.046 A 
ATOM      9  N   UNL     1     -45.936  33.570  26.040  1.00  0.00    -0.357 N 
ATOM     10  H   UNL     1     -49.178  33.536  25.661  1.00  0.00     0.065 H 
ATOM     11  H   UNL     1     -49.347  36.051  27.285  1.00  0.00     0.063 H 
ATOM     12  H   UNL     1     -47.956  37.684  28.510  1.00  0.00     0.063 H 
ATOM     13  H   UNL     1     -44.382  35.485  27.469  1.00  0.00     0.065 H 
ATOM     14  H   UNL     1     -44.991  33.227  25.928  1.00  0.00     0.166 HD
ENDROOT
BRANCH   1  15
ATOM     15  C   UNL     1     -46.984  31.709  24.737  1.00  0.00     0.037 C 
ATOM     16  H   UNL     1     -46.942  30.861  25.431  1.00  0.00     0.049 H 
ATOM     17  H   UNL     1     -47.893  31.555  24.144  1.00  0.00     0.049 H 
BRANCH  15  18
ATOM     18  N   UNL     1     -45.783  31.666  23.907  1.00  0.00    -0.301 NA
ATOM     19  H   UNL     1     -45.670  32.580  23.472  1.00  0.00     0.124 HD
BRANCH  18  20
ATOM     20  C   UNL     1     -45.814  30.655  22.852  1.00  0.00     0.058 C 
ATOM     21  H   UNL     1     -44.961  29.972  22.921  1.00  0.00     0.057 H 
ATOM     22  H   UNL     1     -46.706  30.038  23.011  1.00  0.00     0.057 H 
BRANCH  20  23
ATOM     23  C   UNL     1     -45.900  31.250  21.512  1.00  0.00    -0.091 C 
ATOM     24  C   UNL     1     -45.971  31.731  20.413  1.00  0.00    -0.119 C 
ATOM     25  H   UNL     1     -46.042  32.162  19.441  1.00  0.00     0.124 H 
ENDBRANCH  20  23
ENDBRANCH  18  20
ENDBRANCH  15  18
ENDBRANCH   1  15
BRANCH   6  26
ATOM     26  C   UNL     1     -45.238  37.697  28.828  1.00  0.00     0.043 C 
ATOM     27  H   UNL     1     -44.299  37.233  29.151  1.00  0.00     0.054 H 
ATOM     28  H   UNL     1     -45.767  38.023  29.732  1.00  0.00     0.054 H 
BRANCH  26  29
ATOM     29  N   UNL     1     -44.899  38.829  28.004  1.00  0.00    -0.347 N 
ATOM     30  C   UNL     1     -44.061  39.830  28.428  1.00  0.00     0.270 C 
ATOM     31  H   UNL     1     -45.463  39.036  27.186  1.00  0.00     0.164 HD
ATOM     32  O   UNL     1     -43.412  39.802  29.467  1.00  0.00    -0.268 OA
BRANCH  30  33
ATOM     33  C   UNL     1     -44.035  40.998  27.471  1.00  0.00     0.136 A 
ATOM     34  C   UNL     1     -42.829  41.425  27.087  1.00  0.00     0.035 A 
ATOM     35  N   UNL     1     -45.229  41.547  27.062  1.00  0.00    -0.225 NA
ATOM     36  C   UNL     1     -42.755  42.562  26.162  1.00  0.00     0.258 A 
ATOM     37  H   UNL     1     -41.897  40.985  27.416  1.00  0.00     0.071 H 
ATOM     38  C   UNL     1     -45.159  42.554  26.245  1.00  0.00     0.140 A 
ATOM     39  O   UNL     1     -41.649  42.961  25.802  1.00  0.00    -0.269 OA
ATOM     40  N   UNL     1     -43.972  43.098  25.767  1.00  0.00    -0.268 N 
ATOM     41  C   UNL     1     -46.427  43.183  25.778  1.00  0.00    -0.019 A 
ATOM     42  C   UNL     1     -43.984  44.179  24.891  1.00  0.00     0.014 A 
ATOM     43  C   UNL     1     -46.387  44.221  24.935  1.00  0.00    -0.057 A 
ATOM     44  H   UNL     1     -47.357  42.767  26.146  1.00  0.00     0.066 H 
ATOM     45  C   UNL     1     -45.125  44.739  24.475  1.00  0.00    -0.045 A 
ATOM     46  H   UNL     1     -43.019  44.553  24.557  1.00  0.00     0.082 H 
ATOM     47  H   UNL     1     -47.299  44.694  24.584  1.00  0.00     0.062 H 
ATOM     48  H   UNL     1     -45.122  45.582  23.791  1.00  0.00     0.064 H 
ENDBRANCH  30  33
ENDBRANCH  26  29
ENDBRANCH   6  26
TORSDOF 7
ENDMDL
MODEL 5
REMARK VINA RESULT:      -9.0      2.195      3.683
REMARK SMILES C#CCNCc1cc2ccc(CNC(=O)c3cc(=O)n4ccccc4n3)cc2[nH]1
REMARK SMILES IDX 6 1 7 2 8 3 9 4 10 5 11 6 27 7 28 8 29 9 5 15 4 18 3 20 2 23
REMARK SMILES IDX 1 24 12 26 13 29 14 30 15 32 16 33 17 34 26 35 18 36 25 38
REMARK SMILES IDX 19 39 20 40 24 41 21 42 23 43 22 45
REMARK H PARENT 7 10 9 11 10 12 27 13 29 14 5 16 5 17 4 19 3 21 3 22 1 25
REMARK H PARENT 12 27 12 28 13 31 17 37 24 44 21 46 23 47 22 48
REMARK Flexibility Score: inf
ROOT
ATOM      1  C   UNL     1     -46.850  32.211  24.815  1.00  0.00     0.030 A 
ATOM      2  C   UNL     1     -48.021  32.825  25.217  1.00  0.00    -0.032 A 
ATOM      3  C   UNL     1     -47.682  33.879  26.110  1.00  0.00    -0.000 A 
ATOM      4  C   UNL     1     -48.428  34.827  26.833  1.00  0.00    -0.052 A 
ATOM      5  C   UNL     1     -47.760  35.751  27.648  1.00  0.00    -0.057 A 
ATOM      6  C   UNL     1     -46.362  35.751  27.747  1.00  0.00    -0.027 A 
ATOM      7  C   UNL     1     -45.609  34.804  27.032  1.00  0.00    -0.033 A 
ATOM      8  C   UNL     1     -46.295  33.889  26.225  1.00  0.00     0.046 A 
ATOM      9  N   UNL     1     -45.813  32.876  25.428  1.00  0.00    -0.357 N 
ATOM     10  H   UNL     1     -49.018  32.544  24.905  1.00  0.00     0.065 H 
ATOM     11  H   UNL     1     -49.512  34.843  26.765  1.00  0.00     0.063 H 
ATOM     12  H   UNL     1     -48.348  36.475  28.209  1.00  0.00     0.063 H 
ATOM     13  H   UNL     1     -44.525  34.782  27.111  1.00  0.00     0.065 H 
ATOM     14  H   UNL     1     -44.833  32.647  25.325  1.00  0.00     0.166 HD
ENDROOT
BRANCH   1  15
ATOM     15  C   UNL     1     -46.609  31.063  23.899  1.00  0.00     0.037 C 
ATOM     16  H   UNL     1     -47.008  31.321  22.911  1.00  0.00     0.049 H 
ATOM     17  H   UNL     1     -45.537  30.893  23.745  1.00  0.00     0.049 H 
BRANCH  15  18
ATOM     18  N   UNL     1     -47.289  29.853  24.352  1.00  0.00    -0.301 NA
ATOM     19  H   UNL     1     -46.889  29.585  25.249  1.00  0.00     0.124 HD
BRANCH  18  20
ATOM     20  C   UNL     1     -47.174  28.717  23.438  1.00  0.00     0.058 C 
ATOM     21  H   UNL     1     -46.223  28.730  22.895  1.00  0.00     0.057 H 
ATOM     22  H   UNL     1     -47.161  27.804  24.045  1.00  0.00     0.057 H 
BRANCH  20  23
ATOM     23  C   UNL     1     -48.305  28.634  22.506  1.00  0.00    -0.091 C 
ATOM     24  C   UNL     1     -49.235  28.564  21.748  1.00  0.00    -0.119 C 
ATOM     25  H   UNL     1     -50.059  28.511  21.075  1.00  0.00     0.124 H 
ENDBRANCH  20  23
ENDBRANCH  18  20
ENDBRANCH  15  18
ENDBRANCH   1  15
BRANCH   6  26
ATOM     26  C   UNL     1     -45.659  36.738  28.646  1.00  0.00     0.043 C 
ATOM     27  H   UNL     1     -44.733  36.305  29.039  1.00  0.00     0.054 H 
ATOM     28  H   UNL     1     -46.293  36.984  29.507  1.00  0.00     0.054 H 
BRANCH  26  29
ATOM     29  N   UNL     1     -45.305  37.931  27.921  1.00  0.00    -0.347 N 
ATOM     30  C   UNL     1     -44.650  38.987  28.505  1.00  0.00     0.270 C 
ATOM     31  H   UNL     1     -45.746  38.120  27.027  1.00  0.00     0.164 HD
ATOM     32  O   UNL     1     -44.180  38.974  29.637  1.00  0.00    -0.268 OA
BRANCH  30  33
ATOM     33  C   UNL     1     -44.585  40.192  27.598  1.00  0.00     0.136 A 
ATOM     34  C   UNL     1     -45.742  40.605  27.074  1.00  0.00     0.035 A 
ATOM     35  N   UNL     1     -43.362  40.781  27.364  1.00  0.00    -0.225 NA
ATOM     36  C   UNL     1     -45.724  41.769  26.181  1.00  0.00     0.258 A 
ATOM     37  H   UNL     1     -46.696  40.133  27.265  1.00  0.00     0.071 H 
ATOM     38  C   UNL     1     -43.352  41.810  26.573  1.00  0.00     0.140 A 
ATOM     39  O   UNL     1     -46.785  42.157  25.695  1.00  0.00    -0.269 OA
ATOM     40  N   UNL     1     -44.481  42.343  25.960  1.00  0.00    -0.268 N 
ATOM     41  C   UNL     1     -42.050  42.478  26.288  1.00  0.00    -0.019 A 
ATOM     42  C   UNL     1     -44.384  43.450  25.124  1.00  0.00     0.014 A 
ATOM     43  C   UNL     1     -42.008  43.541  25.477  1.00  0.00    -0.057 A 
ATOM     44  H   UNL     1     -41.165  42.069  26.759  1.00  0.00     0.066 H 
ATOM     45  C   UNL     1     -43.212  44.046  24.873  1.00  0.00    -0.045 A 
ATOM     46  H   UNL     1     -45.307  43.815  24.680  1.00  0.00     0.082 H 
ATOM     47  H   UNL     1     -41.070  44.041  25.256  1.00  0.00     0.062 H 
ATOM     48  H   UNL     1     -43.149  44.910  24.219  1.00  0.00     0.064 H 
ENDBRANCH  30  33
ENDBRANCH  26  29
ENDBRANCH   6  26
TORSDOF 7
ENDMDL
MODEL 6
REMARK VINA RESULT:      -8.8      1.634      2.081
REMARK SMILES C#CCNCc1cc2ccc(CNC(=O)c3cc(=O)n4ccccc4n3)cc2[nH]1
REMARK SMILES IDX 6 1 7 2 8 3 9 4 10 5 11 6 27 7 28 8 29 9 5 15 4 18 3 20 2 23
REMARK SMILES IDX 1 24 12 26 13 29 14 30 15 32 16 33 17 34 26 35 18 36 25 38
REMARK SMILES IDX 19 39 20 40 24 41 21 42 23 43 22 45
REMARK H PARENT 7 10 9 11 10 12 27 13 29 14 5 16 5 17 4 19 3 21 3 22 1 25
REMARK H PARENT 12 27 12 28 13 31 17 37 24 44 21 46 23 47 22 48
REMARK Flexibility Score: inf
ROOT
ATOM      1  C   UNL     1     -48.177  30.312  24.004  1.00  0.00     0.030 A 
ATOM      2  C   UNL     1     -46.974  30.984  23.897  1.00  0.00    -0.032 A 
ATOM      3  C   UNL     1     -47.072  32.186  24.649  1.00  0.00    -0.000 A 
ATOM      4  C   UNL     1     -46.195  33.257  24.903  1.00  0.00    -0.052 A 
ATOM      5  C   UNL     1     -46.623  34.319  25.711  1.00  0.00    -0.057 A 
ATOM      6  C   UNL     1     -47.906  34.328  26.276  1.00  0.00    -0.027 A 
ATOM      7  C   UNL     1     -48.790  33.266  26.023  1.00  0.00    -0.033 A 
ATOM      8  C   UNL     1     -48.344  32.215  25.212  1.00  0.00     0.046 A 
ATOM      9  N   UNL     1     -48.992  31.068  24.814  1.00  0.00    -0.357 N 
ATOM     10  H   UNL     1     -46.114  30.648  23.333  1.00  0.00     0.065 H 
ATOM     11  H   UNL     1     -45.197  33.263  24.476  1.00  0.00     0.063 H 
ATOM     12  H   UNL     1     -45.939  35.145  25.894  1.00  0.00     0.063 H 
ATOM     13  H   UNL     1     -49.794  33.267  26.441  1.00  0.00     0.065 H 
ATOM     14  H   UNL     1     -49.940  30.829  25.071  1.00  0.00     0.166 HD
ENDROOT
BRANCH   1  15
ATOM     15  C   UNL     1     -48.632  29.018  23.427  1.00  0.00     0.037 C 
ATOM     16  H   UNL     1     -47.795  28.310  23.466  1.00  0.00     0.049 H 
ATOM     17  H   UNL     1     -49.425  28.566  24.035  1.00  0.00     0.049 H 
BRANCH  15  18
ATOM     18  N   UNL     1     -49.034  29.156  22.030  1.00  0.00    -0.301 NA
ATOM     19  H   UNL     1     -49.043  30.148  21.803  1.00  0.00     0.124 HD
BRANCH  18  20
ATOM     20  C   UNL     1     -50.351  28.601  21.723  1.00  0.00     0.058 C 
ATOM     21  H   UNL     1     -50.730  28.966  20.763  1.00  0.00     0.057 H 
ATOM     22  H   UNL     1     -50.235  27.517  21.607  1.00  0.00     0.057 H 
BRANCH  20  23
ATOM     23  C   UNL     1     -51.324  28.848  22.795  1.00  0.00    -0.091 C 
ATOM     24  C   UNL     1     -52.118  29.055  23.673  1.00  0.00    -0.119 C 
ATOM     25  H   UNL     1     -52.830  29.237  24.445  1.00  0.00     0.124 H 
ENDBRANCH  20  23
ENDBRANCH  18  20
ENDBRANCH  15  18
ENDBRANCH   1  15
BRANCH   6  26
ATOM     26  C   UNL     1     -48.359  35.490  27.124  1.00  0.00     0.043 C 
ATOM     27  H   UNL     1     -48.580  35.157  28.144  1.00  0.00     0.054 H 
ATOM     28  H   UNL     1     -49.282  35.920  26.715  1.00  0.00     0.054 H 
BRANCH  26  29
ATOM     29  N   UNL     1     -47.330  36.494  27.212  1.00  0.00    -0.347 N 
ATOM     30  C   UNL     1     -46.749  36.860  28.400  1.00  0.00     0.270 C 
ATOM     31  H   UNL     1     -47.183  37.126  26.431  1.00  0.00     0.164 HD
ATOM     32  O   UNL     1     -46.933  36.289  29.469  1.00  0.00    -0.268 OA
BRANCH  30  33
ATOM     33  C   UNL     1     -45.859  38.071  28.255  1.00  0.00     0.136 A 
ATOM     34  C   UNL     1     -46.132  38.889  27.235  1.00  0.00     0.035 A 
ATOM     35  N   UNL     1     -44.838  38.256  29.159  1.00  0.00    -0.225 NA
ATOM     36  C   UNL     1     -45.289  40.076  27.051  1.00  0.00     0.258 A 
ATOM     37  H   UNL     1     -46.938  38.732  26.530  1.00  0.00     0.071 H 
ATOM     38  C   UNL     1     -44.093  39.306  28.991  1.00  0.00     0.140 A 
ATOM     39  O   UNL     1     -45.533  40.836  26.115  1.00  0.00    -0.269 OA
ATOM     40  N   UNL     1     -44.265  40.239  27.973  1.00  0.00    -0.268 N 
ATOM     41  C   UNL     1     -42.972  39.546  29.944  1.00  0.00    -0.019 A 
ATOM     42  C   UNL     1     -43.423  41.340  27.863  1.00  0.00     0.014 A 
ATOM     43  C   UNL     1     -42.188  40.620  29.797  1.00  0.00    -0.057 A 
ATOM     44  H   UNL     1     -42.829  38.825  30.739  1.00  0.00     0.066 H 
ATOM     45  C   UNL     1     -42.418  41.550  28.722  1.00  0.00    -0.045 A 
ATOM     46  H   UNL     1     -43.615  42.029  27.044  1.00  0.00     0.082 H 
ATOM     47  H   UNL     1     -41.367  40.812  30.480  1.00  0.00     0.062 H 
ATOM     48  H   UNL     1     -41.767  42.413  28.627  1.00  0.00     0.064 H 
ENDBRANCH  30  33
ENDBRANCH  26  29
ENDBRANCH   6  26
TORSDOF 7
ENDMDL
MODEL 7
REMARK VINA RESULT:      -8.8      2.374      4.270
REMARK SMILES C#CCNCc1cc2ccc(CNC(=O)c3cc(=O)n4ccccc4n3)cc2[nH]1
REMARK SMILES IDX 6 1 7 2 8 3 9 4 10 5 11 6 27 7 28 8 29 9 5 15 4 18 3 20 2 23
REMARK SMILES IDX 1 24 12 26 13 29 14 30 15 32 16 33 17 34 26 35 18 36 25 38
REMARK SMILES IDX 19 39 20 40 24 41 21 42 23 43 22 45
REMARK H PARENT 7 10 9 11 10 12 27 13 29 14 5 16 5 17 4 19 3 21 3 22 1 25
REMARK H PARENT 12 27 12 28 13 31 17 37 24 44 21 46 23 47 22 48
REMARK Flexibility Score: inf
ROOT
ATOM      1  C   UNL     1     -48.058  33.179  26.094  1.00  0.00     0.030 A 
ATOM      2  C   UNL     1     -46.703  33.330  26.319  1.00  0.00    -0.032 A 
ATOM      3  C   UNL     1     -46.506  34.551  27.021  1.00  0.00    -0.000 A 
ATOM      4  C   UNL     1     -45.373  35.230  27.507  1.00  0.00    -0.052 A 
ATOM      5  C   UNL     1     -45.537  36.452  28.172  1.00  0.00    -0.057 A 
ATOM      6  C   UNL     1     -46.810  37.005  28.368  1.00  0.00    -0.027 A 
ATOM      7  C   UNL     1     -47.947  36.337  27.881  1.00  0.00    -0.033 A 
ATOM      8  C   UNL     1     -47.762  35.118  27.218  1.00  0.00     0.046 A 
ATOM      9  N   UNL     1     -48.685  34.267  26.655  1.00  0.00    -0.357 N 
ATOM     10  H   UNL     1     -45.932  32.637  26.008  1.00  0.00     0.065 H 
ATOM     11  H   UNL     1     -44.380  34.814  27.366  1.00  0.00     0.063 H 
ATOM     12  H   UNL     1     -44.653  36.971  28.536  1.00  0.00     0.063 H 
ATOM     13  H   UNL     1     -48.940  36.761  28.012  1.00  0.00     0.065 H 
ATOM     14  H   UNL     1     -49.683  34.433  26.644  1.00  0.00     0.166 HD
ENDROOT
BRANCH   1  15
ATOM     15  C   UNL     1     -48.824  32.101  25.410  1.00  0.00     0.037 C 
ATOM     16  H   UNL     1     -49.894  32.291  25.560  1.00  0.00     0.049 H 
ATOM     17  H   UNL     1     -48.672  32.130  24.325  1.00  0.00     0.049 H 
BRANCH  15  18
ATOM     18  N   UNL     1     -48.523  30.785  25.964  1.00  0.00    -0.301 NA
ATOM     19  H   UNL     1     -47.638  30.849  26.463  1.00  0.00     0.124 HD
BRANCH  18  20
ATOM     20  C   UNL     1     -48.415  29.721  24.967  1.00  0.00     0.058 C 
ATOM     21  H   UNL     1     -48.242  28.745  25.433  1.00  0.00     0.057 H 
ATOM     22  H   UNL     1     -49.383  29.643  24.458  1.00  0.00     0.057 H 
BRANCH  20  23
ATOM     23  C   UNL     1     -47.387  30.005  23.957  1.00  0.00    -0.091 C 
ATOM     24  C   UNL     1     -46.543  30.241  23.135  1.00  0.00    -0.119 C 
ATOM     25  H   UNL     1     -45.792  30.441  22.406  1.00  0.00     0.124 H 
ENDBRANCH  20  23
ENDBRANCH  18  20
ENDBRANCH  15  18
ENDBRANCH   1  15
BRANCH   6  26
ATOM     26  C   UNL     1     -46.968  38.333  29.065  1.00  0.00     0.043 C 
ATOM     27  H   UNL     1     -46.744  38.234  30.133  1.00  0.00     0.054 H 
ATOM     28  H   UNL     1     -48.004  38.684  28.982  1.00  0.00     0.054 H 
BRANCH  26  29
ATOM     29  N   UNL     1     -46.058  39.309  28.522  1.00  0.00    -0.347 N 
ATOM     30  C   UNL     1     -46.297  39.972  27.345  1.00  0.00     0.270 C 
ATOM     31  H   UNL     1     -45.106  39.350  28.872  1.00  0.00     0.164 HD
ATOM     32  O   UNL     1     -47.348  39.916  26.715  1.00  0.00    -0.268 OA
BRANCH  30  33
ATOM     33  C   UNL     1     -45.104  40.777  26.888  1.00  0.00     0.136 A 
ATOM     34  C   UNL     1     -44.030  40.749  27.681  1.00  0.00     0.035 A 
ATOM     35  N   UNL     1     -45.192  41.482  25.709  1.00  0.00    -0.225 NA
ATOM     36  C   UNL     1     -42.849  41.522  27.280  1.00  0.00     0.258 A 
ATOM     37  H   UNL     1     -43.974  40.191  28.607  1.00  0.00     0.071 H 
ATOM     38  C   UNL     1     -44.145  42.166  25.359  1.00  0.00     0.140 A 
ATOM     39  O   UNL     1     -41.854  41.501  28.003  1.00  0.00    -0.269 OA
ATOM     40  N   UNL     1     -42.963  42.225  26.089  1.00  0.00    -0.268 N 
ATOM     41  C   UNL     1     -44.195  42.948  24.090  1.00  0.00    -0.019 A 
ATOM     42  C   UNL     1     -41.885  42.982  25.643  1.00  0.00     0.014 A 
ATOM     43  C   UNL     1     -43.132  43.662  23.703  1.00  0.00    -0.057 A 
ATOM     44  H   UNL     1     -45.111  42.909  23.515  1.00  0.00     0.066 H 
ATOM     45  C   UNL     1     -41.936  43.682  24.504  1.00  0.00    -0.045 A 
ATOM     46  H   UNL     1     -40.992  42.983  26.264  1.00  0.00     0.082 H 
ATOM     47  H   UNL     1     -43.148  44.238  22.784  1.00  0.00     0.062 H 
ATOM     48  H   UNL     1     -41.088  44.269  24.165  1.00  0.00     0.064 H 
ENDBRANCH  30  33
ENDBRANCH  26  29
ENDBRANCH   6  26
TORSDOF 7
ENDMDL
