MODEL 1
REMARK VINA RESULT:     -10.3      0.000      0.000
REMARK SMILES CC1(C)CCN(Cc2ccc(C(=O)NC[C@]3(O)CCCN(c4cc(NCc5ccccc5)ncn4)C3)c(O)c2)CC1
REMARK SMILES IDX 15 1 14 4 12 5 13 6 11 8 8 9 9 10 39 11 10 12 37 14 7 17
REMARK SMILES IDX 6 20 2 21 4 22 41 23 5 24 40 27 1 34 3 38 38 42 16 44 18 45
REMARK SMILES IDX 36 46 19 47 21 50 20 53 17 58 22 60 23 61 35 62 24 63 34 65
REMARK SMILES IDX 33 66 25 68 26 70 27 73 28 74 32 75 29 76 31 78 30 80
REMARK H PARENT 15 2 15 3 14 7 9 13 39 15 10 16 7 18 7 19 4 25 4 26 41 28
REMARK H PARENT 41 29 5 30 5 31 40 32 40 33 1 35 1 36 1 37 3 39 3 40 3 41
REMARK H PARENT 38 43 18 48 18 49 36 51 36 52 19 54 19 55 20 56 20 57 17 59
REMARK H PARENT 23 64 34 67 25 69 26 71 26 72 28 77 32 79 29 81 31 82 30 83
REMARK Flexibility Score: inf
ROOT
ATOM      1  C   UNL     1     -46.349  35.637  28.609  1.00  0.00     0.048 C 
ATOM      2  H   UNL     1     -47.049  35.327  29.393  1.00  0.00     0.052 H 
ATOM      3  H   UNL     1     -45.348  35.347  28.952  1.00  0.00     0.052 H 
ENDROOT
BRANCH   1   4
ATOM      4  N   UNL     1     -46.593  34.855  27.411  1.00  0.00    -0.349 N 
ATOM      5  C   UNL     1     -46.504  33.483  27.374  1.00  0.00     0.255 C 
ATOM      6  O   UNL     1     -45.998  32.818  28.270  1.00  0.00    -0.269 OA
ATOM      7  H   UNL     1     -47.108  35.293  26.651  1.00  0.00     0.163 HD
BRANCH   5   8
ATOM      8  C   UNL     1     -47.081  32.816  26.168  1.00  0.00     0.081 A 
ATOM      9  C   UNL     1     -48.020  31.494  23.858  1.00  0.00    -0.030 A 
ATOM     10  C   UNL     1     -46.645  31.637  24.084  1.00  0.00    -0.057 A 
ATOM     11  C   UNL     1     -48.921  31.998  24.809  1.00  0.00    -0.015 A 
ATOM     12  C   UNL     1     -46.181  32.288  25.230  1.00  0.00    -0.045 A 
ATOM     13  H   UNL     1     -45.924  31.242  23.372  1.00  0.00     0.063 H 
ATOM     14  C   UNL     1     -48.457  32.660  25.948  1.00  0.00     0.128 A 
ATOM     15  H   UNL     1     -49.985  31.870  24.634  1.00  0.00     0.067 H 
ATOM     16  H   UNL     1     -45.108  32.387  25.392  1.00  0.00     0.063 H 
BRANCH   9  17
ATOM     17  C   UNL     1     -48.531  30.768  22.629  1.00  0.00     0.023 C 
ATOM     18  H   UNL     1     -49.516  31.155  22.335  1.00  0.00     0.048 H 
ATOM     19  H   UNL     1     -47.838  31.028  21.818  1.00  0.00     0.048 H 
BRANCH  17  20
ATOM     20  N   UNL     1     -48.584  29.305  22.794  1.00  0.00    -0.299 NA
ATOM     21  C   UNL     1     -49.060  27.442  25.148  1.00  0.00    -0.033 C 
ATOM     22  C   UNL     1     -50.033  28.565  24.709  1.00  0.00    -0.035 C 
ATOM     23  C   UNL     1     -47.805  27.433  24.242  1.00  0.00    -0.035 C 
ATOM     24  C   UNL     1     -49.921  28.855  23.210  1.00  0.00    -0.001 C 
ATOM     25  H   UNL     1     -51.067  28.295  24.955  1.00  0.00     0.029 H 
ATOM     26  H   UNL     1     -49.824  29.493  25.257  1.00  0.00     0.029 H 
ATOM     27  C   UNL     1     -47.506  28.824  23.679  1.00  0.00    -0.001 C 
ATOM     28  H   UNL     1     -46.932  27.064  24.796  1.00  0.00     0.029 H 
ATOM     29  H   UNL     1     -47.940  26.740  23.401  1.00  0.00     0.029 H 
ATOM     30  H   UNL     1     -50.698  29.573  22.919  1.00  0.00     0.043 H 
ATOM     31  H   UNL     1     -50.154  27.940  22.653  1.00  0.00     0.043 H 
ATOM     32  H   UNL     1     -46.570  28.774  23.113  1.00  0.00     0.043 H 
ATOM     33  H   UNL     1     -47.341  29.514  24.517  1.00  0.00     0.043 H 
BRANCH  21  34
ATOM     34  C   UNL     1     -49.754  26.071  25.057  1.00  0.00    -0.060 C 
ATOM     35  H   UNL     1     -49.840  25.737  24.017  1.00  0.00     0.024 H 
ATOM     36  H   UNL     1     -50.765  26.112  25.478  1.00  0.00     0.024 H 
ATOM     37  H   UNL     1     -49.195  25.304  25.605  1.00  0.00     0.024 H 
ENDBRANCH  21  34
BRANCH  21  38
ATOM     38  C   UNL     1     -48.656  27.680  26.615  1.00  0.00    -0.060 C 
ATOM     39  H   UNL     1     -47.988  26.889  26.974  1.00  0.00     0.024 H 
ATOM     40  H   UNL     1     -48.134  28.635  26.735  1.00  0.00     0.024 H 
ATOM     41  H   UNL     1     -49.536  27.695  27.268  1.00  0.00     0.024 H 
ENDBRANCH  21  38
ENDBRANCH  17  20
ENDBRANCH   9  17
BRANCH  14  42
ATOM     42  O   UNL     1     -49.374  33.140  26.849  1.00  0.00    -0.507 OA
ATOM     43  H   UNL     1     -49.160  34.073  27.047  1.00  0.00     0.293 HD
ENDBRANCH  14  42
ENDBRANCH   5   8
ENDBRANCH   1   4
BRANCH   1  44
ATOM     44  C   UNL     1     -46.406  37.174  28.398  1.00  0.00     0.099 C 
ATOM     45  C   UNL     1     -47.338  37.578  27.242  1.00  0.00    -0.019 C 
ATOM     46  C   UNL     1     -45.002  37.800  28.225  1.00  0.00     0.050 C 
ATOM     47  C   UNL     1     -46.855  38.823  26.492  1.00  0.00    -0.033 C 
ATOM     48  H   UNL     1     -48.348  37.769  27.628  1.00  0.00     0.030 H 
ATOM     49  H   UNL     1     -47.435  36.772  26.508  1.00  0.00     0.030 H 
ATOM     50  N   UNL     1     -45.114  39.267  28.198  1.00  0.00    -0.353 N 
ATOM     51  H   UNL     1     -44.510  37.453  27.309  1.00  0.00     0.052 H 
ATOM     52  H   UNL     1     -44.404  37.496  29.093  1.00  0.00     0.052 H 
ATOM     53  C   UNL     1     -46.198  39.862  27.398  1.00  0.00     0.019 C 
ATOM     54  H   UNL     1     -47.693  39.274  25.950  1.00  0.00     0.029 H 
ATOM     55  H   UNL     1     -46.129  38.511  25.729  1.00  0.00     0.029 H 
ATOM     56  H   UNL     1     -46.945  40.294  28.075  1.00  0.00     0.049 H 
ATOM     57  H   UNL     1     -45.835  40.670  26.751  1.00  0.00     0.049 H 
BRANCH  44  58
ATOM     58  O   UNL     1     -46.973  37.736  29.611  1.00  0.00    -0.386 OA
ATOM     59  H   UNL     1     -46.437  38.533  29.804  1.00  0.00     0.211 HD
ENDBRANCH  44  58
BRANCH  50  60
ATOM     60  C   UNL     1     -44.004  40.075  28.425  1.00  0.00     0.134 A 
ATOM     61  C   UNL     1     -43.580  41.035  27.519  1.00  0.00     0.023 A 
ATOM     62  N   UNL     1     -43.311  39.882  29.561  1.00  0.00    -0.219 NA
ATOM     63  C   UNL     1     -42.450  41.772  27.821  1.00  0.00     0.131 A 
ATOM     64  H   UNL     1     -44.121  41.248  26.610  1.00  0.00     0.070 H 
ATOM     65  C   UNL     1     -42.240  40.656  29.773  1.00  0.00     0.120 A 
ATOM     66  N   UNL     1     -41.768  41.603  28.955  1.00  0.00    -0.219 NA
ATOM     67  H   UNL     1     -41.700  40.497  30.701  1.00  0.00     0.106 H 
BRANCH  63  68
ATOM     68  N   UNL     1     -41.962  42.768  26.968  1.00  0.00    -0.366 N 
ATOM     69  H   UNL     1     -41.660  42.242  26.148  1.00  0.00     0.162 HD
BRANCH  68  70
ATOM     70  C   UNL     1     -42.953  43.772  26.584  1.00  0.00     0.041 C 
ATOM     71  H   UNL     1     -43.954  43.361  26.773  1.00  0.00     0.054 H 
ATOM     72  H   UNL     1     -42.878  44.679  27.199  1.00  0.00     0.054 H 
BRANCH  70  73
ATOM     73  C   UNL     1     -42.880  44.103  25.109  1.00  0.00    -0.029 A 
ATOM     74  C   UNL     1     -41.947  43.475  24.270  1.00  0.00    -0.057 A 
ATOM     75  C   UNL     1     -43.811  44.982  24.536  1.00  0.00    -0.057 A 
ATOM     76  C   UNL     1     -41.945  43.716  22.894  1.00  0.00    -0.062 A 
ATOM     77  H   UNL     1     -41.221  42.779  24.690  1.00  0.00     0.063 H 
ATOM     78  C   UNL     1     -43.809  45.224  23.158  1.00  0.00    -0.062 A 
ATOM     79  H   UNL     1     -44.561  45.473  25.154  1.00  0.00     0.063 H 
ATOM     80  C   UNL     1     -42.879  44.588  22.339  1.00  0.00    -0.062 A 
ATOM     81  H   UNL     1     -41.223  43.213  22.255  1.00  0.00     0.062 H 
ATOM     82  H   UNL     1     -44.542  45.900  22.725  1.00  0.00     0.062 H 
ATOM     83  H   UNL     1     -42.884  44.768  21.266  1.00  0.00     0.062 H 
ENDBRANCH  70  73
ENDBRANCH  68  70
ENDBRANCH  63  68
ENDBRANCH  50  60
ENDBRANCH   1  44
TORSDOF 13
ENDMDL
MODEL 2
REMARK VINA RESULT:     -10.0      1.734      2.139
REMARK SMILES CC1(C)CCN(Cc2ccc(C(=O)NC[C@]3(O)CCCN(c4cc(NCc5ccccc5)ncn4)C3)c(O)c2)CC1
REMARK SMILES IDX 15 1 14 4 12 5 13 6 11 8 8 9 9 10 39 11 10 12 37 14 7 17
REMARK SMILES IDX 6 20 2 21 4 22 41 23 5 24 40 27 1 34 3 38 38 42 16 44 18 45
REMARK SMILES IDX 36 46 19 47 21 50 20 53 17 58 22 60 23 61 35 62 24 63 34 65
REMARK SMILES IDX 33 66 25 68 26 70 27 73 28 74 32 75 29 76 31 78 30 80
REMARK H PARENT 15 2 15 3 14 7 9 13 39 15 10 16 7 18 7 19 4 25 4 26 41 28
REMARK H PARENT 41 29 5 30 5 31 40 32 40 33 1 35 1 36 1 37 3 39 3 40 3 41
REMARK H PARENT 38 43 18 48 18 49 36 51 36 52 19 54 19 55 20 56 20 57 17 59
REMARK H PARENT 23 64 34 67 25 69 26 71 26 72 28 77 32 79 29 81 31 82 30 83
REMARK Flexibility Score: inf
ROOT
ATOM      1  C   UNL     1     -45.661  34.086  28.237  1.00  0.00     0.048 C 
ATOM      2  H   UNL     1     -45.446  33.593  29.193  1.00  0.00     0.052 H 
ATOM      3  H   UNL     1     -44.705  34.158  27.704  1.00  0.00     0.052 H 
ENDROOT
BRANCH   1   4
ATOM      4  N   UNL     1     -46.495  33.217  27.429  1.00  0.00    -0.349 N 
ATOM      5  C   UNL     1     -46.491  33.232  26.054  1.00  0.00     0.255 C 
ATOM      6  O   UNL     1     -45.963  34.118  25.393  1.00  0.00    -0.269 OA
ATOM      7  H   UNL     1     -46.891  32.390  27.869  1.00  0.00     0.163 HD
BRANCH   5   8
ATOM      8  C   UNL     1     -47.165  32.082  25.378  1.00  0.00     0.081 A 
ATOM      9  C   UNL     1     -48.548  29.911  24.221  1.00  0.00    -0.030 A 
ATOM     10  C   UNL     1     -48.824  30.309  25.536  1.00  0.00    -0.057 A 
ATOM     11  C   UNL     1     -47.590  30.622  23.483  1.00  0.00    -0.015 A 
ATOM     12  C   UNL     1     -48.141  31.387  26.106  1.00  0.00    -0.045 A 
ATOM     13  H   UNL     1     -49.573  29.787  26.126  1.00  0.00     0.063 H 
ATOM     14  C   UNL     1     -46.899  31.691  24.057  1.00  0.00     0.128 A 
ATOM     15  H   UNL     1     -47.391  30.317  22.459  1.00  0.00     0.067 H 
ATOM     16  H   UNL     1     -48.372  31.685  27.128  1.00  0.00     0.063 H 
BRANCH   9  17
ATOM     17  C   UNL     1     -49.301  28.758  23.587  1.00  0.00     0.023 C 
ATOM     18  H   UNL     1     -50.347  28.751  23.918  1.00  0.00     0.048 H 
ATOM     19  H   UNL     1     -49.315  28.966  22.509  1.00  0.00     0.048 H 
BRANCH  17  20
ATOM     20  N   UNL     1     -48.677  27.446  23.836  1.00  0.00    -0.299 NA
ATOM     21  C   UNL     1     -47.392  26.123  26.252  1.00  0.00    -0.033 C 
ATOM     22  C   UNL     1     -48.827  26.705  26.233  1.00  0.00    -0.035 C 
ATOM     23  C   UNL     1     -46.702  26.344  24.884  1.00  0.00    -0.035 C 
ATOM     24  C   UNL     1     -49.434  26.667  24.829  1.00  0.00    -0.001 C 
ATOM     25  H   UNL     1     -49.474  26.157  26.928  1.00  0.00     0.029 H 
ATOM     26  H   UNL     1     -48.826  27.747  26.581  1.00  0.00     0.029 H 
ATOM     27  C   UNL     1     -47.247  27.585  24.174  1.00  0.00    -0.001 C 
ATOM     28  H   UNL     1     -45.616  26.439  25.011  1.00  0.00     0.029 H 
ATOM     29  H   UNL     1     -46.853  25.475  24.230  1.00  0.00     0.029 H 
ATOM     30  H   UNL     1     -50.483  26.983  24.875  1.00  0.00     0.043 H 
ATOM     31  H   UNL     1     -49.464  25.626  24.483  1.00  0.00     0.043 H 
ATOM     32  H   UNL     1     -46.673  27.737  23.253  1.00  0.00     0.043 H 
ATOM     33  H   UNL     1     -47.072  28.461  24.812  1.00  0.00     0.043 H 
BRANCH  21  34
ATOM     34  C   UNL     1     -47.433  24.614  26.554  1.00  0.00    -0.060 C 
ATOM     35  H   UNL     1     -47.533  24.426  27.629  1.00  0.00     0.024 H 
ATOM     36  H   UNL     1     -46.517  24.119  26.213  1.00  0.00     0.024 H 
ATOM     37  H   UNL     1     -48.280  24.130  26.055  1.00  0.00     0.024 H 
ENDBRANCH  21  34
BRANCH  21  38
ATOM     38  C   UNL     1     -46.589  26.814  27.370  1.00  0.00    -0.060 C 
ATOM     39  H   UNL     1     -46.009  27.657  26.978  1.00  0.00     0.024 H 
ATOM     40  H   UNL     1     -47.248  27.202  28.154  1.00  0.00     0.024 H 
ATOM     41  H   UNL     1     -45.887  26.116  27.839  1.00  0.00     0.024 H 
ENDBRANCH  21  38
ENDBRANCH  17  20
ENDBRANCH   9  17
BRANCH  14  42
ATOM     42  O   UNL     1     -45.968  32.357  23.299  1.00  0.00    -0.507 OA
ATOM     43  H   UNL     1     -45.609  31.740  22.630  1.00  0.00     0.293 HD
ENDBRANCH  14  42
ENDBRANCH   5   8
ENDBRANCH   1   4
BRANCH   1  44
ATOM     44  C   UNL     1     -46.243  35.506  28.470  1.00  0.00     0.099 C 
ATOM     45  C   UNL     1     -47.662  35.664  27.898  1.00  0.00    -0.019 C 
ATOM     46  C   UNL     1     -45.306  36.621  27.948  1.00  0.00     0.050 C 
ATOM     47  C   UNL     1     -47.941  37.074  27.371  1.00  0.00    -0.033 C 
ATOM     48  H   UNL     1     -48.403  35.425  28.672  1.00  0.00     0.030 H 
ATOM     49  H   UNL     1     -47.840  34.966  27.073  1.00  0.00     0.030 H 
ATOM     50  N   UNL     1     -45.833  37.937  28.346  1.00  0.00    -0.353 N 
ATOM     51  H   UNL     1     -45.195  36.586  26.858  1.00  0.00     0.052 H 
ATOM     52  H   UNL     1     -44.326  36.465  28.415  1.00  0.00     0.052 H 
ATOM     53  C   UNL     1     -47.278  38.174  28.198  1.00  0.00     0.019 C 
ATOM     54  H   UNL     1     -49.023  37.242  27.322  1.00  0.00     0.029 H 
ATOM     55  H   UNL     1     -47.574  37.140  26.337  1.00  0.00     0.029 H 
ATOM     56  H   UNL     1     -47.736  38.222  29.193  1.00  0.00     0.049 H 
ATOM     57  H   UNL     1     -47.489  39.126  27.694  1.00  0.00     0.049 H 
BRANCH  44  58
ATOM     58  O   UNL     1     -46.347  35.680  29.908  1.00  0.00    -0.386 OA
ATOM     59  H   UNL     1     -46.165  34.796  30.290  1.00  0.00     0.211 HD
ENDBRANCH  44  58
BRANCH  50  60
ATOM     60  C   UNL     1     -45.020  39.067  28.338  1.00  0.00     0.134 A 
ATOM     61  C   UNL     1     -45.160  40.081  27.404  1.00  0.00     0.023 A 
ATOM     62  N   UNL     1     -44.048  39.144  29.264  1.00  0.00    -0.219 NA
ATOM     63  C   UNL     1     -44.288  41.152  27.460  1.00  0.00     0.131 A 
ATOM     64  H   UNL     1     -45.944  40.077  26.662  1.00  0.00     0.070 H 
ATOM     65  C   UNL     1     -43.264  40.230  29.249  1.00  0.00     0.120 A 
ATOM     66  N   UNL     1     -43.334  41.250  28.388  1.00  0.00    -0.219 NA
ATOM     67  H   UNL     1     -42.494  40.284  30.011  1.00  0.00     0.106 H 
BRANCH  63  68
ATOM     68  N   UNL     1     -44.367  42.224  26.563  1.00  0.00    -0.366 N 
ATOM     69  H   UNL     1     -43.499  42.732  26.733  1.00  0.00     0.162 HD
BRANCH  68  70
ATOM     70  C   UNL     1     -44.451  41.828  25.158  1.00  0.00     0.041 C 
ATOM     71  H   UNL     1     -43.747  41.003  24.987  1.00  0.00     0.054 H 
ATOM     72  H   UNL     1     -45.444  41.436  24.901  1.00  0.00     0.054 H 
BRANCH  70  73
ATOM     73  C   UNL     1     -44.051  42.954  24.229  1.00  0.00    -0.029 A 
ATOM     74  C   UNL     1     -42.726  43.094  23.786  1.00  0.00    -0.057 A 
ATOM     75  C   UNL     1     -45.023  43.828  23.719  1.00  0.00    -0.057 A 
ATOM     76  C   UNL     1     -42.382  44.078  22.858  1.00  0.00    -0.062 A 
ATOM     77  H   UNL     1     -41.955  42.419  24.159  1.00  0.00     0.063 H 
ATOM     78  C   UNL     1     -44.677  44.815  22.790  1.00  0.00    -0.062 A 
ATOM     79  H   UNL     1     -46.063  43.737  24.027  1.00  0.00     0.063 H 
ATOM     80  C   UNL     1     -43.358  44.936  22.357  1.00  0.00    -0.062 A 
ATOM     81  H   UNL     1     -41.353  44.166  22.516  1.00  0.00     0.062 H 
ATOM     82  H   UNL     1     -45.442  45.480  22.395  1.00  0.00     0.062 H 
ATOM     83  H   UNL     1     -43.092  45.696  21.626  1.00  0.00     0.062 H 
ENDBRANCH  70  73
ENDBRANCH  68  70
ENDBRANCH  63  68
ENDBRANCH  50  60
ENDBRANCH   1  44
TORSDOF 13
ENDMDL
MODEL 3
REMARK VINA RESULT:     -10.0      1.701     13.390
REMARK SMILES CC1(C)CCN(Cc2ccc(C(=O)NC[C@]3(O)CCCN(c4cc(NCc5ccccc5)ncn4)C3)c(O)c2)CC1
REMARK SMILES IDX 15 1 14 4 12 5 13 6 11 8 8 9 9 10 39 11 10 12 37 14 7 17
REMARK SMILES IDX 6 20 2 21 4 22 41 23 5 24 40 27 1 34 3 38 38 42 16 44 18 45
REMARK SMILES IDX 36 46 19 47 21 50 20 53 17 58 22 60 23 61 35 62 24 63 34 65
REMARK SMILES IDX 33 66 25 68 26 70 27 73 28 74 32 75 29 76 31 78 30 80
REMARK H PARENT 15 2 15 3 14 7 9 13 39 15 10 16 7 18 7 19 4 25 4 26 41 28
REMARK H PARENT 41 29 5 30 5 31 40 32 40 33 1 35 1 36 1 37 3 39 3 40 3 41
REMARK H PARENT 38 43 18 48 18 49 36 51 36 52 19 54 19 55 20 56 20 57 17 59
REMARK H PARENT 23 64 34 67 25 69 26 71 26 72 28 77 32 79 29 81 31 82 30 83
REMARK Flexibility Score: inf
ROOT
ATOM      1  C   UNL     1     -48.634  33.577  26.320  1.00  0.00     0.048 C 
ATOM      2  H   UNL     1     -48.967  33.254  27.313  1.00  0.00     0.052 H 
ATOM      3  H   UNL     1     -49.538  33.843  25.760  1.00  0.00     0.052 H 
ENDROOT
BRANCH   1   4
ATOM      4  N   UNL     1     -47.876  34.808  26.447  1.00  0.00    -0.349 N 
ATOM      5  C   UNL     1     -48.208  35.812  27.325  1.00  0.00     0.255 C 
ATOM      6  O   UNL     1     -49.284  35.864  27.911  1.00  0.00    -0.269 OA
ATOM      7  H   UNL     1     -46.926  34.823  26.085  1.00  0.00     0.163 HD
BRANCH   5   8
ATOM      8  C   UNL     1     -47.169  36.861  27.555  1.00  0.00     0.081 A 
ATOM      9  C   UNL     1     -45.326  38.954  27.990  1.00  0.00    -0.030 A 
ATOM     10  C   UNL     1     -46.642  39.236  27.599  1.00  0.00    -0.057 A 
ATOM     11  C   UNL     1     -44.947  37.617  28.182  1.00  0.00    -0.015 A 
ATOM     12  C   UNL     1     -47.555  38.199  27.388  1.00  0.00    -0.045 A 
ATOM     13  H   UNL     1     -46.968  40.264  27.458  1.00  0.00     0.063 H 
ATOM     14  C   UNL     1     -45.856  36.580  27.959  1.00  0.00     0.128 A 
ATOM     15  H   UNL     1     -43.930  37.406  28.499  1.00  0.00     0.067 H 
ATOM     16  H   UNL     1     -48.574  38.438  27.089  1.00  0.00     0.063 H 
BRANCH   9  17
ATOM     17  C   UNL     1     -44.337  40.073  28.243  1.00  0.00     0.023 C 
ATOM     18  H   UNL     1     -44.814  40.893  28.797  1.00  0.00     0.048 H 
ATOM     19  H   UNL     1     -43.571  39.652  28.908  1.00  0.00     0.048 H 
BRANCH  17  20
ATOM     20  N   UNL     1     -43.706  40.586  27.013  1.00  0.00    -0.299 NA
ATOM     21  C   UNL     1     -43.233  43.356  25.857  1.00  0.00    -0.033 C 
ATOM     22  C   UNL     1     -42.764  42.901  27.261  1.00  0.00    -0.035 C 
ATOM     23  C   UNL     1     -44.003  42.214  25.151  1.00  0.00    -0.035 C 
ATOM     24  C   UNL     1     -42.513  41.393  27.313  1.00  0.00    -0.001 C 
ATOM     25  H   UNL     1     -41.852  43.436  27.553  1.00  0.00     0.029 H 
ATOM     26  H   UNL     1     -43.517  43.153  28.020  1.00  0.00     0.029 H 
ATOM     27  C   UNL     1     -44.684  41.287  26.159  1.00  0.00    -0.001 C 
ATOM     28  H   UNL     1     -44.753  42.623  24.462  1.00  0.00     0.029 H 
ATOM     29  H   UNL     1     -43.322  41.614  24.532  1.00  0.00     0.029 H 
ATOM     30  H   UNL     1     -42.079  41.128  28.284  1.00  0.00     0.043 H 
ATOM     31  H   UNL     1     -41.743  41.136  26.575  1.00  0.00     0.043 H 
ATOM     32  H   UNL     1     -45.274  40.547  25.606  1.00  0.00     0.043 H 
ATOM     33  H   UNL     1     -45.387  41.877  26.761  1.00  0.00     0.043 H 
BRANCH  21  34
ATOM     34  C   UNL     1     -42.022  43.754  24.993  1.00  0.00    -0.060 C 
ATOM     35  H   UNL     1     -41.248  44.243  25.595  1.00  0.00     0.024 H 
ATOM     36  H   UNL     1     -42.316  44.449  24.199  1.00  0.00     0.024 H 
ATOM     37  H   UNL     1     -41.567  42.878  24.518  1.00  0.00     0.024 H 
ENDBRANCH  21  34
BRANCH  21  38
ATOM     38  C   UNL     1     -44.139  44.592  26.011  1.00  0.00    -0.060 C 
ATOM     39  H   UNL     1     -44.445  44.731  27.055  1.00  0.00     0.024 H 
ATOM     40  H   UNL     1     -43.627  45.505  25.692  1.00  0.00     0.024 H 
ATOM     41  H   UNL     1     -45.049  44.491  25.409  1.00  0.00     0.024 H 
ENDBRANCH  21  38
ENDBRANCH  17  20
ENDBRANCH   9  17
BRANCH  14  42
ATOM     42  O   UNL     1     -45.441  35.287  28.157  1.00  0.00    -0.507 OA
ATOM     43  H   UNL     1     -44.671  35.292  28.759  1.00  0.00     0.293 HD
ENDBRANCH  14  42
ENDBRANCH   5   8
ENDBRANCH   1   4
BRANCH   1  44
ATOM     44  C   UNL     1     -47.883  32.430  25.592  1.00  0.00     0.099 C 
ATOM     45  C   UNL     1     -46.596  32.911  24.900  1.00  0.00    -0.019 C 
ATOM     46  C   UNL     1     -48.792  31.663  24.603  1.00  0.00     0.050 C 
ATOM     47  C   UNL     1     -46.292  32.150  23.607  1.00  0.00    -0.033 C 
ATOM     48  H   UNL     1     -45.743  32.799  25.583  1.00  0.00     0.030 H 
ATOM     49  H   UNL     1     -46.652  33.975  24.648  1.00  0.00     0.030 H 
ATOM     50  N   UNL     1     -48.073  30.492  24.075  1.00  0.00    -0.353 N 
ATOM     51  H   UNL     1     -49.119  32.297  23.772  1.00  0.00     0.052 H 
ATOM     52  H   UNL     1     -49.671  31.326  25.167  1.00  0.00     0.052 H 
ATOM     53  C   UNL     1     -46.669  30.671  23.669  1.00  0.00     0.019 C 
ATOM     54  H   UNL     1     -45.230  32.256  23.358  1.00  0.00     0.029 H 
ATOM     55  H   UNL     1     -46.848  32.621  22.785  1.00  0.00     0.029 H 
ATOM     56  H   UNL     1     -46.021  30.149  24.384  1.00  0.00     0.049 H 
ATOM     57  H   UNL     1     -46.471  30.247  22.676  1.00  0.00     0.049 H 
BRANCH  44  58
ATOM     58  O   UNL     1     -47.481  31.483  26.618  1.00  0.00    -0.386 OA
ATOM     59  H   UNL     1     -48.050  31.680  27.391  1.00  0.00     0.211 HD
ENDBRANCH  44  58
BRANCH  50  60
ATOM     60  C   UNL     1     -48.758  29.442  23.472  1.00  0.00     0.134 A 
ATOM     61  C   UNL     1     -49.425  28.469  24.199  1.00  0.00     0.023 A 
ATOM     62  N   UNL     1     -48.736  29.370  22.129  1.00  0.00    -0.219 NA
ATOM     63  C   UNL     1     -50.056  27.449  23.512  1.00  0.00     0.131 A 
ATOM     64  H   UNL     1     -49.496  28.502  25.276  1.00  0.00     0.070 H 
ATOM     65  C   UNL     1     -49.391  28.354  21.552  1.00  0.00     0.120 A 
ATOM     66  N   UNL     1     -50.058  27.380  22.179  1.00  0.00    -0.219 NA
ATOM     67  H   UNL     1     -49.375  28.318  20.468  1.00  0.00     0.106 H 
BRANCH  63  68
ATOM     68  N   UNL     1     -50.761  26.434  24.168  1.00  0.00    -0.366 N 
ATOM     69  H   UNL     1     -50.290  25.585  23.854  1.00  0.00     0.162 HD
BRANCH  68  70
ATOM     70  C   UNL     1     -50.722  26.520  25.627  1.00  0.00     0.041 C 
ATOM     71  H   UNL     1     -50.969  27.549  25.921  1.00  0.00     0.054 H 
ATOM     72  H   UNL     1     -51.481  25.881  26.097  1.00  0.00     0.054 H 
BRANCH  70  73
ATOM     73  C   UNL     1     -49.342  26.221  26.174  1.00  0.00    -0.029 A 
ATOM     74  C   UNL     1     -48.742  24.967  25.983  1.00  0.00    -0.057 A 
ATOM     75  C   UNL     1     -48.599  27.231  26.804  1.00  0.00    -0.057 A 
ATOM     76  C   UNL     1     -47.434  24.727  26.408  1.00  0.00    -0.062 A 
ATOM     77  H   UNL     1     -49.295  24.171  25.485  1.00  0.00     0.063 H 
ATOM     78  C   UNL     1     -47.289  26.990  27.231  1.00  0.00    -0.062 A 
ATOM     79  H   UNL     1     -49.026  28.221  26.952  1.00  0.00     0.063 H 
ATOM     80  C   UNL     1     -46.706  25.740  27.029  1.00  0.00    -0.062 A 
ATOM     81  H   UNL     1     -46.979  23.753  26.243  1.00  0.00     0.062 H 
ATOM     82  H   UNL     1     -46.720  27.784  27.710  1.00  0.00     0.062 H 
ATOM     83  H   UNL     1     -45.684  25.557  27.351  1.00  0.00     0.062 H 
ENDBRANCH  70  73
ENDBRANCH  68  70
ENDBRANCH  63  68
ENDBRANCH  50  60
ENDBRANCH   1  44
TORSDOF 13
ENDMDL
MODEL 4
REMARK VINA RESULT:      -9.9      1.860      2.738
REMARK SMILES CC1(C)CCN(Cc2ccc(C(=O)NC[C@]3(O)CCCN(c4cc(NCc5ccccc5)ncn4)C3)c(O)c2)CC1
REMARK SMILES IDX 15 1 14 4 12 5 13 6 11 8 8 9 9 10 39 11 10 12 37 14 7 17
REMARK SMILES IDX 6 20 2 21 4 22 41 23 5 24 40 27 1 34 3 38 38 42 16 44 18 45
REMARK SMILES IDX 36 46 19 47 21 50 20 53 17 58 22 60 23 61 35 62 24 63 34 65
REMARK SMILES IDX 33 66 25 68 26 70 27 73 28 74 32 75 29 76 31 78 30 80
REMARK H PARENT 15 2 15 3 14 7 9 13 39 15 10 16 7 18 7 19 4 25 4 26 41 28
REMARK H PARENT 41 29 5 30 5 31 40 32 40 33 1 35 1 36 1 37 3 39 3 40 3 41
REMARK H PARENT 38 43 18 48 18 49 36 51 36 52 19 54 19 55 20 56 20 57 17 59
REMARK H PARENT 23 64 34 67 25 69 26 71 26 72 28 77 32 79 29 81 31 82 30 83
REMARK Flexibility Score: inf
ROOT
ATOM      1  C   UNL     1     -47.429  36.103  26.648  1.00  0.00     0.048 C 
ATOM      2  H   UNL     1     -47.421  36.899  25.894  1.00  0.00     0.052 H 
ATOM      3  H   UNL     1     -48.442  36.080  27.066  1.00  0.00     0.052 H 
ENDROOT
BRANCH   1   4
ATOM      4  N   UNL     1     -47.247  34.821  25.992  1.00  0.00    -0.349 N 
ATOM      5  C   UNL     1     -48.097  33.755  26.169  1.00  0.00     0.255 C 
ATOM      6  O   UNL     1     -48.943  33.710  27.055  1.00  0.00    -0.269 OA
ATOM      7  H   UNL     1     -46.643  34.785  25.175  1.00  0.00     0.163 HD
BRANCH   5   8
ATOM      8  C   UNL     1     -47.953  32.627  25.200  1.00  0.00     0.081 A 
ATOM      9  C   UNL     1     -47.841  30.516  23.331  1.00  0.00    -0.030 A 
ATOM     10  C   UNL     1     -49.076  31.028  23.749  1.00  0.00    -0.057 A 
ATOM     11  C   UNL     1     -46.662  31.084  23.839  1.00  0.00    -0.015 A 
ATOM     12  C   UNL     1     -49.130  32.076  24.672  1.00  0.00    -0.045 A 
ATOM     13  H   UNL     1     -50.004  30.618  23.359  1.00  0.00     0.063 H 
ATOM     14  C   UNL     1     -46.717  32.122  24.770  1.00  0.00     0.128 A 
ATOM     15  H   UNL     1     -45.708  30.691  23.499  1.00  0.00     0.067 H 
ATOM     16  H   UNL     1     -50.099  32.465  24.982  1.00  0.00     0.063 H 
BRANCH   9  17
ATOM     17  C   UNL     1     -47.772  29.395  22.313  1.00  0.00     0.023 C 
ATOM     18  H   UNL     1     -48.574  29.498  21.570  1.00  0.00     0.048 H 
ATOM     19  H   UNL     1     -46.826  29.537  21.773  1.00  0.00     0.048 H 
BRANCH  17  20
ATOM     20  N   UNL     1     -47.806  28.052  22.920  1.00  0.00    -0.299 NA
ATOM     21  C   UNL     1     -48.583  26.968  25.650  1.00  0.00    -0.033 C 
ATOM     22  C   UNL     1     -49.509  27.824  24.752  1.00  0.00    -0.035 C 
ATOM     23  C   UNL     1     -47.203  26.777  24.974  1.00  0.00    -0.035 C 
ATOM     24  C   UNL     1     -49.177  27.651  23.269  1.00  0.00    -0.001 C 
ATOM     25  H   UNL     1     -50.560  27.565  24.927  1.00  0.00     0.029 H 
ATOM     26  H   UNL     1     -49.416  28.889  25.005  1.00  0.00     0.029 H 
ATOM     27  C   UNL     1     -46.864  27.948  24.050  1.00  0.00    -0.001 C 
ATOM     28  H   UNL     1     -46.416  26.664  25.730  1.00  0.00     0.029 H 
ATOM     29  H   UNL     1     -47.187  25.852  24.383  1.00  0.00     0.029 H 
ATOM     30  H   UNL     1     -49.921  28.183  22.664  1.00  0.00     0.043 H 
ATOM     31  H   UNL     1     -49.294  26.593  23.000  1.00  0.00     0.043 H 
ATOM     32  H   UNL     1     -45.850  27.800  23.661  1.00  0.00     0.043 H 
ATOM     33  H   UNL     1     -46.850  28.872  24.643  1.00  0.00     0.043 H 
BRANCH  21  34
ATOM     34  C   UNL     1     -49.213  25.586  25.901  1.00  0.00    -0.060 C 
ATOM     35  H   UNL     1     -48.518  24.921  26.426  1.00  0.00     0.024 H 
ATOM     36  H   UNL     1     -49.487  25.101  24.957  1.00  0.00     0.024 H 
ATOM     37  H   UNL     1     -50.119  25.665  26.511  1.00  0.00     0.024 H 
ENDBRANCH  21  34
BRANCH  21  38
ATOM     38  C   UNL     1     -48.416  27.673  27.010  1.00  0.00    -0.060 C 
ATOM     39  H   UNL     1     -47.779  28.560  26.920  1.00  0.00     0.024 H 
ATOM     40  H   UNL     1     -49.381  27.997  27.412  1.00  0.00     0.024 H 
ATOM     41  H   UNL     1     -47.954  27.004  27.745  1.00  0.00     0.024 H 
ENDBRANCH  21  38
ENDBRANCH  17  20
ENDBRANCH   9  17
BRANCH  14  42
ATOM     42  O   UNL     1     -45.540  32.646  25.243  1.00  0.00    -0.507 OA
ATOM     43  H   UNL     1     -45.245  33.354  24.637  1.00  0.00     0.293 HD
ENDBRANCH  14  42
ENDBRANCH   5   8
ENDBRANCH   1   4
BRANCH   1  44
ATOM     44  C   UNL     1     -46.402  36.402  27.773  1.00  0.00     0.099 C 
ATOM     45  C   UNL     1     -46.867  35.892  29.149  1.00  0.00    -0.019 C 
ATOM     46  C   UNL     1     -46.016  37.899  27.838  1.00  0.00     0.050 C 
ATOM     47  C   UNL     1     -46.404  36.782  30.305  1.00  0.00    -0.033 C 
ATOM     48  H   UNL     1     -46.488  34.874  29.314  1.00  0.00     0.030 H 
ATOM     49  H   UNL     1     -47.958  35.827  29.203  1.00  0.00     0.030 H 
ATOM     50  N   UNL     1     -44.923  38.087  28.806  1.00  0.00    -0.353 N 
ATOM     51  H   UNL     1     -46.867  38.530  28.119  1.00  0.00     0.052 H 
ATOM     52  H   UNL     1     -45.669  38.187  26.838  1.00  0.00     0.052 H 
ATOM     53  C   UNL     1     -45.014  37.379  30.094  1.00  0.00     0.019 C 
ATOM     54  H   UNL     1     -46.430  36.214  31.241  1.00  0.00     0.029 H 
ATOM     55  H   UNL     1     -47.125  37.603  30.424  1.00  0.00     0.029 H 
ATOM     56  H   UNL     1     -44.258  36.584  30.118  1.00  0.00     0.049 H 
ATOM     57  H   UNL     1     -44.817  38.045  30.944  1.00  0.00     0.049 H 
BRANCH  44  58
ATOM     58  O   UNL     1     -45.195  35.668  27.438  1.00  0.00    -0.386 OA
ATOM     59  H   UNL     1     -45.033  35.854  26.490  1.00  0.00     0.211 HD
ENDBRANCH  44  58
BRANCH  50  60
ATOM     60  C   UNL     1     -44.143  39.239  28.792  1.00  0.00     0.134 A 
ATOM     61  C   UNL     1     -44.196  40.165  27.762  1.00  0.00     0.023 A 
ATOM     62  N   UNL     1     -43.290  39.430  29.815  1.00  0.00    -0.219 NA
ATOM     63  C   UNL     1     -43.363  41.267  27.823  1.00  0.00     0.131 A 
ATOM     64  H   UNL     1     -44.886  40.071  26.938  1.00  0.00     0.070 H 
ATOM     65  C   UNL     1     -42.536  40.536  29.794  1.00  0.00     0.120 A 
ATOM     66  N   UNL     1     -42.528  41.476  28.843  1.00  0.00    -0.219 NA
ATOM     67  H   UNL     1     -41.863  40.682  30.633  1.00  0.00     0.106 H 
BRANCH  63  68
ATOM     68  N   UNL     1     -43.362  42.254  26.832  1.00  0.00    -0.366 N 
ATOM     69  H   UNL     1     -42.427  42.177  26.431  1.00  0.00     0.162 HD
BRANCH  68  70
ATOM     70  C   UNL     1     -44.372  42.065  25.792  1.00  0.00     0.041 C 
ATOM     71  H   UNL     1     -43.942  42.373  24.830  1.00  0.00     0.054 H 
ATOM     72  H   UNL     1     -44.648  41.009  25.676  1.00  0.00     0.054 H 
BRANCH  70  73
ATOM     73  C   UNL     1     -45.594  42.926  26.029  1.00  0.00    -0.029 A 
ATOM     74  C   UNL     1     -46.866  42.354  26.186  1.00  0.00    -0.057 A 
ATOM     75  C   UNL     1     -45.460  44.314  26.188  1.00  0.00    -0.057 A 
ATOM     76  C   UNL     1     -47.974  43.145  26.496  1.00  0.00    -0.062 A 
ATOM     77  H   UNL     1     -46.993  41.277  26.079  1.00  0.00     0.063 H 
ATOM     78  C   UNL     1     -46.570  45.106  26.498  1.00  0.00    -0.062 A 
ATOM     79  H   UNL     1     -44.485  44.789  26.091  1.00  0.00     0.063 H 
ATOM     80  C   UNL     1     -47.825  44.521  26.655  1.00  0.00    -0.062 A 
ATOM     81  H   UNL     1     -48.951  42.685  26.625  1.00  0.00     0.062 H 
ATOM     82  H   UNL     1     -46.451  46.180  26.628  1.00  0.00     0.062 H 
ATOM     83  H   UNL     1     -48.686  45.136  26.907  1.00  0.00     0.062 H 
ENDBRANCH  70  73
ENDBRANCH  68  70
ENDBRANCH  63  68
ENDBRANCH  50  60
ENDBRANCH   1  44
TORSDOF 13
ENDMDL
MODEL 5
REMARK VINA RESULT:      -9.4      2.556     12.214
REMARK SMILES CC1(C)CCN(Cc2ccc(C(=O)NC[C@]3(O)CCCN(c4cc(NCc5ccccc5)ncn4)C3)c(O)c2)CC1
REMARK SMILES IDX 15 1 14 4 12 5 13 6 11 8 8 9 9 10 39 11 10 12 37 14 7 17
REMARK SMILES IDX 6 20 2 21 4 22 41 23 5 24 40 27 1 34 3 38 38 42 16 44 18 45
REMARK SMILES IDX 36 46 19 47 21 50 20 53 17 58 22 60 23 61 35 62 24 63 34 65
REMARK SMILES IDX 33 66 25 68 26 70 27 73 28 74 32 75 29 76 31 78 30 80
REMARK H PARENT 15 2 15 3 14 7 9 13 39 15 10 16 7 18 7 19 4 25 4 26 41 28
REMARK H PARENT 41 29 5 30 5 31 40 32 40 33 1 35 1 36 1 37 3 39 3 40 3 41
REMARK H PARENT 38 43 18 48 18 49 36 51 36 52 19 54 19 55 20 56 20 57 17 59
REMARK H PARENT 23 64 34 67 25 69 26 71 26 72 28 77 32 79 29 81 31 82 30 83
REMARK Flexibility Score: inf
ROOT
ATOM      1  C   UNL     1     -45.523  37.735  28.260  1.00  0.00     0.048 C 
ATOM      2  H   UNL     1     -44.655  37.067  28.244  1.00  0.00     0.052 H 
ATOM      3  H   UNL     1     -45.737  37.943  29.316  1.00  0.00     0.052 H 
ENDROOT
BRANCH   1   4
ATOM      4  N   UNL     1     -45.154  39.012  27.678  1.00  0.00    -0.349 N 
ATOM      5  C   UNL     1     -44.188  39.833  28.209  1.00  0.00     0.255 C 
ATOM      6  O   UNL     1     -43.714  39.677  29.329  1.00  0.00    -0.269 OA
ATOM      7  H   UNL     1     -45.411  39.187  26.710  1.00  0.00     0.163 HD
BRANCH   5   8
ATOM      8  C   UNL     1     -43.713  40.948  27.334  1.00  0.00     0.081 A 
ATOM      9  C   UNL     1     -42.948  43.029  25.588  1.00  0.00    -0.030 A 
ATOM     10  C   UNL     1     -43.947  42.120  25.215  1.00  0.00    -0.057 A 
ATOM     11  C   UNL     1     -42.351  42.901  26.851  1.00  0.00    -0.015 A 
ATOM     12  C   UNL     1     -44.328  41.092  26.082  1.00  0.00    -0.045 A 
ATOM     13  H   UNL     1     -44.439  42.205  24.248  1.00  0.00     0.063 H 
ATOM     14  C   UNL     1     -42.722  41.866  27.713  1.00  0.00     0.128 A 
ATOM     15  H   UNL     1     -41.587  43.618  27.140  1.00  0.00     0.067 H 
ATOM     16  H   UNL     1     -45.109  40.398  25.777  1.00  0.00     0.063 H 
BRANCH   9  17
ATOM     17  C   UNL     1     -42.546  44.160  24.662  1.00  0.00     0.023 C 
ATOM     18  H   UNL     1     -41.539  44.522  24.911  1.00  0.00     0.048 H 
ATOM     19  H   UNL     1     -42.480  43.717  23.659  1.00  0.00     0.048 H 
BRANCH  17  20
ATOM     20  N   UNL     1     -43.505  45.279  24.655  1.00  0.00    -0.299 NA
ATOM     21  C   UNL     1     -46.428  45.583  25.428  1.00  0.00    -0.033 C 
ATOM     22  C   UNL     1     -45.324  45.049  26.373  1.00  0.00    -0.035 C 
ATOM     23  C   UNL     1     -45.837  45.901  24.034  1.00  0.00    -0.035 C 
ATOM     24  C   UNL     1     -43.949  45.619  26.015  1.00  0.00    -0.001 C 
ATOM     25  H   UNL     1     -45.561  45.290  27.417  1.00  0.00     0.029 H 
ATOM     26  H   UNL     1     -45.268  43.953  26.322  1.00  0.00     0.029 H 
ATOM     27  C   UNL     1     -44.622  45.024  23.725  1.00  0.00    -0.001 C 
ATOM     28  H   UNL     1     -46.596  45.767  23.253  1.00  0.00     0.029 H 
ATOM     29  H   UNL     1     -45.529  46.954  23.976  1.00  0.00     0.029 H 
ATOM     30  H   UNL     1     -43.217  45.307  26.770  1.00  0.00     0.043 H 
ATOM     31  H   UNL     1     -43.988  46.713  26.090  1.00  0.00     0.043 H 
ATOM     32  H   UNL     1     -44.293  45.236  22.701  1.00  0.00     0.043 H 
ATOM     33  H   UNL     1     -44.932  43.971  23.753  1.00  0.00     0.043 H 
BRANCH  21  34
ATOM     34  C   UNL     1     -47.055  46.863  26.011  1.00  0.00    -0.060 C 
ATOM     35  H   UNL     1     -47.152  46.797  27.100  1.00  0.00     0.024 H 
ATOM     36  H   UNL     1     -48.055  47.035  25.597  1.00  0.00     0.024 H 
ATOM     37  H   UNL     1     -46.444  47.744  25.786  1.00  0.00     0.024 H 
ENDBRANCH  21  34
BRANCH  21  38
ATOM     38  C   UNL     1     -47.535  44.519  25.306  1.00  0.00    -0.060 C 
ATOM     39  H   UNL     1     -47.569  44.098  24.295  1.00  0.00     0.024 H 
ATOM     40  H   UNL     1     -47.373  43.692  26.005  1.00  0.00     0.024 H 
ATOM     41  H   UNL     1     -48.520  44.949  25.520  1.00  0.00     0.024 H 
ENDBRANCH  21  38
ENDBRANCH  17  20
ENDBRANCH   9  17
BRANCH  14  42
ATOM     42  O   UNL     1     -42.110  41.777  28.937  1.00  0.00    -0.507 OA
ATOM     43  H   UNL     1     -42.782  41.912  29.635  1.00  0.00     0.293 HD
ENDBRANCH  14  42
ENDBRANCH   5   8
ENDBRANCH   1   4
BRANCH   1  44
ATOM     44  C   UNL     1     -46.752  37.056  27.599  1.00  0.00     0.099 C 
ATOM     45  C   UNL     1     -48.077  37.435  28.283  1.00  0.00    -0.019 C 
ATOM     46  C   UNL     1     -46.597  35.520  27.501  1.00  0.00     0.050 C 
ATOM     47  C   UNL     1     -49.104  36.299  28.269  1.00  0.00    -0.033 C 
ATOM     48  H   UNL     1     -48.514  38.311  27.786  1.00  0.00     0.030 H 
ATOM     49  H   UNL     1     -47.919  37.719  29.329  1.00  0.00     0.030 H 
ATOM     50  N   UNL     1     -47.711  34.959  26.720  1.00  0.00    -0.353 N 
ATOM     51  H   UNL     1     -46.568  35.048  28.489  1.00  0.00     0.052 H 
ATOM     52  H   UNL     1     -45.652  35.323  26.980  1.00  0.00     0.052 H 
ATOM     53  C   UNL     1     -49.067  35.463  26.992  1.00  0.00     0.019 C 
ATOM     54  H   UNL     1     -50.109  36.709  28.420  1.00  0.00     0.029 H 
ATOM     55  H   UNL     1     -48.909  35.641  29.127  1.00  0.00     0.029 H 
ATOM     56  H   UNL     1     -49.402  36.067  26.139  1.00  0.00     0.049 H 
ATOM     57  H   UNL     1     -49.790  34.648  27.120  1.00  0.00     0.049 H 
BRANCH  44  58
ATOM     58  O   UNL     1     -46.821  37.562  26.239  1.00  0.00    -0.386 OA
ATOM     59  H   UNL     1     -45.891  37.656  25.949  1.00  0.00     0.211 HD
ENDBRANCH  44  58
BRANCH  50  60
ATOM     60  C   UNL     1     -47.629  33.684  26.167  1.00  0.00     0.134 A 
ATOM     61  C   UNL     1     -46.637  33.321  25.269  1.00  0.00     0.023 A 
ATOM     62  N   UNL     1     -48.575  32.791  26.511  1.00  0.00    -0.219 NA
ATOM     63  C   UNL     1     -46.653  32.038  24.754  1.00  0.00     0.131 A 
ATOM     64  H   UNL     1     -45.840  33.992  24.988  1.00  0.00     0.070 H 
ATOM     65  C   UNL     1     -48.496  31.568  25.972  1.00  0.00     0.120 A 
ATOM     66  N   UNL     1     -47.574  31.138  25.104  1.00  0.00    -0.219 NA
ATOM     67  H   UNL     1     -49.258  30.855  26.270  1.00  0.00     0.106 H 
BRANCH  63  68
ATOM     68  N   UNL     1     -45.683  31.587  23.851  1.00  0.00    -0.366 N 
ATOM     69  H   UNL     1     -44.883  31.391  24.452  1.00  0.00     0.162 HD
BRANCH  68  70
ATOM     70  C   UNL     1     -46.063  30.384  23.111  1.00  0.00     0.041 C 
ATOM     71  H   UNL     1     -45.149  29.834  22.850  1.00  0.00     0.054 H 
ATOM     72  H   UNL     1     -46.664  29.699  23.724  1.00  0.00     0.054 H 
BRANCH  70  73
ATOM     73  C   UNL     1     -46.767  30.718  21.814  1.00  0.00    -0.029 A 
ATOM     74  C   UNL     1     -48.118  30.391  21.616  1.00  0.00    -0.057 A 
ATOM     75  C   UNL     1     -46.102  31.448  20.817  1.00  0.00    -0.057 A 
ATOM     76  C   UNL     1     -48.786  30.784  20.455  1.00  0.00    -0.062 A 
ATOM     77  H   UNL     1     -48.659  29.835  22.381  1.00  0.00     0.063 H 
ATOM     78  C   UNL     1     -46.772  31.840  19.654  1.00  0.00    -0.062 A 
ATOM     79  H   UNL     1     -45.059  31.734  20.945  1.00  0.00     0.063 H 
ATOM     80  C   UNL     1     -48.114  31.511  19.476  1.00  0.00    -0.062 A 
ATOM     81  H   UNL     1     -49.836  30.532  20.321  1.00  0.00     0.062 H 
ATOM     82  H   UNL     1     -46.247  32.413  18.893  1.00  0.00     0.062 H 
ATOM     83  H   UNL     1     -48.637  31.826  18.576  1.00  0.00     0.062 H 
ENDBRANCH  70  73
ENDBRANCH  68  70
ENDBRANCH  63  68
ENDBRANCH  50  60
ENDBRANCH   1  44
TORSDOF 13
ENDMDL
MODEL 6
REMARK VINA RESULT:      -9.4      2.057      3.174
REMARK SMILES CC1(C)CCN(Cc2ccc(C(=O)NC[C@]3(O)CCCN(c4cc(NCc5ccccc5)ncn4)C3)c(O)c2)CC1
REMARK SMILES IDX 15 1 14 4 12 5 13 6 11 8 8 9 9 10 39 11 10 12 37 14 7 17
REMARK SMILES IDX 6 20 2 21 4 22 41 23 5 24 40 27 1 34 3 38 38 42 16 44 18 45
REMARK SMILES IDX 36 46 19 47 21 50 20 53 17 58 22 60 23 61 35 62 24 63 34 65
REMARK SMILES IDX 33 66 25 68 26 70 27 73 28 74 32 75 29 76 31 78 30 80
REMARK H PARENT 15 2 15 3 14 7 9 13 39 15 10 16 7 18 7 19 4 25 4 26 41 28
REMARK H PARENT 41 29 5 30 5 31 40 32 40 33 1 35 1 36 1 37 3 39 3 40 3 41
REMARK H PARENT 38 43 18 48 18 49 36 51 36 52 19 54 19 55 20 56 20 57 17 59
REMARK H PARENT 23 64 34 67 25 69 26 71 26 72 28 77 32 79 29 81 31 82 30 83
REMARK Flexibility Score: inf
ROOT
ATOM      1  C   UNL     1     -48.248  35.382  27.613  1.00  0.00     0.048 C 
ATOM      2  H   UNL     1     -49.236  35.856  27.643  1.00  0.00     0.052 H 
ATOM      3  H   UNL     1     -48.134  34.839  28.560  1.00  0.00     0.052 H 
ENDROOT
BRANCH   1   4
ATOM      4  N   UNL     1     -48.237  34.366  26.577  1.00  0.00    -0.349 N 
ATOM      5  C   UNL     1     -47.376  33.294  26.580  1.00  0.00     0.255 C 
ATOM      6  O   UNL     1     -46.404  33.215  27.321  1.00  0.00    -0.269 OA
ATOM      7  H   UNL     1     -49.056  34.285  25.979  1.00  0.00     0.163 HD
BRANCH   5   8
ATOM      8  C   UNL     1     -47.694  32.189  25.625  1.00  0.00     0.081 A 
ATOM      9  C   UNL     1     -48.430  30.073  23.909  1.00  0.00    -0.030 A 
ATOM     10  C   UNL     1     -49.070  30.241  25.144  1.00  0.00    -0.057 A 
ATOM     11  C   UNL     1     -47.433  30.985  23.531  1.00  0.00    -0.015 A 
ATOM     12  C   UNL     1     -48.708  31.291  25.991  1.00  0.00    -0.045 A 
ATOM     13  H   UNL     1     -49.857  29.558  25.455  1.00  0.00     0.063 H 
ATOM     14  C   UNL     1     -47.062  32.028  24.383  1.00  0.00     0.128 A 
ATOM     15  H   UNL     1     -46.951  30.858  22.566  1.00  0.00     0.067 H 
ATOM     16  H   UNL     1     -49.219  31.409  26.945  1.00  0.00     0.063 H 
BRANCH   9  17
ATOM     17  C   UNL     1     -48.833  28.950  22.974  1.00  0.00     0.023 C 
ATOM     18  H   UNL     1     -49.925  28.906  22.872  1.00  0.00     0.048 H 
ATOM     19  H   UNL     1     -48.437  29.225  21.987  1.00  0.00     0.048 H 
BRANCH  17  20
ATOM     20  N   UNL     1     -48.303  27.635  23.378  1.00  0.00    -0.299 NA
ATOM     21  C   UNL     1     -47.598  26.349  26.040  1.00  0.00    -0.033 C 
ATOM     22  C   UNL     1     -48.983  26.952  25.698  1.00  0.00    -0.035 C 
ATOM     23  C   UNL     1     -46.624  26.529  24.850  1.00  0.00    -0.035 C 
ATOM     24  C   UNL     1     -49.272  26.890  24.197  1.00  0.00    -0.001 C 
ATOM     25  H   UNL     1     -49.776  26.429  26.247  1.00  0.00     0.029 H 
ATOM     26  H   UNL     1     -49.038  28.001  26.018  1.00  0.00     0.029 H 
ATOM     27  C   UNL     1     -46.979  27.761  24.015  1.00  0.00    -0.001 C 
ATOM     28  H   UNL     1     -45.590  26.611  25.208  1.00  0.00     0.029 H 
ATOM     29  H   UNL     1     -46.647  25.648  24.195  1.00  0.00     0.029 H 
ATOM     30  H   UNL     1     -50.300  27.222  24.009  1.00  0.00     0.043 H 
ATOM     31  H   UNL     1     -49.247  25.842  23.873  1.00  0.00     0.043 H 
ATOM     32  H   UNL     1     -46.216  27.883  23.237  1.00  0.00     0.043 H 
ATOM     33  H   UNL     1     -46.929  28.649  24.659  1.00  0.00     0.043 H 
BRANCH  21  34
ATOM     34  C   UNL     1     -47.733  24.848  26.354  1.00  0.00    -0.060 C 
ATOM     35  H   UNL     1     -48.506  24.380  25.735  1.00  0.00     0.024 H 
ATOM     36  H   UNL     1     -48.006  24.688  27.403  1.00  0.00     0.024 H 
ATOM     37  H   UNL     1     -46.794  24.315  26.168  1.00  0.00     0.024 H 
ENDBRANCH  21  34
BRANCH  21  38
ATOM     38  C   UNL     1     -47.044  27.054  27.292  1.00  0.00    -0.060 C 
ATOM     39  H   UNL     1     -47.473  28.056  27.404  1.00  0.00     0.024 H 
ATOM     40  H   UNL     1     -47.274  26.491  28.202  1.00  0.00     0.024 H 
ATOM     41  H   UNL     1     -45.955  27.163  27.232  1.00  0.00     0.024 H 
ENDBRANCH  21  38
ENDBRANCH  17  20
ENDBRANCH   9  17
BRANCH  14  42
ATOM     42  O   UNL     1     -46.081  32.895  23.974  1.00  0.00    -0.507 OA
ATOM     43  H   UNL     1     -46.074  32.924  22.997  1.00  0.00     0.293 HD
ENDBRANCH  14  42
ENDBRANCH   5   8
ENDBRANCH   1   4
BRANCH   1  44
ATOM     44  C   UNL     1     -47.130  36.450  27.482  1.00  0.00     0.099 C 
ATOM     45  C   UNL     1     -45.956  36.199  28.445  1.00  0.00    -0.019 C 
ATOM     46  C   UNL     1     -47.670  37.893  27.628  1.00  0.00     0.050 C 
ATOM     47  C   UNL     1     -45.306  37.492  28.945  1.00  0.00    -0.033 C 
ATOM     48  H   UNL     1     -45.191  35.590  27.947  1.00  0.00     0.030 H 
ATOM     49  H   UNL     1     -46.277  35.633  29.325  1.00  0.00     0.030 H 
ATOM     50  N   UNL     1     -46.598  38.855  27.328  1.00  0.00    -0.353 N 
ATOM     51  H   UNL     1     -48.063  38.082  28.633  1.00  0.00     0.052 H 
ATOM     52  H   UNL     1     -48.479  38.009  26.897  1.00  0.00     0.052 H 
ATOM     53  C   UNL     1     -45.262  38.597  27.891  1.00  0.00     0.019 C 
ATOM     54  H   UNL     1     -44.294  37.279  29.307  1.00  0.00     0.029 H 
ATOM     55  H   UNL     1     -45.873  37.855  29.813  1.00  0.00     0.029 H 
ATOM     56  H   UNL     1     -44.581  38.313  27.079  1.00  0.00     0.049 H 
ATOM     57  H   UNL     1     -44.841  39.487  28.376  1.00  0.00     0.049 H 
BRANCH  44  58
ATOM     58  O   UNL     1     -46.601  36.330  26.134  1.00  0.00    -0.386 OA
ATOM     59  H   UNL     1     -45.864  36.973  26.087  1.00  0.00     0.211 HD
ENDBRANCH  44  58
BRANCH  50  60
ATOM     60  C   UNL     1     -46.890  40.181  27.022  1.00  0.00     0.134 A 
ATOM     61  C   UNL     1     -45.979  41.024  26.405  1.00  0.00     0.023 A 
ATOM     62  N   UNL     1     -48.100  40.652  27.372  1.00  0.00    -0.219 NA
ATOM     63  C   UNL     1     -46.351  42.333  26.165  1.00  0.00     0.131 A 
ATOM     64  H   UNL     1     -45.008  40.683  26.078  1.00  0.00     0.070 H 
ATOM     65  C   UNL     1     -48.375  41.930  27.082  1.00  0.00     0.120 A 
ATOM     66  N   UNL     1     -47.557  42.805  26.489  1.00  0.00    -0.219 NA
ATOM     67  H   UNL     1     -49.360  42.290  27.359  1.00  0.00     0.106 H 
BRANCH  63  68
ATOM     68  N   UNL     1     -45.497  43.247  25.537  1.00  0.00    -0.366 N 
ATOM     69  H   UNL     1     -46.141  43.931  25.141  1.00  0.00     0.162 HD
BRANCH  68  70
ATOM     70  C   UNL     1     -44.553  43.907  26.438  1.00  0.00     0.041 C 
ATOM     71  H   UNL     1     -44.309  44.893  26.023  1.00  0.00     0.054 H 
ATOM     72  H   UNL     1     -44.993  44.095  27.426  1.00  0.00     0.054 H 
BRANCH  70  73
ATOM     73  C   UNL     1     -43.254  43.139  26.556  1.00  0.00    -0.029 A 
ATOM     74  C   UNL     1     -42.241  43.274  25.593  1.00  0.00    -0.057 A 
ATOM     75  C   UNL     1     -43.002  42.347  27.686  1.00  0.00    -0.057 A 
ATOM     76  C   UNL     1     -41.010  42.636  25.755  1.00  0.00    -0.062 A 
ATOM     77  H   UNL     1     -42.409  43.894  24.712  1.00  0.00     0.063 H 
ATOM     78  C   UNL     1     -41.769  41.707  27.847  1.00  0.00    -0.062 A 
ATOM     79  H   UNL     1     -43.758  42.234  28.461  1.00  0.00     0.063 H 
ATOM     80  C   UNL     1     -40.773  41.856  26.884  1.00  0.00    -0.062 A 
ATOM     81  H   UNL     1     -40.232  42.759  25.005  1.00  0.00     0.062 H 
ATOM     82  H   UNL     1     -41.583  41.103  28.732  1.00  0.00     0.062 H 
ATOM     83  H   UNL     1     -39.810  41.367  27.015  1.00  0.00     0.062 H 
ENDBRANCH  70  73
ENDBRANCH  68  70
ENDBRANCH  63  68
ENDBRANCH  50  60
ENDBRANCH   1  44
TORSDOF 13
ENDMDL
MODEL 7
REMARK VINA RESULT:      -9.3      1.856      3.016
REMARK SMILES CC1(C)CCN(Cc2ccc(C(=O)NC[C@]3(O)CCCN(c4cc(NCc5ccccc5)ncn4)C3)c(O)c2)CC1
REMARK SMILES IDX 15 1 14 4 12 5 13 6 11 8 8 9 9 10 39 11 10 12 37 14 7 17
REMARK SMILES IDX 6 20 2 21 4 22 41 23 5 24 40 27 1 34 3 38 38 42 16 44 18 45
REMARK SMILES IDX 36 46 19 47 21 50 20 53 17 58 22 60 23 61 35 62 24 63 34 65
REMARK SMILES IDX 33 66 25 68 26 70 27 73 28 74 32 75 29 76 31 78 30 80
REMARK H PARENT 15 2 15 3 14 7 9 13 39 15 10 16 7 18 7 19 4 25 4 26 41 28
REMARK H PARENT 41 29 5 30 5 31 40 32 40 33 1 35 1 36 1 37 3 39 3 40 3 41
REMARK H PARENT 38 43 18 48 18 49 36 51 36 52 19 54 19 55 20 56 20 57 17 59
REMARK H PARENT 23 64 34 67 25 69 26 71 26 72 28 77 32 79 29 81 31 82 30 83
REMARK Flexibility Score: inf
ROOT
ATOM      1  C   UNL     1     -45.818  35.950  28.112  1.00  0.00     0.048 C 
ATOM      2  H   UNL     1     -45.743  35.377  29.043  1.00  0.00     0.052 H 
ATOM      3  H   UNL     1     -44.800  36.272  27.861  1.00  0.00     0.052 H 
ENDROOT
BRANCH   1   4
ATOM      4  N   UNL     1     -46.225  35.065  27.037  1.00  0.00    -0.349 N 
ATOM      5  C   UNL     1     -46.424  33.714  27.205  1.00  0.00     0.255 C 
ATOM      6  O   UNL     1     -46.064  33.101  28.204  1.00  0.00    -0.269 OA
ATOM      7  H   UNL     1     -46.640  35.480  26.207  1.00  0.00     0.163 HD
BRANCH   5   8
ATOM      8  C   UNL     1     -47.131  33.007  26.095  1.00  0.00     0.081 A 
ATOM      9  C   UNL     1     -48.328  31.587  23.970  1.00  0.00    -0.030 A 
ATOM     10  C   UNL     1     -46.937  31.577  24.136  1.00  0.00    -0.057 A 
ATOM     11  C   UNL     1     -49.116  32.296  24.889  1.00  0.00    -0.015 A 
ATOM     12  C   UNL     1     -46.346  32.276  25.192  1.00  0.00    -0.045 A 
ATOM     13  H   UNL     1     -46.302  31.023  23.448  1.00  0.00     0.063 H 
ATOM     14  C   UNL     1     -48.525  33.005  25.937  1.00  0.00     0.128 A 
ATOM     15  H   UNL     1     -50.195  32.288  24.763  1.00  0.00     0.067 H 
ATOM     16  H   UNL     1     -45.263  32.254  25.308  1.00  0.00     0.063 H 
BRANCH   9  17
ATOM     17  C   UNL     1     -48.979  30.812  22.842  1.00  0.00     0.023 C 
ATOM     18  H   UNL     1     -49.705  31.441  22.311  1.00  0.00     0.048 H 
ATOM     19  H   UNL     1     -48.175  30.591  22.127  1.00  0.00     0.048 H 
BRANCH  17  20
ATOM     20  N   UNL     1     -49.614  29.558  23.284  1.00  0.00    -0.299 NA
ATOM     21  C   UNL     1     -48.763  27.259  25.081  1.00  0.00    -0.033 C 
ATOM     22  C   UNL     1     -48.782  28.746  25.512  1.00  0.00    -0.035 C 
ATOM     23  C   UNL     1     -49.204  27.121  23.604  1.00  0.00    -0.035 C 
ATOM     24  C   UNL     1     -49.832  29.546  24.739  1.00  0.00    -0.001 C 
ATOM     25  H   UNL     1     -48.972  28.833  26.588  1.00  0.00     0.029 H 
ATOM     26  H   UNL     1     -47.800  29.209  25.342  1.00  0.00     0.029 H 
ATOM     27  C   UNL     1     -48.872  28.378  22.798  1.00  0.00    -0.001 C 
ATOM     28  H   UNL     1     -48.726  26.249  23.139  1.00  0.00     0.029 H 
ATOM     29  H   UNL     1     -50.285  26.941  23.537  1.00  0.00     0.029 H 
ATOM     30  H   UNL     1     -49.891  30.562  25.147  1.00  0.00     0.043 H 
ATOM     31  H   UNL     1     -50.820  29.107  24.925  1.00  0.00     0.043 H 
ATOM     32  H   UNL     1     -49.133  28.197  21.749  1.00  0.00     0.043 H 
ATOM     33  H   UNL     1     -47.788  28.546  22.837  1.00  0.00     0.043 H 
BRANCH  21  34
ATOM     34  C   UNL     1     -49.717  26.436  25.967  1.00  0.00    -0.060 C 
ATOM     35  H   UNL     1     -49.182  25.635  26.489  1.00  0.00     0.024 H 
ATOM     36  H   UNL     1     -50.509  25.973  25.369  1.00  0.00     0.024 H 
ATOM     37  H   UNL     1     -50.196  27.063  26.727  1.00  0.00     0.024 H 
ENDBRANCH  21  34
BRANCH  21  38
ATOM     38  C   UNL     1     -47.338  26.704  25.266  1.00  0.00    -0.060 C 
ATOM     39  H   UNL     1     -46.716  26.913  24.388  1.00  0.00     0.024 H 
ATOM     40  H   UNL     1     -46.846  27.150  26.136  1.00  0.00     0.024 H 
ATOM     41  H   UNL     1     -47.355  25.618  25.411  1.00  0.00     0.024 H 
ENDBRANCH  21  38
ENDBRANCH  17  20
ENDBRANCH   9  17
BRANCH  14  42
ATOM     42  O   UNL     1     -49.334  33.687  26.810  1.00  0.00    -0.507 OA
ATOM     43  H   UNL     1     -49.067  34.627  26.816  1.00  0.00     0.293 HD
ENDBRANCH  14  42
ENDBRANCH   5   8
ENDBRANCH   1   4
BRANCH   1  44
ATOM     44  C   UNL     1     -46.729  37.192  28.304  1.00  0.00     0.099 C 
ATOM     45  C   UNL     1     -48.218  36.821  28.424  1.00  0.00    -0.019 C 
ATOM     46  C   UNL     1     -46.510  38.262  27.207  1.00  0.00     0.050 C 
ATOM     47  C   UNL     1     -49.148  37.877  27.820  1.00  0.00    -0.033 C 
ATOM     48  H   UNL     1     -48.482  36.682  29.481  1.00  0.00     0.030 H 
ATOM     49  H   UNL     1     -48.434  35.872  27.924  1.00  0.00     0.030 H 
ATOM     50  N   UNL     1     -47.275  39.474  27.539  1.00  0.00    -0.353 N 
ATOM     51  H   UNL     1     -46.808  37.899  26.217  1.00  0.00     0.052 H 
ATOM     52  H   UNL     1     -45.439  38.498  27.197  1.00  0.00     0.052 H 
ATOM     53  C   UNL     1     -48.655  39.309  28.023  1.00  0.00     0.019 C 
ATOM     54  H   UNL     1     -50.154  37.764  28.239  1.00  0.00     0.029 H 
ATOM     55  H   UNL     1     -49.241  37.686  26.742  1.00  0.00     0.029 H 
ATOM     56  H   UNL     1     -48.694  39.570  29.088  1.00  0.00     0.049 H 
ATOM     57  H   UNL     1     -49.357  39.968  27.497  1.00  0.00     0.049 H 
BRANCH  44  58
ATOM     58  O   UNL     1     -46.343  37.797  29.567  1.00  0.00    -0.386 OA
ATOM     59  H   UNL     1     -46.135  38.730  29.356  1.00  0.00     0.211 HD
ENDBRANCH  44  58
BRANCH  50  60
ATOM     60  C   UNL     1     -46.976  40.696  26.942  1.00  0.00     0.134 A 
ATOM     61  C   UNL     1     -45.769  40.941  26.306  1.00  0.00     0.023 A 
ATOM     62  N   UNL     1     -47.896  41.673  27.022  1.00  0.00    -0.219 NA
ATOM     63  C   UNL     1     -45.552  42.195  25.766  1.00  0.00     0.131 A 
ATOM     64  H   UNL     1     -45.014  40.179  26.190  1.00  0.00     0.070 H 
ATOM     65  C   UNL     1     -47.602  42.849  26.453  1.00  0.00     0.120 A 
ATOM     66  N   UNL     1     -46.467  43.165  25.821  1.00  0.00    -0.219 NA
ATOM     67  H   UNL     1     -48.361  43.622  26.514  1.00  0.00     0.106 H 
BRANCH  63  68
ATOM     68  N   UNL     1     -44.367  42.522  25.097  1.00  0.00    -0.366 N 
ATOM     69  H   UNL     1     -44.701  42.917  24.217  1.00  0.00     0.162 HD
BRANCH  68  70
ATOM     70  C   UNL     1     -43.529  43.493  25.798  1.00  0.00     0.041 C 
ATOM     71  H   UNL     1     -42.873  43.980  25.064  1.00  0.00     0.054 H 
ATOM     72  H   UNL     1     -44.124  44.297  26.251  1.00  0.00     0.054 H 
BRANCH  70  73
ATOM     73  C   UNL     1     -42.634  42.831  26.823  1.00  0.00    -0.029 A 
ATOM     74  C   UNL     1     -42.933  42.889  28.193  1.00  0.00    -0.057 A 
ATOM     75  C   UNL     1     -41.534  42.064  26.410  1.00  0.00    -0.057 A 
ATOM     76  C   UNL     1     -42.156  42.199  29.126  1.00  0.00    -0.062 A 
ATOM     77  H   UNL     1     -43.790  43.468  28.538  1.00  0.00     0.063 H 
ATOM     78  C   UNL     1     -40.755  41.374  27.344  1.00  0.00    -0.062 A 
ATOM     79  H   UNL     1     -41.283  41.983  25.354  1.00  0.00     0.063 H 
ATOM     80  C   UNL     1     -41.070  41.438  28.700  1.00  0.00    -0.062 A 
ATOM     81  H   UNL     1     -42.408  42.245  30.183  1.00  0.00     0.062 H 
ATOM     82  H   UNL     1     -39.910  40.776  27.010  1.00  0.00     0.062 H 
ATOM     83  H   UNL     1     -40.470  40.892  29.425  1.00  0.00     0.062 H 
ENDBRANCH  70  73
ENDBRANCH  68  70
ENDBRANCH  63  68
ENDBRANCH  50  60
ENDBRANCH   1  44
TORSDOF 13
ENDMDL
