MODEL 1
REMARK VINA RESULT:      -9.7      0.000      0.000
REMARK SMILES CNc1ccc2ccc(OC[C@H]3O[C@@H](n4cc(C5CCCC5)c5c(N)ncnc54)C[C@@H]3O)cc2n1
REMARK SMILES IDX 11 1 10 4 9 5 3 6 4 7 35 8 5 9 34 11 6 12 33 14 7 15 8 17
REMARK SMILES IDX 2 20 1 22 12 26 13 27 31 28 14 30 30 31 32 36 15 38 16 39
REMARK SMILES IDX 29 40 17 41 23 43 28 44 24 45 27 46 26 47 18 49 19 50 22 51
REMARK SMILES IDX 20 53 21 56 25 63
REMARK H PARENT 11 2 11 3 4 10 5 13 33 16 7 18 8 19 2 21 1 23 1 24 1 25 12 29
REMARK H PARENT 31 32 14 33 30 34 30 35 32 37 16 42 27 48 18 52 19 54 19 55
REMARK H PARENT 22 57 22 58 20 59 20 60 21 61 21 62 25 64 25 65
REMARK Flexibility Score: inf
ROOT
ATOM      1  C   UNL     1     -46.910  33.462  26.571  1.00  0.00     0.117 C 
ATOM      2  H   UNL     1     -46.561  32.533  27.035  1.00  0.00     0.073 H 
ATOM      3  H   UNL     1     -46.015  33.980  26.207  1.00  0.00     0.073 H 
ENDROOT
BRANCH   1   4
ATOM      4  O   UNL     1     -47.495  34.338  27.544  1.00  0.00    -0.491 OA
BRANCH   4   5
ATOM      5  C   UNL     1     -46.787  35.435  27.951  1.00  0.00     0.121 A 
ATOM      6  C   UNL     1     -45.645  39.883  26.691  1.00  0.00     0.126 A 
ATOM      7  C   UNL     1     -44.892  40.075  27.841  1.00  0.00    -0.019 A 
ATOM      8  N   UNL     1     -46.293  38.731  26.437  1.00  0.00    -0.231 NA
ATOM      9  C   UNL     1     -44.788  39.034  28.758  1.00  0.00    -0.049 A 
ATOM     10  H   UNL     1     -44.409  41.025  28.036  1.00  0.00     0.066 H 
ATOM     11  C   UNL     1     -46.195  37.720  27.321  1.00  0.00     0.076 A 
ATOM     12  C   UNL     1     -45.445  37.827  28.508  1.00  0.00     0.001 A 
ATOM     13  H   UNL     1     -44.204  39.177  29.662  1.00  0.00     0.063 H 
ATOM     14  C   UNL     1     -46.850  36.522  27.070  1.00  0.00     0.007 A 
ATOM     15  C   UNL     1     -45.374  36.745  29.400  1.00  0.00    -0.049 A 
ATOM     16  H   UNL     1     -47.433  36.430  26.156  1.00  0.00     0.069 H 
ATOM     17  C   UNL     1     -46.045  35.553  29.122  1.00  0.00    -0.019 A 
ATOM     18  H   UNL     1     -44.795  36.825  30.318  1.00  0.00     0.063 H 
ATOM     19  H   UNL     1     -45.961  34.746  29.842  1.00  0.00     0.066 H 
BRANCH   6  20
ATOM     20  N   UNL     1     -45.806  40.886  25.734  1.00  0.00    -0.373 N 
ATOM     21  H   UNL     1     -45.850  40.370  24.854  1.00  0.00     0.161 HD
BRANCH  20  22
ATOM     22  C   UNL     1     -44.728  41.860  25.714  1.00  0.00     0.005 C 
ATOM     23  H   UNL     1     -45.112  42.886  25.702  1.00  0.00     0.045 H 
ATOM     24  H   UNL     1     -44.123  41.741  26.619  1.00  0.00     0.045 H 
ATOM     25  H   UNL     1     -44.064  41.712  24.857  1.00  0.00     0.045 H 
ENDBRANCH  20  22
ENDBRANCH   6  20
ENDBRANCH   4   5
ENDBRANCH   1   4
BRANCH   1  26
ATOM     26  C   UNL     1     -47.866  33.225  25.398  1.00  0.00     0.120 C 
ATOM     27  O   UNL     1     -47.246  32.387  24.404  1.00  0.00    -0.348 OA
ATOM     28  C   UNL     1     -49.144  32.518  25.831  1.00  0.00     0.088 C 
ATOM     29  H   UNL     1     -48.104  34.175  24.904  1.00  0.00     0.067 H 
ATOM     30  C   UNL     1     -48.245  31.508  23.865  1.00  0.00     0.138 C 
ATOM     31  C   UNL     1     -49.560  31.763  24.590  1.00  0.00     0.022 C 
ATOM     32  H   UNL     1     -48.961  31.829  26.658  1.00  0.00     0.063 H 
ATOM     33  H   UNL     1     -48.364  31.770  22.807  1.00  0.00     0.085 H 
ATOM     34  H   UNL     1     -50.211  32.387  23.964  1.00  0.00     0.034 H 
ATOM     35  H   UNL     1     -50.129  30.855  24.817  1.00  0.00     0.034 H 
BRANCH  28  36
ATOM     36  O   UNL     1     -50.146  33.432  26.262  1.00  0.00    -0.390 OA
ATOM     37  H   UNL     1     -50.811  33.528  25.557  1.00  0.00     0.211 HD
ENDBRANCH  28  36
BRANCH  30  38
ATOM     38  N   UNL     1     -47.752  30.138  23.901  1.00  0.00    -0.305 N 
ATOM     39  C   UNL     1     -48.395  29.112  24.553  1.00  0.00     0.013 A 
ATOM     40  C   UNL     1     -46.607  29.658  23.320  1.00  0.00     0.147 A 
ATOM     41  C   UNL     1     -47.661  27.947  24.400  1.00  0.00    -0.014 A 
ATOM     42  H   UNL     1     -49.328  29.291  25.075  1.00  0.00     0.082 H 
ATOM     43  C   UNL     1     -46.521  28.295  23.593  1.00  0.00     0.065 A 
ATOM     44  N   UNL     1     -45.723  30.383  22.614  1.00  0.00    -0.218 NA
ATOM     45  C   UNL     1     -45.406  27.625  23.055  1.00  0.00     0.136 A 
ATOM     46  C   UNL     1     -44.705  29.635  22.165  1.00  0.00     0.120 A 
ATOM     47  N   UNL     1     -44.502  28.319  22.340  1.00  0.00    -0.219 NA
ATOM     48  H   UNL     1     -43.950  30.158  21.585  1.00  0.00     0.106 H 
BRANCH  41  49
ATOM     49  C   UNL     1     -47.978  26.581  24.958  1.00  0.00    -0.014 C 
ATOM     50  C   UNL     1     -46.770  25.797  25.486  1.00  0.00    -0.046 C 
ATOM     51  C   UNL     1     -48.893  26.645  26.183  1.00  0.00    -0.046 C 
ATOM     52  H   UNL     1     -48.450  25.995  24.160  1.00  0.00     0.035 H 
ATOM     53  C   UNL     1     -46.662  26.125  26.977  1.00  0.00    -0.053 C 
ATOM     54  H   UNL     1     -46.966  24.722  25.382  1.00  0.00     0.027 H 
ATOM     55  H   UNL     1     -45.839  26.003  24.949  1.00  0.00     0.027 H 
ATOM     56  C   UNL     1     -47.946  26.859  27.355  1.00  0.00    -0.053 C 
ATOM     57  H   UNL     1     -49.412  25.685  26.306  1.00  0.00     0.027 H 
ATOM     58  H   UNL     1     -49.653  27.432  26.127  1.00  0.00     0.027 H 
ATOM     59  H   UNL     1     -46.548  25.206  27.560  1.00  0.00     0.027 H 
ATOM     60  H   UNL     1     -45.787  26.750  27.184  1.00  0.00     0.027 H 
ATOM     61  H   UNL     1     -47.739  27.927  27.485  1.00  0.00     0.027 H 
ATOM     62  H   UNL     1     -48.367  26.490  28.294  1.00  0.00     0.027 H 
ENDBRANCH  41  49
BRANCH  45  63
ATOM     63  N   UNL     1     -45.170  26.261  23.186  1.00  0.00    -0.383 N 
ATOM     64  H   UNL     1     -44.219  25.993  22.976  1.00  0.00     0.158 HD
ATOM     65  H   UNL     1     -45.517  25.947  24.086  1.00  0.00     0.158 HD
ENDBRANCH  45  63
ENDBRANCH  30  38
ENDBRANCH   1  26
TORSDOF 9
ENDMDL
MODEL 2
REMARK VINA RESULT:      -9.6      2.621     10.693
REMARK SMILES CNc1ccc2ccc(OC[C@H]3O[C@@H](n4cc(C5CCCC5)c5c(N)ncnc54)C[C@@H]3O)cc2n1
REMARK SMILES IDX 11 1 10 4 9 5 3 6 4 7 35 8 5 9 34 11 6 12 33 14 7 15 8 17
REMARK SMILES IDX 2 20 1 22 12 26 13 27 31 28 14 30 30 31 32 36 15 38 16 39
REMARK SMILES IDX 29 40 17 41 23 43 28 44 24 45 27 46 26 47 18 49 19 50 22 51
REMARK SMILES IDX 20 53 21 56 25 63
REMARK H PARENT 11 2 11 3 4 10 5 13 33 16 7 18 8 19 2 21 1 23 1 24 1 25 12 29
REMARK H PARENT 31 32 14 33 30 34 30 35 32 37 16 42 27 48 18 52 19 54 19 55
REMARK H PARENT 22 57 22 58 20 59 20 60 21 61 21 62 25 64 25 65
REMARK Flexibility Score: inf
ROOT
ATOM      1  C   UNL     1     -46.545  34.876  26.748  1.00  0.00     0.117 C 
ATOM      2  H   UNL     1     -47.516  35.327  26.515  1.00  0.00     0.073 H 
ATOM      3  H   UNL     1     -45.982  34.855  25.807  1.00  0.00     0.073 H 
ENDROOT
BRANCH   1   4
ATOM      4  O   UNL     1     -46.693  33.505  27.141  1.00  0.00    -0.491 OA
BRANCH   4   5
ATOM      5  C   UNL     1     -47.168  32.606  26.227  1.00  0.00     0.121 A 
ATOM      6  C   UNL     1     -46.485  30.992  21.800  1.00  0.00     0.126 A 
ATOM      7  C   UNL     1     -47.525  30.080  21.912  1.00  0.00    -0.019 A 
ATOM      8  N   UNL     1     -46.135  31.814  22.806  1.00  0.00    -0.231 NA
ATOM      9  C   UNL     1     -48.245  30.024  23.101  1.00  0.00    -0.049 A 
ATOM     10  H   UNL     1     -47.763  29.407  21.097  1.00  0.00     0.066 H 
ATOM     11  C   UNL     1     -46.828  31.764  23.959  1.00  0.00     0.076 A 
ATOM     12  C   UNL     1     -47.903  30.876  24.154  1.00  0.00     0.001 A 
ATOM     13  H   UNL     1     -49.058  29.311  23.199  1.00  0.00     0.063 H 
ATOM     14  C   UNL     1     -46.485  32.611  25.004  1.00  0.00     0.007 A 
ATOM     15  C   UNL     1     -48.596  30.860  25.376  1.00  0.00    -0.049 A 
ATOM     16  H   UNL     1     -45.655  33.301  24.864  1.00  0.00     0.069 H 
ATOM     17  C   UNL     1     -48.227  31.722  26.410  1.00  0.00    -0.019 A 
ATOM     18  H   UNL     1     -49.427  30.174  25.529  1.00  0.00     0.063 H 
ATOM     19  H   UNL     1     -48.791  31.673  27.335  1.00  0.00     0.066 H 
BRANCH   6  20
ATOM     20  N   UNL     1     -45.711  31.095  20.643  1.00  0.00    -0.373 N 
ATOM     21  H   UNL     1     -44.834  31.494  20.980  1.00  0.00     0.161 HD
BRANCH  20  22
ATOM     22  C   UNL     1     -46.302  31.929  19.610  1.00  0.00     0.005 C 
ATOM     23  H   UNL     1     -45.863  31.725  18.627  1.00  0.00     0.045 H 
ATOM     24  H   UNL     1     -47.374  31.714  19.549  1.00  0.00     0.045 H 
ATOM     25  H   UNL     1     -46.196  32.994  19.840  1.00  0.00     0.045 H 
ENDBRANCH  20  22
ENDBRANCH   6  20
ENDBRANCH   4   5
ENDBRANCH   1   4
BRANCH   1  26
ATOM     26  C   UNL     1     -45.751  35.666  27.792  1.00  0.00     0.120 C 
ATOM     27  O   UNL     1     -45.328  36.933  27.251  1.00  0.00    -0.348 OA
ATOM     28  C   UNL     1     -46.579  35.976  29.033  1.00  0.00     0.088 C 
ATOM     29  H   UNL     1     -44.839  35.123  28.067  1.00  0.00     0.067 H 
ATOM     30  C   UNL     1     -45.414  37.921  28.289  1.00  0.00     0.138 C 
ATOM     31  C   UNL     1     -45.971  37.262  29.544  1.00  0.00     0.022 C 
ATOM     32  H   UNL     1     -47.633  36.119  28.786  1.00  0.00     0.063 H 
ATOM     33  H   UNL     1     -44.392  38.264  28.489  1.00  0.00     0.085 H 
ATOM     34  H   UNL     1     -45.152  37.045  30.242  1.00  0.00     0.034 H 
ATOM     35  H   UNL     1     -46.689  37.880  30.093  1.00  0.00     0.034 H 
BRANCH  28  36
ATOM     36  O   UNL     1     -46.513  34.932  29.998  1.00  0.00    -0.390 OA
ATOM     37  H   UNL     1     -45.628  34.528  29.966  1.00  0.00     0.211 HD
ENDBRANCH  28  36
BRANCH  30  38
ATOM     38  N   UNL     1     -46.151  39.076  27.795  1.00  0.00    -0.305 N 
ATOM     39  C   UNL     1     -47.501  39.258  27.983  1.00  0.00     0.013 A 
ATOM     40  C   UNL     1     -45.647  40.132  27.082  1.00  0.00     0.147 A 
ATOM     41  C   UNL     1     -47.886  40.447  27.384  1.00  0.00    -0.014 A 
ATOM     42  H   UNL     1     -48.083  38.527  28.532  1.00  0.00     0.082 H 
ATOM     43  C   UNL     1     -46.691  41.016  26.819  1.00  0.00     0.065 A 
ATOM     44  N   UNL     1     -44.367  40.282  26.702  1.00  0.00    -0.218 NA
ATOM     45  C   UNL     1     -46.353  42.180  26.104  1.00  0.00     0.136 A 
ATOM     46  C   UNL     1     -44.174  41.421  26.021  1.00  0.00     0.120 A 
ATOM     47  N   UNL     1     -45.079  42.363  25.709  1.00  0.00    -0.219 NA
ATOM     48  H   UNL     1     -43.160  41.607  25.681  1.00  0.00     0.106 H 
BRANCH  41  49
ATOM     49  C   UNL     1     -49.273  41.040  27.327  1.00  0.00    -0.014 C 
ATOM     50  C   UNL     1     -50.386  40.144  27.884  1.00  0.00    -0.046 C 
ATOM     51  C   UNL     1     -49.406  42.304  28.179  1.00  0.00    -0.046 C 
ATOM     52  H   UNL     1     -49.500  41.262  26.277  1.00  0.00     0.035 H 
ATOM     53  C   UNL     1     -50.540  40.516  29.361  1.00  0.00    -0.053 C 
ATOM     54  H   UNL     1     -51.327  40.379  27.369  1.00  0.00     0.027 H 
ATOM     55  H   UNL     1     -50.207  39.074  27.744  1.00  0.00     0.027 H 
ATOM     56  C   UNL     1     -49.727  41.789  29.575  1.00  0.00    -0.053 C 
ATOM     57  H   UNL     1     -50.246  42.908  27.814  1.00  0.00     0.027 H 
ATOM     58  H   UNL     1     -48.512  42.937  28.176  1.00  0.00     0.027 H 
ATOM     59  H   UNL     1     -51.595  40.677  29.604  1.00  0.00     0.027 H 
ATOM     60  H   UNL     1     -50.177  39.714  30.013  1.00  0.00     0.027 H 
ATOM     61  H   UNL     1     -48.802  41.554  30.115  1.00  0.00     0.027 H 
ATOM     62  H   UNL     1     -50.273  42.529  30.169  1.00  0.00     0.027 H 
ENDBRANCH  41  49
BRANCH  45  63
ATOM     63  N   UNL     1     -47.247  43.195  25.783  1.00  0.00    -0.383 N 
ATOM     64  H   UNL     1     -47.892  43.417  26.528  1.00  0.00     0.158 HD
ATOM     65  H   UNL     1     -46.733  43.985  25.408  1.00  0.00     0.158 HD
ENDBRANCH  45  63
ENDBRANCH  30  38
ENDBRANCH   1  26
TORSDOF 9
ENDMDL
MODEL 3
REMARK VINA RESULT:      -9.6      2.578     11.409
REMARK SMILES CNc1ccc2ccc(OC[C@H]3O[C@@H](n4cc(C5CCCC5)c5c(N)ncnc54)C[C@@H]3O)cc2n1
REMARK SMILES IDX 11 1 10 4 9 5 3 6 4 7 35 8 5 9 34 11 6 12 33 14 7 15 8 17
REMARK SMILES IDX 2 20 1 22 12 26 13 27 31 28 14 30 30 31 32 36 15 38 16 39
REMARK SMILES IDX 29 40 17 41 23 43 28 44 24 45 27 46 26 47 18 49 19 50 22 51
REMARK SMILES IDX 20 53 21 56 25 63
REMARK H PARENT 11 2 11 3 4 10 5 13 33 16 7 18 8 19 2 21 1 23 1 24 1 25 12 29
REMARK H PARENT 31 32 14 33 30 34 30 35 32 37 16 42 27 48 18 52 19 54 19 55
REMARK H PARENT 22 57 22 58 20 59 20 60 21 61 21 62 25 64 25 65
REMARK Flexibility Score: inf
ROOT
ATOM      1  C   UNL     1     -46.784  36.242  26.470  1.00  0.00     0.117 C 
ATOM      2  H   UNL     1     -47.716  36.278  25.895  1.00  0.00     0.073 H 
ATOM      3  H   UNL     1     -46.033  36.769  25.870  1.00  0.00     0.073 H 
ENDROOT
BRANCH   1   4
ATOM      4  O   UNL     1     -46.305  34.897  26.595  1.00  0.00    -0.491 OA
BRANCH   4   5
ATOM      5  C   UNL     1     -47.020  33.887  26.014  1.00  0.00     0.121 A 
ATOM      6  C   UNL     1     -46.733  30.447  22.734  1.00  0.00     0.126 A 
ATOM      7  C   UNL     1     -48.031  30.025  22.982  1.00  0.00    -0.019 A 
ATOM      8  N   UNL     1     -46.165  31.467  23.404  1.00  0.00    -0.231 NA
ATOM      9  C   UNL     1     -48.782  30.690  23.945  1.00  0.00    -0.049 A 
ATOM     10  H   UNL     1     -48.451  29.179  22.451  1.00  0.00     0.066 H 
ATOM     11  C   UNL     1     -46.888  32.115  24.337  1.00  0.00     0.076 A 
ATOM     12  C   UNL     1     -48.215  31.759  24.645  1.00  0.00     0.001 A 
ATOM     13  H   UNL     1     -49.798  30.365  24.148  1.00  0.00     0.063 H 
ATOM     14  C   UNL     1     -46.321  33.175  25.032  1.00  0.00     0.007 A 
ATOM     15  C   UNL     1     -48.927  32.463  25.628  1.00  0.00    -0.049 A 
ATOM     16  H   UNL     1     -45.295  33.458  24.802  1.00  0.00     0.069 H 
ATOM     17  C   UNL     1     -48.330  33.524  26.312  1.00  0.00    -0.019 A 
ATOM     18  H   UNL     1     -49.953  32.190  25.868  1.00  0.00     0.063 H 
ATOM     19  H   UNL     1     -48.920  34.038  27.063  1.00  0.00     0.066 H 
BRANCH   6  20
ATOM     20  N   UNL     1     -45.915  29.819  21.792  1.00  0.00    -0.373 N 
ATOM     21  H   UNL     1     -46.568  29.245  21.258  1.00  0.00     0.161 HD
BRANCH  20  22
ATOM     22  C   UNL     1     -44.862  29.006  22.376  1.00  0.00     0.005 C 
ATOM     23  H   UNL     1     -43.897  29.188  21.890  1.00  0.00     0.045 H 
ATOM     24  H   UNL     1     -44.757  29.266  23.434  1.00  0.00     0.045 H 
ATOM     25  H   UNL     1     -45.098  27.939  22.325  1.00  0.00     0.045 H 
ENDBRANCH  20  22
ENDBRANCH   6  20
ENDBRANCH   4   5
ENDBRANCH   1   4
BRANCH   1  26
ATOM     26  C   UNL     1     -46.897  36.917  27.841  1.00  0.00     0.120 C 
ATOM     27  O   UNL     1     -45.611  37.405  28.270  1.00  0.00    -0.348 OA
ATOM     28  C   UNL     1     -47.835  38.117  27.816  1.00  0.00     0.088 C 
ATOM     29  H   UNL     1     -47.225  36.191  28.595  1.00  0.00     0.067 H 
ATOM     30  C   UNL     1     -45.805  38.655  28.949  1.00  0.00     0.138 C 
ATOM     31  C   UNL     1     -47.286  39.008  28.906  1.00  0.00     0.022 C 
ATOM     32  H   UNL     1     -47.809  38.627  26.851  1.00  0.00     0.063 H 
ATOM     33  H   UNL     1     -45.505  38.501  29.993  1.00  0.00     0.085 H 
ATOM     34  H   UNL     1     -47.753  38.764  29.869  1.00  0.00     0.034 H 
ATOM     35  H   UNL     1     -47.487  40.069  28.726  1.00  0.00     0.034 H 
BRANCH  28  36
ATOM     36  O   UNL     1     -49.189  37.748  28.057  1.00  0.00    -0.390 OA
ATOM     37  H   UNL     1     -49.286  36.791  27.904  1.00  0.00     0.211 HD
ENDBRANCH  28  36
BRANCH  30  38
ATOM     38  N   UNL     1     -44.896  39.650  28.398  1.00  0.00    -0.305 N 
ATOM     39  C   UNL     1     -45.142  40.353  27.242  1.00  0.00     0.013 A 
ATOM     40  C   UNL     1     -43.685  40.035  28.912  1.00  0.00     0.147 A 
ATOM     41  C   UNL     1     -44.079  41.206  26.995  1.00  0.00    -0.014 A 
ATOM     42  H   UNL     1     -46.058  40.192  26.686  1.00  0.00     0.082 H 
ATOM     43  C   UNL     1     -43.151  41.013  28.078  1.00  0.00     0.065 A 
ATOM     44  N   UNL     1     -43.115  39.546  30.027  1.00  0.00    -0.218 NA
ATOM     45  C   UNL     1     -41.906  41.544  28.463  1.00  0.00     0.136 A 
ATOM     46  C   UNL     1     -41.931  40.122  30.281  1.00  0.00     0.120 A 
ATOM     47  N   UNL     1     -41.307  41.079  29.575  1.00  0.00    -0.219 NA
ATOM     48  H   UNL     1     -41.413  39.774  31.169  1.00  0.00     0.106 H 
BRANCH  41  49
ATOM     49  C   UNL     1     -43.913  42.154  25.832  1.00  0.00    -0.014 C 
ATOM     50  C   UNL     1     -45.143  42.293  24.926  1.00  0.00    -0.046 C 
ATOM     51  C   UNL     1     -43.668  43.597  26.281  1.00  0.00    -0.046 C 
ATOM     52  H   UNL     1     -43.074  41.796  25.225  1.00  0.00     0.035 H 
ATOM     53  C   UNL     1     -45.950  43.473  25.473  1.00  0.00    -0.053 C 
ATOM     54  H   UNL     1     -44.813  42.542  23.910  1.00  0.00     0.027 H 
ATOM     55  H   UNL     1     -45.744  41.381  24.851  1.00  0.00     0.027 H 
ATOM     56  C   UNL     1     -45.061  44.170  26.499  1.00  0.00    -0.053 C 
ATOM     57  H   UNL     1     -43.168  44.153  25.478  1.00  0.00     0.027 H 
ATOM     58  H   UNL     1     -43.050  43.681  27.182  1.00  0.00     0.027 H 
ATOM     59  H   UNL     1     -46.224  44.155  24.661  1.00  0.00     0.027 H 
ATOM     60  H   UNL     1     -46.883  43.135  25.939  1.00  0.00     0.027 H 
ATOM     61  H   UNL     1     -45.411  43.942  27.512  1.00  0.00     0.027 H 
ATOM     62  H   UNL     1     -45.078  45.258  26.384  1.00  0.00     0.027 H 
ENDBRANCH  41  49
BRANCH  45  63
ATOM     63  N   UNL     1     -41.236  42.554  27.782  1.00  0.00    -0.383 N 
ATOM     64  H   UNL     1     -41.554  42.683  26.832  1.00  0.00     0.158 HD
ATOM     65  H   UNL     1     -41.231  43.394  28.351  1.00  0.00     0.158 HD
ENDBRANCH  45  63
ENDBRANCH  30  38
ENDBRANCH   1  26
TORSDOF 9
ENDMDL
MODEL 4
REMARK VINA RESULT:      -9.3      2.493     11.059
REMARK SMILES CNc1ccc2ccc(OC[C@H]3O[C@@H](n4cc(C5CCCC5)c5c(N)ncnc54)C[C@@H]3O)cc2n1
REMARK SMILES IDX 11 1 10 4 9 5 3 6 4 7 35 8 5 9 34 11 6 12 33 14 7 15 8 17
REMARK SMILES IDX 2 20 1 22 12 26 13 27 31 28 14 30 30 31 32 36 15 38 16 39
REMARK SMILES IDX 29 40 17 41 23 43 28 44 24 45 27 46 26 47 18 49 19 50 22 51
REMARK SMILES IDX 20 53 21 56 25 63
REMARK H PARENT 11 2 11 3 4 10 5 13 33 16 7 18 8 19 2 21 1 23 1 24 1 25 12 29
REMARK H PARENT 31 32 14 33 30 34 30 35 32 37 16 42 27 48 18 52 19 54 19 55
REMARK H PARENT 22 57 22 58 20 59 20 60 21 61 21 62 25 64 25 65
REMARK Flexibility Score: inf
ROOT
ATOM      1  C   UNL     1     -48.070  35.073  26.926  1.00  0.00     0.117 C 
ATOM      2  H   UNL     1     -48.964  35.538  27.356  1.00  0.00     0.073 H 
ATOM      3  H   UNL     1     -48.143  35.214  25.841  1.00  0.00     0.073 H 
ENDROOT
BRANCH   1   4
ATOM      4  O   UNL     1     -48.074  33.655  27.133  1.00  0.00    -0.491 OA
BRANCH   4   5
ATOM      5  C   UNL     1     -47.697  32.838  26.102  1.00  0.00     0.121 A 
ATOM      6  C   UNL     1     -48.594  28.612  24.101  1.00  0.00     0.126 A 
ATOM      7  C   UNL     1     -47.639  28.813  23.115  1.00  0.00    -0.019 A 
ATOM      8  N   UNL     1     -48.852  29.527  25.053  1.00  0.00    -0.231 NA
ATOM      9  C   UNL     1     -46.909  29.997  23.118  1.00  0.00    -0.049 A 
ATOM     10  H   UNL     1     -47.476  28.073  22.340  1.00  0.00     0.066 H 
ATOM     11  C   UNL     1     -48.147  30.674  25.062  1.00  0.00     0.076 A 
ATOM     12  C   UNL     1     -47.155  30.956  24.104  1.00  0.00     0.001 A 
ATOM     13  H   UNL     1     -46.162  30.165  22.348  1.00  0.00     0.063 H 
ATOM     14  C   UNL     1     -48.395  31.626  26.042  1.00  0.00     0.007 A 
ATOM     15  C   UNL     1     -46.447  32.168  24.153  1.00  0.00    -0.049 A 
ATOM     16  H   UNL     1     -49.162  31.418  26.786  1.00  0.00     0.069 H 
ATOM     17  C   UNL     1     -46.719  33.107  25.149  1.00  0.00    -0.019 A 
ATOM     18  H   UNL     1     -45.679  32.388  23.414  1.00  0.00     0.063 H 
ATOM     19  H   UNL     1     -46.148  34.028  25.146  1.00  0.00     0.066 H 
BRANCH   6  20
ATOM     20  N   UNL     1     -49.374  27.455  24.153  1.00  0.00    -0.373 N 
ATOM     21  H   UNL     1     -49.325  27.094  23.200  1.00  0.00     0.161 HD
BRANCH  20  22
ATOM     22  C   UNL     1     -50.752  27.692  24.551  1.00  0.00     0.005 C 
ATOM     23  H   UNL     1     -50.829  27.910  25.622  1.00  0.00     0.045 H 
ATOM     24  H   UNL     1     -51.137  28.558  24.004  1.00  0.00     0.045 H 
ATOM     25  H   UNL     1     -51.395  26.841  24.307  1.00  0.00     0.045 H 
ENDBRANCH  20  22
ENDBRANCH   6  20
ENDBRANCH   4   5
ENDBRANCH   1   4
BRANCH   1  26
ATOM     26  C   UNL     1     -46.766  35.700  27.429  1.00  0.00     0.120 C 
ATOM     27  O   UNL     1     -46.405  36.833  26.615  1.00  0.00    -0.348 OA
ATOM     28  C   UNL     1     -46.885  36.209  28.859  1.00  0.00     0.088 C 
ATOM     29  H   UNL     1     -45.942  34.980  27.346  1.00  0.00     0.067 H 
ATOM     30  C   UNL     1     -45.841  37.842  27.468  1.00  0.00     0.138 C 
ATOM     31  C   UNL     1     -45.892  37.347  28.907  1.00  0.00     0.022 C 
ATOM     32  H   UNL     1     -47.894  36.568  29.074  1.00  0.00     0.063 H 
ATOM     33  H   UNL     1     -44.793  37.962  27.169  1.00  0.00     0.085 H 
ATOM     34  H   UNL     1     -44.903  36.976  29.206  1.00  0.00     0.034 H 
ATOM     35  H   UNL     1     -46.165  38.117  29.635  1.00  0.00     0.034 H 
BRANCH  28  36
ATOM     36  O   UNL     1     -46.589  35.198  29.817  1.00  0.00    -0.390 OA
ATOM     37  H   UNL     1     -46.036  34.517  29.395  1.00  0.00     0.211 HD
ENDBRANCH  28  36
BRANCH  30  38
ATOM     38  N   UNL     1     -46.497  39.115  27.208  1.00  0.00    -0.305 N 
ATOM     39  C   UNL     1     -47.815  39.371  27.507  1.00  0.00     0.013 A 
ATOM     40  C   UNL     1     -45.938  40.229  26.637  1.00  0.00     0.147 A 
ATOM     41  C   UNL     1     -48.123  40.667  27.125  1.00  0.00    -0.014 A 
ATOM     42  H   UNL     1     -48.430  38.610  27.971  1.00  0.00     0.082 H 
ATOM     43  C   UNL     1     -46.912  41.223  26.583  1.00  0.00     0.065 A 
ATOM     44  N   UNL     1     -44.670  40.336  26.205  1.00  0.00    -0.218 NA
ATOM     45  C   UNL     1     -46.508  42.457  26.037  1.00  0.00     0.136 A 
ATOM     46  C   UNL     1     -44.412  41.551  25.699  1.00  0.00     0.120 A 
ATOM     47  N   UNL     1     -45.245  42.600  25.596  1.00  0.00    -0.219 NA
ATOM     48  H   UNL     1     -43.404  41.709  25.329  1.00  0.00     0.106 H 
BRANCH  41  49
ATOM     49  C   UNL     1     -49.453  41.369  27.249  1.00  0.00    -0.014 C 
ATOM     50  C   UNL     1     -50.619  40.479  27.697  1.00  0.00    -0.046 C 
ATOM     51  C   UNL     1     -49.442  42.463  28.320  1.00  0.00    -0.046 C 
ATOM     52  H   UNL     1     -49.699  41.797  26.270  1.00  0.00     0.035 H 
ATOM     53  C   UNL     1     -50.682  40.586  29.222  1.00  0.00    -0.053 C 
ATOM     54  H   UNL     1     -51.554  40.878  27.283  1.00  0.00     0.027 H 
ATOM     55  H   UNL     1     -50.540  39.441  27.359  1.00  0.00     0.027 H 
ATOM     56  C   UNL     1     -49.753  41.730  29.617  1.00  0.00    -0.053 C 
ATOM     57  H   UNL     1     -50.239  43.189  28.113  1.00  0.00     0.027 H 
ATOM     58  H   UNL     1     -48.496  43.013  28.382  1.00  0.00     0.027 H 
ATOM     59  H   UNL     1     -51.710  40.783  29.546  1.00  0.00     0.027 H 
ATOM     60  H   UNL     1     -50.367  39.652  29.700  1.00  0.00     0.027 H 
ATOM     61  H   UNL     1     -48.833  41.328  30.055  1.00  0.00     0.027 H 
ATOM     62  H   UNL     1     -50.208  42.390  30.361  1.00  0.00     0.027 H 
ENDBRANCH  41  49
BRANCH  45  63
ATOM     63  N   UNL     1     -47.324  43.577  25.936  1.00  0.00    -0.383 N 
ATOM     64  H   UNL     1     -47.778  43.828  26.803  1.00  0.00     0.158 HD
ATOM     65  H   UNL     1     -46.808  44.327  25.488  1.00  0.00     0.158 HD
ENDBRANCH  45  63
ENDBRANCH  30  38
ENDBRANCH   1  26
TORSDOF 9
ENDMDL
MODEL 5
REMARK VINA RESULT:      -9.2      2.373     11.234
REMARK SMILES CNc1ccc2ccc(OC[C@H]3O[C@@H](n4cc(C5CCCC5)c5c(N)ncnc54)C[C@@H]3O)cc2n1
REMARK SMILES IDX 11 1 10 4 9 5 3 6 4 7 35 8 5 9 34 11 6 12 33 14 7 15 8 17
REMARK SMILES IDX 2 20 1 22 12 26 13 27 31 28 14 30 30 31 32 36 15 38 16 39
REMARK SMILES IDX 29 40 17 41 23 43 28 44 24 45 27 46 26 47 18 49 19 50 22 51
REMARK SMILES IDX 20 53 21 56 25 63
REMARK H PARENT 11 2 11 3 4 10 5 13 33 16 7 18 8 19 2 21 1 23 1 24 1 25 12 29
REMARK H PARENT 31 32 14 33 30 34 30 35 32 37 16 42 27 48 18 52 19 54 19 55
REMARK H PARENT 22 57 22 58 20 59 20 60 21 61 21 62 25 64 25 65
REMARK Flexibility Score: inf
ROOT
ATOM      1  C   UNL     1     -47.228  35.522  28.004  1.00  0.00     0.117 C 
ATOM      2  H   UNL     1     -47.363  34.552  28.495  1.00  0.00     0.073 H 
ATOM      3  H   UNL     1     -48.070  36.148  28.322  1.00  0.00     0.073 H 
ENDROOT
BRANCH   1   4
ATOM      4  O   UNL     1     -47.351  35.403  26.580  1.00  0.00    -0.491 OA
BRANCH   4   5
ATOM      5  C   UNL     1     -47.692  34.189  26.049  1.00  0.00     0.121 A 
ATOM      6  C   UNL     1     -46.050  30.669  23.295  1.00  0.00     0.126 A 
ATOM      7  C   UNL     1     -47.223  29.940  23.432  1.00  0.00    -0.019 A 
ATOM      8  N   UNL     1     -45.867  31.860  23.895  1.00  0.00    -0.231 NA
ATOM      9  C   UNL     1     -48.255  30.464  24.202  1.00  0.00    -0.049 A 
ATOM     10  H   UNL     1     -47.329  28.967  22.965  1.00  0.00     0.066 H 
ATOM     11  C   UNL     1     -46.863  32.373  24.641  1.00  0.00     0.076 A 
ATOM     12  C   UNL     1     -48.089  31.704  24.825  1.00  0.00     0.001 A 
ATOM     13  H   UNL     1     -49.175  29.899  24.318  1.00  0.00     0.063 H 
ATOM     14  C   UNL     1     -46.694  33.604  25.259  1.00  0.00     0.007 A 
ATOM     15  C   UNL     1     -49.097  32.279  25.614  1.00  0.00    -0.049 A 
ATOM     16  H   UNL     1     -45.750  34.129  25.124  1.00  0.00     0.069 H 
ATOM     17  C   UNL     1     -48.898  33.518  26.226  1.00  0.00    -0.019 A 
ATOM     18  H   UNL     1     -50.045  31.764  25.758  1.00  0.00     0.063 H 
ATOM     19  H   UNL     1     -49.706  33.922  26.826  1.00  0.00     0.066 H 
BRANCH   6  20
ATOM     20  N   UNL     1     -44.967  30.199  22.549  1.00  0.00    -0.373 N 
ATOM     21  H   UNL     1     -45.121  30.606  21.626  1.00  0.00     0.161 HD
BRANCH  20  22
ATOM     22  C   UNL     1     -44.888  28.750  22.475  1.00  0.00     0.005 C 
ATOM     23  H   UNL     1     -44.069  28.359  23.090  1.00  0.00     0.045 H 
ATOM     24  H   UNL     1     -45.822  28.322  22.852  1.00  0.00     0.045 H 
ATOM     25  H   UNL     1     -44.764  28.404  21.444  1.00  0.00     0.045 H 
ENDBRANCH  20  22
ENDBRANCH   6  20
ENDBRANCH   4   5
ENDBRANCH   1   4
BRANCH   1  26
ATOM     26  C   UNL     1     -45.915  36.211  28.387  1.00  0.00     0.120 C 
ATOM     27  O   UNL     1     -45.504  37.124  27.351  1.00  0.00    -0.348 OA
ATOM     28  C   UNL     1     -46.046  37.030  29.664  1.00  0.00     0.088 C 
ATOM     29  H   UNL     1     -45.113  35.471  28.488  1.00  0.00     0.067 H 
ATOM     30  C   UNL     1     -44.926  38.283  27.971  1.00  0.00     0.138 C 
ATOM     31  C   UNL     1     -45.019  38.124  29.483  1.00  0.00     0.022 C 
ATOM     32  H   UNL     1     -47.047  37.454  29.768  1.00  0.00     0.063 H 
ATOM     33  H   UNL     1     -43.869  38.307  27.679  1.00  0.00     0.085 H 
ATOM     34  H   UNL     1     -44.047  37.804  29.882  1.00  0.00     0.034 H 
ATOM     35  H   UNL     1     -45.282  39.044  30.014  1.00  0.00     0.034 H 
BRANCH  28  36
ATOM     36  O   UNL     1     -45.799  36.252  30.831  1.00  0.00    -0.390 OA
ATOM     37  H   UNL     1     -45.880  35.309  30.603  1.00  0.00     0.211 HD
ENDBRANCH  28  36
BRANCH  30  38
ATOM     38  N   UNL     1     -45.537  39.483  27.417  1.00  0.00    -0.305 N 
ATOM     39  C   UNL     1     -44.858  40.403  26.653  1.00  0.00     0.013 A 
ATOM     40  C   UNL     1     -46.838  39.888  27.563  1.00  0.00     0.147 A 
ATOM     41  C   UNL     1     -45.724  41.424  26.297  1.00  0.00    -0.014 A 
ATOM     42  H   UNL     1     -43.810  40.258  26.421  1.00  0.00     0.082 H 
ATOM     43  C   UNL     1     -47.001  41.083  26.867  1.00  0.00     0.065 A 
ATOM     44  N   UNL     1     -47.787  39.241  28.261  1.00  0.00    -0.218 NA
ATOM     45  C   UNL     1     -48.292  41.644  26.891  1.00  0.00     0.136 A 
ATOM     46  C   UNL     1     -48.966  39.877  28.216  1.00  0.00     0.120 A 
ATOM     47  N   UNL     1     -49.267  41.020  27.579  1.00  0.00    -0.219 NA
ATOM     48  H   UNL     1     -49.781  39.410  28.760  1.00  0.00     0.106 H 
BRANCH  41  49
ATOM     49  C   UNL     1     -45.411  42.650  25.474  1.00  0.00    -0.014 C 
ATOM     50  C   UNL     1     -45.249  43.947  26.278  1.00  0.00    -0.046 C 
ATOM     51  C   UNL     1     -44.068  42.542  24.747  1.00  0.00    -0.046 C 
ATOM     52  H   UNL     1     -46.224  42.788  24.753  1.00  0.00     0.035 H 
ATOM     53  C   UNL     1     -43.760  44.070  26.605  1.00  0.00    -0.053 C 
ATOM     54  H   UNL     1     -45.536  44.798  25.646  1.00  0.00     0.027 H 
ATOM     55  H   UNL     1     -45.875  43.994  27.175  1.00  0.00     0.027 H 
ATOM     56  C   UNL     1     -43.043  43.013  25.769  1.00  0.00    -0.053 C 
ATOM     57  H   UNL     1     -44.060  43.221  23.886  1.00  0.00     0.027 H 
ATOM     58  H   UNL     1     -43.843  41.534  24.382  1.00  0.00     0.027 H 
ATOM     59  H   UNL     1     -43.399  45.075  26.362  1.00  0.00     0.027 H 
ATOM     60  H   UNL     1     -43.572  43.908  27.672  1.00  0.00     0.027 H 
ATOM     61  H   UNL     1     -42.734  42.179  26.409  1.00  0.00     0.027 H 
ATOM     62  H   UNL     1     -42.142  43.410  25.292  1.00  0.00     0.027 H 
ENDBRANCH  41  49
BRANCH  45  63
ATOM     63  N   UNL     1     -48.658  42.807  26.225  1.00  0.00    -0.383 N 
ATOM     64  H   UNL     1     -49.650  42.996  26.253  1.00  0.00     0.158 HD
ATOM     65  H   UNL     1     -48.065  43.570  26.536  1.00  0.00     0.158 HD
ENDBRANCH  45  63
ENDBRANCH  30  38
ENDBRANCH   1  26
TORSDOF 9
ENDMDL
MODEL 6
REMARK VINA RESULT:      -9.2      1.719      2.027
REMARK SMILES CNc1ccc2ccc(OC[C@H]3O[C@@H](n4cc(C5CCCC5)c5c(N)ncnc54)C[C@@H]3O)cc2n1
REMARK SMILES IDX 11 1 10 4 9 5 3 6 4 7 35 8 5 9 34 11 6 12 33 14 7 15 8 17
REMARK SMILES IDX 2 20 1 22 12 26 13 27 31 28 14 30 30 31 32 36 15 38 16 39
REMARK SMILES IDX 29 40 17 41 23 43 28 44 24 45 27 46 26 47 18 49 19 50 22 51
REMARK SMILES IDX 20 53 21 56 25 63
REMARK H PARENT 11 2 11 3 4 10 5 13 33 16 7 18 8 19 2 21 1 23 1 24 1 25 12 29
REMARK H PARENT 31 32 14 33 30 34 30 35 32 37 16 42 27 48 18 52 19 54 19 55
REMARK H PARENT 22 57 22 58 20 59 20 60 21 61 21 62 25 64 25 65
REMARK Flexibility Score: inf
ROOT
ATOM      1  C   UNL     1     -46.423  33.384  26.483  1.00  0.00     0.117 C 
ATOM      2  H   UNL     1     -45.870  32.468  26.717  1.00  0.00     0.073 H 
ATOM      3  H   UNL     1     -45.687  34.092  26.084  1.00  0.00     0.073 H 
ENDROOT
BRANCH   1   4
ATOM      4  O   UNL     1     -46.941  33.994  27.672  1.00  0.00    -0.491 OA
BRANCH   4   5
ATOM      5  C   UNL     1     -46.790  35.343  27.840  1.00  0.00     0.121 A 
ATOM      6  C   UNL     1     -49.232  39.424  28.071  1.00  0.00     0.126 A 
ATOM      7  C   UNL     1     -48.078  40.168  28.274  1.00  0.00    -0.019 A 
ATOM      8  N   UNL     1     -49.212  38.086  27.928  1.00  0.00    -0.231 NA
ATOM      9  C   UNL     1     -46.853  39.511  28.314  1.00  0.00    -0.049 A 
ATOM     10  H   UNL     1     -48.128  41.241  28.421  1.00  0.00     0.066 H 
ATOM     11  C   UNL     1     -48.028  37.445  27.965  1.00  0.00     0.076 A 
ATOM     12  C   UNL     1     -46.810  38.123  28.156  1.00  0.00     0.001 A 
ATOM     13  H   UNL     1     -45.945  40.085  28.475  1.00  0.00     0.063 H 
ATOM     14  C   UNL     1     -47.989  36.066  27.810  1.00  0.00     0.007 A 
ATOM     15  C   UNL     1     -45.600  37.410  28.189  1.00  0.00    -0.049 A 
ATOM     16  H   UNL     1     -48.926  35.532  27.662  1.00  0.00     0.069 H 
ATOM     17  C   UNL     1     -45.592  36.023  28.032  1.00  0.00    -0.019 A 
ATOM     18  H   UNL     1     -44.657  37.932  28.337  1.00  0.00     0.063 H 
ATOM     19  H   UNL     1     -44.633  35.517  28.066  1.00  0.00     0.066 H 
BRANCH   6  20
ATOM     20  N   UNL     1     -50.497  40.013  28.035  1.00  0.00    -0.373 N 
ATOM     21  H   UNL     1     -50.293  41.008  27.932  1.00  0.00     0.161 HD
BRANCH  20  22
ATOM     22  C   UNL     1     -51.298  39.764  29.222  1.00  0.00     0.005 C 
ATOM     23  H   UNL     1     -52.076  40.524  29.349  1.00  0.00     0.045 H 
ATOM     24  H   UNL     1     -51.792  38.793  29.120  1.00  0.00     0.045 H 
ATOM     25  H   UNL     1     -50.680  39.721  30.124  1.00  0.00     0.045 H 
ENDBRANCH  20  22
ENDBRANCH   6  20
ENDBRANCH   4   5
ENDBRANCH   1   4
BRANCH   1  26
ATOM     26  C   UNL     1     -47.529  33.171  25.445  1.00  0.00     0.120 C 
ATOM     27  O   UNL     1     -47.060  32.329  24.375  1.00  0.00    -0.348 OA
ATOM     28  C   UNL     1     -48.751  32.482  26.040  1.00  0.00     0.088 C 
ATOM     29  H   UNL     1     -47.813  34.127  24.991  1.00  0.00     0.067 H 
ATOM     30  C   UNL     1     -48.137  31.470  23.968  1.00  0.00     0.138 C 
ATOM     31  C   UNL     1     -49.340  31.742  24.862  1.00  0.00     0.022 C 
ATOM     32  H   UNL     1     -48.472  31.785  26.833  1.00  0.00     0.063 H 
ATOM     33  H   UNL     1     -48.390  31.741  22.936  1.00  0.00     0.085 H 
ATOM     34  H   UNL     1     -50.057  32.381  24.331  1.00  0.00     0.034 H 
ATOM     35  H   UNL     1     -49.889  30.843  25.158  1.00  0.00     0.034 H 
BRANCH  28  36
ATOM     36  O   UNL     1     -49.671  33.410  26.604  1.00  0.00    -0.390 OA
ATOM     37  H   UNL     1     -50.134  32.983  27.346  1.00  0.00     0.211 HD
ENDBRANCH  28  36
BRANCH  30  38
ATOM     38  N   UNL     1     -47.668  30.092  23.933  1.00  0.00    -0.305 N 
ATOM     39  C   UNL     1     -48.336  29.042  24.518  1.00  0.00     0.013 A 
ATOM     40  C   UNL     1     -46.523  29.625  23.341  1.00  0.00     0.147 A 
ATOM     41  C   UNL     1     -47.620  27.875  24.309  1.00  0.00    -0.014 A 
ATOM     42  H   UNL     1     -49.273  29.208  25.037  1.00  0.00     0.082 H 
ATOM     43  C   UNL     1     -46.463  28.248  23.538  1.00  0.00     0.065 A 
ATOM     44  N   UNL     1     -45.618  30.373  22.688  1.00  0.00    -0.218 NA
ATOM     45  C   UNL     1     -45.353  27.590  22.977  1.00  0.00     0.136 A 
ATOM     46  C   UNL     1     -44.605  29.634  22.210  1.00  0.00     0.120 A 
ATOM     47  N   UNL     1     -44.427  28.308  22.314  1.00  0.00    -0.219 NA
ATOM     48  H   UNL     1     -43.834  30.175  21.670  1.00  0.00     0.106 H 
BRANCH  41  49
ATOM     49  C   UNL     1     -47.968  26.485  24.784  1.00  0.00    -0.014 C 
ATOM     50  C   UNL     1     -46.902  25.811  25.658  1.00  0.00    -0.046 C 
ATOM     51  C   UNL     1     -49.200  26.467  25.692  1.00  0.00    -0.046 C 
ATOM     52  H   UNL     1     -48.136  25.861  23.899  1.00  0.00     0.035 H 
ATOM     53  C   UNL     1     -47.259  26.146  27.108  1.00  0.00    -0.053 C 
ATOM     54  H   UNL     1     -46.967  24.723  25.528  1.00  0.00     0.027 H 
ATOM     55  H   UNL     1     -45.876  26.100  25.408  1.00  0.00     0.027 H 
ATOM     56  C   UNL     1     -48.654  26.762  27.081  1.00  0.00    -0.053 C 
ATOM     57  H   UNL     1     -49.648  25.465  25.683  1.00  0.00     0.027 H 
ATOM     58  H   UNL     1     -49.976  27.183  25.400  1.00  0.00     0.027 H 
ATOM     59  H   UNL     1     -47.240  25.239  27.722  1.00  0.00     0.027 H 
ATOM     60  H   UNL     1     -46.537  26.846  27.544  1.00  0.00     0.027 H 
ATOM     61  H   UNL     1     -48.586  27.844  27.240  1.00  0.00     0.027 H 
ATOM     62  H   UNL     1     -49.297  26.356  27.868  1.00  0.00     0.027 H 
ENDBRANCH  41  49
BRANCH  45  63
ATOM     63  N   UNL     1     -45.141  26.217  23.033  1.00  0.00    -0.383 N 
ATOM     64  H   UNL     1     -45.577  25.708  22.277  1.00  0.00     0.158 HD
ATOM     65  H   UNL     1     -44.150  26.037  23.156  1.00  0.00     0.158 HD
ENDBRANCH  45  63
ENDBRANCH  30  38
ENDBRANCH   1  26
TORSDOF 9
ENDMDL
MODEL 7
REMARK VINA RESULT:      -9.2      2.306      3.970
REMARK SMILES CNc1ccc2ccc(OC[C@H]3O[C@@H](n4cc(C5CCCC5)c5c(N)ncnc54)C[C@@H]3O)cc2n1
REMARK SMILES IDX 11 1 10 4 9 5 3 6 4 7 35 8 5 9 34 11 6 12 33 14 7 15 8 17
REMARK SMILES IDX 2 20 1 22 12 26 13 27 31 28 14 30 30 31 32 36 15 38 16 39
REMARK SMILES IDX 29 40 17 41 23 43 28 44 24 45 27 46 26 47 18 49 19 50 22 51
REMARK SMILES IDX 20 53 21 56 25 63
REMARK H PARENT 11 2 11 3 4 10 5 13 33 16 7 18 8 19 2 21 1 23 1 24 1 25 12 29
REMARK H PARENT 31 32 14 33 30 34 30 35 32 37 16 42 27 48 18 52 19 54 19 55
REMARK H PARENT 22 57 22 58 20 59 20 60 21 61 21 62 25 64 25 65
REMARK Flexibility Score: inf
ROOT
ATOM      1  C   UNL     1     -49.020  34.518  26.513  1.00  0.00     0.117 C 
ATOM      2  H   UNL     1     -48.953  35.147  25.619  1.00  0.00     0.073 H 
ATOM      3  H   UNL     1     -50.007  34.044  26.482  1.00  0.00     0.073 H 
ENDROOT
BRANCH   1   4
ATOM      4  O   UNL     1     -49.010  35.313  27.706  1.00  0.00    -0.491 OA
BRANCH   4   5
ATOM      5  C   UNL     1     -47.913  36.085  27.974  1.00  0.00     0.121 A 
ATOM      6  C   UNL     1     -45.691  40.087  26.663  1.00  0.00     0.126 A 
ATOM      7  C   UNL     1     -44.685  39.902  27.600  1.00  0.00    -0.019 A 
ATOM      8  N   UNL     1     -46.718  39.228  26.528  1.00  0.00    -0.231 NA
ATOM      9  C   UNL     1     -44.726  38.778  28.418  1.00  0.00    -0.049 A 
ATOM     10  H   UNL     1     -43.889  40.629  27.711  1.00  0.00     0.066 H 
ATOM     11  C   UNL     1     -46.763  38.137  27.316  1.00  0.00     0.076 A 
ATOM     12  C   UNL     1     -45.778  37.867  28.285  1.00  0.00     0.001 A 
ATOM     13  H   UNL     1     -43.945  38.626  29.156  1.00  0.00     0.063 H 
ATOM     14  C   UNL     1     -47.810  37.236  27.183  1.00  0.00     0.007 A 
ATOM     15  C   UNL     1     -45.869  36.717  29.086  1.00  0.00    -0.049 A 
ATOM     16  H   UNL     1     -48.577  37.436  26.437  1.00  0.00     0.069 H 
ATOM     17  C   UNL     1     -46.935  35.829  28.931  1.00  0.00    -0.019 A 
ATOM     18  H   UNL     1     -45.109  36.506  29.836  1.00  0.00     0.063 H 
ATOM     19  H   UNL     1     -46.963  34.955  29.572  1.00  0.00     0.066 H 
BRANCH   6  20
ATOM     20  N   UNL     1     -45.723  41.199  25.819  1.00  0.00    -0.373 N 
ATOM     21  H   UNL     1     -46.186  40.846  24.981  1.00  0.00     0.161 HD
BRANCH  20  22
ATOM     22  C   UNL     1     -44.411  41.737  25.504  1.00  0.00     0.005 C 
ATOM     23  H   UNL     1     -43.661  40.944  25.416  1.00  0.00     0.045 H 
ATOM     24  H   UNL     1     -44.461  42.258  24.543  1.00  0.00     0.045 H 
ATOM     25  H   UNL     1     -44.082  42.466  26.252  1.00  0.00     0.045 H 
ENDBRANCH  20  22
ENDBRANCH   6  20
ENDBRANCH   4   5
ENDBRANCH   1   4
BRANCH   1  26
ATOM     26  C   UNL     1     -47.941  33.432  26.566  1.00  0.00     0.120 C 
ATOM     27  O   UNL     1     -48.544  32.127  26.653  1.00  0.00    -0.348 OA
ATOM     28  C   UNL     1     -47.067  33.428  25.318  1.00  0.00     0.088 C 
ATOM     29  H   UNL     1     -47.324  33.553  27.464  1.00  0.00     0.067 H 
ATOM     30  C   UNL     1     -47.761  31.213  25.869  1.00  0.00     0.138 C 
ATOM     31  C   UNL     1     -46.629  31.986  25.206  1.00  0.00     0.022 C 
ATOM     32  H   UNL     1     -47.631  33.730  24.432  1.00  0.00     0.063 H 
ATOM     33  H   UNL     1     -47.334  30.481  26.565  1.00  0.00     0.085 H 
ATOM     34  H   UNL     1     -45.697  31.826  25.763  1.00  0.00     0.034 H 
ATOM     35  H   UNL     1     -46.427  31.684  24.173  1.00  0.00     0.034 H 
BRANCH  28  36
ATOM     36  O   UNL     1     -45.960  34.316  25.432  1.00  0.00    -0.390 OA
ATOM     37  H   UNL     1     -45.308  34.096  24.744  1.00  0.00     0.211 HD
ENDBRANCH  28  36
BRANCH  30  38
ATOM     38  N   UNL     1     -48.638  30.471  24.974  1.00  0.00    -0.305 N 
ATOM     39  C   UNL     1     -49.156  30.990  23.810  1.00  0.00     0.013 A 
ATOM     40  C   UNL     1     -49.085  29.186  25.134  1.00  0.00     0.147 A 
ATOM     41  C   UNL     1     -49.953  30.033  23.203  1.00  0.00    -0.014 A 
ATOM     42  H   UNL     1     -48.914  32.000  23.503  1.00  0.00     0.082 H 
ATOM     43  C   UNL     1     -49.893  28.868  24.046  1.00  0.00     0.065 A 
ATOM     44  N   UNL     1     -48.793  28.378  26.168  1.00  0.00    -0.218 NA
ATOM     45  C   UNL     1     -50.432  27.568  24.032  1.00  0.00     0.136 A 
ATOM     46  C   UNL     1     -49.371  27.174  26.044  1.00  0.00     0.120 A 
ATOM     47  N   UNL     1     -50.158  26.731  25.050  1.00  0.00    -0.219 NA
ATOM     48  H   UNL     1     -49.179  26.468  26.847  1.00  0.00     0.106 H 
BRANCH  41  49
ATOM     49  C   UNL     1     -50.732  30.167  21.916  1.00  0.00    -0.014 C 
ATOM     50  C   UNL     1     -50.634  31.539  21.238  1.00  0.00    -0.046 C 
ATOM     51  C   UNL     1     -50.228  29.221  20.824  1.00  0.00    -0.046 C 
ATOM     52  H   UNL     1     -51.786  29.965  22.140  1.00  0.00     0.035 H 
ATOM     53  C   UNL     1     -49.467  31.451  20.252  1.00  0.00    -0.053 C 
ATOM     54  H   UNL     1     -51.554  31.724  20.669  1.00  0.00     0.027 H 
ATOM     55  H   UNL     1     -50.521  32.373  21.938  1.00  0.00     0.027 H 
ATOM     56  C   UNL     1     -49.084  29.976  20.164  1.00  0.00    -0.053 C 
ATOM     57  H   UNL     1     -51.024  29.052  20.088  1.00  0.00     0.027 H 
ATOM     58  H   UNL     1     -49.906  28.243  21.199  1.00  0.00     0.027 H 
ATOM     59  H   UNL     1     -49.768  31.838  19.273  1.00  0.00     0.027 H 
ATOM     60  H   UNL     1     -48.615  32.050  20.589  1.00  0.00     0.027 H 
ATOM     61  H   UNL     1     -48.149  29.802  20.709  1.00  0.00     0.027 H 
ATOM     62  H   UNL     1     -48.924  29.655  19.130  1.00  0.00     0.027 H 
ENDBRANCH  41  49
BRANCH  45  63
ATOM     63  N   UNL     1     -51.226  27.055  23.013  1.00  0.00    -0.383 N 
ATOM     64  H   UNL     1     -50.705  26.775  22.194  1.00  0.00     0.158 HD
ATOM     65  H   UNL     1     -51.842  26.345  23.395  1.00  0.00     0.158 HD
ENDBRANCH  45  63
ENDBRANCH  30  38
ENDBRANCH   1  26
TORSDOF 9
ENDMDL
