MODEL 1
REMARK VINA RESULT:     -10.6      0.000      0.000
REMARK SMILES Nc1ccc2ccc(OC[C@H]3O[C@@H](n4ccc5c(N)ncnc54)[C@H](O)[C@@H]3O)cc2n1
REMARK SMILES IDX 10 1 9 4 8 5 2 6 3 7 30 8 4 9 29 11 5 12 28 14 6 15 7 17
REMARK SMILES IDX 1 20 11 23 12 24 26 25 13 27 24 28 27 32 14 34 15 35 23 36
REMARK SMILES IDX 16 37 17 39 22 40 18 42 21 43 20 44 19 46 25 49
REMARK H PARENT 10 2 10 3 3 10 4 13 28 16 6 18 7 19 1 21 1 22 11 26 26 29
REMARK H PARENT 13 30 24 31 27 33 15 38 16 41 21 45 19 47 19 48 25 50
REMARK Flexibility Score: inf
ROOT
ATOM      1  C   UNL     1     -47.112  36.148  27.174  1.00  0.00     0.117 C 
ATOM      2  H   UNL     1     -47.257  37.219  26.980  1.00  0.00     0.073 H 
ATOM      3  H   UNL     1     -48.078  35.715  27.459  1.00  0.00     0.073 H 
ENDROOT
BRANCH   1   4
ATOM      4  O   UNL     1     -46.592  35.500  26.014  1.00  0.00    -0.491 OA
BRANCH   4   5
ATOM      5  C   UNL     1     -47.084  34.257  25.724  1.00  0.00     0.121 A 
ATOM      6  C   UNL     1     -47.004  29.986  23.659  1.00  0.00     0.124 A 
ATOM      7  C   UNL     1     -48.223  29.622  24.206  1.00  0.00    -0.019 A 
ATOM      8  N   UNL     1     -46.429  31.180  23.876  1.00  0.00    -0.231 NA
ATOM      9  C   UNL     1     -48.877  30.529  25.032  1.00  0.00    -0.049 A 
ATOM     10  H   UNL     1     -48.664  28.657  23.987  1.00  0.00     0.066 H 
ATOM     11  C   UNL     1     -47.060  32.062  24.672  1.00  0.00     0.076 A 
ATOM     12  C   UNL     1     -48.299  31.777  25.281  1.00  0.00     0.001 A 
ATOM     13  H   UNL     1     -49.836  30.259  25.468  1.00  0.00     0.063 H 
ATOM     14  C   UNL     1     -46.476  33.301  24.907  1.00  0.00     0.007 A 
ATOM     15  C   UNL     1     -48.917  32.728  26.105  1.00  0.00    -0.049 A 
ATOM     16  H   UNL     1     -45.520  33.489  24.426  1.00  0.00     0.069 H 
ATOM     17  C   UNL     1     -48.307  33.963  26.323  1.00  0.00    -0.019 A 
ATOM     18  H   UNL     1     -49.873  32.517  26.578  1.00  0.00     0.063 H 
ATOM     19  H   UNL     1     -48.791  34.697  26.963  1.00  0.00     0.066 H 
BRANCH   6  20
ATOM     20  N   UNL     1     -46.326  29.115  22.809  1.00  0.00    -0.384 N 
ATOM     21  H   UNL     1     -46.633  29.215  21.849  1.00  0.00     0.158 HD
ATOM     22  H   UNL     1     -46.486  28.174  23.160  1.00  0.00     0.158 HD
ENDBRANCH   6  20
ENDBRANCH   4   5
ENDBRANCH   1   4
BRANCH   1  23
ATOM     23  C   UNL     1     -46.108  35.989  28.320  1.00  0.00     0.123 C 
ATOM     24  O   UNL     1     -44.946  36.799  28.041  1.00  0.00    -0.345 OA
ATOM     25  C   UNL     1     -46.660  36.454  29.667  1.00  0.00     0.114 C 
ATOM     26  H   UNL     1     -45.783  34.943  28.378  1.00  0.00     0.067 H 
ATOM     27  C   UNL     1     -44.894  37.871  29.017  1.00  0.00     0.164 C 
ATOM     28  C   UNL     1     -46.269  37.922  29.691  1.00  0.00     0.128 C 
ATOM     29  H   UNL     1     -47.731  36.292  29.816  1.00  0.00     0.066 H 
ATOM     30  H   UNL     1     -44.093  37.634  29.727  1.00  0.00     0.088 H 
ATOM     31  H   UNL     1     -46.978  38.517  29.104  1.00  0.00     0.068 H 
BRANCH  25  32
ATOM     32  O   UNL     1     -45.970  35.802  30.751  1.00  0.00    -0.387 OA
ATOM     33  H   UNL     1     -46.210  36.275  31.570  1.00  0.00     0.211 HD
ENDBRANCH  25  32
BRANCH  27  34
ATOM     34  N   UNL     1     -44.545  39.113  28.341  1.00  0.00    -0.303 N 
ATOM     35  C   UNL     1     -45.110  39.604  27.186  1.00  0.00     0.009 A 
ATOM     36  C   UNL     1     -43.590  39.992  28.792  1.00  0.00     0.147 A 
ATOM     37  C   UNL     1     -44.515  40.816  26.903  1.00  0.00    -0.031 A 
ATOM     38  H   UNL     1     -45.875  39.052  26.656  1.00  0.00     0.082 H 
ATOM     39  C   UNL     1     -43.553  41.071  27.918  1.00  0.00     0.061 A 
ATOM     40  N   UNL     1     -42.830  39.831  29.888  1.00  0.00    -0.218 NA
ATOM     41  H   UNL     1     -44.738  41.445  26.052  1.00  0.00     0.065 H 
ATOM     42  C   UNL     1     -42.636  42.090  28.215  1.00  0.00     0.136 A 
ATOM     43  C   UNL     1     -41.996  40.868  30.069  1.00  0.00     0.120 A 
ATOM     44  N   UNL     1     -41.860  41.972  29.309  1.00  0.00    -0.219 NA
ATOM     45  H   UNL     1     -41.349  40.810  30.939  1.00  0.00     0.106 H 
BRANCH  42  46
ATOM     46  N   UNL     1     -42.489  43.239  27.450  1.00  0.00    -0.383 N 
ATOM     47  H   UNL     1     -43.065  44.015  27.743  1.00  0.00     0.158 HD
ATOM     48  H   UNL     1     -41.506  43.439  27.303  1.00  0.00     0.158 HD
ENDBRANCH  42  46
ENDBRANCH  27  34
BRANCH  28  49
ATOM     49  O   UNL     1     -46.260  38.423  31.024  1.00  0.00    -0.386 OA
ATOM     50  H   UNL     1     -47.109  38.135  31.419  1.00  0.00     0.211 HD
ENDBRANCH  28  49
ENDBRANCH   1  23
TORSDOF 8
ENDMDL
MODEL 2
REMARK VINA RESULT:      -9.3      1.642      1.943
REMARK SMILES Nc1ccc2ccc(OC[C@H]3O[C@@H](n4ccc5c(N)ncnc54)[C@H](O)[C@@H]3O)cc2n1
REMARK SMILES IDX 10 1 9 4 8 5 2 6 3 7 30 8 4 9 29 11 5 12 28 14 6 15 7 17
REMARK SMILES IDX 1 20 11 23 12 24 26 25 13 27 24 28 27 32 14 34 15 35 23 36
REMARK SMILES IDX 16 37 17 39 22 40 18 42 21 43 20 44 19 46 25 49
REMARK H PARENT 10 2 10 3 3 10 4 13 28 16 6 18 7 19 1 21 1 22 11 26 26 29
REMARK H PARENT 13 30 24 31 27 33 15 38 16 41 21 45 19 47 19 48 25 50
REMARK Flexibility Score: inf
ROOT
ATOM      1  C   UNL     1     -45.958  36.484  27.640  1.00  0.00     0.117 C 
ATOM      2  H   UNL     1     -46.011  35.559  28.229  1.00  0.00     0.073 H 
ATOM      3  H   UNL     1     -44.903  36.699  27.431  1.00  0.00     0.073 H 
ENDROOT
BRANCH   1   4
ATOM      4  O   UNL     1     -46.694  36.343  26.426  1.00  0.00    -0.491 OA
BRANCH   4   5
ATOM      5  C   UNL     1     -47.156  35.092  26.121  1.00  0.00     0.121 A 
ATOM      6  C   UNL     1     -46.893  30.783  24.152  1.00  0.00     0.124 A 
ATOM      7  C   UNL     1     -48.150  30.423  24.608  1.00  0.00    -0.019 A 
ATOM      8  N   UNL     1     -46.343  31.985  24.391  1.00  0.00    -0.231 NA
ATOM      9  C   UNL     1     -48.872  31.341  25.362  1.00  0.00    -0.049 A 
ATOM     10  H   UNL     1     -48.568  29.451  24.373  1.00  0.00     0.066 H 
ATOM     11  C   UNL     1     -47.039  32.878  25.118  1.00  0.00     0.076 A 
ATOM     12  C   UNL     1     -48.320  32.597  25.632  1.00  0.00     0.001 A 
ATOM     13  H   UNL     1     -49.860  31.074  25.726  1.00  0.00     0.063 H 
ATOM     14  C   UNL     1     -46.481  34.125  25.374  1.00  0.00     0.007 A 
ATOM     15  C   UNL     1     -49.007  33.560  26.386  1.00  0.00    -0.049 A 
ATOM     16  H   UNL     1     -45.491  34.310  24.967  1.00  0.00     0.069 H 
ATOM     17  C   UNL     1     -48.422  34.802  26.628  1.00  0.00    -0.019 A 
ATOM     18  H   UNL     1     -49.996  33.351  26.786  1.00  0.00     0.063 H 
ATOM     19  H   UNL     1     -48.958  35.544  27.213  1.00  0.00     0.066 H 
BRANCH   6  20
ATOM     20  N   UNL     1     -46.146  29.901  23.376  1.00  0.00    -0.384 N 
ATOM     21  H   UNL     1     -45.635  29.239  23.949  1.00  0.00     0.158 HD
ATOM     22  H   UNL     1     -45.521  30.465  22.804  1.00  0.00     0.158 HD
ENDBRANCH   6  20
ENDBRANCH   4   5
ENDBRANCH   1   4
BRANCH   1  23
ATOM     23  C   UNL     1     -46.572  37.624  28.460  1.00  0.00     0.123 C 
ATOM     24  O   UNL     1     -45.571  38.643  28.668  1.00  0.00    -0.345 OA
ATOM     25  C   UNL     1     -47.751  38.296  27.759  1.00  0.00     0.114 C 
ATOM     26  H   UNL     1     -46.875  37.244  29.443  1.00  0.00     0.067 H 
ATOM     27  C   UNL     1     -45.972  39.830  27.937  1.00  0.00     0.164 C 
ATOM     28  C   UNL     1     -47.072  39.398  26.962  1.00  0.00     0.128 C 
ATOM     29  H   UNL     1     -48.368  37.637  27.142  1.00  0.00     0.066 H 
ATOM     30  H   UNL     1     -46.330  40.564  28.668  1.00  0.00     0.088 H 
ATOM     31  H   UNL     1     -46.648  38.995  26.036  1.00  0.00     0.068 H 
BRANCH  25  32
ATOM     32  O   UNL     1     -48.621  38.927  28.720  1.00  0.00    -0.387 OA
ATOM     33  H   UNL     1     -48.074  39.544  29.241  1.00  0.00     0.211 HD
ENDBRANCH  25  32
BRANCH  27  34
ATOM     34  N   UNL     1     -44.807  40.392  27.267  1.00  0.00    -0.303 N 
ATOM     35  C   UNL     1     -44.720  40.756  25.943  1.00  0.00     0.009 A 
ATOM     36  C   UNL     1     -43.613  40.658  27.894  1.00  0.00     0.147 A 
ATOM     37  C   UNL     1     -43.458  41.269  25.725  1.00  0.00    -0.031 A 
ATOM     38  H   UNL     1     -45.550  40.611  25.264  1.00  0.00     0.082 H 
ATOM     39  C   UNL     1     -42.751  41.214  26.957  1.00  0.00     0.061 A 
ATOM     40  N   UNL     1     -43.336  40.421  29.186  1.00  0.00    -0.218 NA
ATOM     41  H   UNL     1     -43.080  41.633  24.779  1.00  0.00     0.065 H 
ATOM     42  C   UNL     1     -41.471  41.565  27.409  1.00  0.00     0.136 A 
ATOM     43  C   UNL     1     -42.086  40.798  29.501  1.00  0.00     0.120 A 
ATOM     44  N   UNL     1     -41.153  41.351  28.701  1.00  0.00    -0.219 NA
ATOM     45  H   UNL     1     -41.788  40.640  30.534  1.00  0.00     0.106 H 
BRANCH  42  46
ATOM     46  N   UNL     1     -40.502  42.143  26.602  1.00  0.00    -0.383 N 
ATOM     47  H   UNL     1     -39.856  42.747  27.090  1.00  0.00     0.158 HD
ATOM     48  H   UNL     1     -40.092  41.447  25.992  1.00  0.00     0.158 HD
ENDBRANCH  42  46
ENDBRANCH  27  34
BRANCH  28  49
ATOM     49  O   UNL     1     -48.001  40.423  26.621  1.00  0.00    -0.386 OA
ATOM     50  H   UNL     1     -47.458  41.217  26.433  1.00  0.00     0.211 HD
ENDBRANCH  28  49
ENDBRANCH   1  23
TORSDOF 8
ENDMDL
MODEL 3
REMARK VINA RESULT:      -9.3      3.563     11.035
REMARK SMILES Nc1ccc2ccc(OC[C@H]3O[C@@H](n4ccc5c(N)ncnc54)[C@H](O)[C@@H]3O)cc2n1
REMARK SMILES IDX 10 1 9 4 8 5 2 6 3 7 30 8 4 9 29 11 5 12 28 14 6 15 7 17
REMARK SMILES IDX 1 20 11 23 12 24 26 25 13 27 24 28 27 32 14 34 15 35 23 36
REMARK SMILES IDX 16 37 17 39 22 40 18 42 21 43 20 44 19 46 25 49
REMARK H PARENT 10 2 10 3 3 10 4 13 28 16 6 18 7 19 1 21 1 22 11 26 26 29
REMARK H PARENT 13 30 24 31 27 33 15 38 16 41 21 45 19 47 19 48 25 50
REMARK Flexibility Score: inf
ROOT
ATOM      1  C   UNL     1     -48.400  31.829  25.740  1.00  0.00     0.117 C 
ATOM      2  H   UNL     1     -47.445  31.709  26.267  1.00  0.00     0.073 H 
ATOM      3  H   UNL     1     -49.088  31.049  26.091  1.00  0.00     0.073 H 
ENDROOT
BRANCH   1   4
ATOM      4  O   UNL     1     -48.944  33.125  25.983  1.00  0.00    -0.491 OA
BRANCH   4   5
ATOM      5  C   UNL     1     -48.104  34.059  26.524  1.00  0.00     0.121 A 
ATOM      6  C   UNL     1     -47.046  38.230  28.524  1.00  0.00     0.124 A 
ATOM      7  C   UNL     1     -45.696  37.933  28.591  1.00  0.00    -0.019 A 
ATOM      8  N   UNL     1     -47.958  37.388  28.011  1.00  0.00    -0.231 NA
ATOM      9  C   UNL     1     -45.262  36.699  28.120  1.00  0.00    -0.049 A 
ATOM     10  H   UNL     1     -44.989  38.651  28.991  1.00  0.00     0.066 H 
ATOM     11  C   UNL     1     -47.543  36.194  27.550  1.00  0.00     0.076 A 
ATOM     12  C   UNL     1     -46.191  35.801  27.587  1.00  0.00     0.001 A 
ATOM     13  H   UNL     1     -44.205  36.452  28.164  1.00  0.00     0.063 H 
ATOM     14  C   UNL     1     -48.476  35.312  27.018  1.00  0.00     0.007 A 
ATOM     15  C   UNL     1     -45.806  34.544  27.096  1.00  0.00    -0.049 A 
ATOM     16  H   UNL     1     -49.510  35.643  27.007  1.00  0.00     0.069 H 
ATOM     17  C   UNL     1     -46.765  33.679  26.569  1.00  0.00    -0.019 A 
ATOM     18  H   UNL     1     -44.765  34.232  27.120  1.00  0.00     0.063 H 
ATOM     19  H   UNL     1     -46.461  32.706  26.190  1.00  0.00     0.066 H 
BRANCH   6  20
ATOM     20  N   UNL     1     -47.519  39.464  28.966  1.00  0.00    -0.384 N 
ATOM     21  H   UNL     1     -47.723  40.085  28.192  1.00  0.00     0.158 HD
ATOM     22  H   UNL     1     -46.808  39.850  29.582  1.00  0.00     0.158 HD
ENDBRANCH   6  20
ENDBRANCH   4   5
ENDBRANCH   1   4
BRANCH   1  23
ATOM     23  C   UNL     1     -48.154  31.670  24.236  1.00  0.00     0.123 C 
ATOM     24  O   UNL     1     -47.163  30.641  24.029  1.00  0.00    -0.345 OA
ATOM     25  C   UNL     1     -49.403  31.245  23.467  1.00  0.00     0.114 C 
ATOM     26  H   UNL     1     -47.754  32.608  23.831  1.00  0.00     0.067 H 
ATOM     27  C   UNL     1     -47.806  29.516  23.377  1.00  0.00     0.164 C 
ATOM     28  C   UNL     1     -49.317  29.728  23.517  1.00  0.00     0.128 C 
ATOM     29  H   UNL     1     -50.349  31.634  23.854  1.00  0.00     0.066 H 
ATOM     30  H   UNL     1     -47.482  29.511  22.330  1.00  0.00     0.088 H 
ATOM     31  H   UNL     1     -49.684  29.356  24.479  1.00  0.00     0.068 H 
BRANCH  25  32
ATOM     32  O   UNL     1     -49.309  31.641  22.084  1.00  0.00    -0.387 OA
ATOM     33  H   UNL     1     -49.903  31.056  21.577  1.00  0.00     0.211 HD
ENDBRANCH  25  32
BRANCH  27  34
ATOM     34  N   UNL     1     -47.346  28.281  23.997  1.00  0.00    -0.303 N 
ATOM     35  C   UNL     1     -46.125  27.675  23.809  1.00  0.00     0.009 A 
ATOM     36  C   UNL     1     -48.088  27.547  24.891  1.00  0.00     0.147 A 
ATOM     37  C   UNL     1     -46.083  26.546  24.601  1.00  0.00    -0.031 A 
ATOM     38  H   UNL     1     -45.394  28.084  23.124  1.00  0.00     0.082 H 
ATOM     39  C   UNL     1     -47.322  26.460  25.293  1.00  0.00     0.061 A 
ATOM     40  N   UNL     1     -49.333  27.837  25.302  1.00  0.00    -0.218 NA
ATOM     41  H   UNL     1     -45.257  25.851  24.666  1.00  0.00     0.065 H 
ATOM     42  C   UNL     1     -47.907  25.586  26.221  1.00  0.00     0.136 A 
ATOM     43  C   UNL     1     -49.785  26.933  26.188  1.00  0.00     0.120 A 
ATOM     44  N   UNL     1     -49.152  25.843  26.665  1.00  0.00    -0.219 NA
ATOM     45  H   UNL     1     -50.788  27.102  26.569  1.00  0.00     0.106 H 
BRANCH  42  46
ATOM     46  N   UNL     1     -47.268  24.464  26.731  1.00  0.00    -0.383 N 
ATOM     47  H   UNL     1     -46.473  24.153  26.191  1.00  0.00     0.158 HD
ATOM     48  H   UNL     1     -47.122  24.567  27.728  1.00  0.00     0.158 HD
ENDBRANCH  42  46
ENDBRANCH  27  34
BRANCH  28  49
ATOM     49  O   UNL     1     -50.099  29.141  22.481  1.00  0.00    -0.386 OA
ATOM     50  H   UNL     1     -51.002  29.504  22.595  1.00  0.00     0.211 HD
ENDBRANCH  28  49
ENDBRANCH   1  23
TORSDOF 8
ENDMDL
MODEL 4
REMARK VINA RESULT:      -9.0      2.212      9.801
REMARK SMILES Nc1ccc2ccc(OC[C@H]3O[C@@H](n4ccc5c(N)ncnc54)[C@H](O)[C@@H]3O)cc2n1
REMARK SMILES IDX 10 1 9 4 8 5 2 6 3 7 30 8 4 9 29 11 5 12 28 14 6 15 7 17
REMARK SMILES IDX 1 20 11 23 12 24 26 25 13 27 24 28 27 32 14 34 15 35 23 36
REMARK SMILES IDX 16 37 17 39 22 40 18 42 21 43 20 44 19 46 25 49
REMARK H PARENT 10 2 10 3 3 10 4 13 28 16 6 18 7 19 1 21 1 22 11 26 26 29
REMARK H PARENT 13 30 24 31 27 33 15 38 16 41 21 45 19 47 19 48 25 50
REMARK Flexibility Score: inf
ROOT
ATOM      1  C   UNL     1     -48.313  35.181  26.641  1.00  0.00     0.117 C 
ATOM      2  H   UNL     1     -49.296  35.056  26.169  1.00  0.00     0.073 H 
ATOM      3  H   UNL     1     -47.612  35.555  25.884  1.00  0.00     0.073 H 
ENDROOT
BRANCH   1   4
ATOM      4  O   UNL     1     -48.400  36.087  27.739  1.00  0.00    -0.491 OA
BRANCH   4   5
ATOM      5  C   UNL     1     -47.369  36.971  27.899  1.00  0.00     0.121 A 
ATOM      6  C   UNL     1     -44.620  40.629  26.640  1.00  0.00     0.124 A 
ATOM      7  C   UNL     1     -43.828  40.511  27.769  1.00  0.00    -0.019 A 
ATOM      8  N   UNL     1     -45.657  39.814  26.383  1.00  0.00    -0.231 NA
ATOM      9  C   UNL     1     -44.127  39.513  28.690  1.00  0.00    -0.049 A 
ATOM     10  H   UNL     1     -42.985  41.174  27.928  1.00  0.00     0.066 H 
ATOM     11  C   UNL     1     -45.948  38.845  27.269  1.00  0.00     0.076 A 
ATOM     12  C   UNL     1     -45.204  38.655  28.451  1.00  0.00     0.001 A 
ATOM     13  H   UNL     1     -43.513  39.406  29.580  1.00  0.00     0.063 H 
ATOM     14  C   UNL     1     -47.019  37.996  27.016  1.00  0.00     0.007 A 
ATOM     15  C   UNL     1     -45.548  37.631  29.345  1.00  0.00    -0.049 A 
ATOM     16  H   UNL     1     -47.574  38.170  26.099  1.00  0.00     0.069 H 
ATOM     17  C   UNL     1     -46.628  36.795  29.066  1.00  0.00    -0.019 A 
ATOM     18  H   UNL     1     -44.979  37.477  30.260  1.00  0.00     0.063 H 
ATOM     19  H   UNL     1     -46.891  36.003  29.763  1.00  0.00     0.066 H 
BRANCH   6  20
ATOM     20  N   UNL     1     -44.342  41.602  25.683  1.00  0.00    -0.384 N 
ATOM     21  H   UNL     1     -43.375  41.562  25.380  1.00  0.00     0.158 HD
ATOM     22  H   UNL     1     -44.569  42.501  26.100  1.00  0.00     0.158 HD
ENDBRANCH   6  20
ENDBRANCH   4   5
ENDBRANCH   1   4
BRANCH   1  23
ATOM     23  C   UNL     1     -47.843  33.818  27.161  1.00  0.00     0.123 C 
ATOM     24  O   UNL     1     -48.728  32.795  26.659  1.00  0.00    -0.345 OA
ATOM     25  C   UNL     1     -46.434  33.455  26.696  1.00  0.00     0.114 C 
ATOM     26  H   UNL     1     -47.901  33.806  28.257  1.00  0.00     0.067 H 
ATOM     27  C   UNL     1     -47.983  31.964  25.733  1.00  0.00     0.164 C 
ATOM     28  C   UNL     1     -46.700  32.727  25.389  1.00  0.00     0.128 C 
ATOM     29  H   UNL     1     -45.744  34.296  26.588  1.00  0.00     0.066 H 
ATOM     30  H   UNL     1     -47.777  31.011  26.234  1.00  0.00     0.088 H 
ATOM     31  H   UNL     1     -46.868  33.445  24.579  1.00  0.00     0.068 H 
BRANCH  25  32
ATOM     32  O   UNL     1     -45.827  32.513  27.603  1.00  0.00    -0.387 OA
ATOM     33  H   UNL     1     -46.431  32.416  28.363  1.00  0.00     0.211 HD
ENDBRANCH  25  32
BRANCH  27  34
ATOM     34  N   UNL     1     -48.811  31.690  24.567  1.00  0.00    -0.303 N 
ATOM     35  C   UNL     1     -50.093  32.140  24.348  1.00  0.00     0.009 A 
ATOM     36  C   UNL     1     -48.402  30.937  23.492  1.00  0.00     0.147 A 
ATOM     37  C   UNL     1     -50.502  31.678  23.114  1.00  0.00    -0.031 A 
ATOM     38  H   UNL     1     -50.612  32.738  25.086  1.00  0.00     0.082 H 
ATOM     39  C   UNL     1     -49.434  30.918  22.563  1.00  0.00     0.061 A 
ATOM     40  N   UNL     1     -47.209  30.332  23.367  1.00  0.00    -0.218 NA
ATOM     41  H   UNL     1     -51.468  31.857  22.662  1.00  0.00     0.065 H 
ATOM     42  C   UNL     1     -49.204  30.200  21.381  1.00  0.00     0.136 A 
ATOM     43  C   UNL     1     -47.106  29.680  22.197  1.00  0.00     0.120 A 
ATOM     44  N   UNL     1     -48.019  29.584  21.211  1.00  0.00    -0.219 NA
ATOM     45  H   UNL     1     -46.165  29.166  22.022  1.00  0.00     0.106 H 
BRANCH  42  46
ATOM     46  N   UNL     1     -50.129  30.098  20.351  1.00  0.00    -0.383 N 
ATOM     47  H   UNL     1     -50.501  30.981  20.032  1.00  0.00     0.158 HD
ATOM     48  H   UNL     1     -49.786  29.470  19.633  1.00  0.00     0.158 HD
ENDBRANCH  42  46
ENDBRANCH  27  34
BRANCH  28  49
ATOM     49  O   UNL     1     -45.594  31.903  25.033  1.00  0.00    -0.386 OA
ATOM     50  H   UNL     1     -45.096  31.757  25.865  1.00  0.00     0.211 HD
ENDBRANCH  28  49
ENDBRANCH   1  23
TORSDOF 8
ENDMDL
MODEL 5
REMARK VINA RESULT:      -9.0      1.413      2.318
REMARK SMILES Nc1ccc2ccc(OC[C@H]3O[C@@H](n4ccc5c(N)ncnc54)[C@H](O)[C@@H]3O)cc2n1
REMARK SMILES IDX 10 1 9 4 8 5 2 6 3 7 30 8 4 9 29 11 5 12 28 14 6 15 7 17
REMARK SMILES IDX 1 20 11 23 12 24 26 25 13 27 24 28 27 32 14 34 15 35 23 36
REMARK SMILES IDX 16 37 17 39 22 40 18 42 21 43 20 44 19 46 25 49
REMARK H PARENT 10 2 10 3 3 10 4 13 28 16 6 18 7 19 1 21 1 22 11 26 26 29
REMARK H PARENT 13 30 24 31 27 33 15 38 16 41 21 45 19 47 19 48 25 50
REMARK Flexibility Score: inf
ROOT
ATOM      1  C   UNL     1     -47.380  36.041  27.344  1.00  0.00     0.117 C 
ATOM      2  H   UNL     1     -47.709  37.085  27.261  1.00  0.00     0.073 H 
ATOM      3  H   UNL     1     -48.232  35.437  27.679  1.00  0.00     0.073 H 
ENDROOT
BRANCH   1   4
ATOM      4  O   UNL     1     -46.893  35.572  26.087  1.00  0.00    -0.491 OA
BRANCH   4   5
ATOM      5  C   UNL     1     -47.221  34.292  25.733  1.00  0.00     0.121 A 
ATOM      6  C   UNL     1     -46.559  30.153  23.508  1.00  0.00     0.124 A 
ATOM      7  C   UNL     1     -47.739  29.622  24.000  1.00  0.00    -0.019 A 
ATOM      8  N   UNL     1     -46.141  31.398  23.791  1.00  0.00    -0.231 NA
ATOM      9  C   UNL     1     -48.523  30.406  24.838  1.00  0.00    -0.049 A 
ATOM     10  H   UNL     1     -48.053  28.621  23.728  1.00  0.00     0.066 H 
ATOM     11  C   UNL     1     -46.898  32.162  24.599  1.00  0.00     0.076 A 
ATOM     12  C   UNL     1     -48.109  31.704  25.154  1.00  0.00     0.001 A 
ATOM     13  H   UNL     1     -49.453  30.004  25.231  1.00  0.00     0.063 H 
ATOM     14  C   UNL     1     -46.477  33.452  24.901  1.00  0.00     0.007 A 
ATOM     15  C   UNL     1     -48.863  32.537  25.993  1.00  0.00    -0.049 A 
ATOM     16  H   UNL     1     -45.538  33.775  24.460  1.00  0.00     0.069 H 
ATOM     17  C   UNL     1     -48.415  33.826  26.279  1.00  0.00    -0.019 A 
ATOM     18  H   UNL     1     -49.799  32.192  26.426  1.00  0.00     0.063 H 
ATOM     19  H   UNL     1     -49.003  34.468  26.931  1.00  0.00     0.066 H 
BRANCH   6  20
ATOM     20  N   UNL     1     -45.755  29.408  22.649  1.00  0.00    -0.384 N 
ATOM     21  H   UNL     1     -46.250  28.606  22.276  1.00  0.00     0.158 HD
ATOM     22  H   UNL     1     -44.933  29.130  23.179  1.00  0.00     0.158 HD
ENDBRANCH   6  20
ENDBRANCH   4   5
ENDBRANCH   1   4
BRANCH   1  23
ATOM     23  C   UNL     1     -46.247  35.964  28.372  1.00  0.00     0.123 C 
ATOM     24  O   UNL     1     -45.179  36.843  27.959  1.00  0.00    -0.345 OA
ATOM     25  C   UNL     1     -46.676  36.412  29.768  1.00  0.00     0.114 C 
ATOM     26  H   UNL     1     -45.849  34.942  28.402  1.00  0.00     0.067 H 
ATOM     27  C   UNL     1     -45.090  37.930  28.916  1.00  0.00     0.164 C 
ATOM     28  C   UNL     1     -46.383  37.902  29.738  1.00  0.00     0.128 C 
ATOM     29  H   UNL     1     -47.711  36.182  30.038  1.00  0.00     0.066 H 
ATOM     30  H   UNL     1     -44.201  37.757  29.533  1.00  0.00     0.088 H 
ATOM     31  H   UNL     1     -47.190  38.441  29.230  1.00  0.00     0.068 H 
BRANCH  25  32
ATOM     32  O   UNL     1     -45.829  35.822  30.774  1.00  0.00    -0.387 OA
ATOM     33  H   UNL     1     -45.863  36.404  31.556  1.00  0.00     0.211 HD
ENDBRANCH  25  32
BRANCH  27  34
ATOM     34  N   UNL     1     -44.902  39.183  28.196  1.00  0.00    -0.303 N 
ATOM     35  C   UNL     1     -43.715  39.856  28.019  1.00  0.00     0.009 A 
ATOM     36  C   UNL     1     -45.913  39.867  27.565  1.00  0.00     0.147 A 
ATOM     37  C   UNL     1     -43.970  40.977  27.258  1.00  0.00    -0.031 A 
ATOM     38  H   UNL     1     -42.793  39.493  28.455  1.00  0.00     0.082 H 
ATOM     39  C   UNL     1     -45.361  40.990  26.962  1.00  0.00     0.061 A 
ATOM     40  N   UNL     1     -47.206  39.506  27.538  1.00  0.00    -0.218 NA
ATOM     41  H   UNL     1     -43.239  41.715  26.956  1.00  0.00     0.065 H 
ATOM     42  C   UNL     1     -46.241  41.821  26.254  1.00  0.00     0.136 A 
ATOM     43  C   UNL     1     -47.948  40.375  26.831  1.00  0.00     0.120 A 
ATOM     44  N   UNL     1     -47.545  41.493  26.195  1.00  0.00    -0.219 NA
ATOM     45  H   UNL     1     -49.008  40.148  26.762  1.00  0.00     0.106 H 
BRANCH  42  46
ATOM     46  N   UNL     1     -45.842  42.970  25.585  1.00  0.00    -0.383 N 
ATOM     47  H   UNL     1     -45.026  43.420  25.974  1.00  0.00     0.158 HD
ATOM     48  H   UNL     1     -45.833  42.809  24.585  1.00  0.00     0.158 HD
ENDBRANCH  42  46
ENDBRANCH  27  34
BRANCH  28  49
ATOM     49  O   UNL     1     -46.259  38.422  31.059  1.00  0.00    -0.386 OA
ATOM     50  H   UNL     1     -46.798  37.832  31.625  1.00  0.00     0.211 HD
ENDBRANCH  28  49
ENDBRANCH   1  23
TORSDOF 8
ENDMDL
MODEL 6
REMARK VINA RESULT:      -9.0      1.640      9.578
REMARK SMILES Nc1ccc2ccc(OC[C@H]3O[C@@H](n4ccc5c(N)ncnc54)[C@H](O)[C@@H]3O)cc2n1
REMARK SMILES IDX 10 1 9 4 8 5 2 6 3 7 30 8 4 9 29 11 5 12 28 14 6 15 7 17
REMARK SMILES IDX 1 20 11 23 12 24 26 25 13 27 24 28 27 32 14 34 15 35 23 36
REMARK SMILES IDX 16 37 17 39 22 40 18 42 21 43 20 44 19 46 25 49
REMARK H PARENT 10 2 10 3 3 10 4 13 28 16 6 18 7 19 1 21 1 22 11 26 26 29
REMARK H PARENT 13 30 24 31 27 33 15 38 16 41 21 45 19 47 19 48 25 50
REMARK Flexibility Score: inf
ROOT
ATOM      1  C   UNL     1     -46.802  36.991  26.600  1.00  0.00     0.117 C 
ATOM      2  H   UNL     1     -47.257  36.798  25.620  1.00  0.00     0.073 H 
ATOM      3  H   UNL     1     -45.714  36.886  26.501  1.00  0.00     0.073 H 
ENDROOT
BRANCH   1   4
ATOM      4  O   UNL     1     -47.142  38.298  27.058  1.00  0.00    -0.491 OA
BRANCH   4   5
ATOM      5  C   UNL     1     -46.120  39.198  27.186  1.00  0.00     0.121 A 
ATOM      6  C   UNL     1     -42.300  41.082  29.278  1.00  0.00     0.124 A 
ATOM      7  C   UNL     1     -42.187  42.081  28.327  1.00  0.00    -0.019 A 
ATOM      8  N   UNL     1     -43.266  40.148  29.251  1.00  0.00    -0.231 NA
ATOM      9  C   UNL     1     -43.106  42.114  27.285  1.00  0.00    -0.049 A 
ATOM     10  H   UNL     1     -41.407  42.830  28.399  1.00  0.00     0.066 H 
ATOM     11  C   UNL     1     -44.159  40.178  28.246  1.00  0.00     0.076 A 
ATOM     12  C   UNL     1     -44.118  41.151  27.228  1.00  0.00     0.001 A 
ATOM     13  H   UNL     1     -43.032  42.893  26.531  1.00  0.00     0.063 H 
ATOM     14  C   UNL     1     -45.163  39.217  28.204  1.00  0.00     0.007 A 
ATOM     15  C   UNL     1     -45.071  41.139  26.199  1.00  0.00    -0.049 A 
ATOM     16  H   UNL     1     -45.166  38.479  29.001  1.00  0.00     0.069 H 
ATOM     17  C   UNL     1     -46.066  40.163  26.183  1.00  0.00    -0.019 A 
ATOM     18  H   UNL     1     -45.047  41.886  25.409  1.00  0.00     0.063 H 
ATOM     19  H   UNL     1     -46.803  40.158  25.382  1.00  0.00     0.066 H 
BRANCH   6  20
ATOM     20  N   UNL     1     -41.412  41.025  30.350  1.00  0.00    -0.384 N 
ATOM     21  H   UNL     1     -41.641  41.711  31.061  1.00  0.00     0.158 HD
ATOM     22  H   UNL     1     -40.480  41.173  29.970  1.00  0.00     0.158 HD
ENDBRANCH   6  20
ENDBRANCH   4   5
ENDBRANCH   1   4
BRANCH   1  23
ATOM     23  C   UNL     1     -47.338  35.962  27.601  1.00  0.00     0.123 C 
ATOM     24  O   UNL     1     -47.943  34.871  26.873  1.00  0.00    -0.345 OA
ATOM     25  C   UNL     1     -46.245  35.357  28.480  1.00  0.00     0.114 C 
ATOM     26  H   UNL     1     -48.116  36.425  28.220  1.00  0.00     0.067 H 
ATOM     27  C   UNL     1     -47.137  33.683  27.083  1.00  0.00     0.164 C 
ATOM     28  C   UNL     1     -45.800  34.153  27.666  1.00  0.00     0.128 C 
ATOM     29  H   UNL     1     -45.422  36.030  28.736  1.00  0.00     0.066 H 
ATOM     30  H   UNL     1     -47.684  33.029  27.772  1.00  0.00     0.088 H 
ATOM     31  H   UNL     1     -45.107  34.460  26.876  1.00  0.00     0.068 H 
BRANCH  25  32
ATOM     32  O   UNL     1     -46.800  34.866  29.716  1.00  0.00    -0.387 OA
ATOM     33  H   UNL     1     -46.932  35.637  30.298  1.00  0.00     0.211 HD
ENDBRANCH  25  32
BRANCH  27  34
ATOM     34  N   UNL     1     -46.988  32.980  25.816  1.00  0.00    -0.303 N 
ATOM     35  C   UNL     1     -46.282  33.411  24.717  1.00  0.00     0.009 A 
ATOM     36  C   UNL     1     -47.537  31.747  25.552  1.00  0.00     0.147 A 
ATOM     37  C   UNL     1     -46.372  32.437  23.744  1.00  0.00    -0.031 A 
ATOM     38  H   UNL     1     -45.786  34.372  24.710  1.00  0.00     0.082 H 
ATOM     39  C   UNL     1     -47.162  31.377  24.267  1.00  0.00     0.061 A 
ATOM     40  N   UNL     1     -48.298  31.031  26.395  1.00  0.00    -0.218 NA
ATOM     41  H   UNL     1     -45.928  32.486  22.759  1.00  0.00     0.065 H 
ATOM     42  C   UNL     1     -47.622  30.133  23.811  1.00  0.00     0.136 A 
ATOM     43  C   UNL     1     -48.675  29.862  25.850  1.00  0.00     0.120 A 
ATOM     44  N   UNL     1     -48.383  29.378  24.627  1.00  0.00    -0.219 NA
ATOM     45  H   UNL     1     -49.294  29.224  26.475  1.00  0.00     0.106 H 
BRANCH  42  46
ATOM     46  N   UNL     1     -47.323  29.615  22.558  1.00  0.00    -0.383 N 
ATOM     47  H   UNL     1     -46.395  29.224  22.477  1.00  0.00     0.158 HD
ATOM     48  H   UNL     1     -48.085  29.035  22.228  1.00  0.00     0.158 HD
ENDBRANCH  42  46
ENDBRANCH  27  34
BRANCH  28  49
ATOM     49  O   UNL     1     -45.143  33.197  28.493  1.00  0.00    -0.386 OA
ATOM     50  H   UNL     1     -45.036  32.397  27.936  1.00  0.00     0.211 HD
ENDBRANCH  28  49
ENDBRANCH   1  23
TORSDOF 8
ENDMDL
MODEL 7
REMARK VINA RESULT:      -8.8      5.016     11.100
REMARK SMILES Nc1ccc2ccc(OC[C@H]3O[C@@H](n4ccc5c(N)ncnc54)[C@H](O)[C@@H]3O)cc2n1
REMARK SMILES IDX 10 1 9 4 8 5 2 6 3 7 30 8 4 9 29 11 5 12 28 14 6 15 7 17
REMARK SMILES IDX 1 20 11 23 12 24 26 25 13 27 24 28 27 32 14 34 15 35 23 36
REMARK SMILES IDX 16 37 17 39 22 40 18 42 21 43 20 44 19 46 25 49
REMARK H PARENT 10 2 10 3 3 10 4 13 28 16 6 18 7 19 1 21 1 22 11 26 26 29
REMARK H PARENT 13 30 24 31 27 33 15 38 16 41 21 45 19 47 19 48 25 50
REMARK Flexibility Score: inf
ROOT
ATOM      1  C   UNL     1     -47.478  31.198  23.647  1.00  0.00     0.117 C 
ATOM      2  H   UNL     1     -47.022  32.105  23.230  1.00  0.00     0.073 H 
ATOM      3  H   UNL     1     -46.688  30.450  23.790  1.00  0.00     0.073 H 
ENDROOT
BRANCH   1   4
ATOM      4  O   UNL     1     -48.126  31.490  24.884  1.00  0.00    -0.491 OA
BRANCH   4   5
ATOM      5  C   UNL     1     -47.909  32.729  25.422  1.00  0.00     0.121 A 
ATOM      6  C   UNL     1     -49.115  36.621  27.852  1.00  0.00     0.124 A 
ATOM      7  C   UNL     1     -47.880  37.213  27.652  1.00  0.00    -0.019 A 
ATOM      8  N   UNL     1     -49.436  35.410  27.368  1.00  0.00    -0.231 NA
ATOM      9  C   UNL     1     -46.918  36.516  26.929  1.00  0.00    -0.049 A 
ATOM     10  H   UNL     1     -47.669  38.203  28.039  1.00  0.00     0.066 H 
ATOM     11  C   UNL     1     -48.510  34.733  26.665  1.00  0.00     0.076 A 
ATOM     12  C   UNL     1     -47.223  35.250  26.419  1.00  0.00     0.001 A 
ATOM     13  H   UNL     1     -45.944  36.967  26.761  1.00  0.00     0.063 H 
ATOM     14  C   UNL     1     -48.828  33.478  26.160  1.00  0.00     0.007 A 
ATOM     15  C   UNL     1     -46.291  34.506  25.682  1.00  0.00    -0.049 A 
ATOM     16  H   UNL     1     -49.827  33.106  26.369  1.00  0.00     0.069 H 
ATOM     17  C   UNL     1     -46.638  33.249  25.188  1.00  0.00    -0.019 A 
ATOM     18  H   UNL     1     -45.295  34.897  25.487  1.00  0.00     0.063 H 
ATOM     19  H   UNL     1     -45.911  32.675  24.617  1.00  0.00     0.066 H 
BRANCH   6  20
ATOM     20  N   UNL     1     -50.113  37.294  28.553  1.00  0.00    -0.384 N 
ATOM     21  H   UNL     1     -50.560  36.694  29.236  1.00  0.00     0.158 HD
ATOM     22  H   UNL     1     -50.777  37.641  27.864  1.00  0.00     0.158 HD
ENDBRANCH   6  20
ENDBRANCH   4   5
ENDBRANCH   1   4
BRANCH   1  23
ATOM     23  C   UNL     1     -48.521  30.674  22.655  1.00  0.00     0.123 C 
ATOM     24  O   UNL     1     -48.546  29.232  22.720  1.00  0.00    -0.345 OA
ATOM     25  C   UNL     1     -49.937  31.157  22.965  1.00  0.00     0.114 C 
ATOM     26  H   UNL     1     -48.232  30.959  21.636  1.00  0.00     0.067 H 
ATOM     27  C   UNL     1     -49.825  28.824  23.272  1.00  0.00     0.164 C 
ATOM     28  C   UNL     1     -50.455  30.073  23.896  1.00  0.00     0.128 C 
ATOM     29  H   UNL     1     -50.007  32.161  23.393  1.00  0.00     0.066 H 
ATOM     30  H   UNL     1     -50.428  28.422  22.449  1.00  0.00     0.088 H 
ATOM     31  H   UNL     1     -50.089  30.237  24.915  1.00  0.00     0.068 H 
BRANCH  25  32
ATOM     32  O   UNL     1     -50.753  31.137  21.778  1.00  0.00    -0.387 OA
ATOM     33  H   UNL     1     -50.215  31.510  21.054  1.00  0.00     0.211 HD
ENDBRANCH  25  32
BRANCH  27  34
ATOM     34  N   UNL     1     -49.607  27.755  24.236  1.00  0.00    -0.303 N 
ATOM     35  C   UNL     1     -50.573  27.097  24.962  1.00  0.00     0.009 A 
ATOM     36  C   UNL     1     -48.372  27.236  24.544  1.00  0.00     0.147 A 
ATOM     37  C   UNL     1     -49.948  26.139  25.734  1.00  0.00    -0.031 A 
ATOM     38  H   UNL     1     -51.618  27.367  24.882  1.00  0.00     0.082 H 
ATOM     39  C   UNL     1     -48.553  26.218  25.472  1.00  0.00     0.061 A 
ATOM     40  N   UNL     1     -47.200  27.644  24.031  1.00  0.00    -0.218 NA
ATOM     41  H   UNL     1     -50.439  25.463  26.421  1.00  0.00     0.065 H 
ATOM     42  C   UNL     1     -47.399  25.553  25.909  1.00  0.00     0.136 A 
ATOM     43  C   UNL     1     -46.171  26.934  24.522  1.00  0.00     0.120 A 
ATOM     44  N   UNL     1     -46.203  25.925  25.415  1.00  0.00    -0.219 NA
ATOM     45  H   UNL     1     -45.186  27.206  24.151  1.00  0.00     0.106 H 
BRANCH  42  46
ATOM     46  N   UNL     1     -47.413  24.506  26.821  1.00  0.00    -0.383 N 
ATOM     47  H   UNL     1     -48.272  24.419  27.346  1.00  0.00     0.158 HD
ATOM     48  H   UNL     1     -47.064  23.659  26.388  1.00  0.00     0.158 HD
ENDBRANCH  42  46
ENDBRANCH  27  34
BRANCH  28  49
ATOM     49  O   UNL     1     -51.880  30.069  23.927  1.00  0.00    -0.386 OA
ATOM     50  H   UNL     1     -52.132  30.801  24.527  1.00  0.00     0.211 HD
ENDBRANCH  28  49
ENDBRANCH   1  23
TORSDOF 8
ENDMDL
