MODEL 1
REMARK VINA RESULT:     -10.9      0.000      0.000
REMARK SMILES O=C(NCc1ccc2nc(CNCC3CCC3)[nH]c2c1)c1cc(=O)n2ccccc2n1
REMARK SMILES IDX 5 1 6 2 7 3 8 4 9 5 10 6 18 7 19 8 20 9 4 14 3 17 1 18 2 19
REMARK SMILES IDX 21 21 22 22 31 23 23 24 30 26 24 27 25 28 29 29 26 30 28 31
REMARK SMILES IDX 27 33 11 37 12 40 13 42 14 45 15 46 17 47 16 49
REMARK H PARENT 6 10 7 11 18 12 20 13 4 15 4 16 3 20 22 25 29 32 26 34 28 35
REMARK H PARENT 27 36 11 38 11 39 12 41 13 43 13 44 14 48 15 50 15 51 17 52
REMARK H PARENT 17 53 16 54 16 55
REMARK Flexibility Score: inf
ROOT
ATOM      1  C   UNL     1     -47.902  34.953  26.592  1.00  0.00    -0.027 A 
ATOM      2  C   UNL     1     -46.628  34.867  26.004  1.00  0.00    -0.055 A 
ATOM      3  C   UNL     1     -46.252  33.751  25.243  1.00  0.00    -0.034 A 
ATOM      4  C   UNL     1     -47.169  32.704  25.084  1.00  0.00     0.089 A 
ATOM      5  N   UNL     1     -47.041  31.521  24.395  1.00  0.00    -0.232 NA
ATOM      6  C   UNL     1     -48.189  30.892  24.560  1.00  0.00     0.121 A 
ATOM      7  N   UNL     1     -49.047  31.635  25.335  1.00  0.00    -0.341 N 
ATOM      8  C   UNL     1     -48.419  32.801  25.682  1.00  0.00     0.066 A 
ATOM      9  C   UNL     1     -48.823  33.900  26.443  1.00  0.00    -0.031 A 
ATOM     10  H   UNL     1     -45.912  35.676  26.132  1.00  0.00     0.063 H 
ATOM     11  H   UNL     1     -45.271  33.689  24.785  1.00  0.00     0.065 H 
ATOM     12  H   UNL     1     -49.993  31.361  25.563  1.00  0.00     0.168 HD
ATOM     13  H   UNL     1     -49.806  33.940  26.904  1.00  0.00     0.065 H 
ENDROOT
BRANCH   1  14
ATOM     14  C   UNL     1     -48.267  36.151  27.430  1.00  0.00     0.043 C 
ATOM     15  H   UNL     1     -48.462  35.855  28.468  1.00  0.00     0.054 H 
ATOM     16  H   UNL     1     -49.185  36.622  27.060  1.00  0.00     0.054 H 
BRANCH  14  17
ATOM     17  N   UNL     1     -47.215  37.130  27.405  1.00  0.00    -0.347 N 
ATOM     18  O   UNL     1     -46.576  36.848  29.592  1.00  0.00    -0.268 OA
ATOM     19  C   UNL     1     -46.479  37.436  28.522  1.00  0.00     0.270 C 
ATOM     20  H   UNL     1     -47.111  37.748  26.605  1.00  0.00     0.164 HD
BRANCH  19  21
ATOM     21  C   UNL     1     -45.537  38.593  28.292  1.00  0.00     0.136 A 
ATOM     22  C   UNL     1     -45.761  39.336  27.207  1.00  0.00     0.035 A 
ATOM     23  N   UNL     1     -44.520  38.807  29.196  1.00  0.00    -0.225 NA
ATOM     24  C   UNL     1     -44.868  40.473  26.945  1.00  0.00     0.258 A 
ATOM     25  H   UNL     1     -46.564  39.157  26.504  1.00  0.00     0.071 H 
ATOM     26  C   UNL     1     -43.733  39.812  28.960  1.00  0.00     0.140 A 
ATOM     27  O   UNL     1     -45.069  41.166  25.949  1.00  0.00    -0.269 OA
ATOM     28  N   UNL     1     -43.853  40.668  27.871  1.00  0.00    -0.268 N 
ATOM     29  C   UNL     1     -42.618  40.083  29.912  1.00  0.00    -0.019 A 
ATOM     30  C   UNL     1     -42.966  41.724  27.691  1.00  0.00     0.014 A 
ATOM     31  C   UNL     1     -41.790  41.112  29.696  1.00  0.00    -0.057 A 
ATOM     32  H   UNL     1     -42.518  39.422  30.764  1.00  0.00     0.066 H 
ATOM     33  C   UNL     1     -41.967  41.961  28.550  1.00  0.00    -0.045 A 
ATOM     34  H   UNL     1     -43.119  42.353  26.817  1.00  0.00     0.082 H 
ATOM     35  H   UNL     1     -40.973  41.325  30.377  1.00  0.00     0.062 H 
ATOM     36  H   UNL     1     -41.281  42.789  28.398  1.00  0.00     0.064 H 
ENDBRANCH  19  21
ENDBRANCH  14  17
ENDBRANCH   1  14
BRANCH   6  37
ATOM     37  C   UNL     1     -48.579  29.557  24.019  1.00  0.00     0.054 C 
ATOM     38  H   UNL     1     -48.491  29.588  22.927  1.00  0.00     0.051 H 
ATOM     39  H   UNL     1     -49.629  29.359  24.272  1.00  0.00     0.051 H 
BRANCH  37  40
ATOM     40  N   UNL     1     -47.714  28.506  24.573  1.00  0.00    -0.310 NA
ATOM     41  H   UNL     1     -46.944  28.971  25.059  1.00  0.00     0.123 HD
BRANCH  40  42
ATOM     42  C   UNL     1     -48.453  27.690  25.540  1.00  0.00    -0.002 C 
ATOM     43  H   UNL     1     -49.531  27.814  25.386  1.00  0.00     0.043 H 
ATOM     44  H   UNL     1     -48.221  28.017  26.561  1.00  0.00     0.043 H 
BRANCH  42  45
ATOM     45  C   UNL     1     -48.059  26.219  25.382  1.00  0.00    -0.029 C 
ATOM     46  C   UNL     1     -48.199  25.312  26.635  1.00  0.00    -0.049 C 
ATOM     47  C   UNL     1     -46.536  25.934  25.446  1.00  0.00    -0.049 C 
ATOM     48  H   UNL     1     -48.524  25.790  24.485  1.00  0.00     0.032 H 
ATOM     49  C   UNL     1     -46.715  25.590  26.938  1.00  0.00    -0.053 C 
ATOM     50  H   UNL     1     -48.904  25.639  27.403  1.00  0.00     0.027 H 
ATOM     51  H   UNL     1     -48.406  24.263  26.392  1.00  0.00     0.027 H 
ATOM     52  H   UNL     1     -46.227  25.077  24.836  1.00  0.00     0.027 H 
ATOM     53  H   UNL     1     -45.871  26.774  25.233  1.00  0.00     0.027 H 
ATOM     54  H   UNL     1     -46.137  24.735  27.300  1.00  0.00     0.027 H 
ATOM     55  H   UNL     1     -46.551  26.439  27.610  1.00  0.00     0.027 H 
ENDBRANCH  42  45
ENDBRANCH  40  42
ENDBRANCH  37  40
ENDBRANCH   6  37
TORSDOF 7
ENDMDL
MODEL 2
REMARK VINA RESULT:      -9.7      1.804      2.972
REMARK SMILES O=C(NCc1ccc2nc(CNCC3CCC3)[nH]c2c1)c1cc(=O)n2ccccc2n1
REMARK SMILES IDX 5 1 6 2 7 3 8 4 9 5 10 6 18 7 19 8 20 9 4 14 3 17 1 18 2 19
REMARK SMILES IDX 21 21 22 22 31 23 23 24 30 26 24 27 25 28 29 29 26 30 28 31
REMARK SMILES IDX 27 33 11 37 12 40 13 42 14 45 15 46 17 47 16 49
REMARK H PARENT 6 10 7 11 18 12 20 13 4 15 4 16 3 20 22 25 29 32 26 34 28 35
REMARK H PARENT 27 36 11 38 11 39 12 41 13 43 13 44 14 48 15 50 15 51 17 52
REMARK H PARENT 17 53 16 54 16 55
REMARK Flexibility Score: inf
ROOT
ATOM      1  C   UNL     1     -46.691  35.617  28.224  1.00  0.00    -0.027 A 
ATOM      2  C   UNL     1     -48.026  35.696  27.792  1.00  0.00    -0.055 A 
ATOM      3  C   UNL     1     -48.495  34.908  26.731  1.00  0.00    -0.034 A 
ATOM      4  C   UNL     1     -47.603  34.036  26.093  1.00  0.00     0.089 A 
ATOM      5  N   UNL     1     -47.816  33.172  25.046  1.00  0.00    -0.232 NA
ATOM      6  C   UNL     1     -46.654  32.587  24.829  1.00  0.00     0.121 A 
ATOM      7  N   UNL     1     -45.703  33.051  25.705  1.00  0.00    -0.341 N 
ATOM      8  C   UNL     1     -46.285  33.979  26.526  1.00  0.00     0.066 A 
ATOM      9  C   UNL     1     -45.788  34.750  27.580  1.00  0.00    -0.031 A 
ATOM     10  H   UNL     1     -48.718  36.377  28.282  1.00  0.00     0.063 H 
ATOM     11  H   UNL     1     -49.527  34.966  26.403  1.00  0.00     0.065 H 
ATOM     12  H   UNL     1     -44.749  32.719  25.741  1.00  0.00     0.168 HD
ATOM     13  H   UNL     1     -44.748  34.687  27.888  1.00  0.00     0.065 H 
ENDROOT
BRANCH   1  14
ATOM     14  C   UNL     1     -46.207  36.499  29.346  1.00  0.00     0.043 C 
ATOM     15  H   UNL     1     -45.607  35.924  30.062  1.00  0.00     0.054 H 
ATOM     16  H   UNL     1     -47.051  36.917  29.906  1.00  0.00     0.054 H 
BRANCH  14  17
ATOM     17  N   UNL     1     -45.420  37.588  28.834  1.00  0.00    -0.347 N 
ATOM     18  O   UNL     1     -44.421  38.118  30.832  1.00  0.00    -0.268 OA
ATOM     19  C   UNL     1     -44.618  38.349  29.645  1.00  0.00     0.270 C 
ATOM     20  H   UNL     1     -45.577  37.933  27.891  1.00  0.00     0.164 HD
BRANCH  19  21
ATOM     21  C   UNL     1     -44.008  39.522  28.915  1.00  0.00     0.136 A 
ATOM     22  C   UNL     1     -42.973  40.119  29.510  1.00  0.00     0.035 A 
ATOM     23  N   UNL     1     -44.545  39.900  27.706  1.00  0.00    -0.225 NA
ATOM     24  C   UNL     1     -42.349  41.265  28.836  1.00  0.00     0.258 A 
ATOM     25  H   UNL     1     -42.560  39.813  30.462  1.00  0.00     0.071 H 
ATOM     26  C   UNL     1     -43.991  40.914  27.113  1.00  0.00     0.140 A 
ATOM     27  O   UNL     1     -41.393  41.820  29.374  1.00  0.00    -0.269 OA
ATOM     28  N   UNL     1     -42.909  41.625  27.618  1.00  0.00    -0.268 N 
ATOM     29  C   UNL     1     -44.539  41.359  25.801  1.00  0.00    -0.019 A 
ATOM     30  C   UNL     1     -42.372  42.701  26.918  1.00  0.00     0.014 A 
ATOM     31  C   UNL     1     -43.989  42.401  25.165  1.00  0.00    -0.057 A 
ATOM     32  H   UNL     1     -45.383  40.810  25.399  1.00  0.00     0.066 H 
ATOM     33  C   UNL     1     -42.870  43.096  25.740  1.00  0.00    -0.045 A 
ATOM     34  H   UNL     1     -41.526  43.213  27.372  1.00  0.00     0.082 H 
ATOM     35  H   UNL     1     -44.374  42.739  24.209  1.00  0.00     0.062 H 
ATOM     36  H   UNL     1     -42.443  43.938  25.204  1.00  0.00     0.064 H 
ENDBRANCH  19  21
ENDBRANCH  14  17
ENDBRANCH   1  14
BRANCH   6  37
ATOM     37  C   UNL     1     -46.333  31.559  23.797  1.00  0.00     0.054 C 
ATOM     38  H   UNL     1     -45.631  30.839  24.233  1.00  0.00     0.051 H 
ATOM     39  H   UNL     1     -45.838  32.045  22.946  1.00  0.00     0.051 H 
BRANCH  37  40
ATOM     40  N   UNL     1     -47.557  30.876  23.354  1.00  0.00    -0.310 NA
ATOM     41  H   UNL     1     -47.354  30.448  22.448  1.00  0.00     0.123 HD
BRANCH  40  42
ATOM     42  C   UNL     1     -47.924  29.818  24.299  1.00  0.00    -0.002 C 
ATOM     43  H   UNL     1     -48.947  29.978  24.660  1.00  0.00     0.043 H 
ATOM     44  H   UNL     1     -47.255  29.842  25.167  1.00  0.00     0.043 H 
BRANCH  42  45
ATOM     45  C   UNL     1     -47.809  28.453  23.615  1.00  0.00    -0.029 C 
ATOM     46  C   UNL     1     -49.108  27.607  23.502  1.00  0.00    -0.049 C 
ATOM     47  C   UNL     1     -47.242  27.315  24.503  1.00  0.00    -0.049 C 
ATOM     48  H   UNL     1     -47.270  28.544  22.662  1.00  0.00     0.032 H 
ATOM     49  C   UNL     1     -48.694  26.896  24.804  1.00  0.00    -0.053 C 
ATOM     50  H   UNL     1     -50.054  28.152  23.545  1.00  0.00     0.027 H 
ATOM     51  H   UNL     1     -49.122  26.946  22.629  1.00  0.00     0.027 H 
ATOM     52  H   UNL     1     -46.679  26.561  23.940  1.00  0.00     0.027 H 
ATOM     53  H   UNL     1     -46.650  27.620  25.370  1.00  0.00     0.027 H 
ATOM     54  H   UNL     1     -48.880  25.819  24.835  1.00  0.00     0.027 H 
ATOM     55  H   UNL     1     -49.108  27.353  25.710  1.00  0.00     0.027 H 
ENDBRANCH  42  45
ENDBRANCH  40  42
ENDBRANCH  37  40
ENDBRANCH   6  37
TORSDOF 7
ENDMDL
MODEL 3
REMARK VINA RESULT:      -9.5      1.631      2.439
REMARK SMILES O=C(NCc1ccc2nc(CNCC3CCC3)[nH]c2c1)c1cc(=O)n2ccccc2n1
REMARK SMILES IDX 5 1 6 2 7 3 8 4 9 5 10 6 18 7 19 8 20 9 4 14 3 17 1 18 2 19
REMARK SMILES IDX 21 21 22 22 31 23 23 24 30 26 24 27 25 28 29 29 26 30 28 31
REMARK SMILES IDX 27 33 11 37 12 40 13 42 14 45 15 46 17 47 16 49
REMARK H PARENT 6 10 7 11 18 12 20 13 4 15 4 16 3 20 22 25 29 32 26 34 28 35
REMARK H PARENT 27 36 11 38 11 39 12 41 13 43 13 44 14 48 15 50 15 51 17 52
REMARK H PARENT 17 53 16 54 16 55
REMARK Flexibility Score: inf
ROOT
ATOM      1  C   UNL     1     -46.541  34.899  27.551  1.00  0.00    -0.027 A 
ATOM      2  C   UNL     1     -47.906  34.926  27.219  1.00  0.00    -0.055 A 
ATOM      3  C   UNL     1     -48.434  34.074  26.238  1.00  0.00    -0.034 A 
ATOM      4  C   UNL     1     -47.570  33.191  25.578  1.00  0.00     0.089 A 
ATOM      5  N   UNL     1     -47.839  32.269  24.594  1.00  0.00    -0.232 NA
ATOM      6  C   UNL     1     -46.682  31.700  24.319  1.00  0.00     0.121 A 
ATOM      7  N   UNL     1     -45.679  32.230  25.095  1.00  0.00    -0.341 N 
ATOM      8  C   UNL     1     -46.222  33.186  25.911  1.00  0.00     0.066 A 
ATOM      9  C   UNL     1     -45.667  34.020  26.884  1.00  0.00    -0.031 A 
ATOM     10  H   UNL     1     -48.577  35.616  27.726  1.00  0.00     0.063 H 
ATOM     11  H   UNL     1     -49.489  34.092  25.988  1.00  0.00     0.065 H 
ATOM     12  H   UNL     1     -44.717  31.921  25.074  1.00  0.00     0.168 HD
ATOM     13  H   UNL     1     -44.606  33.997  27.114  1.00  0.00     0.065 H 
ENDROOT
BRANCH   1  14
ATOM     14  C   UNL     1     -45.997  35.849  28.587  1.00  0.00     0.043 C 
ATOM     15  H   UNL     1     -45.106  35.429  29.070  1.00  0.00     0.054 H 
ATOM     16  H   UNL     1     -46.732  36.024  29.381  1.00  0.00     0.054 H 
BRANCH  14  17
ATOM     17  N   UNL     1     -45.663  37.114  27.993  1.00  0.00    -0.347 N 
ATOM     18  O   UNL     1     -45.072  38.149  29.955  1.00  0.00    -0.268 OA
ATOM     19  C   UNL     1     -45.269  38.190  28.746  1.00  0.00     0.270 C 
ATOM     20  H   UNL     1     -45.883  37.294  27.017  1.00  0.00     0.164 HD
BRANCH  19  21
ATOM     21  C   UNL     1     -45.116  39.447  27.922  1.00  0.00     0.136 A 
ATOM     22  C   UNL     1     -46.221  39.911  27.336  1.00  0.00     0.035 A 
ATOM     23  N   UNL     1     -43.871  40.025  27.824  1.00  0.00    -0.225 NA
ATOM     24  C   UNL     1     -46.118  41.130  26.524  1.00  0.00     0.258 A 
ATOM     25  H   UNL     1     -47.195  39.446  27.420  1.00  0.00     0.071 H 
ATOM     26  C   UNL     1     -43.784  41.103  27.105  1.00  0.00     0.140 A 
ATOM     27  O   UNL     1     -47.131  41.568  25.982  1.00  0.00    -0.269 OA
ATOM     28  N   UNL     1     -44.853  41.695  26.442  1.00  0.00    -0.268 N 
ATOM     29  C   UNL     1     -42.456  41.765  26.971  1.00  0.00    -0.019 A 
ATOM     30  C   UNL     1     -44.675  42.852  25.691  1.00  0.00     0.014 A 
ATOM     31  C   UNL     1     -42.334  42.877  26.237  1.00  0.00    -0.057 A 
ATOM     32  H   UNL     1     -41.617  41.310  27.485  1.00  0.00     0.066 H 
ATOM     33  C   UNL     1     -43.479  43.441  25.575  1.00  0.00    -0.045 A 
ATOM     34  H   UNL     1     -45.554  43.261  25.199  1.00  0.00     0.082 H 
ATOM     35  H   UNL     1     -41.376  43.373  26.127  1.00  0.00     0.062 H 
ATOM     36  H   UNL     1     -43.353  44.344  24.985  1.00  0.00     0.064 H 
ENDBRANCH  19  21
ENDBRANCH  14  17
ENDBRANCH   1  14
BRANCH   6  37
ATOM     37  C   UNL     1     -46.412  30.627  23.317  1.00  0.00     0.054 C 
ATOM     38  H   UNL     1     -45.345  30.645  23.071  1.00  0.00     0.051 H 
ATOM     39  H   UNL     1     -46.978  30.838  22.401  1.00  0.00     0.051 H 
BRANCH  37  40
ATOM     40  N   UNL     1     -46.790  29.313  23.859  1.00  0.00    -0.310 NA
ATOM     41  H   UNL     1     -47.084  29.457  24.827  1.00  0.00     0.123 HD
BRANCH  40  42
ATOM     42  C   UNL     1     -47.915  28.753  23.106  1.00  0.00    -0.002 C 
ATOM     43  H   UNL     1     -47.612  27.817  22.622  1.00  0.00     0.043 H 
ATOM     44  H   UNL     1     -48.225  29.451  22.319  1.00  0.00     0.043 H 
BRANCH  42  45
ATOM     45  C   UNL     1     -49.095  28.505  24.051  1.00  0.00    -0.029 C 
ATOM     46  C   UNL     1     -48.759  28.227  25.542  1.00  0.00    -0.049 C 
ATOM     47  C   UNL     1     -49.689  27.073  24.002  1.00  0.00    -0.049 C 
ATOM     48  H   UNL     1     -49.863  29.278  23.918  1.00  0.00     0.032 H 
ATOM     49  C   UNL     1     -48.811  26.722  25.218  1.00  0.00    -0.053 C 
ATOM     50  H   UNL     1     -47.798  28.596  25.907  1.00  0.00     0.027 H 
ATOM     51  H   UNL     1     -49.546  28.552  26.232  1.00  0.00     0.027 H 
ATOM     52  H   UNL     1     -50.764  27.040  24.217  1.00  0.00     0.027 H 
ATOM     53  H   UNL     1     -49.494  26.493  23.096  1.00  0.00     0.027 H 
ATOM     54  H   UNL     1     -49.281  26.090  25.976  1.00  0.00     0.027 H 
ATOM     55  H   UNL     1     -47.838  26.292  24.952  1.00  0.00     0.027 H 
ENDBRANCH  42  45
ENDBRANCH  40  42
ENDBRANCH  37  40
ENDBRANCH   6  37
TORSDOF 7
ENDMDL
MODEL 4
REMARK VINA RESULT:      -9.5      2.923     11.438
REMARK SMILES O=C(NCc1ccc2nc(CNCC3CCC3)[nH]c2c1)c1cc(=O)n2ccccc2n1
REMARK SMILES IDX 5 1 6 2 7 3 8 4 9 5 10 6 18 7 19 8 20 9 4 14 3 17 1 18 2 19
REMARK SMILES IDX 21 21 22 22 31 23 23 24 30 26 24 27 25 28 29 29 26 30 28 31
REMARK SMILES IDX 27 33 11 37 12 40 13 42 14 45 15 46 17 47 16 49
REMARK H PARENT 6 10 7 11 18 12 20 13 4 15 4 16 3 20 22 25 29 32 26 34 28 35
REMARK H PARENT 27 36 11 38 11 39 12 41 13 43 13 44 14 48 15 50 15 51 17 52
REMARK H PARENT 17 53 16 54 16 55
REMARK Flexibility Score: inf
ROOT
ATOM      1  C   UNL     1     -46.777  33.521  25.483  1.00  0.00    -0.027 A 
ATOM      2  C   UNL     1     -48.117  33.794  25.809  1.00  0.00    -0.055 A 
ATOM      3  C   UNL     1     -48.449  34.621  26.891  1.00  0.00    -0.034 A 
ATOM      4  C   UNL     1     -47.414  35.171  27.660  1.00  0.00     0.089 A 
ATOM      5  N   UNL     1     -47.479  35.999  28.755  1.00  0.00    -0.232 NA
ATOM      6  C   UNL     1     -46.226  36.223  29.102  1.00  0.00     0.121 A 
ATOM      7  N   UNL     1     -45.361  35.561  28.264  1.00  0.00    -0.341 N 
ATOM      8  C   UNL     1     -46.097  34.881  27.331  1.00  0.00     0.066 A 
ATOM      9  C   UNL     1     -45.735  34.063  26.258  1.00  0.00    -0.031 A 
ATOM     10  H   UNL     1     -48.921  33.363  25.217  1.00  0.00     0.063 H 
ATOM     11  H   UNL     1     -49.482  34.835  27.138  1.00  0.00     0.065 H 
ATOM     12  H   UNL     1     -44.354  35.615  28.324  1.00  0.00     0.168 HD
ATOM     13  H   UNL     1     -44.694  33.849  26.033  1.00  0.00     0.065 H 
ENDROOT
BRANCH   1  14
ATOM     14  C   UNL     1     -46.452  32.603  24.333  1.00  0.00     0.043 C 
ATOM     15  H   UNL     1     -45.370  32.567  24.158  1.00  0.00     0.054 H 
ATOM     16  H   UNL     1     -46.909  32.963  23.404  1.00  0.00     0.054 H 
BRANCH  14  17
ATOM     17  N   UNL     1     -46.937  31.274  24.589  1.00  0.00    -0.347 N 
ATOM     18  O   UNL     1     -48.102  31.064  22.621  1.00  0.00    -0.268 OA
ATOM     19  C   UNL     1     -47.776  30.626  23.718  1.00  0.00     0.270 C 
ATOM     20  H   UNL     1     -46.814  30.853  25.505  1.00  0.00     0.164 HD
BRANCH  19  21
ATOM     21  C   UNL     1     -48.269  29.308  24.265  1.00  0.00     0.136 A 
ATOM     22  C   UNL     1     -49.592  29.142  24.314  1.00  0.00     0.035 A 
ATOM     23  N   UNL     1     -47.344  28.376  24.678  1.00  0.00    -0.225 NA
ATOM     24  C   UNL     1     -50.115  27.875  24.840  1.00  0.00     0.258 A 
ATOM     25  H   UNL     1     -50.309  29.884  23.987  1.00  0.00     0.071 H 
ATOM     26  C   UNL     1     -47.810  27.257  25.143  1.00  0.00     0.140 A 
ATOM     27  O   UNL     1     -51.334  27.711  24.886  1.00  0.00    -0.269 OA
ATOM     28  N   UNL     1     -49.163  26.952  25.247  1.00  0.00    -0.268 N 
ATOM     29  C   UNL     1     -46.846  26.217  25.600  1.00  0.00    -0.019 A 
ATOM     30  C   UNL     1     -49.581  25.727  25.758  1.00  0.00     0.014 A 
ATOM     31  C   UNL     1     -47.297  25.054  26.085  1.00  0.00    -0.057 A 
ATOM     32  H   UNL     1     -45.790  26.447  25.522  1.00  0.00     0.066 H 
ATOM     33  C   UNL     1     -48.709  24.798  26.167  1.00  0.00    -0.045 A 
ATOM     34  H   UNL     1     -50.654  25.555  25.811  1.00  0.00     0.082 H 
ATOM     35  H   UNL     1     -46.610  24.285  26.422  1.00  0.00     0.062 H 
ATOM     36  H   UNL     1     -49.048  23.846  26.564  1.00  0.00     0.064 H 
ENDBRANCH  19  21
ENDBRANCH  14  17
ENDBRANCH   1  14
BRANCH   6  37
ATOM     37  C   UNL     1     -45.732  37.060  30.234  1.00  0.00     0.054 C 
ATOM     38  H   UNL     1     -44.755  36.675  30.548  1.00  0.00     0.051 H 
ATOM     39  H   UNL     1     -46.424  36.967  31.080  1.00  0.00     0.051 H 
BRANCH  37  40
ATOM     40  N   UNL     1     -45.618  38.467  29.820  1.00  0.00    -0.310 NA
ATOM     41  H   UNL     1     -44.951  38.915  30.453  1.00  0.00     0.123 HD
BRANCH  40  42
ATOM     42  C   UNL     1     -45.099  38.558  28.453  1.00  0.00    -0.002 C 
ATOM     43  H   UNL     1     -45.720  37.958  27.777  1.00  0.00     0.043 H 
ATOM     44  H   UNL     1     -44.078  38.160  28.411  1.00  0.00     0.043 H 
BRANCH  42  45
ATOM     45  C   UNL     1     -45.087  40.022  28.003  1.00  0.00    -0.029 C 
ATOM     46  C   UNL     1     -45.087  40.291  26.473  1.00  0.00    -0.049 C 
ATOM     47  C   UNL     1     -43.699  40.712  28.042  1.00  0.00    -0.049 C 
ATOM     48  H   UNL     1     -45.852  40.597  28.542  1.00  0.00     0.032 H 
ATOM     49  C   UNL     1     -43.551  40.386  26.543  1.00  0.00    -0.053 C 
ATOM     50  H   UNL     1     -45.479  39.496  25.834  1.00  0.00     0.027 H 
ATOM     51  H   UNL     1     -45.571  41.235  26.198  1.00  0.00     0.027 H 
ATOM     52  H   UNL     1     -43.752  41.787  28.251  1.00  0.00     0.027 H 
ATOM     53  H   UNL     1     -42.948  40.264  28.698  1.00  0.00     0.027 H 
ATOM     54  H   UNL     1     -43.097  41.170  25.931  1.00  0.00     0.027 H 
ATOM     55  H   UNL     1     -43.039  39.439  26.345  1.00  0.00     0.027 H 
ENDBRANCH  42  45
ENDBRANCH  40  42
ENDBRANCH  37  40
ENDBRANCH   6  37
TORSDOF 7
ENDMDL
MODEL 5
REMARK VINA RESULT:      -9.4      1.918      2.763
REMARK SMILES O=C(NCc1ccc2nc(CNCC3CCC3)[nH]c2c1)c1cc(=O)n2ccccc2n1
REMARK SMILES IDX 5 1 6 2 7 3 8 4 9 5 10 6 18 7 19 8 20 9 4 14 3 17 1 18 2 19
REMARK SMILES IDX 21 21 22 22 31 23 23 24 30 26 24 27 25 28 29 29 26 30 28 31
REMARK SMILES IDX 27 33 11 37 12 40 13 42 14 45 15 46 17 47 16 49
REMARK H PARENT 6 10 7 11 18 12 20 13 4 15 4 16 3 20 22 25 29 32 26 34 28 35
REMARK H PARENT 27 36 11 38 11 39 12 41 13 43 13 44 14 48 15 50 15 51 17 52
REMARK H PARENT 17 53 16 54 16 55
REMARK Flexibility Score: inf
ROOT
ATOM      1  C   UNL     1     -47.435  36.252  27.353  1.00  0.00    -0.027 A 
ATOM      2  C   UNL     1     -46.108  35.798  27.436  1.00  0.00    -0.055 A 
ATOM      3  C   UNL     1     -45.756  34.499  27.043  1.00  0.00    -0.034 A 
ATOM      4  C   UNL     1     -46.761  33.644  26.569  1.00  0.00     0.089 A 
ATOM      5  N   UNL     1     -46.673  32.345  26.129  1.00  0.00    -0.232 NA
ATOM      6  C   UNL     1     -47.902  32.002  25.797  1.00  0.00     0.121 A 
ATOM      7  N   UNL     1     -48.775  33.041  26.012  1.00  0.00    -0.341 N 
ATOM      8  C   UNL     1     -48.069  34.106  26.505  1.00  0.00     0.066 A 
ATOM      9  C   UNL     1     -48.449  35.394  26.888  1.00  0.00    -0.031 A 
ATOM     10  H   UNL     1     -45.328  36.459  27.810  1.00  0.00     0.063 H 
ATOM     11  H   UNL     1     -44.731  34.153  27.102  1.00  0.00     0.065 H 
ATOM     12  H   UNL     1     -49.762  33.011  25.797  1.00  0.00     0.168 HD
ATOM     13  H   UNL     1     -49.484  35.720  26.833  1.00  0.00     0.065 H 
ENDROOT
BRANCH   1  14
ATOM     14  C   UNL     1     -47.788  37.643  27.813  1.00  0.00     0.043 C 
ATOM     15  H   UNL     1     -48.086  37.640  28.869  1.00  0.00     0.054 H 
ATOM     16  H   UNL     1     -48.640  38.037  27.247  1.00  0.00     0.054 H 
BRANCH  14  17
ATOM     17  N   UNL     1     -46.676  38.536  27.636  1.00  0.00    -0.347 N 
ATOM     18  O   UNL     1     -47.930  40.455  27.511  1.00  0.00    -0.268 OA
ATOM     19  C   UNL     1     -46.848  39.884  27.447  1.00  0.00     0.270 C 
ATOM     20  H   UNL     1     -45.745  38.165  27.467  1.00  0.00     0.164 HD
BRANCH  19  21
ATOM     21  C   UNL     1     -45.552  40.593  27.136  1.00  0.00     0.136 A 
ATOM     22  C   UNL     1     -44.554  40.413  28.003  1.00  0.00     0.035 A 
ATOM     23  N   UNL     1     -45.479  41.370  26.003  1.00  0.00    -0.225 NA
ATOM     24  C   UNL     1     -43.275  41.085  27.740  1.00  0.00     0.258 A 
ATOM     25  H   UNL     1     -44.624  39.800  28.892  1.00  0.00     0.071 H 
ATOM     26  C   UNL     1     -44.347  41.963  25.773  1.00  0.00     0.140 A 
ATOM     27  O   UNL     1     -42.347  40.923  28.531  1.00  0.00    -0.269 OA
ATOM     28  N   UNL     1     -43.226  41.861  26.590  1.00  0.00    -0.268 N 
ATOM     29  C   UNL     1     -44.221  42.814  24.557  1.00  0.00    -0.019 A 
ATOM     30  C   UNL     1     -42.048  42.529  26.273  1.00  0.00     0.014 A 
ATOM     31  C   UNL     1     -43.066  43.438  24.294  1.00  0.00    -0.057 A 
ATOM     32  H   UNL     1     -45.089  42.898  23.914  1.00  0.00     0.066 H 
ATOM     33  C   UNL     1     -41.942  43.292  25.179  1.00  0.00    -0.045 A 
ATOM     34  H   UNL     1     -41.211  42.405  26.957  1.00  0.00     0.082 H 
ATOM     35  H   UNL     1     -42.955  44.062  23.414  1.00  0.00     0.062 H 
ATOM     36  H   UNL     1     -41.017  43.810  24.943  1.00  0.00     0.064 H 
ENDBRANCH  19  21
ENDBRANCH  14  17
ENDBRANCH   1  14
BRANCH   6  37
ATOM     37  C   UNL     1     -48.365  30.689  25.259  1.00  0.00     0.054 C 
ATOM     38  H   UNL     1     -47.691  30.391  24.448  1.00  0.00     0.051 H 
ATOM     39  H   UNL     1     -49.372  30.807  24.839  1.00  0.00     0.051 H 
BRANCH  37  40
ATOM     40  N   UNL     1     -48.370  29.672  26.321  1.00  0.00    -0.310 NA
ATOM     41  H   UNL     1     -49.081  29.948  27.001  1.00  0.00     0.123 HD
BRANCH  40  42
ATOM     42  C   UNL     1     -48.730  28.362  25.773  1.00  0.00    -0.002 C 
ATOM     43  H   UNL     1     -48.144  28.161  24.869  1.00  0.00     0.043 H 
ATOM     44  H   UNL     1     -49.791  28.350  25.493  1.00  0.00     0.043 H 
BRANCH  42  45
ATOM     45  C   UNL     1     -48.476  27.277  26.823  1.00  0.00    -0.029 C 
ATOM     46  C   UNL     1     -47.075  26.605  26.821  1.00  0.00    -0.049 C 
ATOM     47  C   UNL     1     -49.056  25.879  26.482  1.00  0.00    -0.049 C 
ATOM     48  H   UNL     1     -48.787  27.623  27.818  1.00  0.00     0.032 H 
ATOM     49  C   UNL     1     -47.668  25.493  25.936  1.00  0.00    -0.053 C 
ATOM     50  H   UNL     1     -46.257  27.175  26.373  1.00  0.00     0.027 H 
ATOM     51  H   UNL     1     -46.759  26.255  27.810  1.00  0.00     0.027 H 
ATOM     52  H   UNL     1     -49.353  25.303  27.366  1.00  0.00     0.027 H 
ATOM     53  H   UNL     1     -49.873  25.853  25.755  1.00  0.00     0.027 H 
ATOM     54  H   UNL     1     -47.335  24.477  26.166  1.00  0.00     0.027 H 
ATOM     55  H   UNL     1     -47.550  25.670  24.862  1.00  0.00     0.027 H 
ENDBRANCH  42  45
ENDBRANCH  40  42
ENDBRANCH  37  40
ENDBRANCH   6  37
TORSDOF 7
ENDMDL
MODEL 6
REMARK VINA RESULT:      -9.2      2.783     11.555
REMARK SMILES O=C(NCc1ccc2nc(CNCC3CCC3)[nH]c2c1)c1cc(=O)n2ccccc2n1
REMARK SMILES IDX 5 1 6 2 7 3 8 4 9 5 10 6 18 7 19 8 20 9 4 14 3 17 1 18 2 19
REMARK SMILES IDX 21 21 22 22 31 23 23 24 30 26 24 27 25 28 29 29 26 30 28 31
REMARK SMILES IDX 27 33 11 37 12 40 13 42 14 45 15 46 17 47 16 49
REMARK H PARENT 6 10 7 11 18 12 20 13 4 15 4 16 3 20 22 25 29 32 26 34 28 35
REMARK H PARENT 27 36 11 38 11 39 12 41 13 43 13 44 14 48 15 50 15 51 17 52
REMARK H PARENT 17 53 16 54 16 55
REMARK Flexibility Score: inf
ROOT
ATOM      1  C   UNL     1     -47.910  34.366  26.742  1.00  0.00    -0.027 A 
ATOM      2  C   UNL     1     -46.745  33.783  27.270  1.00  0.00    -0.055 A 
ATOM      3  C   UNL     1     -45.719  34.569  27.814  1.00  0.00    -0.034 A 
ATOM      4  C   UNL     1     -45.867  35.962  27.815  1.00  0.00     0.089 A 
ATOM      5  N   UNL     1     -45.016  36.935  28.283  1.00  0.00    -0.232 NA
ATOM      6  C   UNL     1     -45.625  38.080  28.044  1.00  0.00     0.121 A 
ATOM      7  N   UNL     1     -46.839  37.870  27.436  1.00  0.00    -0.341 N 
ATOM      8  C   UNL     1     -47.019  36.522  27.278  1.00  0.00     0.066 A 
ATOM      9  C   UNL     1     -48.058  35.766  26.732  1.00  0.00    -0.031 A 
ATOM     10  H   UNL     1     -46.626  32.702  27.263  1.00  0.00     0.063 H 
ATOM     11  H   UNL     1     -44.824  34.116  28.226  1.00  0.00     0.065 H 
ATOM     12  H   UNL     1     -47.489  38.604  27.190  1.00  0.00     0.168 HD
ATOM     13  H   UNL     1     -48.942  36.237  26.312  1.00  0.00     0.065 H 
ENDROOT
BRANCH   1  14
ATOM     14  C   UNL     1     -48.981  33.498  26.135  1.00  0.00     0.043 C 
ATOM     15  H   UNL     1     -49.377  33.952  25.218  1.00  0.00     0.054 H 
ATOM     16  H   UNL     1     -49.828  33.386  26.822  1.00  0.00     0.054 H 
BRANCH  14  17
ATOM     17  N   UNL     1     -48.468  32.190  25.835  1.00  0.00    -0.347 N 
ATOM     18  O   UNL     1     -50.115  31.627  24.337  1.00  0.00    -0.268 OA
ATOM     19  C   UNL     1     -49.117  31.332  24.984  1.00  0.00     0.270 C 
ATOM     20  H   UNL     1     -47.706  31.801  26.383  1.00  0.00     0.164 HD
BRANCH  19  21
ATOM     21  C   UNL     1     -48.471  29.967  24.938  1.00  0.00     0.136 A 
ATOM     22  C   UNL     1     -47.522  29.789  24.018  1.00  0.00     0.035 A 
ATOM     23  N   UNL     1     -48.895  29.006  25.828  1.00  0.00    -0.225 NA
ATOM     24  C   UNL     1     -46.868  28.477  23.938  1.00  0.00     0.258 A 
ATOM     25  H   UNL     1     -47.198  30.553  23.323  1.00  0.00     0.071 H 
ATOM     26  C   UNL     1     -48.315  27.847  25.754  1.00  0.00     0.140 A 
ATOM     27  O   UNL     1     -45.989  28.304  23.095  1.00  0.00    -0.269 OA
ATOM     28  N   UNL     1     -47.311  27.526  24.846  1.00  0.00    -0.268 N 
ATOM     29  C   UNL     1     -48.740  26.775  26.697  1.00  0.00    -0.019 A 
ATOM     30  C   UNL     1     -46.739  26.258  24.832  1.00  0.00     0.014 A 
ATOM     31  C   UNL     1     -48.160  25.570  26.645  1.00  0.00    -0.057 A 
ATOM     32  H   UNL     1     -49.521  27.016  27.409  1.00  0.00     0.066 H 
ATOM     33  C   UNL     1     -47.126  25.300  25.683  1.00  0.00    -0.045 A 
ATOM     34  H   UNL     1     -45.960  26.076  24.096  1.00  0.00     0.082 H 
ATOM     35  H   UNL     1     -48.456  24.777  27.324  1.00  0.00     0.062 H 
ATOM     36  H   UNL     1     -46.673  24.313  25.662  1.00  0.00     0.064 H 
ENDBRANCH  19  21
ENDBRANCH  14  17
ENDBRANCH   1  14
BRANCH   6  37
ATOM     37  C   UNL     1     -45.133  39.454  28.356  1.00  0.00     0.054 C 
ATOM     38  H   UNL     1     -44.040  39.420  28.431  1.00  0.00     0.051 H 
ATOM     39  H   UNL     1     -45.532  39.768  29.329  1.00  0.00     0.051 H 
BRANCH  37  40
ATOM     40  N   UNL     1     -45.545  40.397  27.306  1.00  0.00    -0.310 NA
ATOM     41  H   UNL     1     -45.879  41.243  27.773  1.00  0.00     0.123 HD
BRANCH  40  42
ATOM     42  C   UNL     1     -44.403  40.751  26.459  1.00  0.00    -0.002 C 
ATOM     43  H   UNL     1     -44.733  40.876  25.420  1.00  0.00     0.043 H 
ATOM     44  H   UNL     1     -43.658  39.946  26.478  1.00  0.00     0.043 H 
BRANCH  42  45
ATOM     45  C   UNL     1     -43.761  42.043  26.971  1.00  0.00    -0.029 C 
ATOM     46  C   UNL     1     -42.654  42.681  26.087  1.00  0.00    -0.049 C 
ATOM     47  C   UNL     1     -42.670  41.851  28.057  1.00  0.00    -0.049 C 
ATOM     48  H   UNL     1     -44.533  42.760  27.281  1.00  0.00     0.032 H 
ATOM     49  C   UNL     1     -41.614  41.925  26.937  1.00  0.00    -0.053 C 
ATOM     50  H   UNL     1     -42.666  42.427  25.025  1.00  0.00     0.027 H 
ATOM     51  H   UNL     1     -42.591  43.770  26.188  1.00  0.00     0.027 H 
ATOM     52  H   UNL     1     -42.611  42.685  28.767  1.00  0.00     0.027 H 
ATOM     53  H   UNL     1     -42.697  40.914  28.618  1.00  0.00     0.027 H 
ATOM     54  H   UNL     1     -40.705  42.483  27.179  1.00  0.00     0.027 H 
ATOM     55  H   UNL     1     -41.333  40.949  26.528  1.00  0.00     0.027 H 
ENDBRANCH  42  45
ENDBRANCH  40  42
ENDBRANCH  37  40
ENDBRANCH   6  37
TORSDOF 7
ENDMDL
MODEL 7
REMARK VINA RESULT:      -9.2      2.485      4.075
REMARK SMILES O=C(NCc1ccc2nc(CNCC3CCC3)[nH]c2c1)c1cc(=O)n2ccccc2n1
REMARK SMILES IDX 5 1 6 2 7 3 8 4 9 5 10 6 18 7 19 8 20 9 4 14 3 17 1 18 2 19
REMARK SMILES IDX 21 21 22 22 31 23 23 24 30 26 24 27 25 28 29 29 26 30 28 31
REMARK SMILES IDX 27 33 11 37 12 40 13 42 14 45 15 46 17 47 16 49
REMARK H PARENT 6 10 7 11 18 12 20 13 4 15 4 16 3 20 22 25 29 32 26 34 28 35
REMARK H PARENT 27 36 11 38 11 39 12 41 13 43 13 44 14 48 15 50 15 51 17 52
REMARK H PARENT 17 53 16 54 16 55
REMARK Flexibility Score: inf
ROOT
ATOM      1  C   UNL     1     -46.501  36.902  28.651  1.00  0.00    -0.027 A 
ATOM      2  C   UNL     1     -47.861  36.906  28.297  1.00  0.00    -0.055 A 
ATOM      3  C   UNL     1     -48.371  36.000  27.356  1.00  0.00    -0.034 A 
ATOM      4  C   UNL     1     -47.495  35.085  26.758  1.00  0.00     0.089 A 
ATOM      5  N   UNL     1     -47.746  34.110  25.822  1.00  0.00    -0.232 NA
ATOM      6  C   UNL     1     -46.584  33.530  25.596  1.00  0.00     0.121 A 
ATOM      7  N   UNL     1     -45.594  34.106  26.357  1.00  0.00    -0.341 N 
ATOM      8  C   UNL     1     -46.152  35.103  27.111  1.00  0.00     0.066 A 
ATOM      9  C   UNL     1     -45.614  35.991  28.045  1.00  0.00    -0.031 A 
ATOM     10  H   UNL     1     -48.542  37.620  28.755  1.00  0.00     0.063 H 
ATOM     11  H   UNL     1     -49.422  36.000  27.089  1.00  0.00     0.065 H 
ATOM     12  H   UNL     1     -44.631  33.800  26.367  1.00  0.00     0.168 HD
ATOM     13  H   UNL     1     -44.557  35.984  28.292  1.00  0.00     0.065 H 
ENDROOT
BRANCH   1  14
ATOM     14  C   UNL     1     -45.975  37.909  29.641  1.00  0.00     0.043 C 
ATOM     15  H   UNL     1     -45.382  37.415  30.420  1.00  0.00     0.054 H 
ATOM     16  H   UNL     1     -46.799  38.423  30.150  1.00  0.00     0.054 H 
BRANCH  14  17
ATOM     17  N   UNL     1     -45.165  38.896  28.982  1.00  0.00    -0.347 N 
ATOM     18  O   UNL     1     -46.913  40.033  28.020  1.00  0.00    -0.268 OA
ATOM     19  C   UNL     1     -45.710  39.862  28.174  1.00  0.00     0.270 C 
ATOM     20  H   UNL     1     -44.154  38.795  28.956  1.00  0.00     0.164 HD
BRANCH  19  21
ATOM     21  C   UNL     1     -44.657  40.691  27.476  1.00  0.00     0.136 A 
ATOM     22  C   UNL     1     -43.472  40.779  28.082  1.00  0.00     0.035 A 
ATOM     23  N   UNL     1     -44.978  41.297  26.283  1.00  0.00    -0.225 NA
ATOM     24  C   UNL     1     -42.420  41.575  27.438  1.00  0.00     0.258 A 
ATOM     25  H   UNL     1     -43.233  40.298  29.021  1.00  0.00     0.071 H 
ATOM     26  C   UNL     1     -44.045  42.001  25.717  1.00  0.00     0.140 A 
ATOM     27  O   UNL     1     -41.322  41.660  27.988  1.00  0.00    -0.269 OA
ATOM     28  N   UNL     1     -42.767  42.175  26.236  1.00  0.00    -0.268 N 
ATOM     29  C   UNL     1     -44.346  42.675  24.423  1.00  0.00    -0.019 A 
ATOM     30  C   UNL     1     -41.823  42.946  25.566  1.00  0.00     0.014 A 
ATOM     31  C   UNL     1     -43.404  43.408  23.816  1.00  0.00    -0.057 A 
ATOM     32  H   UNL     1     -45.339  42.545  24.010  1.00  0.00     0.066 H 
ATOM     33  C   UNL     1     -42.100  43.549  24.404  1.00  0.00    -0.045 A 
ATOM     34  H   UNL     1     -40.843  43.040  26.030  1.00  0.00     0.082 H 
ATOM     35  H   UNL     1     -43.604  43.906  22.873  1.00  0.00     0.062 H 
ATOM     36  H   UNL     1     -41.355  44.150  23.891  1.00  0.00     0.064 H 
ENDBRANCH  19  21
ENDBRANCH  14  17
ENDBRANCH   1  14
BRANCH   6  37
ATOM     37  C   UNL     1     -46.296  32.406  24.658  1.00  0.00     0.054 C 
ATOM     38  H   UNL     1     -45.233  32.152  24.740  1.00  0.00     0.051 H 
ATOM     39  H   UNL     1     -46.490  32.735  23.630  1.00  0.00     0.051 H 
BRANCH  37  40
ATOM     40  N   UNL     1     -47.127  31.238  24.987  1.00  0.00    -0.310 NA
ATOM     41  H   UNL     1     -47.530  31.404  25.912  1.00  0.00     0.123 HD
BRANCH  40  42
ATOM     42  C   UNL     1     -48.218  31.097  24.019  1.00  0.00    -0.002 C 
ATOM     43  H   UNL     1     -48.312  32.015  23.426  1.00  0.00     0.043 H 
ATOM     44  H   UNL     1     -49.168  30.939  24.544  1.00  0.00     0.043 H 
BRANCH  42  45
ATOM     45  C   UNL     1     -47.944  29.900  23.105  1.00  0.00    -0.029 C 
ATOM     46  C   UNL     1     -46.461  29.478  22.917  1.00  0.00    -0.049 C 
ATOM     47  C   UNL     1     -47.963  30.212  21.585  1.00  0.00    -0.049 C 
ATOM     48  H   UNL     1     -48.602  29.060  23.364  1.00  0.00     0.032 H 
ATOM     49  C   UNL     1     -46.430  30.349  21.647  1.00  0.00    -0.053 C 
ATOM     50  H   UNL     1     -45.763  29.772  23.705  1.00  0.00     0.027 H 
ATOM     51  H   UNL     1     -46.335  28.408  22.716  1.00  0.00     0.027 H 
ATOM     52  H   UNL     1     -48.301  29.369  20.971  1.00  0.00     0.027 H 
ATOM     53  H   UNL     1     -48.505  31.110  21.277  1.00  0.00     0.027 H 
ATOM     54  H   UNL     1     -45.882  29.930  20.799  1.00  0.00     0.027 H 
ATOM     55  H   UNL     1     -46.083  31.374  21.820  1.00  0.00     0.027 H 
ENDBRANCH  42  45
ENDBRANCH  40  42
ENDBRANCH  37  40
ENDBRANCH   6  37
TORSDOF 7
ENDMDL
