MODEL 1
REMARK VINA RESULT:     -10.4      0.000      0.000
REMARK SMILES CNc1ccc2ccc(OC[C@H]3O[C@@H](n4cc(C5CC5)c5c(N)ncnc54)[C@@H](F)[C@@H]3O)cc2n1
REMARK SMILES IDX 11 1 10 4 9 5 3 6 4 7 34 8 5 9 33 11 6 12 32 14 7 15 8 17
REMARK SMILES IDX 2 20 1 22 12 26 13 27 30 28 14 30 28 31 29 34 31 36 15 38
REMARK SMILES IDX 16 39 27 40 17 41 21 43 26 44 22 45 25 46 24 47 18 49 19 50
REMARK SMILES IDX 20 51 23 57
REMARK H PARENT 11 2 11 3 4 10 5 13 32 16 7 18 8 19 2 21 1 23 1 24 1 25 12 29
REMARK H PARENT 30 32 14 33 28 35 31 37 16 42 25 48 18 52 19 53 19 54 20 55
REMARK H PARENT 20 56 23 58 23 59
REMARK Flexibility Score: inf
ROOT
ATOM      1  C   UNL     1     -46.936  36.187  27.126  1.00  0.00     0.117 C 
ATOM      2  H   UNL     1     -46.875  37.203  26.720  1.00  0.00     0.073 H 
ATOM      3  H   UNL     1     -47.989  36.017  27.376  1.00  0.00     0.073 H 
ENDROOT
BRANCH   1   4
ATOM      4  O   UNL     1     -46.513  35.330  26.060  1.00  0.00    -0.491 OA
BRANCH   4   5
ATOM      5  C   UNL     1     -47.190  34.166  25.833  1.00  0.00     0.121 A 
ATOM      6  C   UNL     1     -46.863  29.964  23.614  1.00  0.00     0.126 A 
ATOM      7  C   UNL     1     -48.112  29.565  24.067  1.00  0.00    -0.019 A 
ATOM      8  N   UNL     1     -46.328  31.158  23.932  1.00  0.00    -0.231 NA
ATOM      9  C   UNL     1     -48.848  30.434  24.865  1.00  0.00    -0.049 A 
ATOM     10  H   UNL     1     -48.502  28.583  23.824  1.00  0.00     0.066 H 
ATOM     11  C   UNL     1     -47.035  32.003  24.705  1.00  0.00     0.076 A 
ATOM     12  C   UNL     1     -48.314  31.683  25.198  1.00  0.00     0.001 A 
ATOM     13  H   UNL     1     -49.824  30.128  25.228  1.00  0.00     0.063 H 
ATOM     14  C   UNL     1     -46.501  33.241  25.038  1.00  0.00     0.007 A 
ATOM     15  C   UNL     1     -49.014  32.597  26.001  1.00  0.00    -0.049 A 
ATOM     16  H   UNL     1     -45.512  33.496  24.665  1.00  0.00     0.069 H 
ATOM     17  C   UNL     1     -48.452  33.836  26.318  1.00  0.00    -0.019 A 
ATOM     18  H   UNL     1     -49.999  32.348  26.389  1.00  0.00     0.063 H 
ATOM     19  H   UNL     1     -49.024  34.505  26.950  1.00  0.00     0.066 H 
BRANCH   6  20
ATOM     20  N   UNL     1     -46.061  29.140  22.822  1.00  0.00    -0.373 N 
ATOM     21  H   UNL     1     -46.618  29.005  21.979  1.00  0.00     0.161 HD
BRANCH  20  22
ATOM     22  C   UNL     1     -45.732  27.867  23.442  1.00  0.00     0.005 C 
ATOM     23  H   UNL     1     -46.398  27.069  23.100  1.00  0.00     0.045 H 
ATOM     24  H   UNL     1     -44.710  27.591  23.165  1.00  0.00     0.045 H 
ATOM     25  H   UNL     1     -45.767  27.927  24.535  1.00  0.00     0.045 H 
ENDBRANCH  20  22
ENDBRANCH   6  20
ENDBRANCH   4   5
ENDBRANCH   1   4
BRANCH   1  26
ATOM     26  C   UNL     1     -46.007  36.059  28.345  1.00  0.00     0.123 C 
ATOM     27  O   UNL     1     -44.848  36.900  28.134  1.00  0.00    -0.345 OA
ATOM     28  C   UNL     1     -46.676  36.543  29.636  1.00  0.00     0.119 C 
ATOM     29  H   UNL     1     -45.635  35.034  28.445  1.00  0.00     0.067 H 
ATOM     30  C   UNL     1     -44.918  38.003  29.065  1.00  0.00     0.169 C 
ATOM     31  C   UNL     1     -46.319  38.009  29.661  1.00  0.00     0.173 C 
ATOM     32  H   UNL     1     -47.754  36.357  29.637  1.00  0.00     0.066 H 
ATOM     33  H   UNL     1     -44.162  37.803  29.833  1.00  0.00     0.088 H 
ATOM     34  F   UNL     1     -47.205  38.664  28.860  1.00  0.00    -0.239 F 
ATOM     35  H   UNL     1     -46.353  38.464  30.655  1.00  0.00     0.074 H 
BRANCH  28  36
ATOM     36  O   UNL     1     -46.117  35.872  30.769  1.00  0.00    -0.387 OA
ATOM     37  H   UNL     1     -45.845  34.979  30.489  1.00  0.00     0.211 HD
ENDBRANCH  28  36
BRANCH  30  38
ATOM     38  N   UNL     1     -44.557  39.247  28.409  1.00  0.00    -0.303 N 
ATOM     39  C   UNL     1     -45.143  39.807  27.302  1.00  0.00     0.013 A 
ATOM     40  C   UNL     1     -43.529  40.053  28.844  1.00  0.00     0.147 A 
ATOM     41  C   UNL     1     -44.490  40.992  27.049  1.00  0.00    -0.014 A 
ATOM     42  H   UNL     1     -45.970  39.324  26.797  1.00  0.00     0.082 H 
ATOM     43  C   UNL     1     -43.454  41.158  28.004  1.00  0.00     0.065 A 
ATOM     44  N   UNL     1     -42.744  39.794  29.904  1.00  0.00    -0.218 NA
ATOM     45  C   UNL     1     -42.447  42.093  28.293  1.00  0.00     0.136 A 
ATOM     46  C   UNL     1     -41.822  40.757  30.077  1.00  0.00     0.120 A 
ATOM     47  N   UNL     1     -41.628  41.867  29.341  1.00  0.00    -0.219 NA
ATOM     48  H   UNL     1     -41.144  40.622  30.914  1.00  0.00     0.106 H 
BRANCH  41  49
ATOM     49  C   UNL     1     -44.837  41.945  25.881  1.00  0.00    -0.014 C 
ATOM     50  C   UNL     1     -46.250  42.455  25.745  1.00  0.00    -0.046 C 
ATOM     51  C   UNL     1     -45.159  43.386  26.179  1.00  0.00    -0.046 C 
ATOM     52  H   UNL     1     -44.306  41.733  24.959  1.00  0.00     0.035 H 
ATOM     53  H   UNL     1     -46.650  42.568  24.745  1.00  0.00     0.027 H 
ATOM     54  H   UNL     1     -46.987  42.163  26.485  1.00  0.00     0.027 H 
ATOM     55  H   UNL     1     -45.155  43.716  27.213  1.00  0.00     0.027 H 
ATOM     56  H   UNL     1     -44.821  44.138  25.476  1.00  0.00     0.027 H 
ENDBRANCH  41  49
BRANCH  45  57
ATOM     57  N   UNL     1     -42.211  43.243  27.554  1.00  0.00    -0.383 N 
ATOM     58  H   UNL     1     -41.230  43.494  27.583  1.00  0.00     0.158 HD
ATOM     59  H   UNL     1     -42.659  43.259  26.649  1.00  0.00     0.158 HD
ENDBRANCH  45  57
ENDBRANCH  30  38
ENDBRANCH   1  26
TORSDOF 9
ENDMDL
MODEL 2
REMARK VINA RESULT:      -9.6      3.907     11.899
REMARK SMILES CNc1ccc2ccc(OC[C@H]3O[C@@H](n4cc(C5CC5)c5c(N)ncnc54)[C@@H](F)[C@@H]3O)cc2n1
REMARK SMILES IDX 11 1 10 4 9 5 3 6 4 7 34 8 5 9 33 11 6 12 32 14 7 15 8 17
REMARK SMILES IDX 2 20 1 22 12 26 13 27 30 28 14 30 28 31 29 34 31 36 15 38
REMARK SMILES IDX 16 39 27 40 17 41 21 43 26 44 22 45 25 46 24 47 18 49 19 50
REMARK SMILES IDX 20 51 23 57
REMARK H PARENT 11 2 11 3 4 10 5 13 32 16 7 18 8 19 2 21 1 23 1 24 1 25 12 29
REMARK H PARENT 30 32 14 33 28 35 31 37 16 42 25 48 18 52 19 53 19 54 20 55
REMARK H PARENT 20 56 23 58 23 59
REMARK Flexibility Score: inf
ROOT
ATOM      1  C   UNL     1     -46.347  31.467  24.279  1.00  0.00     0.117 C 
ATOM      2  H   UNL     1     -45.303  31.198  24.479  1.00  0.00     0.073 H 
ATOM      3  H   UNL     1     -46.927  31.114  25.140  1.00  0.00     0.073 H 
ENDROOT
BRANCH   1   4
ATOM      4  O   UNL     1     -46.359  32.897  24.199  1.00  0.00    -0.491 OA
BRANCH   4   5
ATOM      5  C   UNL     1     -47.070  33.609  25.124  1.00  0.00     0.121 A 
ATOM      6  C   UNL     1     -47.027  37.654  27.636  1.00  0.00     0.126 A 
ATOM      7  C   UNL     1     -48.238  37.356  28.242  1.00  0.00    -0.019 A 
ATOM      8  N   UNL     1     -46.453  36.838  26.732  1.00  0.00    -0.231 NA
ATOM      9  C   UNL     1     -48.876  36.163  27.920  1.00  0.00    -0.049 A 
ATOM     10  H   UNL     1     -48.695  38.048  28.940  1.00  0.00     0.066 H 
ATOM     11  C   UNL     1     -47.066  35.683  26.415  1.00  0.00     0.076 A 
ATOM     12  C   UNL     1     -48.291  35.297  26.992  1.00  0.00     0.001 A 
ATOM     13  H   UNL     1     -49.827  35.923  28.387  1.00  0.00     0.063 H 
ATOM     14  C   UNL     1     -46.484  34.827  25.490  1.00  0.00     0.007 A 
ATOM     15  C   UNL     1     -48.893  34.081  26.630  1.00  0.00    -0.049 A 
ATOM     16  H   UNL     1     -45.540  35.119  25.036  1.00  0.00     0.069 H 
ATOM     17  C   UNL     1     -48.283  33.240  25.696  1.00  0.00    -0.019 A 
ATOM     18  H   UNL     1     -49.842  33.786  27.069  1.00  0.00     0.063 H 
ATOM     19  H   UNL     1     -48.790  32.317  25.439  1.00  0.00     0.066 H 
BRANCH   6  20
ATOM     20  N   UNL     1     -46.337  38.839  27.898  1.00  0.00    -0.373 N 
ATOM     21  H   UNL     1     -46.186  39.237  26.972  1.00  0.00     0.161 HD
BRANCH  20  22
ATOM     22  C   UNL     1     -45.077  38.644  28.597  1.00  0.00     0.005 C 
ATOM     23  H   UNL     1     -45.176  37.918  29.410  1.00  0.00     0.045 H 
ATOM     24  H   UNL     1     -44.336  38.256  27.891  1.00  0.00     0.045 H 
ATOM     25  H   UNL     1     -44.684  39.585  28.995  1.00  0.00     0.045 H 
ENDBRANCH  20  22
ENDBRANCH   6  20
ENDBRANCH   4   5
ENDBRANCH   1   4
BRANCH   1  26
ATOM     26  C   UNL     1     -46.802  30.831  22.955  1.00  0.00     0.123 C 
ATOM     27  O   UNL     1     -46.955  29.405  23.155  1.00  0.00    -0.345 OA
ATOM     28  C   UNL     1     -48.163  31.362  22.495  1.00  0.00     0.119 C 
ATOM     29  H   UNL     1     -46.038  30.957  22.181  1.00  0.00     0.067 H 
ATOM     30  C   UNL     1     -48.364  29.092  23.088  1.00  0.00     0.169 C 
ATOM     31  C   UNL     1     -49.129  30.407  23.153  1.00  0.00     0.173 C 
ATOM     32  H   UNL     1     -48.318  32.406  22.784  1.00  0.00     0.066 H 
ATOM     33  H   UNL     1     -48.520  28.590  22.126  1.00  0.00     0.088 H 
ATOM     34  F   UNL     1     -49.310  30.821  24.438  1.00  0.00    -0.239 F 
ATOM     35  H   UNL     1     -50.108  30.350  22.669  1.00  0.00     0.074 H 
BRANCH  28  36
ATOM     36  O   UNL     1     -48.273  31.283  21.071  1.00  0.00    -0.387 OA
ATOM     37  H   UNL     1     -47.741  30.524  20.768  1.00  0.00     0.211 HD
ENDBRANCH  28  36
BRANCH  30  38
ATOM     38  N   UNL     1     -48.728  28.152  24.134  1.00  0.00    -0.303 N 
ATOM     39  C   UNL     1     -47.885  27.501  25.000  1.00  0.00     0.013 A 
ATOM     40  C   UNL     1     -50.028  27.785  24.394  1.00  0.00     0.147 A 
ATOM     41  C   UNL     1     -48.667  26.730  25.830  1.00  0.00    -0.014 A 
ATOM     42  H   UNL     1     -46.813  27.644  24.957  1.00  0.00     0.082 H 
ATOM     43  C   UNL     1     -50.027  26.883  25.452  1.00  0.00     0.065 A 
ATOM     44  N   UNL     1     -51.104  28.236  23.723  1.00  0.00    -0.218 NA
ATOM     45  C   UNL     1     -51.279  26.389  25.852  1.00  0.00     0.136 A 
ATOM     46  C   UNL     1     -52.238  27.691  24.196  1.00  0.00     0.120 A 
ATOM     47  N   UNL     1     -52.383  26.805  25.198  1.00  0.00    -0.219 NA
ATOM     48  H   UNL     1     -53.155  28.003  23.706  1.00  0.00     0.106 H 
BRANCH  41  49
ATOM     49  C   UNL     1     -48.114  25.830  26.958  1.00  0.00    -0.014 C 
ATOM     50  C   UNL     1     -47.474  24.512  26.599  1.00  0.00    -0.046 C 
ATOM     51  C   UNL     1     -46.624  25.645  27.087  1.00  0.00    -0.046 C 
ATOM     52  H   UNL     1     -48.694  25.855  27.875  1.00  0.00     0.035 H 
ATOM     53  H   UNL     1     -47.641  23.674  27.266  1.00  0.00     0.027 H 
ATOM     54  H   UNL     1     -47.394  24.235  25.554  1.00  0.00     0.027 H 
ATOM     55  H   UNL     1     -45.976  26.137  26.370  1.00  0.00     0.027 H 
ATOM     56  H   UNL     1     -46.204  25.575  28.084  1.00  0.00     0.027 H 
ENDBRANCH  41  49
BRANCH  45  57
ATOM     57  N   UNL     1     -51.467  25.470  26.873  1.00  0.00    -0.383 N 
ATOM     58  H   UNL     1     -50.740  24.764  26.861  1.00  0.00     0.158 HD
ATOM     59  H   UNL     1     -51.691  25.878  27.769  1.00  0.00     0.158 HD
ENDBRANCH  45  57
ENDBRANCH  30  38
ENDBRANCH   1  26
TORSDOF 9
ENDMDL
MODEL 3
REMARK VINA RESULT:      -9.6      2.396     10.061
REMARK SMILES CNc1ccc2ccc(OC[C@H]3O[C@@H](n4cc(C5CC5)c5c(N)ncnc54)[C@@H](F)[C@@H]3O)cc2n1
REMARK SMILES IDX 11 1 10 4 9 5 3 6 4 7 34 8 5 9 33 11 6 12 32 14 7 15 8 17
REMARK SMILES IDX 2 20 1 22 12 26 13 27 30 28 14 30 28 31 29 34 31 36 15 38
REMARK SMILES IDX 16 39 27 40 17 41 21 43 26 44 22 45 25 46 24 47 18 49 19 50
REMARK SMILES IDX 20 51 23 57
REMARK H PARENT 11 2 11 3 4 10 5 13 32 16 7 18 8 19 2 21 1 23 1 24 1 25 12 29
REMARK H PARENT 30 32 14 33 28 35 31 37 16 42 25 48 18 52 19 53 19 54 20 55
REMARK H PARENT 20 56 23 58 23 59
REMARK Flexibility Score: inf
ROOT
ATOM      1  C   UNL     1     -48.138  35.675  26.645  1.00  0.00     0.117 C 
ATOM      2  H   UNL     1     -49.156  35.447  26.308  1.00  0.00     0.073 H 
ATOM      3  H   UNL     1     -47.571  35.953  25.750  1.00  0.00     0.073 H 
ENDROOT
BRANCH   1   4
ATOM      4  O   UNL     1     -48.277  36.788  27.536  1.00  0.00    -0.491 OA
BRANCH   4   5
ATOM      5  C   UNL     1     -47.179  37.544  27.832  1.00  0.00     0.121 A 
ATOM      6  C   UNL     1     -44.527  41.162  26.233  1.00  0.00     0.126 A 
ATOM      7  C   UNL     1     -43.678  41.097  27.328  1.00  0.00    -0.019 A 
ATOM      8  N   UNL     1     -45.580  40.336  26.086  1.00  0.00    -0.231 NA
ATOM      9  C   UNL     1     -43.911  40.134  28.304  1.00  0.00    -0.049 A 
ATOM     10  H   UNL     1     -42.859  41.798  27.436  1.00  0.00     0.066 H 
ATOM     11  C   UNL     1     -45.811  39.403  27.028  1.00  0.00     0.076 A 
ATOM     12  C   UNL     1     -44.993  39.260  28.165  1.00  0.00     0.001 A 
ATOM     13  H   UNL     1     -43.254  40.079  29.166  1.00  0.00     0.063 H 
ATOM     14  C   UNL     1     -46.890  38.539  26.890  1.00  0.00     0.007 A 
ATOM     15  C   UNL     1     -45.274  38.271  29.121  1.00  0.00    -0.049 A 
ATOM     16  H   UNL     1     -47.530  38.644  26.018  1.00  0.00     0.069 H 
ATOM     17  C   UNL     1     -46.366  37.415  28.954  1.00  0.00    -0.019 A 
ATOM     18  H   UNL     1     -44.648  38.164  30.003  1.00  0.00     0.063 H 
ATOM     19  H   UNL     1     -46.551  36.674  29.723  1.00  0.00     0.066 H 
BRANCH   6  20
ATOM     20  N   UNL     1     -44.365  42.111  25.221  1.00  0.00    -0.373 N 
ATOM     21  H   UNL     1     -44.264  41.546  24.378  1.00  0.00     0.161 HD
BRANCH  20  22
ATOM     22  C   UNL     1     -43.216  42.981  25.410  1.00  0.00     0.005 C 
ATOM     23  H   UNL     1     -42.569  42.624  26.218  1.00  0.00     0.045 H 
ATOM     24  H   UNL     1     -42.624  42.994  24.489  1.00  0.00     0.045 H 
ATOM     25  H   UNL     1     -43.518  44.013  25.616  1.00  0.00     0.045 H 
ENDBRANCH  20  22
ENDBRANCH   6  20
ENDBRANCH   4   5
ENDBRANCH   1   4
BRANCH   1  26
ATOM     26  C   UNL     1     -47.547  34.454  27.368  1.00  0.00     0.123 C 
ATOM     27  O   UNL     1     -48.267  33.271  26.945  1.00  0.00    -0.345 OA
ATOM     28  C   UNL     1     -46.074  34.226  27.009  1.00  0.00     0.119 C 
ATOM     29  H   UNL     1     -47.688  34.536  28.450  1.00  0.00     0.067 H 
ATOM     30  C   UNL     1     -47.377  32.467  26.140  1.00  0.00     0.169 C 
ATOM     31  C   UNL     1     -46.166  33.325  25.802  1.00  0.00     0.173 C 
ATOM     32  H   UNL     1     -45.548  35.164  26.813  1.00  0.00     0.066 H 
ATOM     33  H   UNL     1     -47.094  31.609  26.762  1.00  0.00     0.088 H 
ATOM     34  F   UNL     1     -46.394  34.112  24.714  1.00  0.00    -0.239 F 
ATOM     35  H   UNL     1     -45.267  32.730  25.614  1.00  0.00     0.074 H 
BRANCH  28  36
ATOM     36  O   UNL     1     -45.398  33.561  28.080  1.00  0.00    -0.387 OA
ATOM     37  H   UNL     1     -45.413  32.603  27.900  1.00  0.00     0.211 HD
ENDBRANCH  28  36
BRANCH  30  38
ATOM     38  N   UNL     1     -48.072  31.950  24.974  1.00  0.00    -0.303 N 
ATOM     39  C   UNL     1     -49.420  31.986  24.722  1.00  0.00     0.013 A 
ATOM     40  C   UNL     1     -47.424  31.330  23.929  1.00  0.00     0.147 A 
ATOM     41  C   UNL     1     -49.622  31.401  23.493  1.00  0.00    -0.014 A 
ATOM     42  H   UNL     1     -50.113  32.425  25.428  1.00  0.00     0.082 H 
ATOM     43  C   UNL     1     -48.373  30.964  22.981  1.00  0.00     0.065 A 
ATOM     44  N   UNL     1     -46.097  31.125  23.860  1.00  0.00    -0.218 NA
ATOM     45  C   UNL     1     -47.890  30.305  21.839  1.00  0.00     0.136 A 
ATOM     46  C   UNL     1     -45.760  30.487  22.725  1.00  0.00     0.120 A 
ATOM     47  N   UNL     1     -46.567  30.067  21.734  1.00  0.00    -0.219 NA
ATOM     48  H   UNL     1     -44.702  30.281  22.592  1.00  0.00     0.106 H 
BRANCH  41  49
ATOM     49  C   UNL     1     -51.008  31.234  22.826  1.00  0.00    -0.014 C 
ATOM     50  C   UNL     1     -52.034  32.327  22.984  1.00  0.00    -0.046 C 
ATOM     51  C   UNL     1     -51.371  32.113  21.657  1.00  0.00    -0.046 C 
ATOM     52  H   UNL     1     -51.380  30.215  22.818  1.00  0.00     0.035 H 
ATOM     53  H   UNL     1     -53.071  32.032  23.090  1.00  0.00     0.027 H 
ATOM     54  H   UNL     1     -51.770  33.219  23.541  1.00  0.00     0.027 H 
ATOM     55  H   UNL     1     -50.654  32.855  21.324  1.00  0.00     0.027 H 
ATOM     56  H   UNL     1     -51.959  31.678  20.858  1.00  0.00     0.027 H 
ENDBRANCH  41  49
BRANCH  45  57
ATOM     57  N   UNL     1     -48.691  29.850  20.802  1.00  0.00    -0.383 N 
ATOM     58  H   UNL     1     -49.182  29.006  21.070  1.00  0.00     0.158 HD
ATOM     59  H   UNL     1     -49.235  30.568  20.346  1.00  0.00     0.158 HD
ENDBRANCH  45  57
ENDBRANCH  30  38
ENDBRANCH   1  26
TORSDOF 9
ENDMDL
MODEL 4
REMARK VINA RESULT:      -9.2      1.258      1.900
REMARK SMILES CNc1ccc2ccc(OC[C@H]3O[C@@H](n4cc(C5CC5)c5c(N)ncnc54)[C@@H](F)[C@@H]3O)cc2n1
REMARK SMILES IDX 11 1 10 4 9 5 3 6 4 7 34 8 5 9 33 11 6 12 32 14 7 15 8 17
REMARK SMILES IDX 2 20 1 22 12 26 13 27 30 28 14 30 28 31 29 34 31 36 15 38
REMARK SMILES IDX 16 39 27 40 17 41 21 43 26 44 22 45 25 46 24 47 18 49 19 50
REMARK SMILES IDX 20 51 23 57
REMARK H PARENT 11 2 11 3 4 10 5 13 32 16 7 18 8 19 2 21 1 23 1 24 1 25 12 29
REMARK H PARENT 30 32 14 33 28 35 31 37 16 42 25 48 18 52 19 53 19 54 20 55
REMARK H PARENT 20 56 23 58 23 59
REMARK Flexibility Score: inf
ROOT
ATOM      1  C   UNL     1     -46.495  36.152  26.855  1.00  0.00     0.117 C 
ATOM      2  H   UNL     1     -45.780  35.887  26.067  1.00  0.00     0.073 H 
ATOM      3  H   UNL     1     -46.912  37.127  26.579  1.00  0.00     0.073 H 
ENDROOT
BRANCH   1   4
ATOM      4  O   UNL     1     -47.498  35.130  26.811  1.00  0.00    -0.491 OA
BRANCH   4   5
ATOM      5  C   UNL     1     -47.334  34.073  25.962  1.00  0.00     0.121 A 
ATOM      6  C   UNL     1     -49.585  30.290  24.144  1.00  0.00     0.126 A 
ATOM      7  C   UNL     1     -48.481  29.929  23.386  1.00  0.00    -0.019 A 
ATOM      8  N   UNL     1     -49.588  31.376  24.940  1.00  0.00    -0.231 NA
ATOM      9  C   UNL     1     -47.329  30.704  23.461  1.00  0.00    -0.049 A 
ATOM     10  H   UNL     1     -48.519  29.068  22.727  1.00  0.00     0.066 H 
ATOM     11  C   UNL     1     -48.477  32.131  25.016  1.00  0.00     0.076 A 
ATOM     12  C   UNL     1     -47.309  31.830  24.289  1.00  0.00     0.001 A 
ATOM     13  H   UNL     1     -46.462  30.430  22.867  1.00  0.00     0.063 H 
ATOM     14  C   UNL     1     -48.461  33.252  25.836  1.00  0.00     0.007 A 
ATOM     15  C   UNL     1     -46.174  32.647  24.401  1.00  0.00    -0.049 A 
ATOM     16  H   UNL     1     -49.360  33.495  26.398  1.00  0.00     0.069 H 
ATOM     17  C   UNL     1     -46.187  33.767  25.236  1.00  0.00    -0.019 A 
ATOM     18  H   UNL     1     -45.274  32.420  23.835  1.00  0.00     0.063 H 
ATOM     19  H   UNL     1     -45.291  34.376  25.282  1.00  0.00     0.066 H 
BRANCH   6  20
ATOM     20  N   UNL     1     -50.780  29.569  24.109  1.00  0.00    -0.373 N 
ATOM     21  H   UNL     1     -50.589  28.825  23.438  1.00  0.00     0.161 HD
BRANCH  20  22
ATOM     22  C   UNL     1     -51.932  30.358  23.704  1.00  0.00     0.005 C 
ATOM     23  H   UNL     1     -51.790  31.420  23.928  1.00  0.00     0.045 H 
ATOM     24  H   UNL     1     -52.067  30.260  22.622  1.00  0.00     0.045 H 
ATOM     25  H   UNL     1     -52.853  30.005  24.179  1.00  0.00     0.045 H 
ENDBRANCH  20  22
ENDBRANCH   6  20
ENDBRANCH   4   5
ENDBRANCH   1   4
BRANCH   1  26
ATOM     26  C   UNL     1     -45.782  36.174  28.217  1.00  0.00     0.123 C 
ATOM     27  O   UNL     1     -44.662  37.089  28.137  1.00  0.00    -0.345 OA
ATOM     28  C   UNL     1     -46.692  36.685  29.339  1.00  0.00     0.119 C 
ATOM     29  H   UNL     1     -45.365  35.190  28.454  1.00  0.00     0.067 H 
ATOM     30  C   UNL     1     -44.963  38.239  28.958  1.00  0.00     0.169 C 
ATOM     31  C   UNL     1     -46.443  38.173  29.312  1.00  0.00     0.173 C 
ATOM     32  H   UNL     1     -47.739  36.416  29.175  1.00  0.00     0.066 H 
ATOM     33  H   UNL     1     -44.337  38.148  29.854  1.00  0.00     0.088 H 
ATOM     34  F   UNL     1     -47.220  38.705  28.328  1.00  0.00    -0.239 F 
ATOM     35  H   UNL     1     -46.676  38.686  30.250  1.00  0.00     0.074 H 
BRANCH  28  36
ATOM     36  O   UNL     1     -46.290  36.133  30.596  1.00  0.00    -0.387 OA
ATOM     37  H   UNL     1     -46.351  35.162  30.534  1.00  0.00     0.211 HD
ENDBRANCH  28  36
BRANCH  30  38
ATOM     38  N   UNL     1     -44.579  39.464  28.279  1.00  0.00    -0.303 N 
ATOM     39  C   UNL     1     -45.143  40.004  27.150  1.00  0.00     0.013 A 
ATOM     40  C   UNL     1     -43.550  40.270  28.711  1.00  0.00     0.147 A 
ATOM     41  C   UNL     1     -44.473  41.176  26.880  1.00  0.00    -0.014 A 
ATOM     42  H   UNL     1     -45.966  39.517  26.644  1.00  0.00     0.082 H 
ATOM     43  C   UNL     1     -43.450  41.354  27.847  1.00  0.00     0.065 A 
ATOM     44  N   UNL     1     -42.783  40.028  29.789  1.00  0.00    -0.218 NA
ATOM     45  C   UNL     1     -42.438  42.285  28.130  1.00  0.00     0.136 A 
ATOM     46  C   UNL     1     -41.855  40.985  29.953  1.00  0.00     0.120 A 
ATOM     47  N   UNL     1     -41.638  42.075  29.195  1.00  0.00    -0.219 NA
ATOM     48  H   UNL     1     -41.191  40.863  30.804  1.00  0.00     0.106 H 
BRANCH  41  49
ATOM     49  C   UNL     1     -44.793  42.104  25.685  1.00  0.00    -0.014 C 
ATOM     50  C   UNL     1     -46.106  42.846  25.663  1.00  0.00    -0.046 C 
ATOM     51  C   UNL     1     -44.830  43.595  25.902  1.00  0.00    -0.046 C 
ATOM     52  H   UNL     1     -44.419  41.749  24.730  1.00  0.00     0.035 H 
ATOM     53  H   UNL     1     -46.598  42.968  24.705  1.00  0.00     0.027 H 
ATOM     54  H   UNL     1     -46.788  42.732  26.498  1.00  0.00     0.027 H 
ATOM     55  H   UNL     1     -44.648  43.979  26.900  1.00  0.00     0.027 H 
ATOM     56  H   UNL     1     -44.458  44.234  25.110  1.00  0.00     0.027 H 
ENDBRANCH  41  49
BRANCH  45  57
ATOM     57  N   UNL     1     -42.179  43.415  27.368  1.00  0.00    -0.383 N 
ATOM     58  H   UNL     1     -41.648  44.094  27.900  1.00  0.00     0.158 HD
ATOM     59  H   UNL     1     -41.863  43.224  26.428  1.00  0.00     0.158 HD
ENDBRANCH  45  57
ENDBRANCH  30  38
ENDBRANCH   1  26
TORSDOF 9
ENDMDL
MODEL 5
REMARK VINA RESULT:      -9.2      1.691      1.965
REMARK SMILES CNc1ccc2ccc(OC[C@H]3O[C@@H](n4cc(C5CC5)c5c(N)ncnc54)[C@@H](F)[C@@H]3O)cc2n1
REMARK SMILES IDX 11 1 10 4 9 5 3 6 4 7 34 8 5 9 33 11 6 12 32 14 7 15 8 17
REMARK SMILES IDX 2 20 1 22 12 26 13 27 30 28 14 30 28 31 29 34 31 36 15 38
REMARK SMILES IDX 16 39 27 40 17 41 21 43 26 44 22 45 25 46 24 47 18 49 19 50
REMARK SMILES IDX 20 51 23 57
REMARK H PARENT 11 2 11 3 4 10 5 13 32 16 7 18 8 19 2 21 1 23 1 24 1 25 12 29
REMARK H PARENT 30 32 14 33 28 35 31 37 16 42 25 48 18 52 19 53 19 54 20 55
REMARK H PARENT 20 56 23 58 23 59
REMARK Flexibility Score: inf
ROOT
ATOM      1  C   UNL     1     -45.985  34.966  27.228  1.00  0.00     0.117 C 
ATOM      2  H   UNL     1     -44.928  35.174  27.428  1.00  0.00     0.073 H 
ATOM      3  H   UNL     1     -46.190  35.345  26.220  1.00  0.00     0.073 H 
ENDROOT
BRANCH   1   4
ATOM      4  O   UNL     1     -46.104  33.540  27.279  1.00  0.00    -0.491 OA
BRANCH   4   5
ATOM      5  C   UNL     1     -46.880  32.903  26.353  1.00  0.00     0.121 A 
ATOM      6  C   UNL     1     -46.781  31.019  21.981  1.00  0.00     0.126 A 
ATOM      7  C   UNL     1     -48.113  30.638  22.054  1.00  0.00    -0.019 A 
ATOM      8  N   UNL     1     -46.153  31.645  22.993  1.00  0.00    -0.231 NA
ATOM      9  C   UNL     1     -48.833  30.928  23.208  1.00  0.00    -0.049 A 
ATOM     10  H   UNL     1     -48.583  30.104  21.236  1.00  0.00     0.066 H 
ATOM     11  C   UNL     1     -46.844  31.927  24.113  1.00  0.00     0.076 A 
ATOM     12  C   UNL     1     -48.202  31.587  24.267  1.00  0.00     0.001 A 
ATOM     13  H   UNL     1     -49.875  30.630  23.276  1.00  0.00     0.063 H 
ATOM     14  C   UNL     1     -46.213  32.577  25.165  1.00  0.00     0.007 A 
ATOM     15  C   UNL     1     -48.881  31.902  25.454  1.00  0.00    -0.049 A 
ATOM     16  H   UNL     1     -45.164  32.840  25.058  1.00  0.00     0.069 H 
ATOM     17  C   UNL     1     -48.221  32.559  26.495  1.00  0.00    -0.019 A 
ATOM     18  H   UNL     1     -49.928  31.634  25.577  1.00  0.00     0.063 H 
ATOM     19  H   UNL     1     -48.782  32.772  27.397  1.00  0.00     0.066 H 
BRANCH   6  20
ATOM     20  N   UNL     1     -45.992  30.748  20.861  1.00  0.00    -0.373 N 
ATOM     21  H   UNL     1     -45.053  30.658  21.248  1.00  0.00     0.161 HD
BRANCH  20  22
ATOM     22  C   UNL     1     -46.042  31.783  19.842  1.00  0.00     0.005 C 
ATOM     23  H   UNL     1     -46.953  31.711  19.239  1.00  0.00     0.045 H 
ATOM     24  H   UNL     1     -46.042  32.763  20.330  1.00  0.00     0.045 H 
ATOM     25  H   UNL     1     -45.167  31.749  19.185  1.00  0.00     0.045 H 
ENDBRANCH  20  22
ENDBRANCH   6  20
ENDBRANCH   4   5
ENDBRANCH   1   4
BRANCH   1  26
ATOM     26  C   UNL     1     -46.857  35.636  28.303  1.00  0.00     0.123 C 
ATOM     27  O   UNL     1     -46.118  36.742  28.875  1.00  0.00    -0.345 OA
ATOM     28  C   UNL     1     -48.148  36.221  27.720  1.00  0.00     0.119 C 
ATOM     29  H   UNL     1     -47.065  34.942  29.124  1.00  0.00     0.067 H 
ATOM     30  C   UNL     1     -46.754  37.971  28.457  1.00  0.00     0.169 C 
ATOM     31  C   UNL     1     -47.734  37.623  27.345  1.00  0.00     0.173 C 
ATOM     32  H   UNL     1     -48.521  35.635  26.875  1.00  0.00     0.066 H 
ATOM     33  H   UNL     1     -47.278  38.359  29.339  1.00  0.00     0.088 H 
ATOM     34  F   UNL     1     -47.117  37.561  26.132  1.00  0.00    -0.239 F 
ATOM     35  H   UNL     1     -48.562  38.334  27.274  1.00  0.00     0.074 H 
BRANCH  28  36
ATOM     36  O   UNL     1     -49.175  36.252  28.716  1.00  0.00    -0.387 OA
ATOM     37  H   UNL     1     -49.333  35.339  29.018  1.00  0.00     0.211 HD
ENDBRANCH  28  36
BRANCH  30  38
ATOM     38  N   UNL     1     -45.758  38.955  28.072  1.00  0.00    -0.303 N 
ATOM     39  C   UNL     1     -45.753  39.740  26.946  1.00  0.00     0.013 A 
ATOM     40  C   UNL     1     -44.643  39.230  28.830  1.00  0.00     0.147 A 
ATOM     41  C   UNL     1     -44.631  40.535  27.007  1.00  0.00    -0.014 A 
ATOM     42  H   UNL     1     -46.542  39.671  26.208  1.00  0.00     0.082 H 
ATOM     43  C   UNL     1     -43.907  40.217  28.185  1.00  0.00     0.065 A 
ATOM     44  N   UNL     1     -44.339  38.633  29.997  1.00  0.00    -0.218 NA
ATOM     45  C   UNL     1     -42.719  40.621  28.816  1.00  0.00     0.136 A 
ATOM     46  C   UNL     1     -43.184  39.102  30.499  1.00  0.00     0.120 A 
ATOM     47  N   UNL     1     -42.369  40.039  29.981  1.00  0.00    -0.219 NA
ATOM     48  H   UNL     1     -42.865  38.669  31.442  1.00  0.00     0.106 H 
BRANCH  41  49
ATOM     49  C   UNL     1     -44.241  41.573  25.929  1.00  0.00    -0.014 C 
ATOM     50  C   UNL     1     -45.273  42.568  25.461  1.00  0.00    -0.046 C 
ATOM     51  C   UNL     1     -44.129  43.025  26.314  1.00  0.00    -0.046 C 
ATOM     52  H   UNL     1     -43.550  41.200  25.180  1.00  0.00     0.035 H 
ATOM     53  H   UNL     1     -45.269  42.841  24.412  1.00  0.00     0.027 H 
ATOM     54  H   UNL     1     -46.260  42.551  25.909  1.00  0.00     0.027 H 
ATOM     55  H   UNL     1     -44.342  43.309  27.339  1.00  0.00     0.027 H 
ATOM     56  H   UNL     1     -43.349  43.616  25.847  1.00  0.00     0.027 H 
ENDBRANCH  41  49
BRANCH  45  57
ATOM     57  N   UNL     1     -41.850  41.576  28.309  1.00  0.00    -0.383 N 
ATOM     58  H   UNL     1     -41.666  42.296  28.997  1.00  0.00     0.158 HD
ATOM     59  H   UNL     1     -41.051  41.199  27.819  1.00  0.00     0.158 HD
ENDBRANCH  45  57
ENDBRANCH  30  38
ENDBRANCH   1  26
TORSDOF 9
ENDMDL
MODEL 6
REMARK VINA RESULT:      -9.1      1.667      2.814
REMARK SMILES CNc1ccc2ccc(OC[C@H]3O[C@@H](n4cc(C5CC5)c5c(N)ncnc54)[C@@H](F)[C@@H]3O)cc2n1
REMARK SMILES IDX 11 1 10 4 9 5 3 6 4 7 34 8 5 9 33 11 6 12 32 14 7 15 8 17
REMARK SMILES IDX 2 20 1 22 12 26 13 27 30 28 14 30 28 31 29 34 31 36 15 38
REMARK SMILES IDX 16 39 27 40 17 41 21 43 26 44 22 45 25 46 24 47 18 49 19 50
REMARK SMILES IDX 20 51 23 57
REMARK H PARENT 11 2 11 3 4 10 5 13 32 16 7 18 8 19 2 21 1 23 1 24 1 25 12 29
REMARK H PARENT 30 32 14 33 28 35 31 37 16 42 25 48 18 52 19 53 19 54 20 55
REMARK H PARENT 20 56 23 58 23 59
REMARK Flexibility Score: inf
ROOT
ATOM      1  C   UNL     1     -45.795  35.373  27.504  1.00  0.00     0.117 C 
ATOM      2  H   UNL     1     -44.764  35.549  27.834  1.00  0.00     0.073 H 
ATOM      3  H   UNL     1     -45.861  35.756  26.480  1.00  0.00     0.073 H 
ENDROOT
BRANCH   1   4
ATOM      4  O   UNL     1     -45.962  33.951  27.536  1.00  0.00    -0.491 OA
BRANCH   4   5
ATOM      5  C   UNL     1     -46.776  33.356  26.615  1.00  0.00     0.121 A 
ATOM      6  C   UNL     1     -46.716  30.686  22.672  1.00  0.00     0.126 A 
ATOM      7  C   UNL     1     -48.101  30.667  22.597  1.00  0.00    -0.019 A 
ATOM      8  N   UNL     1     -46.056  31.324  23.656  1.00  0.00    -0.231 NA
ATOM      9  C   UNL     1     -48.837  31.345  23.562  1.00  0.00    -0.049 A 
ATOM     10  H   UNL     1     -48.606  30.115  21.812  1.00  0.00     0.066 H 
ATOM     11  C   UNL     1     -46.763  31.981  24.595  1.00  0.00     0.076 A 
ATOM     12  C   UNL     1     -48.170  32.023  24.587  1.00  0.00     0.001 A 
ATOM     13  H   UNL     1     -49.922  31.332  23.514  1.00  0.00     0.063 H 
ATOM     14  C   UNL     1     -46.098  32.650  25.614  1.00  0.00     0.007 A 
ATOM     15  C   UNL     1     -48.864  32.722  25.587  1.00  0.00    -0.049 A 
ATOM     16  H   UNL     1     -45.011  32.619  25.630  1.00  0.00     0.069 H 
ATOM     17  C   UNL     1     -48.167  33.387  26.600  1.00  0.00    -0.019 A 
ATOM     18  H   UNL     1     -49.951  32.749  25.587  1.00  0.00     0.063 H 
ATOM     19  H   UNL     1     -48.745  33.904  27.357  1.00  0.00     0.066 H 
BRANCH   6  20
ATOM     20  N   UNL     1     -45.912  30.015  21.747  1.00  0.00    -0.373 N 
ATOM     21  H   UNL     1     -46.583  29.490  21.186  1.00  0.00     0.161 HD
BRANCH  20  22
ATOM     22  C   UNL     1     -44.930  29.133  22.353  1.00  0.00     0.005 C 
ATOM     23  H   UNL     1     -44.008  29.091  21.763  1.00  0.00     0.045 H 
ATOM     24  H   UNL     1     -44.673  29.514  23.346  1.00  0.00     0.045 H 
ATOM     25  H   UNL     1     -45.322  28.119  22.486  1.00  0.00     0.045 H 
ENDBRANCH  20  22
ENDBRANCH   6  20
ENDBRANCH   4   5
ENDBRANCH   1   4
BRANCH   1  26
ATOM     26  C   UNL     1     -46.772  36.071  28.465  1.00  0.00     0.123 C 
ATOM     27  O   UNL     1     -46.101  37.205  29.064  1.00  0.00    -0.345 OA
ATOM     28  C   UNL     1     -48.005  36.619  27.738  1.00  0.00     0.119 C 
ATOM     29  H   UNL     1     -47.052  35.404  29.286  1.00  0.00     0.067 H 
ATOM     30  C   UNL     1     -46.703  38.410  28.542  1.00  0.00     0.169 C 
ATOM     31  C   UNL     1     -47.567  38.011  27.354  1.00  0.00     0.173 C 
ATOM     32  H   UNL     1     -48.289  36.000  26.883  1.00  0.00     0.066 H 
ATOM     33  H   UNL     1     -47.313  38.824  29.354  1.00  0.00     0.088 H 
ATOM     34  F   UNL     1     -46.835  37.914  26.209  1.00  0.00    -0.239 F 
ATOM     35  H   UNL     1     -48.391  38.710  27.177  1.00  0.00     0.074 H 
BRANCH  28  36
ATOM     36  O   UNL     1     -49.123  36.674  28.629  1.00  0.00    -0.387 OA
ATOM     37  H   UNL     1     -49.918  36.884  28.104  1.00  0.00     0.211 HD
ENDBRANCH  28  36
BRANCH  30  38
ATOM     38  N   UNL     1     -45.682  39.391  28.219  1.00  0.00    -0.303 N 
ATOM     39  C   UNL     1     -44.364  39.381  28.602  1.00  0.00     0.013 A 
ATOM     40  C   UNL     1     -45.930  40.506  27.451  1.00  0.00     0.147 A 
ATOM     41  C   UNL     1     -43.769  40.493  28.050  1.00  0.00    -0.014 A 
ATOM     42  H   UNL     1     -43.964  38.590  29.223  1.00  0.00     0.082 H 
ATOM     43  C   UNL     1     -44.747  41.227  27.330  1.00  0.00     0.065 A 
ATOM     44  N   UNL     1     -47.123  40.824  26.917  1.00  0.00    -0.218 NA
ATOM     45  C   UNL     1     -44.814  42.412  26.580  1.00  0.00     0.136 A 
ATOM     46  C   UNL     1     -47.059  41.975  26.226  1.00  0.00     0.120 A 
ATOM     47  N   UNL     1     -45.994  42.775  26.037  1.00  0.00    -0.219 NA
ATOM     48  H   UNL     1     -47.984  42.304  25.763  1.00  0.00     0.106 H 
BRANCH  41  49
ATOM     49  C   UNL     1     -42.280  40.864  28.235  1.00  0.00    -0.014 C 
ATOM     50  C   UNL     1     -41.924  42.103  29.017  1.00  0.00    -0.046 C 
ATOM     51  C   UNL     1     -41.658  40.750  29.603  1.00  0.00    -0.046 C 
ATOM     52  H   UNL     1     -41.652  40.631  27.381  1.00  0.00     0.035 H 
ATOM     53  H   UNL     1     -41.077  42.688  28.676  1.00  0.00     0.027 H 
ATOM     54  H   UNL     1     -42.720  42.695  29.455  1.00  0.00     0.027 H 
ATOM     55  H   UNL     1     -42.280  40.425  30.430  1.00  0.00     0.027 H 
ATOM     56  H   UNL     1     -40.630  40.416  29.668  1.00  0.00     0.027 H 
ENDBRANCH  41  49
BRANCH  45  57
ATOM     57  N   UNL     1     -43.741  43.266  26.370  1.00  0.00    -0.383 N 
ATOM     58  H   UNL     1     -42.950  42.999  26.945  1.00  0.00     0.158 HD
ATOM     59  H   UNL     1     -43.551  43.471  25.400  1.00  0.00     0.158 HD
ENDBRANCH  45  57
ENDBRANCH  30  38
ENDBRANCH   1  26
TORSDOF 9
ENDMDL
MODEL 7
REMARK VINA RESULT:      -8.9      2.716     10.589
REMARK SMILES CNc1ccc2ccc(OC[C@H]3O[C@@H](n4cc(C5CC5)c5c(N)ncnc54)[C@@H](F)[C@@H]3O)cc2n1
REMARK SMILES IDX 11 1 10 4 9 5 3 6 4 7 34 8 5 9 33 11 6 12 32 14 7 15 8 17
REMARK SMILES IDX 2 20 1 22 12 26 13 27 30 28 14 30 28 31 29 34 31 36 15 38
REMARK SMILES IDX 16 39 27 40 17 41 21 43 26 44 22 45 25 46 24 47 18 49 19 50
REMARK SMILES IDX 20 51 23 57
REMARK H PARENT 11 2 11 3 4 10 5 13 32 16 7 18 8 19 2 21 1 23 1 24 1 25 12 29
REMARK H PARENT 30 32 14 33 28 35 31 37 16 42 25 48 18 52 19 53 19 54 20 55
REMARK H PARENT 20 56 23 58 23 59
REMARK Flexibility Score: inf
ROOT
ATOM      1  C   UNL     1     -48.012  34.954  26.200  1.00  0.00     0.117 C 
ATOM      2  H   UNL     1     -48.904  34.815  25.579  1.00  0.00     0.073 H 
ATOM      3  H   UNL     1     -47.191  35.190  25.514  1.00  0.00     0.073 H 
ENDROOT
BRANCH   1   4
ATOM      4  O   UNL     1     -48.315  36.068  27.048  1.00  0.00    -0.491 OA
BRANCH   4   5
ATOM      5  C   UNL     1     -47.343  36.558  27.874  1.00  0.00     0.121 A 
ATOM      6  C   UNL     1     -44.024  39.955  28.219  1.00  0.00     0.126 A 
ATOM      7  C   UNL     1     -43.637  39.527  29.480  1.00  0.00    -0.019 A 
ATOM      8  N   UNL     1     -45.013  39.359  27.527  1.00  0.00    -0.231 NA
ATOM      9  C   UNL     1     -44.280  38.431  30.046  1.00  0.00    -0.049 A 
ATOM     10  H   UNL     1     -42.861  40.049  30.029  1.00  0.00     0.066 H 
ATOM     11  C   UNL     1     -45.640  38.299  28.069  1.00  0.00     0.076 A 
ATOM     12  C   UNL     1     -45.302  37.792  29.338  1.00  0.00     0.001 A 
ATOM     13  H   UNL     1     -43.987  38.092  31.034  1.00  0.00     0.063 H 
ATOM     14  C   UNL     1     -46.658  37.668  27.366  1.00  0.00     0.007 A 
ATOM     15  C   UNL     1     -45.985  36.683  29.863  1.00  0.00    -0.049 A 
ATOM     16  H   UNL     1     -46.929  38.056  26.387  1.00  0.00     0.069 H 
ATOM     17  C   UNL     1     -47.004  36.068  29.132  1.00  0.00    -0.019 A 
ATOM     18  H   UNL     1     -45.731  36.295  30.846  1.00  0.00     0.063 H 
ATOM     19  H   UNL     1     -47.511  35.222  29.581  1.00  0.00     0.066 H 
BRANCH   6  20
ATOM     20  N   UNL     1     -43.434  41.057  27.594  1.00  0.00    -0.373 N 
ATOM     21  H   UNL     1     -43.204  41.676  28.371  1.00  0.00     0.161 HD
BRANCH  20  22
ATOM     22  C   UNL     1     -44.299  41.721  26.633  1.00  0.00     0.005 C 
ATOM     23  H   UNL     1     -43.733  42.394  25.981  1.00  0.00     0.045 H 
ATOM     24  H   UNL     1     -44.773  40.964  26.000  1.00  0.00     0.045 H 
ATOM     25  H   UNL     1     -45.100  42.280  27.127  1.00  0.00     0.045 H 
ENDBRANCH  20  22
ENDBRANCH   6  20
ENDBRANCH   4   5
ENDBRANCH   1   4
BRANCH   1  26
ATOM     26  C   UNL     1     -47.750  33.682  27.024  1.00  0.00     0.123 C 
ATOM     27  O   UNL     1     -48.814  32.735  26.764  1.00  0.00    -0.345 OA
ATOM     28  C   UNL     1     -46.439  32.995  26.627  1.00  0.00     0.119 C 
ATOM     29  H   UNL     1     -47.781  33.900  28.097  1.00  0.00     0.067 H 
ATOM     30  C   UNL     1     -48.260  31.633  26.013  1.00  0.00     0.169 C 
ATOM     31  C   UNL     1     -46.879  32.057  25.530  1.00  0.00     0.173 C 
ATOM     32  H   UNL     1     -45.678  33.712  26.308  1.00  0.00     0.066 H 
ATOM     33  H   UNL     1     -48.194  30.789  26.711  1.00  0.00     0.088 H 
ATOM     34  F   UNL     1     -46.948  32.774  24.375  1.00  0.00    -0.239 F 
ATOM     35  H   UNL     1     -46.209  31.207  25.368  1.00  0.00     0.074 H 
BRANCH  28  36
ATOM     36  O   UNL     1     -45.909  32.258  27.733  1.00  0.00    -0.387 OA
ATOM     37  H   UNL     1     -45.651  31.375  27.412  1.00  0.00     0.211 HD
ENDBRANCH  28  36
BRANCH  30  38
ATOM     38  N   UNL     1     -49.159  31.243  24.941  1.00  0.00    -0.303 N 
ATOM     39  C   UNL     1     -50.255  31.930  24.480  1.00  0.00     0.013 A 
ATOM     40  C   UNL     1     -49.011  30.078  24.224  1.00  0.00     0.147 A 
ATOM     41  C   UNL     1     -50.791  31.197  23.445  1.00  0.00    -0.014 A 
ATOM     42  H   UNL     1     -50.554  32.873  24.919  1.00  0.00     0.082 H 
ATOM     43  C   UNL     1     -50.027  30.013  23.277  1.00  0.00     0.065 A 
ATOM     44  N   UNL     1     -48.039  29.170  24.423  1.00  0.00    -0.218 NA
ATOM     45  C   UNL     1     -50.040  28.876  22.453  1.00  0.00     0.136 A 
ATOM     46  C   UNL     1     -48.159  28.132  23.577  1.00  0.00     0.120 A 
ATOM     47  N   UNL     1     -49.091  27.935  22.627  1.00  0.00    -0.219 NA
ATOM     48  H   UNL     1     -47.411  27.351  23.674  1.00  0.00     0.106 H 
BRANCH  41  49
ATOM     49  C   UNL     1     -52.044  31.616  22.642  1.00  0.00    -0.014 C 
ATOM     50  C   UNL     1     -52.163  33.038  22.155  1.00  0.00    -0.046 C 
ATOM     51  C   UNL     1     -51.904  31.934  21.175  1.00  0.00    -0.046 C 
ATOM     52  H   UNL     1     -52.962  31.133  22.962  1.00  0.00     0.035 H 
ATOM     53  H   UNL     1     -53.147  33.492  22.165  1.00  0.00     0.027 H 
ATOM     54  H   UNL     1     -51.355  33.732  22.358  1.00  0.00     0.027 H 
ATOM     55  H   UNL     1     -50.920  31.878  20.724  1.00  0.00     0.027 H 
ATOM     56  H   UNL     1     -52.710  31.642  20.513  1.00  0.00     0.027 H 
ENDBRANCH  41  49
BRANCH  45  57
ATOM     57  N   UNL     1     -50.987  28.634  21.470  1.00  0.00    -0.383 N 
ATOM     58  H   UNL     1     -51.533  27.809  21.692  1.00  0.00     0.158 HD
ATOM     59  H   UNL     1     -51.498  29.451  21.169  1.00  0.00     0.158 HD
ENDBRANCH  45  57
ENDBRANCH  30  38
ENDBRANCH   1  26
TORSDOF 9
ENDMDL
