MODEL 1
REMARK VINA RESULT:     -10.0      0.000      0.000
REMARK SMILES CC(C)Nc1ccc2ccc(OCc3cncc(-n4cc(Cl)c5c(N)ncnc54)c3)cc2n1
REMARK SMILES IDX 12 1 11 2 5 3 6 4 33 5 7 6 32 8 8 9 31 11 9 12 10 14 4 17
REMARK SMILES IDX 2 19 1 21 3 25 13 29 14 32 15 33 30 34 16 35 18 37 17 39
REMARK SMILES IDX 19 41 20 42 29 43 21 44 23 46 28 47 22 48 24 49 27 50 26 51
REMARK SMILES IDX 25 53
REMARK H PARENT 6 7 7 10 31 13 9 15 10 16 4 18 2 20 1 22 1 23 1 24 3 26 3 27
REMARK H PARENT 3 28 13 30 13 31 15 36 30 38 17 40 20 45 27 52 25 54 25 55
REMARK Flexibility Score: inf
ROOT
ATOM      1  O   UNL     1     -46.752  37.617  28.052  1.00  0.00    -0.489 OA
ENDROOT
BRANCH   1   2
ATOM      2  C   UNL     1     -45.679  38.399  28.383  1.00  0.00     0.122 A 
ATOM      3  C   UNL     1     -42.531  41.898  27.677  1.00  0.00     0.126 A 
ATOM      4  C   UNL     1     -41.869  41.600  28.864  1.00  0.00    -0.019 A 
ATOM      5  N   UNL     1     -43.602  41.185  27.282  1.00  0.00    -0.231 NA
ATOM      6  C   UNL     1     -42.327  40.561  29.668  1.00  0.00    -0.049 A 
ATOM      7  H   UNL     1     -40.988  42.163  29.157  1.00  0.00     0.066 H 
ATOM      8  C   UNL     1     -44.053  40.177  28.050  1.00  0.00     0.076 A 
ATOM      9  C   UNL     1     -43.442  39.826  29.266  1.00  0.00     0.001 A 
ATOM     10  H   UNL     1     -41.805  40.330  30.593  1.00  0.00     0.063 H 
ATOM     11  C   UNL     1     -45.162  39.453  27.628  1.00  0.00     0.007 A 
ATOM     12  C   UNL     1     -43.948  38.762  30.030  1.00  0.00    -0.049 A 
ATOM     13  H   UNL     1     -45.596  39.739  26.676  1.00  0.00     0.069 H 
ATOM     14  C   UNL     1     -45.060  38.054  29.584  1.00  0.00    -0.019 A 
ATOM     15  H   UNL     1     -43.478  38.481  30.970  1.00  0.00     0.063 H 
ATOM     16  H   UNL     1     -45.448  37.228  30.177  1.00  0.00     0.066 H 
BRANCH   3  17
ATOM     17  N   UNL     1     -42.015  42.928  26.885  1.00  0.00    -0.368 N 
ATOM     18  H   UNL     1     -41.723  43.693  27.486  1.00  0.00     0.162 HD
BRANCH  17  19
ATOM     19  C   UNL     1     -42.745  43.419  25.710  1.00  0.00     0.022 C 
ATOM     20  H   UNL     1     -43.441  42.611  25.449  1.00  0.00     0.052 H 
BRANCH  19  21
ATOM     21  C   UNL     1     -43.612  44.637  26.017  1.00  0.00    -0.045 C 
ATOM     22  H   UNL     1     -43.605  45.331  25.169  1.00  0.00     0.025 H 
ATOM     23  H   UNL     1     -43.264  45.193  26.891  1.00  0.00     0.025 H 
ATOM     24  H   UNL     1     -44.651  44.341  26.200  1.00  0.00     0.025 H 
ENDBRANCH  19  21
BRANCH  19  25
ATOM     25  C   UNL     1     -41.846  43.617  24.493  1.00  0.00    -0.045 C 
ATOM     26  H   UNL     1     -42.379  44.147  23.695  1.00  0.00     0.025 H 
ATOM     27  H   UNL     1     -40.967  44.212  24.762  1.00  0.00     0.025 H 
ATOM     28  H   UNL     1     -41.483  42.671  24.081  1.00  0.00     0.025 H 
ENDBRANCH  19  25
ENDBRANCH  17  19
ENDBRANCH   3  17
ENDBRANCH   1   2
BRANCH   1  29
ATOM     29  C   UNL     1     -46.742  36.948  26.787  1.00  0.00     0.115 C 
ATOM     30  H   UNL     1     -45.964  37.358  26.132  1.00  0.00     0.076 H 
ATOM     31  H   UNL     1     -47.701  37.184  26.310  1.00  0.00     0.076 H 
BRANCH  29  32
ATOM     32  C   UNL     1     -46.655  35.448  26.900  1.00  0.00     0.010 A 
ATOM     33  C   UNL     1     -46.314  34.868  28.114  1.00  0.00     0.034 A 
ATOM     34  C   UNL     1     -46.850  34.589  25.809  1.00  0.00    -0.028 A 
ATOM     35  N   UNL     1     -46.184  33.539  28.303  1.00  0.00    -0.262 NA
ATOM     36  H   UNL     1     -46.130  35.468  29.001  1.00  0.00     0.084 H 
ATOM     37  C   UNL     1     -46.734  33.199  25.962  1.00  0.00     0.066 A 
ATOM     38  H   UNL     1     -47.082  35.041  24.850  1.00  0.00     0.065 H 
ATOM     39  C   UNL     1     -46.400  32.736  27.230  1.00  0.00     0.051 A 
ATOM     40  H   UNL     1     -46.302  31.684  27.476  1.00  0.00     0.086 H 
BRANCH  37  41
ATOM     41  N   UNL     1     -46.957  32.311  24.861  1.00  0.00    -0.298 N 
ATOM     42  C   UNL     1     -45.961  31.763  24.069  1.00  0.00     0.031 A 
ATOM     43  C   UNL     1     -48.177  31.831  24.377  1.00  0.00     0.151 A 
ATOM     44  C   UNL     1     -46.533  30.968  23.105  1.00  0.00     0.072 A 
ATOM     45  H   UNL     1     -44.917  31.988  24.223  1.00  0.00     0.084 H 
ATOM     46  C   UNL     1     -47.933  31.001  23.284  1.00  0.00     0.080 A 
ATOM     47  N   UNL     1     -49.400  32.095  24.879  1.00  0.00    -0.218 NA
ATOM     48  Cl  UNL     1     -45.689  30.097  21.912  1.00  0.00    -0.082 Cl
ATOM     49  C   UNL     1     -49.048  30.422  22.657  1.00  0.00     0.137 A 
ATOM     50  C   UNL     1     -50.385  31.484  24.208  1.00  0.00     0.120 A 
ATOM     51  N   UNL     1     -50.276  30.673  23.144  1.00  0.00    -0.219 NA
ATOM     52  H   UNL     1     -51.394  31.665  24.566  1.00  0.00     0.106 H 
BRANCH  49  53
ATOM     53  N   UNL     1     -48.972  29.586  21.557  1.00  0.00    -0.383 N 
ATOM     54  H   UNL     1     -49.851  29.230  21.204  1.00  0.00     0.158 HD
ATOM     55  H   UNL     1     -48.295  29.911  20.878  1.00  0.00     0.158 HD
ENDBRANCH  49  53
ENDBRANCH  37  41
ENDBRANCH  29  32
ENDBRANCH   1  29
TORSDOF 9
ENDMDL
MODEL 2
REMARK VINA RESULT:      -9.6      1.315      1.971
REMARK SMILES CC(C)Nc1ccc2ccc(OCc3cncc(-n4cc(Cl)c5c(N)ncnc54)c3)cc2n1
REMARK SMILES IDX 12 1 11 2 5 3 6 4 33 5 7 6 32 8 8 9 31 11 9 12 10 14 4 17
REMARK SMILES IDX 2 19 1 21 3 25 13 29 14 32 15 33 30 34 16 35 18 37 17 39
REMARK SMILES IDX 19 41 20 42 29 43 21 44 23 46 28 47 22 48 24 49 27 50 26 51
REMARK SMILES IDX 25 53
REMARK H PARENT 6 7 7 10 31 13 9 15 10 16 4 18 2 20 1 22 1 23 1 24 3 26 3 27
REMARK H PARENT 3 28 13 30 13 31 15 36 30 38 17 40 20 45 27 52 25 54 25 55
REMARK Flexibility Score: inf
ROOT
ATOM      1  O   UNL     1     -46.669  37.398  28.014  1.00  0.00    -0.489 OA
ENDROOT
BRANCH   1   2
ATOM      2  C   UNL     1     -45.669  38.274  28.338  1.00  0.00     0.122 A 
ATOM      3  C   UNL     1     -43.134  42.272  27.850  1.00  0.00     0.126 A 
ATOM      4  C   UNL     1     -42.275  41.905  28.880  1.00  0.00    -0.019 A 
ATOM      5  N   UNL     1     -44.150  41.474  27.475  1.00  0.00    -0.231 NA
ATOM      6  C   UNL     1     -42.475  40.702  29.549  1.00  0.00    -0.049 A 
ATOM      7  H   UNL     1     -41.442  42.544  29.154  1.00  0.00     0.066 H 
ATOM      8  C   UNL     1     -44.352  40.307  28.112  1.00  0.00     0.076 A 
ATOM      9  C   UNL     1     -43.532  39.874  29.168  1.00  0.00     0.001 A 
ATOM     10  H   UNL     1     -41.800  40.416  30.352  1.00  0.00     0.063 H 
ATOM     11  C   UNL     1     -45.407  39.495  27.713  1.00  0.00     0.007 A 
ATOM     12  C   UNL     1     -43.780  38.645  29.800  1.00  0.00    -0.049 A 
ATOM     13  H   UNL     1     -46.007  39.851  26.882  1.00  0.00     0.069 H 
ATOM     14  C   UNL     1     -44.845  37.852  29.380  1.00  0.00    -0.019 A 
ATOM     15  H   UNL     1     -43.147  38.302  30.614  1.00  0.00     0.063 H 
ATOM     16  H   UNL     1     -45.033  36.899  29.869  1.00  0.00     0.066 H 
BRANCH   3  17
ATOM     17  N   UNL     1     -42.875  43.475  27.185  1.00  0.00    -0.368 N 
ATOM     18  H   UNL     1     -43.606  44.142  27.411  1.00  0.00     0.162 HD
BRANCH  17  19
ATOM     19  C   UNL     1     -42.555  43.495  25.752  1.00  0.00     0.022 C 
ATOM     20  H   UNL     1     -42.465  44.559  25.496  1.00  0.00     0.052 H 
BRANCH  19  21
ATOM     21  C   UNL     1     -41.199  42.872  25.439  1.00  0.00    -0.045 C 
ATOM     22  H   UNL     1     -40.924  42.149  26.215  1.00  0.00     0.025 H 
ATOM     23  H   UNL     1     -40.395  43.612  25.390  1.00  0.00     0.025 H 
ATOM     24  H   UNL     1     -41.224  42.342  24.480  1.00  0.00     0.025 H 
ENDBRANCH  19  21
BRANCH  19  25
ATOM     25  C   UNL     1     -43.682  42.942  24.885  1.00  0.00    -0.045 C 
ATOM     26  H   UNL     1     -44.656  43.097  25.362  1.00  0.00     0.025 H 
ATOM     27  H   UNL     1     -43.699  43.449  23.914  1.00  0.00     0.025 H 
ATOM     28  H   UNL     1     -43.574  41.870  24.688  1.00  0.00     0.025 H 
ENDBRANCH  19  25
ENDBRANCH  17  19
ENDBRANCH   3  17
ENDBRANCH   1   2
BRANCH   1  29
ATOM     29  C   UNL     1     -46.614  36.743  26.743  1.00  0.00     0.115 C 
ATOM     30  H   UNL     1     -45.747  37.083  26.163  1.00  0.00     0.076 H 
ATOM     31  H   UNL     1     -47.501  37.075  26.190  1.00  0.00     0.076 H 
BRANCH  29  32
ATOM     32  C   UNL     1     -46.680  35.241  26.836  1.00  0.00     0.010 A 
ATOM     33  C   UNL     1     -46.060  34.589  27.894  1.00  0.00     0.034 A 
ATOM     34  C   UNL     1     -47.300  34.443  25.863  1.00  0.00    -0.028 A 
ATOM     35  N   UNL     1     -46.042  33.250  28.045  1.00  0.00    -0.262 NA
ATOM     36  H   UNL     1     -45.544  35.137  28.677  1.00  0.00     0.084 H 
ATOM     37  C   UNL     1     -47.313  33.045  25.985  1.00  0.00     0.066 A 
ATOM     38  H   UNL     1     -47.755  34.947  25.017  1.00  0.00     0.065 H 
ATOM     39  C   UNL     1     -46.670  32.509  27.095  1.00  0.00     0.051 A 
ATOM     40  H   UNL     1     -46.630  31.447  27.309  1.00  0.00     0.086 H 
BRANCH  37  41
ATOM     41  N   UNL     1     -47.966  32.223  25.013  1.00  0.00    -0.298 N 
ATOM     42  C   UNL     1     -49.335  32.021  24.934  1.00  0.00     0.031 A 
ATOM     43  C   UNL     1     -47.383  31.483  23.980  1.00  0.00     0.151 A 
ATOM     44  C   UNL     1     -49.610  31.170  23.891  1.00  0.00     0.072 A 
ATOM     45  H   UNL     1     -50.022  32.471  25.634  1.00  0.00     0.084 H 
ATOM     46  C   UNL     1     -48.388  30.819  23.278  1.00  0.00     0.080 A 
ATOM     47  N   UNL     1     -46.070  31.421  23.679  1.00  0.00    -0.218 NA
ATOM     48  Cl  UNL     1     -51.159  30.644  23.425  1.00  0.00    -0.082 Cl
ATOM     49  C   UNL     1     -47.990  30.016  22.197  1.00  0.00     0.137 A 
ATOM     50  C   UNL     1     -45.810  30.634  22.627  1.00  0.00     0.120 A 
ATOM     51  N   UNL     1     -46.686  29.944  21.880  1.00  0.00    -0.219 NA
ATOM     52  H   UNL     1     -44.766  30.544  22.342  1.00  0.00     0.106 H 
BRANCH  49  53
ATOM     53  N   UNL     1     -48.864  29.288  21.409  1.00  0.00    -0.383 N 
ATOM     54  H   UNL     1     -48.785  28.282  21.465  1.00  0.00     0.158 HD
ATOM     55  H   UNL     1     -49.797  29.682  21.412  1.00  0.00     0.158 HD
ENDBRANCH  49  53
ENDBRANCH  37  41
ENDBRANCH  29  32
ENDBRANCH   1  29
TORSDOF 9
ENDMDL
MODEL 3
REMARK VINA RESULT:      -9.4      3.089     11.439
REMARK SMILES CC(C)Nc1ccc2ccc(OCc3cncc(-n4cc(Cl)c5c(N)ncnc54)c3)cc2n1
REMARK SMILES IDX 12 1 11 2 5 3 6 4 33 5 7 6 32 8 8 9 31 11 9 12 10 14 4 17
REMARK SMILES IDX 2 19 1 21 3 25 13 29 14 32 15 33 30 34 16 35 18 37 17 39
REMARK SMILES IDX 19 41 20 42 29 43 21 44 23 46 28 47 22 48 24 49 27 50 26 51
REMARK SMILES IDX 25 53
REMARK H PARENT 6 7 7 10 31 13 9 15 10 16 4 18 2 20 1 22 1 23 1 24 3 26 3 27
REMARK H PARENT 3 28 13 30 13 31 15 36 30 38 17 40 20 45 27 52 25 54 25 55
REMARK Flexibility Score: inf
ROOT
ATOM      1  O   UNL     1     -46.594  33.884  27.579  1.00  0.00    -0.489 OA
ENDROOT
BRANCH   1   2
ATOM      2  C   UNL     1     -46.897  33.043  26.542  1.00  0.00     0.122 A 
ATOM      3  C   UNL     1     -49.011  29.279  24.539  1.00  0.00     0.126 A 
ATOM      4  C   UNL     1     -48.412  29.541  23.311  1.00  0.00    -0.019 A 
ATOM      5  N   UNL     1     -48.776  30.062  25.608  1.00  0.00    -0.231 NA
ATOM      6  C   UNL     1     -47.568  30.639  23.176  1.00  0.00    -0.049 A 
ATOM      7  H   UNL     1     -48.586  28.885  22.464  1.00  0.00     0.066 H 
ATOM      8  C   UNL     1     -47.960  31.125  25.490  1.00  0.00     0.076 A 
ATOM      9  C   UNL     1     -47.328  31.458  24.279  1.00  0.00     0.001 A 
ATOM     10  H   UNL     1     -47.099  30.839  22.216  1.00  0.00     0.063 H 
ATOM     11  C   UNL     1     -47.730  31.925  26.603  1.00  0.00     0.007 A 
ATOM     12  C   UNL     1     -46.481  32.575  24.207  1.00  0.00    -0.049 A 
ATOM     13  H   UNL     1     -48.219  31.627  27.525  1.00  0.00     0.069 H 
ATOM     14  C   UNL     1     -46.269  33.360  25.338  1.00  0.00    -0.019 A 
ATOM     15  H   UNL     1     -45.985  32.837  23.276  1.00  0.00     0.063 H 
ATOM     16  H   UNL     1     -45.610  34.223  25.280  1.00  0.00     0.066 H 
BRANCH   3  17
ATOM     17  N   UNL     1     -49.825  28.146  24.637  1.00  0.00    -0.368 N 
ATOM     18  H   UNL     1     -50.535  28.309  25.344  1.00  0.00     0.162 HD
BRANCH  17  19
ATOM     19  C   UNL     1     -49.244  26.804  24.760  1.00  0.00     0.022 C 
ATOM     20  H   UNL     1     -49.220  26.410  23.736  1.00  0.00     0.052 H 
BRANCH  19  21
ATOM     21  C   UNL     1     -47.795  26.826  25.235  1.00  0.00    -0.045 C 
ATOM     22  H   UNL     1     -47.128  26.478  24.439  1.00  0.00     0.025 H 
ATOM     23  H   UNL     1     -47.624  26.181  26.102  1.00  0.00     0.025 H 
ATOM     24  H   UNL     1     -47.488  27.842  25.509  1.00  0.00     0.025 H 
ENDBRANCH  19  21
BRANCH  19  25
ATOM     25  C   UNL     1     -50.122  25.849  25.564  1.00  0.00    -0.045 C 
ATOM     26  H   UNL     1     -49.592  24.913  25.773  1.00  0.00     0.025 H 
ATOM     27  H   UNL     1     -50.397  26.301  26.523  1.00  0.00     0.025 H 
ATOM     28  H   UNL     1     -51.052  25.597  25.046  1.00  0.00     0.025 H 
ENDBRANCH  19  25
ENDBRANCH  17  19
ENDBRANCH   3  17
ENDBRANCH   1   2
BRANCH   1  29
ATOM     29  C   UNL     1     -47.302  35.124  27.679  1.00  0.00     0.115 C 
ATOM     30  H   UNL     1     -48.313  34.968  28.076  1.00  0.00     0.076 H 
ATOM     31  H   UNL     1     -47.430  35.486  26.651  1.00  0.00     0.076 H 
BRANCH  29  32
ATOM     32  C   UNL     1     -46.551  36.186  28.438  1.00  0.00     0.010 A 
ATOM     33  C   UNL     1     -46.439  36.096  29.819  1.00  0.00     0.034 A 
ATOM     34  C   UNL     1     -45.993  37.315  27.819  1.00  0.00    -0.028 A 
ATOM     35  N   UNL     1     -45.812  37.012  30.584  1.00  0.00    -0.262 NA
ATOM     36  H   UNL     1     -46.861  35.261  30.371  1.00  0.00     0.084 H 
ATOM     37  C   UNL     1     -45.324  38.288  28.576  1.00  0.00     0.066 A 
ATOM     38  H   UNL     1     -46.110  37.406  26.744  1.00  0.00     0.065 H 
ATOM     39  C   UNL     1     -45.266  38.081  29.950  1.00  0.00     0.051 A 
ATOM     40  H   UNL     1     -44.759  38.752  30.635  1.00  0.00     0.086 H 
BRANCH  37  41
ATOM     41  N   UNL     1     -44.727  39.430  27.952  1.00  0.00    -0.298 N 
ATOM     42  C   UNL     1     -45.117  39.963  26.733  1.00  0.00     0.031 A 
ATOM     43  C   UNL     1     -43.672  40.216  28.423  1.00  0.00     0.151 A 
ATOM     44  C   UNL     1     -44.325  41.046  26.436  1.00  0.00     0.072 A 
ATOM     45  H   UNL     1     -45.911  39.529  26.145  1.00  0.00     0.084 H 
ATOM     46  C   UNL     1     -43.405  41.219  27.493  1.00  0.00     0.080 A 
ATOM     47  N   UNL     1     -43.016  40.062  29.592  1.00  0.00    -0.218 NA
ATOM     48  Cl  UNL     1     -44.445  42.007  25.038  1.00  0.00    -0.082 Cl
ATOM     49  C   UNL     1     -42.365  42.112  27.795  1.00  0.00     0.137 A 
ATOM     50  C   UNL     1     -42.053  40.973  29.776  1.00  0.00     0.120 A 
ATOM     51  N   UNL     1     -41.701  41.975  28.956  1.00  0.00    -0.219 NA
ATOM     52  H   UNL     1     -41.488  40.894  30.701  1.00  0.00     0.106 H 
BRANCH  49  53
ATOM     53  N   UNL     1     -41.972  43.153  26.971  1.00  0.00    -0.383 N 
ATOM     54  H   UNL     1     -41.140  43.654  27.250  1.00  0.00     0.158 HD
ATOM     55  H   UNL     1     -42.069  42.918  25.990  1.00  0.00     0.158 HD
ENDBRANCH  49  53
ENDBRANCH  37  41
ENDBRANCH  29  32
ENDBRANCH   1  29
TORSDOF 9
ENDMDL
MODEL 4
REMARK VINA RESULT:      -9.4      3.128     10.537
REMARK SMILES CC(C)Nc1ccc2ccc(OCc3cncc(-n4cc(Cl)c5c(N)ncnc54)c3)cc2n1
REMARK SMILES IDX 12 1 11 2 5 3 6 4 33 5 7 6 32 8 8 9 31 11 9 12 10 14 4 17
REMARK SMILES IDX 2 19 1 21 3 25 13 29 14 32 15 33 30 34 16 35 18 37 17 39
REMARK SMILES IDX 19 41 20 42 29 43 21 44 23 46 28 47 22 48 24 49 27 50 26 51
REMARK SMILES IDX 25 53
REMARK H PARENT 6 7 7 10 31 13 9 15 10 16 4 18 2 20 1 22 1 23 1 24 3 26 3 27
REMARK H PARENT 3 28 13 30 13 31 15 36 30 38 17 40 20 45 27 52 25 54 25 55
REMARK Flexibility Score: inf
ROOT
ATOM      1  O   UNL     1     -46.249  36.513  26.905  1.00  0.00    -0.489 OA
ENDROOT
BRANCH   1   2
ATOM      2  C   UNL     1     -46.852  35.345  26.521  1.00  0.00     0.122 A 
ATOM      3  C   UNL     1     -47.011  31.088  24.401  1.00  0.00     0.126 A 
ATOM      4  C   UNL     1     -48.351  30.923  24.735  1.00  0.00    -0.019 A 
ATOM      5  N   UNL     1     -46.340  32.201  24.749  1.00  0.00    -0.231 NA
ATOM      6  C   UNL     1     -49.009  31.914  25.456  1.00  0.00    -0.049 A 
ATOM      7  H   UNL     1     -48.889  30.033  24.423  1.00  0.00     0.066 H 
ATOM      8  C   UNL     1     -46.966  33.167  25.444  1.00  0.00     0.076 A 
ATOM      9  C   UNL     1     -48.315  33.067  25.826  1.00  0.00     0.001 A 
ATOM     10  H   UNL     1     -50.057  31.784  25.713  1.00  0.00     0.063 H 
ATOM     11  C   UNL     1     -46.257  34.310  25.797  1.00  0.00     0.007 A 
ATOM     12  C   UNL     1     -48.926  34.105  26.547  1.00  0.00    -0.049 A 
ATOM     13  H   UNL     1     -45.225  34.363  25.470  1.00  0.00     0.069 H 
ATOM     14  C   UNL     1     -48.192  35.238  26.888  1.00  0.00    -0.019 A 
ATOM     15  H   UNL     1     -49.970  34.036  26.841  1.00  0.00     0.063 H 
ATOM     16  H   UNL     1     -48.669  36.042  27.444  1.00  0.00     0.066 H 
BRANCH   3  17
ATOM     17  N   UNL     1     -46.400  30.080  23.648  1.00  0.00    -0.368 N 
ATOM     18  H   UNL     1     -45.429  29.994  23.936  1.00  0.00     0.162 HD
BRANCH  17  19
ATOM     19  C   UNL     1     -46.531  30.041  22.187  1.00  0.00     0.022 C 
ATOM     20  H   UNL     1     -45.910  29.193  21.868  1.00  0.00     0.052 H 
BRANCH  19  21
ATOM     21  C   UNL     1     -47.949  29.719  21.727  1.00  0.00    -0.045 C 
ATOM     22  H   UNL     1     -48.408  30.599  21.262  1.00  0.00     0.025 H 
ATOM     23  H   UNL     1     -48.601  29.415  22.551  1.00  0.00     0.025 H 
ATOM     24  H   UNL     1     -47.947  28.911  20.987  1.00  0.00     0.025 H 
ENDBRANCH  19  21
BRANCH  19  25
ATOM     25  C   UNL     1     -45.948  31.275  21.505  1.00  0.00    -0.045 C 
ATOM     26  H   UNL     1     -46.732  32.009  21.287  1.00  0.00     0.025 H 
ATOM     27  H   UNL     1     -45.209  31.756  22.156  1.00  0.00     0.025 H 
ATOM     28  H   UNL     1     -45.443  31.037  20.564  1.00  0.00     0.025 H 
ENDBRANCH  19  25
ENDBRANCH  17  19
ENDBRANCH   3  17
ENDBRANCH   1   2
BRANCH   1  29
ATOM     29  C   UNL     1     -46.175  36.814  28.302  1.00  0.00     0.115 C 
ATOM     30  H   UNL     1     -45.961  35.911  28.887  1.00  0.00     0.076 H 
ATOM     31  H   UNL     1     -47.181  37.138  28.598  1.00  0.00     0.076 H 
BRANCH  29  32
ATOM     32  C   UNL     1     -45.227  37.938  28.627  1.00  0.00     0.010 A 
ATOM     33  C   UNL     1     -44.584  37.963  29.856  1.00  0.00     0.034 A 
ATOM     34  C   UNL     1     -44.996  39.015  27.757  1.00  0.00    -0.028 A 
ATOM     35  N   UNL     1     -43.742  38.941  30.246  1.00  0.00    -0.262 NA
ATOM     36  H   UNL     1     -44.727  37.174  30.590  1.00  0.00     0.084 H 
ATOM     37  C   UNL     1     -44.120  40.050  28.118  1.00  0.00     0.066 A 
ATOM     38  H   UNL     1     -45.525  39.017  26.810  1.00  0.00     0.065 H 
ATOM     39  C   UNL     1     -43.525  39.957  29.371  1.00  0.00     0.051 A 
ATOM     40  H   UNL     1     -42.816  40.684  29.752  1.00  0.00     0.086 H 
BRANCH  37  41
ATOM     41  N   UNL     1     -43.856  41.140  27.227  1.00  0.00    -0.298 N 
ATOM     42  C   UNL     1     -42.595  41.533  26.807  1.00  0.00     0.031 A 
ATOM     43  C   UNL     1     -44.776  41.998  26.620  1.00  0.00     0.151 A 
ATOM     44  C   UNL     1     -42.712  42.614  25.968  1.00  0.00     0.072 A 
ATOM     45  H   UNL     1     -41.698  41.038  27.146  1.00  0.00     0.084 H 
ATOM     46  C   UNL     1     -44.084  42.923  25.840  1.00  0.00     0.080 A 
ATOM     47  N   UNL     1     -46.119  41.949  26.737  1.00  0.00    -0.218 NA
ATOM     48  Cl  UNL     1     -41.422  43.428  25.215  1.00  0.00    -0.082 Cl
ATOM     49  C   UNL     1     -44.847  43.878  25.150  1.00  0.00     0.137 A 
ATOM     50  C   UNL     1     -46.742  42.900  26.030  1.00  0.00     0.120 A 
ATOM     51  N   UNL     1     -46.187  43.843  25.253  1.00  0.00    -0.219 NA
ATOM     52  H   UNL     1     -47.826  42.910  26.091  1.00  0.00     0.106 H 
BRANCH  49  53
ATOM     53  N   UNL     1     -44.310  44.866  24.344  1.00  0.00    -0.383 N 
ATOM     54  H   UNL     1     -43.388  45.196  24.595  1.00  0.00     0.158 HD
ATOM     55  H   UNL     1     -44.492  44.696  23.362  1.00  0.00     0.158 HD
ENDBRANCH  49  53
ENDBRANCH  37  41
ENDBRANCH  29  32
ENDBRANCH   1  29
TORSDOF 9
ENDMDL
MODEL 5
REMARK VINA RESULT:      -9.2      3.382     11.569
REMARK SMILES CC(C)Nc1ccc2ccc(OCc3cncc(-n4cc(Cl)c5c(N)ncnc54)c3)cc2n1
REMARK SMILES IDX 12 1 11 2 5 3 6 4 33 5 7 6 32 8 8 9 31 11 9 12 10 14 4 17
REMARK SMILES IDX 2 19 1 21 3 25 13 29 14 32 15 33 30 34 16 35 18 37 17 39
REMARK SMILES IDX 19 41 20 42 29 43 21 44 23 46 28 47 22 48 24 49 27 50 26 51
REMARK SMILES IDX 25 53
REMARK H PARENT 6 7 7 10 31 13 9 15 10 16 4 18 2 20 1 22 1 23 1 24 3 26 3 27
REMARK H PARENT 3 28 13 30 13 31 15 36 30 38 17 40 20 45 27 52 25 54 25 55
REMARK Flexibility Score: inf
ROOT
ATOM      1  O   UNL     1     -47.866  34.004  26.420  1.00  0.00    -0.489 OA
ENDROOT
BRANCH   1   2
ATOM      2  C   UNL     1     -47.700  32.874  25.666  1.00  0.00     0.122 A 
ATOM      3  C   UNL     1     -48.794  28.473  24.224  1.00  0.00     0.126 A 
ATOM      4  C   UNL     1     -47.715  28.445  23.347  1.00  0.00    -0.019 A 
ATOM      5  N   UNL     1     -49.035  29.549  24.995  1.00  0.00    -0.231 NA
ATOM      6  C   UNL     1     -46.877  29.551  23.248  1.00  0.00    -0.049 A 
ATOM      7  H   UNL     1     -47.513  27.559  22.752  1.00  0.00     0.066 H 
ATOM      8  C   UNL     1     -48.232  30.624  24.910  1.00  0.00     0.076 A 
ATOM      9  C   UNL     1     -47.129  30.672  24.040  1.00  0.00     0.001 A 
ATOM     10  H   UNL     1     -46.033  29.525  22.564  1.00  0.00     0.063 H 
ATOM     11  C   UNL     1     -48.496  31.728  25.712  1.00  0.00     0.007 A 
ATOM     12  C   UNL     1     -46.316  31.816  23.990  1.00  0.00    -0.049 A 
ATOM     13  H   UNL     1     -49.343  31.648  26.385  1.00  0.00     0.069 H 
ATOM     14  C   UNL     1     -46.605  32.908  24.805  1.00  0.00    -0.019 A 
ATOM     15  H   UNL     1     -45.459  31.860  23.323  1.00  0.00     0.063 H 
ATOM     16  H   UNL     1     -45.971  33.792  24.766  1.00  0.00     0.066 H 
BRANCH   3  17
ATOM     17  N   UNL     1     -49.588  27.325  24.314  1.00  0.00    -0.368 N 
ATOM     18  H   UNL     1     -49.693  26.922  23.388  1.00  0.00     0.162 HD
BRANCH  17  19
ATOM     19  C   UNL     1     -50.865  27.342  25.038  1.00  0.00     0.022 C 
ATOM     20  H   UNL     1     -50.859  28.283  25.604  1.00  0.00     0.052 H 
BRANCH  19  21
ATOM     21  C   UNL     1     -52.073  27.419  24.109  1.00  0.00    -0.045 C 
ATOM     22  H   UNL     1     -52.650  26.489  24.158  1.00  0.00     0.025 H 
ATOM     23  H   UNL     1     -51.791  27.567  23.063  1.00  0.00     0.025 H 
ATOM     24  H   UNL     1     -52.736  28.242  24.397  1.00  0.00     0.025 H 
ENDBRANCH  19  21
BRANCH  19  25
ATOM     25  C   UNL     1     -50.976  26.225  26.071  1.00  0.00    -0.045 C 
ATOM     26  H   UNL     1     -52.005  26.131  26.437  1.00  0.00     0.025 H 
ATOM     27  H   UNL     1     -50.689  25.265  25.627  1.00  0.00     0.025 H 
ATOM     28  H   UNL     1     -50.328  26.387  26.938  1.00  0.00     0.025 H 
ENDBRANCH  19  25
ENDBRANCH  17  19
ENDBRANCH   3  17
ENDBRANCH   1   2
BRANCH   1  29
ATOM     29  C   UNL     1     -46.705  34.622  26.984  1.00  0.00     0.115 C 
ATOM     30  H   UNL     1     -45.840  34.516  26.316  1.00  0.00     0.076 H 
ATOM     31  H   UNL     1     -46.464  34.052  27.889  1.00  0.00     0.076 H 
BRANCH  29  32
ATOM     32  C   UNL     1     -46.926  36.053  27.401  1.00  0.00     0.010 A 
ATOM     33  C   UNL     1     -48.217  36.514  27.619  1.00  0.00     0.034 A 
ATOM     34  C   UNL     1     -45.881  36.980  27.531  1.00  0.00    -0.028 A 
ATOM     35  N   UNL     1     -48.514  37.782  27.967  1.00  0.00    -0.262 NA
ATOM     36  H   UNL     1     -49.080  35.861  27.520  1.00  0.00     0.084 H 
ATOM     37  C   UNL     1     -46.144  38.307  27.900  1.00  0.00     0.066 A 
ATOM     38  H   UNL     1     -44.874  36.631  27.327  1.00  0.00     0.065 H 
ATOM     39  C   UNL     1     -47.477  38.647  28.104  1.00  0.00     0.051 A 
ATOM     40  H   UNL     1     -47.802  39.635  28.411  1.00  0.00     0.086 H 
BRANCH  37  41
ATOM     41  N   UNL     1     -45.083  39.255  28.062  1.00  0.00    -0.298 N 
ATOM     42  C   UNL     1     -44.152  39.236  29.089  1.00  0.00     0.031 A 
ATOM     43  C   UNL     1     -44.776  40.351  27.251  1.00  0.00     0.151 A 
ATOM     44  C   UNL     1     -43.289  40.294  28.939  1.00  0.00     0.072 A 
ATOM     45  H   UNL     1     -44.174  38.491  29.869  1.00  0.00     0.084 H 
ATOM     46  C   UNL     1     -43.670  41.010  27.783  1.00  0.00     0.080 A 
ATOM     47  N   UNL     1     -45.417  40.719  26.123  1.00  0.00    -0.218 NA
ATOM     48  Cl  UNL     1     -41.987  40.663  29.970  1.00  0.00    -0.082 Cl
ATOM     49  C   UNL     1     -43.213  42.149  27.100  1.00  0.00     0.137 A 
ATOM     50  C   UNL     1     -44.890  41.810  25.554  1.00  0.00     0.120 A 
ATOM     51  N   UNL     1     -43.837  42.530  25.973  1.00  0.00    -0.219 NA
ATOM     52  H   UNL     1     -45.370  42.155  24.642  1.00  0.00     0.106 H 
BRANCH  49  53
ATOM     53  N   UNL     1     -42.135  42.916  27.506  1.00  0.00    -0.383 N 
ATOM     54  H   UNL     1     -42.291  43.913  27.563  1.00  0.00     0.158 HD
ATOM     55  H   UNL     1     -41.622  42.481  28.263  1.00  0.00     0.158 HD
ENDBRANCH  49  53
ENDBRANCH  37  41
ENDBRANCH  29  32
ENDBRANCH   1  29
TORSDOF 9
ENDMDL
MODEL 6
REMARK VINA RESULT:      -9.2      3.703     11.755
REMARK SMILES CC(C)Nc1ccc2ccc(OCc3cncc(-n4cc(Cl)c5c(N)ncnc54)c3)cc2n1
REMARK SMILES IDX 12 1 11 2 5 3 6 4 33 5 7 6 32 8 8 9 31 11 9 12 10 14 4 17
REMARK SMILES IDX 2 19 1 21 3 25 13 29 14 32 15 33 30 34 16 35 18 37 17 39
REMARK SMILES IDX 19 41 20 42 29 43 21 44 23 46 28 47 22 48 24 49 27 50 26 51
REMARK SMILES IDX 25 53
REMARK H PARENT 6 7 7 10 31 13 9 15 10 16 4 18 2 20 1 22 1 23 1 24 3 26 3 27
REMARK H PARENT 3 28 13 30 13 31 15 36 30 38 17 40 20 45 27 52 25 54 25 55
REMARK Flexibility Score: inf
ROOT
ATOM      1  O   UNL     1     -47.960  33.475  26.847  1.00  0.00    -0.489 OA
ENDROOT
BRANCH   1   2
ATOM      2  C   UNL     1     -48.485  32.458  26.099  1.00  0.00     0.122 A 
ATOM      3  C   UNL     1     -48.887  27.933  24.680  1.00  0.00     0.126 A 
ATOM      4  C   UNL     1     -49.852  28.269  23.736  1.00  0.00    -0.019 A 
ATOM      5  N   UNL     1     -48.326  28.871  25.464  1.00  0.00    -0.231 NA
ATOM      6  C   UNL     1     -50.262  29.593  23.609  1.00  0.00    -0.049 A 
ATOM      7  H   UNL     1     -50.276  27.507  23.089  1.00  0.00     0.066 H 
ATOM      8  C   UNL     1     -48.712  30.154  25.349  1.00  0.00     0.076 A 
ATOM      9  C   UNL     1     -49.688  30.567  24.426  1.00  0.00     0.001 A 
ATOM     10  H   UNL     1     -51.014  29.852  22.869  1.00  0.00     0.063 H 
ATOM     11  C   UNL     1     -48.124  31.111  26.169  1.00  0.00     0.007 A 
ATOM     12  C   UNL     1     -50.054  31.920  24.341  1.00  0.00    -0.049 A 
ATOM     13  H   UNL     1     -47.361  30.760  26.856  1.00  0.00     0.069 H 
ATOM     14  C   UNL     1     -49.449  32.857  25.174  1.00  0.00    -0.019 A 
ATOM     15  H   UNL     1     -50.805  32.248  23.626  1.00  0.00     0.063 H 
ATOM     16  H   UNL     1     -49.733  33.905  25.104  1.00  0.00     0.066 H 
BRANCH   3  17
ATOM     17  N   UNL     1     -48.483  26.596  24.749  1.00  0.00    -0.368 N 
ATOM     18  H   UNL     1     -48.939  26.074  24.006  1.00  0.00     0.162 HD
BRANCH  17  19
ATOM     19  C   UNL     1     -48.515  25.859  26.018  1.00  0.00     0.022 C 
ATOM     20  H   UNL     1     -48.475  26.632  26.797  1.00  0.00     0.052 H 
BRANCH  19  21
ATOM     21  C   UNL     1     -49.825  25.110  26.237  1.00  0.00    -0.045 C 
ATOM     22  H   UNL     1     -50.257  25.376  27.209  1.00  0.00     0.025 H 
ATOM     23  H   UNL     1     -49.697  24.024  26.229  1.00  0.00     0.025 H 
ATOM     24  H   UNL     1     -50.557  25.367  25.463  1.00  0.00     0.025 H 
ENDBRANCH  19  21
BRANCH  19  25
ATOM     25  C   UNL     1     -47.283  24.982  26.226  1.00  0.00    -0.045 C 
ATOM     26  H   UNL     1     -46.499  25.231  25.502  1.00  0.00     0.025 H 
ATOM     27  H   UNL     1     -46.873  25.134  27.231  1.00  0.00     0.025 H 
ATOM     28  H   UNL     1     -47.505  23.915  26.125  1.00  0.00     0.025 H 
ENDBRANCH  19  25
ENDBRANCH  17  19
ENDBRANCH   3  17
ENDBRANCH   1   2
BRANCH   1  29
ATOM     29  C   UNL     1     -47.285  34.540  26.170  1.00  0.00     0.115 C 
ATOM     30  H   UNL     1     -47.535  34.547  25.102  1.00  0.00     0.076 H 
ATOM     31  H   UNL     1     -46.214  34.311  26.231  1.00  0.00     0.076 H 
BRANCH  29  32
ATOM     32  C   UNL     1     -47.492  35.888  26.810  1.00  0.00     0.010 A 
ATOM     33  C   UNL     1     -48.719  36.199  27.378  1.00  0.00     0.034 A 
ATOM     34  C   UNL     1     -46.508  36.888  26.816  1.00  0.00    -0.028 A 
ATOM     35  N   UNL     1     -49.006  37.388  27.947  1.00  0.00    -0.262 NA
ATOM     36  H   UNL     1     -49.537  35.484  27.396  1.00  0.00     0.084 H 
ATOM     37  C   UNL     1     -46.759  38.136  27.405  1.00  0.00     0.066 A 
ATOM     38  H   UNL     1     -45.559  36.661  26.341  1.00  0.00     0.065 H 
ATOM     39  C   UNL     1     -48.023  38.325  27.953  1.00  0.00     0.051 A 
ATOM     40  H   UNL     1     -48.328  39.238  28.453  1.00  0.00     0.086 H 
BRANCH  37  41
ATOM     41  N   UNL     1     -45.754  39.155  27.441  1.00  0.00    -0.298 N 
ATOM     42  C   UNL     1     -45.615  40.166  26.503  1.00  0.00     0.031 A 
ATOM     43  C   UNL     1     -44.744  39.335  28.390  1.00  0.00     0.151 A 
ATOM     44  C   UNL     1     -44.543  40.957  26.843  1.00  0.00     0.072 A 
ATOM     45  H   UNL     1     -46.266  40.248  25.647  1.00  0.00     0.084 H 
ATOM     46  C   UNL     1     -43.980  40.444  28.032  1.00  0.00     0.080 A 
ATOM     47  N   UNL     1     -44.535  38.585  29.491  1.00  0.00    -0.218 NA
ATOM     48  Cl  UNL     1     -44.003  42.317  25.976  1.00  0.00    -0.082 Cl
ATOM     49  C   UNL     1     -42.908  40.782  28.872  1.00  0.00     0.137 A 
ATOM     50  C   UNL     1     -43.493  39.004  30.220  1.00  0.00     0.120 A 
ATOM     51  N   UNL     1     -42.685  40.048  29.976  1.00  0.00    -0.219 NA
ATOM     52  H   UNL     1     -43.275  38.434  31.118  1.00  0.00     0.106 H 
BRANCH  49  53
ATOM     53  N   UNL     1     -42.053  41.847  28.649  1.00  0.00    -0.383 N 
ATOM     54  H   UNL     1     -41.135  41.617  28.292  1.00  0.00     0.158 HD
ATOM     55  H   UNL     1     -42.531  42.637  28.232  1.00  0.00     0.158 HD
ENDBRANCH  49  53
ENDBRANCH  37  41
ENDBRANCH  29  32
ENDBRANCH   1  29
TORSDOF 9
ENDMDL
MODEL 7
REMARK VINA RESULT:      -9.0      3.090     10.970
REMARK SMILES CC(C)Nc1ccc2ccc(OCc3cncc(-n4cc(Cl)c5c(N)ncnc54)c3)cc2n1
REMARK SMILES IDX 12 1 11 2 5 3 6 4 33 5 7 6 32 8 8 9 31 11 9 12 10 14 4 17
REMARK SMILES IDX 2 19 1 21 3 25 13 29 14 32 15 33 30 34 16 35 18 37 17 39
REMARK SMILES IDX 19 41 20 42 29 43 21 44 23 46 28 47 22 48 24 49 27 50 26 51
REMARK SMILES IDX 25 53
REMARK H PARENT 6 7 7 10 31 13 9 15 10 16 4 18 2 20 1 22 1 23 1 24 3 26 3 27
REMARK H PARENT 3 28 13 30 13 31 15 36 30 38 17 40 20 45 27 52 25 54 25 55
REMARK Flexibility Score: inf
ROOT
ATOM      1  O   UNL     1     -45.884  34.211  26.222  1.00  0.00    -0.489 OA
ENDROOT
BRANCH   1   2
ATOM      2  C   UNL     1     -46.792  33.365  25.647  1.00  0.00     0.122 A 
ATOM      3  C   UNL     1     -48.297  30.265  22.364  1.00  0.00     0.126 A 
ATOM      4  C   UNL     1     -49.550  30.175  22.961  1.00  0.00    -0.019 A 
ATOM      5  N   UNL     1     -47.342  31.066  22.872  1.00  0.00    -0.231 NA
ATOM      6  C   UNL     1     -49.821  30.908  24.112  1.00  0.00    -0.049 A 
ATOM      7  H   UNL     1     -50.322  29.548  22.525  1.00  0.00     0.066 H 
ATOM      8  C   UNL     1     -47.592  31.782  23.983  1.00  0.00     0.076 A 
ATOM      9  C   UNL     1     -48.830  31.733  24.646  1.00  0.00     0.001 A 
ATOM     10  H   UNL     1     -50.802  30.837  24.575  1.00  0.00     0.063 H 
ATOM     11  C   UNL     1     -46.593  32.602  24.495  1.00  0.00     0.007 A 
ATOM     12  C   UNL     1     -49.045  32.503  25.801  1.00  0.00    -0.049 A 
ATOM     13  H   UNL     1     -45.658  32.629  23.947  1.00  0.00     0.069 H 
ATOM     14  C   UNL     1     -48.027  33.316  26.293  1.00  0.00    -0.019 A 
ATOM     15  H   UNL     1     -50.001  32.475  26.317  1.00  0.00     0.063 H 
ATOM     16  H   UNL     1     -48.197  33.913  27.186  1.00  0.00     0.066 H 
BRANCH   3  17
ATOM     17  N   UNL     1     -48.081  29.536  21.191  1.00  0.00    -0.368 N 
ATOM     18  H   UNL     1     -47.085  29.508  20.997  1.00  0.00     0.162 HD
BRANCH  17  19
ATOM     19  C   UNL     1     -48.857  29.810  19.975  1.00  0.00     0.022 C 
ATOM     20  H   UNL     1     -48.236  29.434  19.151  1.00  0.00     0.052 H 
BRANCH  19  21
ATOM     21  C   UNL     1     -50.161  29.021  19.912  1.00  0.00    -0.045 C 
ATOM     22  H   UNL     1     -49.953  27.945  19.874  1.00  0.00     0.025 H 
ATOM     23  H   UNL     1     -50.759  29.263  19.029  1.00  0.00     0.025 H 
ATOM     24  H   UNL     1     -50.777  29.213  20.798  1.00  0.00     0.025 H 
ENDBRANCH  19  21
BRANCH  19  25
ATOM     25  C   UNL     1     -49.048  31.302  19.717  1.00  0.00    -0.045 C 
ATOM     26  H   UNL     1     -48.652  31.583  18.735  1.00  0.00     0.025 H 
ATOM     27  H   UNL     1     -50.113  31.558  19.736  1.00  0.00     0.025 H 
ATOM     28  H   UNL     1     -48.552  31.925  20.467  1.00  0.00     0.025 H 
ENDBRANCH  19  25
ENDBRANCH  17  19
ENDBRANCH   3  17
ENDBRANCH   1   2
BRANCH   1  29
ATOM     29  C   UNL     1     -46.039  34.537  27.608  1.00  0.00     0.115 C 
ATOM     30  H   UNL     1     -45.166  34.212  28.188  1.00  0.00     0.076 H 
ATOM     31  H   UNL     1     -46.885  33.940  27.968  1.00  0.00     0.076 H 
BRANCH  29  32
ATOM     32  C   UNL     1     -46.375  35.985  27.852  1.00  0.00     0.010 A 
ATOM     33  C   UNL     1     -47.701  36.371  27.989  1.00  0.00     0.034 A 
ATOM     34  C   UNL     1     -45.402  36.996  27.896  1.00  0.00    -0.028 A 
ATOM     35  N   UNL     1     -48.098  37.645  28.182  1.00  0.00    -0.262 NA
ATOM     36  H   UNL     1     -48.511  35.648  27.949  1.00  0.00     0.084 H 
ATOM     37  C   UNL     1     -45.770  38.334  28.103  1.00  0.00     0.066 A 
ATOM     38  H   UNL     1     -44.367  36.702  27.753  1.00  0.00     0.065 H 
ATOM     39  C   UNL     1     -47.129  38.595  28.239  1.00  0.00     0.051 A 
ATOM     40  H   UNL     1     -47.532  39.584  28.423  1.00  0.00     0.086 H 
BRANCH  37  41
ATOM     41  N   UNL     1     -44.784  39.370  28.176  1.00  0.00    -0.298 N 
ATOM     42  C   UNL     1     -43.808  39.469  29.155  1.00  0.00     0.031 A 
ATOM     43  C   UNL     1     -44.607  40.452  27.309  1.00  0.00     0.151 A 
ATOM     44  C   UNL     1     -43.043  40.587  28.922  1.00  0.00     0.072 A 
ATOM     45  H   UNL     1     -43.733  38.759  29.964  1.00  0.00     0.084 H 
ATOM     46  C   UNL     1     -43.535  41.220  27.760  1.00  0.00     0.080 A 
ATOM     47  N   UNL     1     -45.328  40.719  26.201  1.00  0.00    -0.218 NA
ATOM     48  Cl  UNL     1     -41.730  41.103  29.872  1.00  0.00    -0.082 Cl
ATOM     49  C   UNL     1     -43.206  42.362  27.013  1.00  0.00     0.137 A 
ATOM     50  C   UNL     1     -44.920  41.825  25.565  1.00  0.00     0.120 A 
ATOM     51  N   UNL     1     -43.912  42.644  25.904  1.00  0.00    -0.219 NA
ATOM     52  H   UNL     1     -45.468  42.091  24.666  1.00  0.00     0.106 H 
BRANCH  49  53
ATOM     53  N   UNL     1     -42.178  43.230  27.334  1.00  0.00    -0.383 N 
ATOM     54  H   UNL     1     -42.033  44.006  26.703  1.00  0.00     0.158 HD
ATOM     55  H   UNL     1     -42.142  43.425  28.328  1.00  0.00     0.158 HD
ENDBRANCH  49  53
ENDBRANCH  37  41
ENDBRANCH  29  32
ENDBRANCH   1  29
TORSDOF 9
ENDMDL
