MODEL 1
REMARK VINA RESULT:     -11.5      0.000      0.000
REMARK SMILES O=C(NCc1ccc2cc(CNC[C@@H]3C[C@H]4CC[C@@H]3O4)[nH]c2c1)c1cc(=O)n2ccccc2n1
REMARK SMILES IDX 5 1 6 2 7 3 8 4 9 5 10 6 21 7 22 8 23 9 4 15 3 18 1 19 2 20
REMARK SMILES IDX 24 22 25 23 34 24 26 25 33 27 27 28 28 29 32 30 29 31 31 32
REMARK SMILES IDX 30 34 11 38 12 41 13 43 14 46 15 47 19 48 16 50 18 53 20 54
REMARK SMILES IDX 17 56
REMARK H PARENT 6 10 7 11 9 12 21 13 23 14 4 16 4 17 3 21 25 26 32 33 29 35
REMARK H PARENT 31 36 30 37 11 39 11 40 12 42 13 44 13 45 14 49 15 51 15 52
REMARK H PARENT 19 55 16 57 18 58 18 59 17 60 17 61
REMARK Flexibility Score: inf
ROOT
ATOM      1  C   UNL     1     -48.005  35.341  26.949  1.00  0.00    -0.027 A 
ATOM      2  C   UNL     1     -46.697  35.299  26.449  1.00  0.00    -0.057 A 
ATOM      3  C   UNL     1     -46.255  34.228  25.662  1.00  0.00    -0.052 A 
ATOM      4  C   UNL     1     -47.144  33.179  25.365  1.00  0.00    -0.000 A 
ATOM      5  C   UNL     1     -47.038  31.974  24.619  1.00  0.00    -0.032 A 
ATOM      6  C   UNL     1     -48.258  31.331  24.665  1.00  0.00     0.030 A 
ATOM      7  N   UNL     1     -49.094  32.105  25.433  1.00  0.00    -0.357 N 
ATOM      8  C   UNL     1     -48.443  33.240  25.864  1.00  0.00     0.046 A 
ATOM      9  C   UNL     1     -48.904  34.303  26.651  1.00  0.00    -0.033 A 
ATOM     10  H   UNL     1     -46.007  36.113  26.668  1.00  0.00     0.063 H 
ATOM     11  H   UNL     1     -45.237  34.212  25.285  1.00  0.00     0.063 H 
ATOM     12  H   UNL     1     -46.159  31.620  24.097  1.00  0.00     0.065 H 
ATOM     13  H   UNL     1     -50.055  31.881  25.652  1.00  0.00     0.166 HD
ATOM     14  H   UNL     1     -49.925  34.322  27.021  1.00  0.00     0.065 H 
ENDROOT
BRANCH   1  15
ATOM     15  C   UNL     1     -48.456  36.522  27.773  1.00  0.00     0.043 C 
ATOM     16  H   UNL     1     -48.683  36.205  28.797  1.00  0.00     0.054 H 
ATOM     17  H   UNL     1     -49.373  36.951  27.355  1.00  0.00     0.054 H 
BRANCH  15  18
ATOM     18  N   UNL     1     -47.457  37.559  27.770  1.00  0.00    -0.347 N 
ATOM     19  O   UNL     1     -46.485  37.017  29.784  1.00  0.00    -0.268 OA
ATOM     20  C   UNL     1     -46.503  37.675  28.751  1.00  0.00     0.270 C 
ATOM     21  H   UNL     1     -47.286  38.084  26.918  1.00  0.00     0.164 HD
BRANCH  20  22
ATOM     22  C   UNL     1     -45.452  38.705  28.409  1.00  0.00     0.136 A 
ATOM     23  C   UNL     1     -45.571  39.304  27.222  1.00  0.00     0.035 A 
ATOM     24  N   UNL     1     -44.458  38.967  29.324  1.00  0.00    -0.225 NA
ATOM     25  C   UNL     1     -44.577  40.316  26.850  1.00  0.00     0.258 A 
ATOM     26  H   UNL     1     -46.359  39.090  26.511  1.00  0.00     0.071 H 
ATOM     27  C   UNL     1     -43.583  39.867  28.994  1.00  0.00     0.140 A 
ATOM     28  O   UNL     1     -44.675  40.870  25.756  1.00  0.00    -0.269 OA
ATOM     29  N   UNL     1     -43.588  40.566  27.791  1.00  0.00    -0.268 N 
ATOM     30  C   UNL     1     -42.490  40.187  29.955  1.00  0.00    -0.019 A 
ATOM     31  C   UNL     1     -42.611  41.515  27.512  1.00  0.00     0.014 A 
ATOM     32  C   UNL     1     -41.573  41.110  29.642  1.00  0.00    -0.057 A 
ATOM     33  H   UNL     1     -42.478  39.650  30.895  1.00  0.00     0.066 H 
ATOM     34  C   UNL     1     -41.632  41.797  28.380  1.00  0.00    -0.045 A 
ATOM     35  H   UNL     1     -42.676  42.023  26.552  1.00  0.00     0.082 H 
ATOM     36  H   UNL     1     -40.769  41.358  30.329  1.00  0.00     0.062 H 
ATOM     37  H   UNL     1     -40.875  42.541  28.151  1.00  0.00     0.064 H 
ENDBRANCH  20  22
ENDBRANCH  15  18
ENDBRANCH   1  15
BRANCH   6  38
ATOM     38  C   UNL     1     -48.706  30.041  24.069  1.00  0.00     0.036 C 
ATOM     39  H   UNL     1     -47.833  29.524  23.653  1.00  0.00     0.049 H 
ATOM     40  H   UNL     1     -49.374  30.217  23.220  1.00  0.00     0.049 H 
BRANCH  38  41
ATOM     41  N   UNL     1     -49.311  29.162  25.067  1.00  0.00    -0.311 NA
ATOM     42  H   UNL     1     -50.070  29.664  25.525  1.00  0.00     0.123 HD
BRANCH  41  43
ATOM     43  C   UNL     1     -49.850  27.909  24.527  1.00  0.00     0.001 C 
ATOM     44  H   UNL     1     -50.088  28.010  23.462  1.00  0.00     0.043 H 
ATOM     45  H   UNL     1     -50.809  27.729  25.029  1.00  0.00     0.043 H 
BRANCH  43  46
ATOM     46  C   UNL     1     -48.937  26.695  24.756  1.00  0.00     0.000 C 
ATOM     47  C   UNL     1     -49.600  25.666  25.693  1.00  0.00    -0.020 C 
ATOM     48  C   UNL     1     -47.667  27.051  25.546  1.00  0.00     0.062 C 
ATOM     49  H   UNL     1     -48.690  26.227  23.797  1.00  0.00     0.034 H 
ATOM     50  C   UNL     1     -48.582  25.557  26.825  1.00  0.00     0.058 C 
ATOM     51  H   UNL     1     -49.785  24.707  25.200  1.00  0.00     0.030 H 
ATOM     52  H   UNL     1     -50.555  26.042  26.080  1.00  0.00     0.030 H 
ATOM     53  C   UNL     1     -46.658  25.904  25.473  1.00  0.00    -0.024 C 
ATOM     54  O   UNL     1     -48.122  26.923  26.917  1.00  0.00    -0.375 OA
ATOM     55  H   UNL     1     -47.236  28.034  25.345  1.00  0.00     0.061 H 
ATOM     56  C   UNL     1     -47.316  24.843  26.355  1.00  0.00    -0.024 C 
ATOM     57  H   UNL     1     -48.989  25.187  27.769  1.00  0.00     0.060 H 
ATOM     58  H   UNL     1     -46.471  25.559  24.451  1.00  0.00     0.029 H 
ATOM     59  H   UNL     1     -45.702  26.204  25.916  1.00  0.00     0.029 H 
ATOM     60  H   UNL     1     -47.524  23.910  25.822  1.00  0.00     0.029 H 
ATOM     61  H   UNL     1     -46.662  24.616  27.204  1.00  0.00     0.029 H 
ENDBRANCH  43  46
ENDBRANCH  41  43
ENDBRANCH  38  41
ENDBRANCH   6  38
TORSDOF 7
ENDMDL
MODEL 2
REMARK VINA RESULT:     -10.8      1.960      3.066
REMARK SMILES O=C(NCc1ccc2cc(CNC[C@@H]3C[C@H]4CC[C@@H]3O4)[nH]c2c1)c1cc(=O)n2ccccc2n1
REMARK SMILES IDX 5 1 6 2 7 3 8 4 9 5 10 6 21 7 22 8 23 9 4 15 3 18 1 19 2 20
REMARK SMILES IDX 24 22 25 23 34 24 26 25 33 27 27 28 28 29 32 30 29 31 31 32
REMARK SMILES IDX 30 34 11 38 12 41 13 43 14 46 15 47 19 48 16 50 18 53 20 54
REMARK SMILES IDX 17 56
REMARK H PARENT 6 10 7 11 9 12 21 13 23 14 4 16 4 17 3 21 25 26 32 33 29 35
REMARK H PARENT 31 36 30 37 11 39 11 40 12 42 13 44 13 45 14 49 15 51 15 52
REMARK H PARENT 19 55 16 57 18 58 18 59 17 60 17 61
REMARK Flexibility Score: inf
ROOT
ATOM      1  C   UNL     1     -46.381  35.953  27.992  1.00  0.00    -0.027 A 
ATOM      2  C   UNL     1     -47.773  35.906  27.842  1.00  0.00    -0.057 A 
ATOM      3  C   UNL     1     -48.377  35.007  26.955  1.00  0.00    -0.052 A 
ATOM      4  C   UNL     1     -47.570  34.131  26.206  1.00  0.00    -0.000 A 
ATOM      5  C   UNL     1     -47.837  33.120  25.244  1.00  0.00    -0.032 A 
ATOM      6  C   UNL     1     -46.632  32.574  24.849  1.00  0.00     0.030 A 
ATOM      7  N   UNL     1     -45.643  33.239  25.534  1.00  0.00    -0.357 N 
ATOM      8  C   UNL     1     -46.188  34.186  26.372  1.00  0.00     0.046 A 
ATOM      9  C   UNL     1     -45.565  35.077  27.255  1.00  0.00    -0.033 A 
ATOM     10  H   UNL     1     -48.404  36.575  28.426  1.00  0.00     0.063 H 
ATOM     11  H   UNL     1     -49.458  34.986  26.851  1.00  0.00     0.063 H 
ATOM     12  H   UNL     1     -48.812  32.821  24.883  1.00  0.00     0.065 H 
ATOM     13  H   UNL     1     -44.653  33.061  25.441  1.00  0.00     0.166 HD
ATOM     14  H   UNL     1     -44.486  35.091  27.365  1.00  0.00     0.065 H 
ENDROOT
BRANCH   1  15
ATOM     15  C   UNL     1     -45.765  36.918  28.976  1.00  0.00     0.043 C 
ATOM     16  H   UNL     1     -45.071  36.390  29.640  1.00  0.00     0.054 H 
ATOM     17  H   UNL     1     -46.540  37.366  29.607  1.00  0.00     0.054 H 
BRANCH  15  18
ATOM     18  N   UNL     1     -45.096  37.992  28.289  1.00  0.00    -0.347 N 
ATOM     19  O   UNL     1     -46.887  39.434  28.213  1.00  0.00    -0.268 OA
ATOM     20  C   UNL     1     -45.699  39.197  28.027  1.00  0.00     0.270 C 
ATOM     21  H   UNL     1     -44.086  37.970  28.195  1.00  0.00     0.164 HD
BRANCH  20  22
ATOM     22  C   UNL     1     -44.726  40.220  27.491  1.00  0.00     0.136 A 
ATOM     23  C   UNL     1     -43.653  40.470  28.244  1.00  0.00     0.035 A 
ATOM     24  N   UNL     1     -44.993  40.818  26.280  1.00  0.00    -0.225 NA
ATOM     25  C   UNL     1     -42.677  41.453  27.759  1.00  0.00     0.258 A 
ATOM     26  H   UNL     1     -43.454  39.992  29.194  1.00  0.00     0.071 H 
ATOM     27  C   UNL     1     -44.124  41.683  25.853  1.00  0.00     0.140 A 
ATOM     28  O   UNL     1     -41.687  41.694  28.448  1.00  0.00    -0.269 OA
ATOM     29  N   UNL     1     -42.965  42.037  26.534  1.00  0.00    -0.268 N 
ATOM     30  C   UNL     1     -44.369  42.353  24.543  1.00  0.00    -0.019 A 
ATOM     31  C   UNL     1     -42.085  42.977  26.008  1.00  0.00     0.014 A 
ATOM     32  C   UNL     1     -43.492  43.250  24.077  1.00  0.00    -0.057 A 
ATOM     33  H   UNL     1     -45.268  42.082  24.004  1.00  0.00     0.066 H 
ATOM     34  C   UNL     1     -42.311  43.575  24.832  1.00  0.00    -0.045 A 
ATOM     35  H   UNL     1     -41.199  43.207  26.596  1.00  0.00     0.082 H 
ATOM     36  H   UNL     1     -43.651  43.748  23.126  1.00  0.00     0.062 H 
ATOM     37  H   UNL     1     -41.617  44.306  24.430  1.00  0.00     0.064 H 
ENDBRANCH  20  22
ENDBRANCH  15  18
ENDBRANCH   1  15
BRANCH   6  38
ATOM     38  C   UNL     1     -46.322  31.496  23.869  1.00  0.00     0.036 C 
ATOM     39  H   UNL     1     -45.233  31.379  23.807  1.00  0.00     0.049 H 
ATOM     40  H   UNL     1     -46.643  31.782  22.863  1.00  0.00     0.049 H 
BRANCH  38  41
ATOM     41  N   UNL     1     -46.886  30.211  24.278  1.00  0.00    -0.311 NA
ATOM     42  H   UNL     1     -47.263  30.306  25.219  1.00  0.00     0.123 HD
BRANCH  41  43
ATOM     43  C   UNL     1     -47.952  29.709  23.404  1.00  0.00     0.001 C 
ATOM     44  H   UNL     1     -47.539  29.123  22.575  1.00  0.00     0.043 H 
ATOM     45  H   UNL     1     -48.426  30.584  22.941  1.00  0.00     0.043 H 
BRANCH  43  46
ATOM     46  C   UNL     1     -49.028  28.900  24.144  1.00  0.00     0.000 C 
ATOM     47  C   UNL     1     -48.873  29.032  25.672  1.00  0.00    -0.020 C 
ATOM     48  C   UNL     1     -48.864  27.383  23.953  1.00  0.00     0.062 C 
ATOM     49  H   UNL     1     -50.024  29.234  23.837  1.00  0.00     0.034 H 
ATOM     50  C   UNL     1     -48.710  27.578  26.108  1.00  0.00     0.058 C 
ATOM     51  H   UNL     1     -49.735  29.516  26.142  1.00  0.00     0.030 H 
ATOM     52  H   UNL     1     -47.976  29.606  25.931  1.00  0.00     0.030 H 
ATOM     53  C   UNL     1     -50.117  26.650  24.432  1.00  0.00    -0.024 C 
ATOM     54  O   UNL     1     -47.932  27.047  25.012  1.00  0.00    -0.375 OA
ATOM     55  H   UNL     1     -48.508  27.059  22.972  1.00  0.00     0.061 H 
ATOM     56  C   UNL     1     -50.020  26.809  25.949  1.00  0.00    -0.024 C 
ATOM     57  H   UNL     1     -48.218  27.445  27.074  1.00  0.00     0.060 H 
ATOM     58  H   UNL     1     -51.042  27.059  24.015  1.00  0.00     0.029 H 
ATOM     59  H   UNL     1     -50.062  25.587  24.173  1.00  0.00     0.029 H 
ATOM     60  H   UNL     1     -50.878  27.332  26.383  1.00  0.00     0.029 H 
ATOM     61  H   UNL     1     -49.947  25.820  26.416  1.00  0.00     0.029 H 
ENDBRANCH  43  46
ENDBRANCH  41  43
ENDBRANCH  38  41
ENDBRANCH   6  38
TORSDOF 7
ENDMDL
MODEL 3
REMARK VINA RESULT:     -10.4      1.864     12.072
REMARK SMILES O=C(NCc1ccc2cc(CNC[C@@H]3C[C@H]4CC[C@@H]3O4)[nH]c2c1)c1cc(=O)n2ccccc2n1
REMARK SMILES IDX 5 1 6 2 7 3 8 4 9 5 10 6 21 7 22 8 23 9 4 15 3 18 1 19 2 20
REMARK SMILES IDX 24 22 25 23 34 24 26 25 33 27 27 28 28 29 32 30 29 31 31 32
REMARK SMILES IDX 30 34 11 38 12 41 13 43 14 46 15 47 19 48 16 50 18 53 20 54
REMARK SMILES IDX 17 56
REMARK H PARENT 6 10 7 11 9 12 21 13 23 14 4 16 4 17 3 21 25 26 32 33 29 35
REMARK H PARENT 31 36 30 37 11 39 11 40 12 42 13 44 13 45 14 49 15 51 15 52
REMARK H PARENT 19 55 16 57 18 58 18 59 17 60 17 61
REMARK Flexibility Score: inf
ROOT
ATOM      1  C   UNL     1     -48.274  33.960  26.229  1.00  0.00    -0.027 A 
ATOM      2  C   UNL     1     -46.954  33.663  25.866  1.00  0.00    -0.057 A 
ATOM      3  C   UNL     1     -45.880  34.413  26.360  1.00  0.00    -0.052 A 
ATOM      4  C   UNL     1     -46.132  35.479  27.242  1.00  0.00    -0.000 A 
ATOM      5  C   UNL     1     -45.308  36.421  27.916  1.00  0.00    -0.032 A 
ATOM      6  C   UNL     1     -46.122  37.242  28.671  1.00  0.00     0.030 A 
ATOM      7  N   UNL     1     -47.417  36.833  28.457  1.00  0.00    -0.357 N 
ATOM      8  C   UNL     1     -47.449  35.757  27.599  1.00  0.00     0.046 A 
ATOM      9  C   UNL     1     -48.537  35.018  27.116  1.00  0.00    -0.033 A 
ATOM     10  H   UNL     1     -46.752  32.833  25.191  1.00  0.00     0.063 H 
ATOM     11  H   UNL     1     -44.863  34.169  26.065  1.00  0.00     0.063 H 
ATOM     12  H   UNL     1     -44.229  36.486  27.858  1.00  0.00     0.065 H 
ATOM     13  H   UNL     1     -48.235  37.257  28.873  1.00  0.00     0.166 HD
ATOM     14  H   UNL     1     -49.552  35.258  27.418  1.00  0.00     0.065 H 
ENDROOT
BRANCH   1  15
ATOM     15  C   UNL     1     -49.406  33.116  25.698  1.00  0.00     0.043 C 
ATOM     16  H   UNL     1     -49.720  33.480  24.712  1.00  0.00     0.054 H 
ATOM     17  H   UNL     1     -50.277  33.184  26.360  1.00  0.00     0.054 H 
BRANCH  15  18
ATOM     18  N   UNL     1     -49.024  31.730  25.632  1.00  0.00    -0.347 N 
ATOM     19  O   UNL     1     -49.506  31.412  23.404  1.00  0.00    -0.268 OA
ATOM     20  C   UNL     1     -49.040  31.009  24.463  1.00  0.00     0.270 C 
ATOM     21  H   UNL     1     -48.506  31.319  26.401  1.00  0.00     0.164 HD
BRANCH  20  22
ATOM     22  C   UNL     1     -48.397  29.651  24.619  1.00  0.00     0.136 A 
ATOM     23  C   UNL     1     -47.343  29.399  23.839  1.00  0.00     0.035 A 
ATOM     24  N   UNL     1     -48.919  28.772  25.542  1.00  0.00    -0.225 NA
ATOM     25  C   UNL     1     -46.683  28.095  23.961  1.00  0.00     0.258 A 
ATOM     26  H   UNL     1     -46.941  30.100  23.119  1.00  0.00     0.071 H 
ATOM     27  C   UNL     1     -48.329  27.621  25.650  1.00  0.00     0.140 A 
ATOM     28  O   UNL     1     -45.715  27.852  23.243  1.00  0.00    -0.269 OA
ATOM     29  N   UNL     1     -47.225  27.229  24.901  1.00  0.00    -0.268 N 
ATOM     30  C   UNL     1     -48.857  26.638  26.639  1.00  0.00    -0.019 A 
ATOM     31  C   UNL     1     -46.651  25.974  25.076  1.00  0.00     0.014 A 
ATOM     32  C   UNL     1     -48.270  25.443  26.772  1.00  0.00    -0.057 A 
ATOM     33  H   UNL     1     -49.715  26.935  27.228  1.00  0.00     0.066 H 
ATOM     34  C   UNL     1     -47.130  25.096  25.965  1.00  0.00    -0.045 A 
ATOM     35  H   UNL     1     -45.790  25.734  24.455  1.00  0.00     0.082 H 
ATOM     36  H   UNL     1     -48.638  24.714  27.487  1.00  0.00     0.062 H 
ATOM     37  H   UNL     1     -46.674  24.120  26.094  1.00  0.00     0.064 H 
ENDBRANCH  20  22
ENDBRANCH  15  18
ENDBRANCH   1  15
BRANCH   6  38
ATOM     38  C   UNL     1     -45.795  38.391  29.560  1.00  0.00     0.036 C 
ATOM     39  H   UNL     1     -45.393  38.003  30.504  1.00  0.00     0.049 H 
ATOM     40  H   UNL     1     -46.702  38.940  29.833  1.00  0.00     0.049 H 
BRANCH  38  41
ATOM     41  N   UNL     1     -44.784  39.266  28.970  1.00  0.00    -0.311 NA
ATOM     42  H   UNL     1     -43.961  38.708  28.750  1.00  0.00     0.123 HD
BRANCH  41  43
ATOM     43  C   UNL     1     -45.214  39.953  27.748  1.00  0.00     0.001 C 
ATOM     44  H   UNL     1     -46.033  40.651  27.955  1.00  0.00     0.043 H 
ATOM     45  H   UNL     1     -45.636  39.190  27.081  1.00  0.00     0.043 H 
BRANCH  43  46
ATOM     46  C   UNL     1     -44.075  40.675  27.012  1.00  0.00     0.000 C 
ATOM     47  C   UNL     1     -42.973  41.124  27.992  1.00  0.00    -0.020 C 
ATOM     48  C   UNL     1     -44.515  42.022  26.414  1.00  0.00     0.062 C 
ATOM     49  H   UNL     1     -43.651  40.019  26.244  1.00  0.00     0.034 H 
ATOM     50  C   UNL     1     -42.921  42.631  27.752  1.00  0.00     0.058 C 
ATOM     51  H   UNL     1     -42.013  40.635  27.798  1.00  0.00     0.030 H 
ATOM     52  H   UNL     1     -43.258  40.916  29.030  1.00  0.00     0.030 H 
ATOM     53  C   UNL     1     -43.458  42.540  25.439  1.00  0.00    -0.024 C 
ATOM     54  O   UNL     1     -44.318  42.924  27.532  1.00  0.00    -0.375 OA
ATOM     55  H   UNL     1     -45.536  42.063  26.026  1.00  0.00     0.061 H 
ATOM     56  C   UNL     1     -42.325  42.946  26.382  1.00  0.00    -0.024 C 
ATOM     57  H   UNL     1     -42.496  43.207  28.577  1.00  0.00     0.060 H 
ATOM     58  H   UNL     1     -43.154  41.796  24.697  1.00  0.00     0.029 H 
ATOM     59  H   UNL     1     -43.826  43.426  24.909  1.00  0.00     0.029 H 
ATOM     60  H   UNL     1     -41.392  42.410  26.187  1.00  0.00     0.029 H 
ATOM     61  H   UNL     1     -42.134  44.020  26.281  1.00  0.00     0.029 H 
ENDBRANCH  43  46
ENDBRANCH  41  43
ENDBRANCH  38  41
ENDBRANCH   6  38
TORSDOF 7
ENDMDL
MODEL 4
REMARK VINA RESULT:     -10.3      1.874     12.239
REMARK SMILES O=C(NCc1ccc2cc(CNC[C@@H]3C[C@H]4CC[C@@H]3O4)[nH]c2c1)c1cc(=O)n2ccccc2n1
REMARK SMILES IDX 5 1 6 2 7 3 8 4 9 5 10 6 21 7 22 8 23 9 4 15 3 18 1 19 2 20
REMARK SMILES IDX 24 22 25 23 34 24 26 25 33 27 27 28 28 29 32 30 29 31 31 32
REMARK SMILES IDX 30 34 11 38 12 41 13 43 14 46 15 47 19 48 16 50 18 53 20 54
REMARK SMILES IDX 17 56
REMARK H PARENT 6 10 7 11 9 12 21 13 23 14 4 16 4 17 3 21 25 26 32 33 29 35
REMARK H PARENT 31 36 30 37 11 39 11 40 12 42 13 44 13 45 14 49 15 51 15 52
REMARK H PARENT 19 55 16 57 18 58 18 59 17 60 17 61
REMARK Flexibility Score: inf
ROOT
ATOM      1  C   UNL     1     -46.752  33.720  25.836  1.00  0.00    -0.027 A 
ATOM      2  C   UNL     1     -48.088  34.077  26.060  1.00  0.00    -0.057 A 
ATOM      3  C   UNL     1     -48.425  35.095  26.961  1.00  0.00    -0.052 A 
ATOM      4  C   UNL     1     -47.402  35.774  27.647  1.00  0.00    -0.000 A 
ATOM      5  C   UNL     1     -47.382  36.826  28.603  1.00  0.00    -0.032 A 
ATOM      6  C   UNL     1     -46.065  37.093  28.921  1.00  0.00     0.030 A 
ATOM      7  N   UNL     1     -45.290  36.219  28.197  1.00  0.00    -0.357 N 
ATOM      8  C   UNL     1     -46.079  35.412  27.408  1.00  0.00     0.046 A 
ATOM      9  C   UNL     1     -45.721  34.397  26.510  1.00  0.00    -0.033 A 
ATOM     10  H   UNL     1     -48.884  33.562  25.525  1.00  0.00     0.063 H 
ATOM     11  H   UNL     1     -49.466  35.357  27.123  1.00  0.00     0.063 H 
ATOM     12  H   UNL     1     -48.244  37.338  29.010  1.00  0.00     0.065 H 
ATOM     13  H   UNL     1     -44.281  36.172  28.232  1.00  0.00     0.166 HD
ATOM     14  H   UNL     1     -44.680  34.143  26.343  1.00  0.00     0.065 H 
ENDROOT
BRANCH   1  15
ATOM     15  C   UNL     1     -46.423  32.636  24.840  1.00  0.00     0.043 C 
ATOM     16  H   UNL     1     -45.361  32.371  24.905  1.00  0.00     0.054 H 
ATOM     17  H   UNL     1     -46.607  32.987  23.819  1.00  0.00     0.054 H 
BRANCH  15  18
ATOM     18  N   UNL     1     -47.251  31.477  25.052  1.00  0.00    -0.347 N 
ATOM     19  O   UNL     1     -48.276  31.486  22.992  1.00  0.00    -0.268 OA
ATOM     20  C   UNL     1     -48.062  30.955  24.075  1.00  0.00     0.270 C 
ATOM     21  H   UNL     1     -47.075  30.878  25.852  1.00  0.00     0.164 HD
BRANCH  20  22
ATOM     22  C   UNL     1     -48.661  29.627  24.477  1.00  0.00     0.136 A 
ATOM     23  C   UNL     1     -49.967  29.471  24.247  1.00  0.00     0.035 A 
ATOM     24  N   UNL     1     -47.843  28.673  25.038  1.00  0.00    -0.225 NA
ATOM     25  C   UNL     1     -50.590  28.195  24.615  1.00  0.00     0.258 A 
ATOM     26  H   UNL     1     -50.599  30.229  23.802  1.00  0.00     0.071 H 
ATOM     27  C   UNL     1     -48.398  27.544  25.358  1.00  0.00     0.140 A 
ATOM     28  O   UNL     1     -51.794  28.043  24.411  1.00  0.00    -0.269 OA
ATOM     29  N   UNL     1     -49.744  27.248  25.174  1.00  0.00    -0.268 N 
ATOM     30  C   UNL     1     -47.550  26.479  25.965  1.00  0.00    -0.019 A 
ATOM     31  C   UNL     1     -50.262  26.012  25.546  1.00  0.00     0.014 A 
ATOM     32  C   UNL     1     -48.093  25.305  26.306  1.00  0.00    -0.057 A 
ATOM     33  H   UNL     1     -46.499  26.699  26.111  1.00  0.00     0.066 H 
ATOM     34  C   UNL     1     -49.495  25.061  26.092  1.00  0.00    -0.045 A 
ATOM     35  H   UNL     1     -51.324  25.850  25.374  1.00  0.00     0.082 H 
ATOM     36  H   UNL     1     -47.493  24.516  26.749  1.00  0.00     0.062 H 
ATOM     37  H   UNL     1     -49.910  24.099  26.377  1.00  0.00     0.064 H 
ENDBRANCH  20  22
ENDBRANCH  15  18
ENDBRANCH   1  15
BRANCH   6  38
ATOM     38  C   UNL     1     -45.468  38.082  29.861  1.00  0.00     0.036 C 
ATOM     39  H   UNL     1     -44.854  37.544  30.594  1.00  0.00     0.049 H 
ATOM     40  H   UNL     1     -46.247  38.583  30.443  1.00  0.00     0.049 H 
BRANCH  38  41
ATOM     41  N   UNL     1     -44.604  39.036  29.169  1.00  0.00    -0.311 NA
ATOM     42  H   UNL     1     -43.751  38.557  28.886  1.00  0.00     0.123 HD
BRANCH  41  43
ATOM     43  C   UNL     1     -45.204  39.648  27.979  1.00  0.00     0.001 C 
ATOM     44  H   UNL     1     -46.018  40.329  28.253  1.00  0.00     0.043 H 
ATOM     45  H   UNL     1     -45.675  38.839  27.405  1.00  0.00     0.043 H 
BRANCH  43  46
ATOM     46  C   UNL     1     -44.190  40.367  27.077  1.00  0.00     0.000 C 
ATOM     47  C   UNL     1     -43.097  41.065  27.910  1.00  0.00    -0.020 C 
ATOM     48  C   UNL     1     -44.807  41.560  26.327  1.00  0.00     0.062 C 
ATOM     49  H   UNL     1     -43.736  39.654  26.382  1.00  0.00     0.034 H 
ATOM     50  C   UNL     1     -43.225  42.518  27.459  1.00  0.00     0.058 C 
ATOM     51  H   UNL     1     -42.100  40.654  27.723  1.00  0.00     0.030 H 
ATOM     52  H   UNL     1     -43.305  40.983  28.983  1.00  0.00     0.030 H 
ATOM     53  C   UNL     1     -43.864  42.037  25.221  1.00  0.00    -0.024 C 
ATOM     54  O   UNL     1     -44.655  42.632  27.292  1.00  0.00    -0.375 OA
ATOM     55  H   UNL     1     -45.844  41.440  26.004  1.00  0.00     0.061 H 
ATOM     56  C   UNL     1     -42.737  42.690  26.022  1.00  0.00    -0.024 C 
ATOM     57  H   UNL     1     -42.826  43.250  28.166  1.00  0.00     0.060 H 
ATOM     58  H   UNL     1     -43.517  41.227  24.572  1.00  0.00     0.029 H 
ATOM     59  H   UNL     1     -44.354  42.793  24.598  1.00  0.00     0.029 H 
ATOM     60  H   UNL     1     -41.761  42.230  25.844  1.00  0.00     0.029 H 
ATOM     61  H   UNL     1     -42.671  43.752  25.760  1.00  0.00     0.029 H 
ENDBRANCH  43  46
ENDBRANCH  41  43
ENDBRANCH  38  41
ENDBRANCH   6  38
TORSDOF 7
ENDMDL
MODEL 5
REMARK VINA RESULT:     -10.3      1.520      2.109
REMARK SMILES O=C(NCc1ccc2cc(CNC[C@@H]3C[C@H]4CC[C@@H]3O4)[nH]c2c1)c1cc(=O)n2ccccc2n1
REMARK SMILES IDX 5 1 6 2 7 3 8 4 9 5 10 6 21 7 22 8 23 9 4 15 3 18 1 19 2 20
REMARK SMILES IDX 24 22 25 23 34 24 26 25 33 27 27 28 28 29 32 30 29 31 31 32
REMARK SMILES IDX 30 34 11 38 12 41 13 43 14 46 15 47 19 48 16 50 18 53 20 54
REMARK SMILES IDX 17 56
REMARK H PARENT 6 10 7 11 9 12 21 13 23 14 4 16 4 17 3 21 25 26 32 33 29 35
REMARK H PARENT 31 36 30 37 11 39 11 40 12 42 13 44 13 45 14 49 15 51 15 52
REMARK H PARENT 19 55 16 57 18 58 18 59 17 60 17 61
REMARK Flexibility Score: inf
ROOT
ATOM      1  C   UNL     1     -46.711  34.907  27.504  1.00  0.00    -0.027 A 
ATOM      2  C   UNL     1     -48.088  34.916  27.246  1.00  0.00    -0.057 A 
ATOM      3  C   UNL     1     -48.657  34.039  26.314  1.00  0.00    -0.052 A 
ATOM      4  C   UNL     1     -47.829  33.130  25.629  1.00  0.00    -0.000 A 
ATOM      5  C   UNL     1     -48.060  32.129  24.648  1.00  0.00    -0.032 A 
ATOM      6  C   UNL     1     -46.851  31.534  24.347  1.00  0.00     0.030 A 
ATOM      7  N   UNL     1     -45.893  32.162  25.108  1.00  0.00    -0.357 N 
ATOM      8  C   UNL     1     -46.463  33.131  25.902  1.00  0.00     0.046 A 
ATOM      9  C   UNL     1     -45.876  33.998  26.832  1.00  0.00    -0.033 A 
ATOM     10  H   UNL     1     -48.735  35.610  27.780  1.00  0.00     0.063 H 
ATOM     11  H   UNL     1     -49.726  34.061  26.126  1.00  0.00     0.063 H 
ATOM     12  H   UNL     1     -49.015  31.867  24.212  1.00  0.00     0.065 H 
ATOM     13  H   UNL     1     -44.906  31.944  25.092  1.00  0.00     0.166 HD
ATOM     14  H   UNL     1     -44.808  33.969  27.025  1.00  0.00     0.065 H 
ENDROOT
BRANCH   1  15
ATOM     15  C   UNL     1     -46.135  35.849  28.533  1.00  0.00     0.043 C 
ATOM     16  H   UNL     1     -45.262  35.395  29.015  1.00  0.00     0.054 H 
ATOM     17  H   UNL     1     -46.871  36.050  29.320  1.00  0.00     0.054 H 
BRANCH  15  18
ATOM     18  N   UNL     1     -45.789  37.112  27.936  1.00  0.00    -0.347 N 
ATOM     19  O   UNL     1     -47.761  38.198  28.416  1.00  0.00    -0.268 OA
ATOM     20  C   UNL     1     -46.611  38.210  27.991  1.00  0.00     0.270 C 
ATOM     21  H   UNL     1     -44.827  37.289  27.667  1.00  0.00     0.164 HD
BRANCH  20  22
ATOM     22  C   UNL     1     -45.934  39.459  27.478  1.00  0.00     0.136 A 
ATOM     23  C   UNL     1     -46.689  40.291  26.758  1.00  0.00     0.035 A 
ATOM     24  N   UNL     1     -44.608  39.667  27.783  1.00  0.00    -0.225 NA
ATOM     25  C   UNL     1     -46.075  41.521  26.245  1.00  0.00     0.258 A 
ATOM     26  H   UNL     1     -47.732  40.117  26.527  1.00  0.00     0.071 H 
ATOM     27  C   UNL     1     -44.070  40.758  27.331  1.00  0.00     0.140 A 
ATOM     28  O   UNL     1     -46.762  42.291  25.576  1.00  0.00    -0.269 OA
ATOM     29  N   UNL     1     -44.739  41.710  26.569  1.00  0.00    -0.268 N 
ATOM     30  C   UNL     1     -42.636  41.028  27.639  1.00  0.00    -0.019 A 
ATOM     31  C   UNL     1     -44.089  42.854  26.120  1.00  0.00     0.014 A 
ATOM     32  C   UNL     1     -42.053  42.145  27.186  1.00  0.00    -0.057 A 
ATOM     33  H   UNL     1     -42.106  40.294  28.233  1.00  0.00     0.066 H 
ATOM     34  C   UNL     1     -42.801  43.090  26.400  1.00  0.00    -0.045 A 
ATOM     35  H   UNL     1     -44.674  43.555  25.529  1.00  0.00     0.082 H 
ATOM     36  H   UNL     1     -41.011  42.360  27.400  1.00  0.00     0.062 H 
ATOM     37  H   UNL     1     -42.304  43.987  26.046  1.00  0.00     0.064 H 
ENDBRANCH  20  22
ENDBRANCH  15  18
ENDBRANCH   1  15
BRANCH   6  38
ATOM     38  C   UNL     1     -46.509  30.443  23.394  1.00  0.00     0.036 C 
ATOM     39  H   UNL     1     -45.483  30.111  23.592  1.00  0.00     0.049 H 
ATOM     40  H   UNL     1     -46.501  30.815  22.364  1.00  0.00     0.049 H 
BRANCH  38  41
ATOM     41  N   UNL     1     -47.390  29.288  23.550  1.00  0.00    -0.311 NA
ATOM     42  H   UNL     1     -47.801  29.067  22.645  1.00  0.00     0.123 HD
BRANCH  41  43
ATOM     43  C   UNL     1     -46.727  28.082  24.059  1.00  0.00     0.001 C 
ATOM     44  H   UNL     1     -46.066  28.321  24.900  1.00  0.00     0.043 H 
ATOM     45  H   UNL     1     -46.069  27.715  23.260  1.00  0.00     0.043 H 
BRANCH  43  46
ATOM     46  C   UNL     1     -47.701  26.960  24.450  1.00  0.00     0.000 C 
ATOM     47  C   UNL     1     -49.166  27.414  24.299  1.00  0.00    -0.020 C 
ATOM     48  C   UNL     1     -47.642  26.620  25.949  1.00  0.00     0.062 C 
ATOM     49  H   UNL     1     -47.517  26.074  23.834  1.00  0.00     0.034 H 
ATOM     50  C   UNL     1     -49.717  27.204  25.708  1.00  0.00     0.058 C 
ATOM     51  H   UNL     1     -49.710  26.837  23.546  1.00  0.00     0.030 H 
ATOM     52  H   UNL     1     -49.226  28.474  24.026  1.00  0.00     0.030 H 
ATOM     53  C   UNL     1     -48.378  25.309  26.224  1.00  0.00    -0.024 C 
ATOM     54  O   UNL     1     -48.575  27.577  26.510  1.00  0.00    -0.375 OA
ATOM     55  H   UNL     1     -46.656  26.682  26.416  1.00  0.00     0.061 H 
ATOM     56  C   UNL     1     -49.839  25.716  26.030  1.00  0.00    -0.024 C 
ATOM     57  H   UNL     1     -50.605  27.795  25.942  1.00  0.00     0.060 H 
ATOM     58  H   UNL     1     -48.068  24.493  25.565  1.00  0.00     0.029 H 
ATOM     59  H   UNL     1     -48.223  24.992  27.262  1.00  0.00     0.029 H 
ATOM     60  H   UNL     1     -50.342  25.148  25.242  1.00  0.00     0.029 H 
ATOM     61  H   UNL     1     -50.387  25.567  26.967  1.00  0.00     0.029 H 
ENDBRANCH  43  46
ENDBRANCH  41  43
ENDBRANCH  38  41
ENDBRANCH   6  38
TORSDOF 7
ENDMDL
MODEL 6
REMARK VINA RESULT:     -10.2      2.724      4.286
REMARK SMILES O=C(NCc1ccc2cc(CNC[C@@H]3C[C@H]4CC[C@@H]3O4)[nH]c2c1)c1cc(=O)n2ccccc2n1
REMARK SMILES IDX 5 1 6 2 7 3 8 4 9 5 10 6 21 7 22 8 23 9 4 15 3 18 1 19 2 20
REMARK SMILES IDX 24 22 25 23 34 24 26 25 33 27 27 28 28 29 32 30 29 31 31 32
REMARK SMILES IDX 30 34 11 38 12 41 13 43 14 46 15 47 19 48 16 50 18 53 20 54
REMARK SMILES IDX 17 56
REMARK H PARENT 6 10 7 11 9 12 21 13 23 14 4 16 4 17 3 21 25 26 32 33 29 35
REMARK H PARENT 31 36 30 37 11 39 11 40 12 42 13 44 13 45 14 49 15 51 15 52
REMARK H PARENT 19 55 16 57 18 58 18 59 17 60 17 61
REMARK Flexibility Score: inf
ROOT
ATOM      1  C   UNL     1     -46.479  36.465  28.230  1.00  0.00    -0.027 A 
ATOM      2  C   UNL     1     -47.874  36.413  28.102  1.00  0.00    -0.057 A 
ATOM      3  C   UNL     1     -48.492  35.459  27.284  1.00  0.00    -0.052 A 
ATOM      4  C   UNL     1     -47.698  34.533  26.584  1.00  0.00    -0.000 A 
ATOM      5  C   UNL     1     -47.980  33.462  25.694  1.00  0.00    -0.032 A 
ATOM      6  C   UNL     1     -46.782  32.886  25.320  1.00  0.00     0.030 A 
ATOM      7  N   UNL     1     -45.782  33.593  25.946  1.00  0.00    -0.357 N 
ATOM      8  C   UNL     1     -46.313  34.594  26.727  1.00  0.00     0.046 A 
ATOM      9  C   UNL     1     -45.676  35.540  27.541  1.00  0.00    -0.033 A 
ATOM     10  H   UNL     1     -48.495  37.121  28.649  1.00  0.00     0.063 H 
ATOM     11  H   UNL     1     -49.574  35.436  27.197  1.00  0.00     0.063 H 
ATOM     12  H   UNL     1     -48.961  33.142  25.367  1.00  0.00     0.065 H 
ATOM     13  H   UNL     1     -44.794  33.405  25.852  1.00  0.00     0.166 HD
ATOM     14  H   UNL     1     -44.595  35.557  27.635  1.00  0.00     0.065 H 
ENDROOT
BRANCH   1  15
ATOM     15  C   UNL     1     -45.848  37.490  29.139  1.00  0.00     0.043 C 
ATOM     16  H   UNL     1     -45.199  36.997  29.873  1.00  0.00     0.054 H 
ATOM     17  H   UNL     1     -46.618  38.030  29.699  1.00  0.00     0.054 H 
BRANCH  15  18
ATOM     18  N   UNL     1     -45.109  38.464  28.378  1.00  0.00    -0.347 N 
ATOM     19  O   UNL     1     -46.891  39.823  27.857  1.00  0.00    -0.268 OA
ATOM     20  C   UNL     1     -45.687  39.595  27.857  1.00  0.00     0.270 C 
ATOM     21  H   UNL     1     -44.094  38.457  28.412  1.00  0.00     0.164 HD
BRANCH  20  22
ATOM     22  C   UNL     1     -44.665  40.551  27.288  1.00  0.00     0.136 A 
ATOM     23  C   UNL     1     -43.543  40.710  27.995  1.00  0.00     0.035 A 
ATOM     24  N   UNL     1     -44.939  41.183  26.097  1.00  0.00    -0.225 NA
ATOM     25  C   UNL     1     -42.519  41.624  27.477  1.00  0.00     0.258 A 
ATOM     26  H   UNL     1     -43.339  40.205  28.930  1.00  0.00     0.071 H 
ATOM     27  C   UNL     1     -44.028  41.987  25.640  1.00  0.00     0.140 A 
ATOM     28  O   UNL     1     -41.485  41.782  28.123  1.00  0.00    -0.269 OA
ATOM     29  N   UNL     1     -42.817  42.245  26.273  1.00  0.00    -0.268 N 
ATOM     30  C   UNL     1     -44.279  42.691  24.350  1.00  0.00    -0.019 A 
ATOM     31  C   UNL     1     -41.893  43.124  25.717  1.00  0.00     0.014 A 
ATOM     32  C   UNL     1     -43.359  43.527  23.855  1.00  0.00    -0.057 A 
ATOM     33  H   UNL     1     -45.219  42.495  23.848  1.00  0.00     0.066 H 
ATOM     34  C   UNL     1     -42.125  43.754  24.559  1.00  0.00    -0.045 A 
ATOM     35  H   UNL     1     -40.967  43.280  26.267  1.00  0.00     0.082 H 
ATOM     36  H   UNL     1     -43.522  44.049  22.917  1.00  0.00     0.062 H 
ATOM     37  H   UNL     1     -41.396  44.436  24.134  1.00  0.00     0.064 H 
ENDBRANCH  20  22
ENDBRANCH  15  18
ENDBRANCH   1  15
BRANCH   6  38
ATOM     38  C   UNL     1     -46.489  31.745  24.410  1.00  0.00     0.036 C 
ATOM     39  H   UNL     1     -45.435  31.464  24.527  1.00  0.00     0.049 H 
ATOM     40  H   UNL     1     -46.596  32.046  23.363  1.00  0.00     0.049 H 
BRANCH  38  41
ATOM     41  N   UNL     1     -47.301  30.573  24.727  1.00  0.00    -0.311 NA
ATOM     42  H   UNL     1     -48.148  30.883  25.200  1.00  0.00     0.123 HD
BRANCH  41  43
ATOM     43  C   UNL     1     -47.693  29.771  23.562  1.00  0.00     0.001 C 
ATOM     44  H   UNL     1     -48.357  28.951  23.854  1.00  0.00     0.043 H 
ATOM     45  H   UNL     1     -46.781  29.293  23.181  1.00  0.00     0.043 H 
BRANCH  43  46
ATOM     46  C   UNL     1     -48.327  30.594  22.431  1.00  0.00     0.000 C 
ATOM     47  C   UNL     1     -49.778  30.987  22.772  1.00  0.00    -0.020 C 
ATOM     48  C   UNL     1     -48.530  29.775  21.145  1.00  0.00     0.062 C 
ATOM     49  H   UNL     1     -47.729  31.491  22.241  1.00  0.00     0.034 H 
ATOM     50  C   UNL     1     -50.559  30.388  21.605  1.00  0.00     0.058 C 
ATOM     51  H   UNL     1     -49.912  32.070  22.854  1.00  0.00     0.030 H 
ATOM     52  H   UNL     1     -50.100  30.531  23.715  1.00  0.00     0.030 H 
ATOM     53  C   UNL     1     -48.859  30.700  19.973  1.00  0.00    -0.024 C 
ATOM     54  O   UNL     1     -49.824  29.165  21.380  1.00  0.00    -0.375 OA
ATOM     55  H   UNL     1     -47.759  29.034  20.922  1.00  0.00     0.061 H 
ATOM     56  C   UNL     1     -50.280  31.151  20.312  1.00  0.00    -0.024 C 
ATOM     57  H   UNL     1     -51.617  30.210  21.810  1.00  0.00     0.060 H 
ATOM     58  H   UNL     1     -48.157  31.533  19.871  1.00  0.00     0.029 H 
ATOM     59  H   UNL     1     -48.869  30.139  19.033  1.00  0.00     0.029 H 
ATOM     60  H   UNL     1     -50.372  32.235  20.427  1.00  0.00     0.029 H 
ATOM     61  H   UNL     1     -50.964  30.829  19.518  1.00  0.00     0.029 H 
ENDBRANCH  43  46
ENDBRANCH  41  43
ENDBRANCH  38  41
ENDBRANCH   6  38
TORSDOF 7
ENDMDL
MODEL 7
REMARK VINA RESULT:      -9.7      2.516      4.266
REMARK SMILES O=C(NCc1ccc2cc(CNC[C@@H]3C[C@H]4CC[C@@H]3O4)[nH]c2c1)c1cc(=O)n2ccccc2n1
REMARK SMILES IDX 5 1 6 2 7 3 8 4 9 5 10 6 21 7 22 8 23 9 4 15 3 18 1 19 2 20
REMARK SMILES IDX 24 22 25 23 34 24 26 25 33 27 27 28 28 29 32 30 29 31 31 32
REMARK SMILES IDX 30 34 11 38 12 41 13 43 14 46 15 47 19 48 16 50 18 53 20 54
REMARK SMILES IDX 17 56
REMARK H PARENT 6 10 7 11 9 12 21 13 23 14 4 16 4 17 3 21 25 26 32 33 29 35
REMARK H PARENT 31 36 30 37 11 39 11 40 12 42 13 44 13 45 14 49 15 51 15 52
REMARK H PARENT 19 55 16 57 18 58 18 59 17 60 17 61
REMARK Flexibility Score: inf
ROOT
ATOM      1  C   UNL     1     -45.715  37.522  28.431  1.00  0.00    -0.027 A 
ATOM      2  C   UNL     1     -47.035  37.889  28.133  1.00  0.00    -0.057 A 
ATOM      3  C   UNL     1     -47.904  37.004  27.483  1.00  0.00    -0.052 A 
ATOM      4  C   UNL     1     -47.445  35.723  27.129  1.00  0.00    -0.000 A 
ATOM      5  C   UNL     1     -48.037  34.605  26.481  1.00  0.00    -0.032 A 
ATOM      6  C   UNL     1     -47.094  33.598  26.413  1.00  0.00     0.030 A 
ATOM      7  N   UNL     1     -45.943  34.084  26.987  1.00  0.00    -0.357 N 
ATOM      8  C   UNL     1     -46.133  35.372  27.438  1.00  0.00     0.046 A 
ATOM      9  C   UNL     1     -45.248  36.241  28.088  1.00  0.00    -0.033 A 
ATOM     10  H   UNL     1     -47.399  38.876  28.414  1.00  0.00     0.063 H 
ATOM     11  H   UNL     1     -48.923  37.307  27.260  1.00  0.00     0.063 H 
ATOM     12  H   UNL     1     -49.051  34.543  26.108  1.00  0.00     0.065 H 
ATOM     13  H   UNL     1     -45.076  33.572  27.072  1.00  0.00     0.166 HD
ATOM     14  H   UNL     1     -44.233  35.935  28.319  1.00  0.00     0.065 H 
ENDROOT
BRANCH   1  15
ATOM     15  C   UNL     1     -44.813  38.491  29.154  1.00  0.00     0.043 C 
ATOM     16  H   UNL     1     -43.847  38.020  29.371  1.00  0.00     0.054 H 
ATOM     17  H   UNL     1     -45.255  38.780  30.114  1.00  0.00     0.054 H 
BRANCH  15  18
ATOM     18  N   UNL     1     -44.632  39.694  28.385  1.00  0.00    -0.347 N 
ATOM     19  O   UNL     1     -42.694  40.393  29.411  1.00  0.00    -0.268 OA
ATOM     20  C   UNL     1     -43.540  40.513  28.532  1.00  0.00     0.270 C 
ATOM     21  H   UNL     1     -45.188  39.839  27.548  1.00  0.00     0.164 HD
BRANCH  20  22
ATOM     22  C   UNL     1     -43.482  41.586  27.470  1.00  0.00     0.136 A 
ATOM     23  C   UNL     1     -42.273  41.871  26.980  1.00  0.00     0.035 A 
ATOM     24  N   UNL     1     -44.653  42.190  27.072  1.00  0.00    -0.225 NA
ATOM     25  C   UNL     1     -42.169  42.903  25.942  1.00  0.00     0.258 A 
ATOM     26  H   UNL     1     -41.359  41.388  27.301  1.00  0.00     0.071 H 
ATOM     27  C   UNL     1     -44.557  43.098  26.149  1.00  0.00     0.140 A 
ATOM     28  O   UNL     1     -41.059  43.176  25.488  1.00  0.00    -0.269 OA
ATOM     29  N   UNL     1     -43.363  43.493  25.554  1.00  0.00    -0.268 N 
ATOM     30  C   UNL     1     -45.800  43.777  25.683  1.00  0.00    -0.019 A 
ATOM     31  C   UNL     1     -43.345  44.477  24.572  1.00  0.00     0.014 A 
ATOM     32  C   UNL     1     -45.732  44.718  24.734  1.00  0.00    -0.057 A 
ATOM     33  H   UNL     1     -46.734  43.475  26.139  1.00  0.00     0.066 H 
ATOM     34  C   UNL     1     -44.465  45.083  24.158  1.00  0.00    -0.045 A 
ATOM     35  H   UNL     1     -42.376  44.737  24.151  1.00  0.00     0.082 H 
ATOM     36  H   UNL     1     -46.625  45.223  24.381  1.00  0.00     0.062 H 
ATOM     37  H   UNL     1     -44.439  45.849  23.391  1.00  0.00     0.064 H 
ENDBRANCH  20  22
ENDBRANCH  15  18
ENDBRANCH   1  15
BRANCH   6  38
ATOM     38  C   UNL     1     -47.168  32.226  25.839  1.00  0.00     0.036 C 
ATOM     39  H   UNL     1     -47.798  31.607  26.489  1.00  0.00     0.049 H 
ATOM     40  H   UNL     1     -46.183  31.749  25.845  1.00  0.00     0.049 H 
BRANCH  38  41
ATOM     41  N   UNL     1     -47.767  32.226  24.506  1.00  0.00    -0.311 NA
ATOM     42  H   UNL     1     -47.220  31.613  23.904  1.00  0.00     0.123 HD
BRANCH  41  43
ATOM     43  C   UNL     1     -49.164  31.781  24.467  1.00  0.00     0.001 C 
ATOM     44  H   UNL     1     -49.838  32.615  24.239  1.00  0.00     0.043 H 
ATOM     45  H   UNL     1     -49.427  31.458  25.483  1.00  0.00     0.043 H 
BRANCH  43  46
ATOM     46  C   UNL     1     -49.414  30.614  23.500  1.00  0.00     0.000 C 
ATOM     47  C   UNL     1     -50.112  29.438  24.210  1.00  0.00    -0.020 C 
ATOM     48  C   UNL     1     -48.110  29.950  23.025  1.00  0.00     0.062 C 
ATOM     49  H   UNL     1     -50.018  30.954  22.652  1.00  0.00     0.034 H 
ATOM     50  C   UNL     1     -49.133  28.290  23.975  1.00  0.00     0.058 C 
ATOM     51  H   UNL     1     -51.106  29.232  23.803  1.00  0.00     0.030 H 
ATOM     52  H   UNL     1     -50.216  29.631  25.284  1.00  0.00     0.030 H 
ATOM     53  C   UNL     1     -48.388  29.023  21.841  1.00  0.00    -0.024 C 
ATOM     54  O   UNL     1     -47.868  28.981  24.076  1.00  0.00    -0.375 OA
ATOM     55  H   UNL     1     -47.258  30.617  22.876  1.00  0.00     0.061 H 
ATOM     56  C   UNL     1     -49.131  27.866  22.508  1.00  0.00    -0.024 C 
ATOM     57  H   UNL     1     -49.219  27.467  24.688  1.00  0.00     0.060 H 
ATOM     58  H   UNL     1     -48.965  29.503  21.044  1.00  0.00     0.029 H 
ATOM     59  H   UNL     1     -47.449  28.655  21.413  1.00  0.00     0.029 H 
ATOM     60  H   UNL     1     -50.136  27.711  22.106  1.00  0.00     0.029 H 
ATOM     61  H   UNL     1     -48.560  26.940  22.375  1.00  0.00     0.029 H 
ENDBRANCH  43  46
ENDBRANCH  41  43
ENDBRANCH  38  41
ENDBRANCH   6  38
TORSDOF 7
ENDMDL
