MODEL 1
REMARK VINA RESULT:     -11.8      0.000      0.000
REMARK SMILES O=C(NCc1ccc2cc(CN[C@@H]3CC34CCC4)[nH]c2c1)c1cc(=O)n2ccccc2n1
REMARK SMILES IDX 5 1 6 2 7 3 8 4 9 5 10 6 19 7 20 8 21 9 4 15 3 18 1 19 2 20
REMARK SMILES IDX 22 22 23 23 32 24 24 25 31 27 25 28 26 29 30 30 27 31 29 32
REMARK SMILES IDX 28 34 11 38 12 41 13 43 14 44 15 45 16 49 18 50 17 51
REMARK H PARENT 6 10 7 11 9 12 19 13 21 14 4 16 4 17 3 21 23 26 30 33 27 35
REMARK H PARENT 29 36 28 37 11 39 11 40 12 42 13 46 14 47 14 48 16 52 16 53
REMARK H PARENT 18 54 18 55 17 56 17 57
REMARK Flexibility Score: inf
ROOT
ATOM      1  C   UNL     1     -47.936  34.891  26.690  1.00  0.00    -0.027 A 
ATOM      2  C   UNL     1     -46.666  34.939  26.101  1.00  0.00    -0.057 A 
ATOM      3  C   UNL     1     -46.208  33.899  25.281  1.00  0.00    -0.052 A 
ATOM      4  C   UNL     1     -47.042  32.793  25.040  1.00  0.00    -0.000 A 
ATOM      5  C   UNL     1     -46.907  31.599  24.282  1.00  0.00    -0.032 A 
ATOM      6  C   UNL     1     -48.074  30.870  24.413  1.00  0.00     0.030 A 
ATOM      7  N   UNL     1     -48.910  31.593  25.229  1.00  0.00    -0.357 N 
ATOM      8  C   UNL     1     -48.306  32.766  25.624  1.00  0.00     0.046 A 
ATOM      9  C   UNL     1     -48.782  33.795  26.446  1.00  0.00    -0.033 A 
ATOM     10  H   UNL     1     -46.015  35.793  26.275  1.00  0.00     0.063 H 
ATOM     11  H   UNL     1     -45.219  33.950  24.835  1.00  0.00     0.063 H 
ATOM     12  H   UNL     1     -46.048  31.301  23.694  1.00  0.00     0.065 H 
ATOM     13  H   UNL     1     -49.841  31.312  25.506  1.00  0.00     0.166 HD
ATOM     14  H   UNL     1     -49.777  33.751  26.880  1.00  0.00     0.065 H 
ENDROOT
BRANCH   1  15
ATOM     15  C   UNL     1     -48.423  36.035  27.540  1.00  0.00     0.043 C 
ATOM     16  H   UNL     1     -49.406  36.382  27.200  1.00  0.00     0.054 H 
ATOM     17  H   UNL     1     -48.543  35.722  28.584  1.00  0.00     0.054 H 
BRANCH  15  18
ATOM     18  N   UNL     1     -47.493  37.131  27.501  1.00  0.00    -0.347 N 
ATOM     19  O   UNL     1     -46.689  36.839  29.630  1.00  0.00    -0.268 OA
ATOM     20  C   UNL     1     -46.658  37.416  28.550  1.00  0.00     0.270 C 
ATOM     21  H   UNL     1     -47.317  37.619  26.627  1.00  0.00     0.164 HD
BRANCH  20  22
ATOM     22  C   UNL     1     -45.679  38.519  28.227  1.00  0.00     0.136 A 
ATOM     23  C   UNL     1     -45.858  39.151  27.064  1.00  0.00     0.035 A 
ATOM     24  N   UNL     1     -44.681  38.804  29.130  1.00  0.00    -0.225 NA
ATOM     25  C   UNL     1     -44.929  40.230  26.710  1.00  0.00     0.258 A 
ATOM     26  H   UNL     1     -46.649  38.918  26.363  1.00  0.00     0.071 H 
ATOM     27  C   UNL     1     -43.862  39.759  28.813  1.00  0.00     0.140 A 
ATOM     28  O   UNL     1     -45.084  40.817  25.641  1.00  0.00    -0.269 OA
ATOM     29  N   UNL     1     -43.932  40.498  27.637  1.00  0.00    -0.268 N 
ATOM     30  C   UNL     1     -42.765  40.102  29.762  1.00  0.00    -0.019 A 
ATOM     31  C   UNL     1     -43.013  41.508  27.373  1.00  0.00     0.014 A 
ATOM     32  C   UNL     1     -41.905  41.082  29.463  1.00  0.00    -0.057 A 
ATOM     33  H   UNL     1     -42.702  39.531  30.681  1.00  0.00     0.066 H 
ATOM     34  C   UNL     1     -42.030  41.811  28.230  1.00  0.00    -0.045 A 
ATOM     35  H   UNL     1     -43.128  42.045  26.434  1.00  0.00     0.082 H 
ATOM     36  H   UNL     1     -41.099  41.347  30.140  1.00  0.00     0.062 H 
ATOM     37  H   UNL     1     -41.319  42.601  28.011  1.00  0.00     0.064 H 
ENDBRANCH  20  22
ENDBRANCH  15  18
ENDBRANCH   1  15
BRANCH   6  38
ATOM     38  C   UNL     1     -48.469  29.553  23.840  1.00  0.00     0.036 C 
ATOM     39  H   UNL     1     -48.269  29.540  22.762  1.00  0.00     0.049 H 
ATOM     40  H   UNL     1     -49.547  29.410  23.976  1.00  0.00     0.049 H 
BRANCH  38  41
ATOM     41  N   UNL     1     -47.732  28.490  24.514  1.00  0.00    -0.308 NA
ATOM     42  H   UNL     1     -47.226  27.944  23.819  1.00  0.00     0.123 HD
BRANCH  41  43
ATOM     43  C   UNL     1     -48.598  27.646  25.340  1.00  0.00     0.013 C 
ATOM     44  C   UNL     1     -48.468  27.732  26.841  1.00  0.00    -0.030 C 
ATOM     45  C   UNL     1     -48.039  26.497  26.114  1.00  0.00    -0.013 C 
ATOM     46  H   UNL     1     -49.617  27.548  24.969  1.00  0.00     0.047 H 
ATOM     47  H   UNL     1     -47.706  28.380  27.257  1.00  0.00     0.029 H 
ATOM     48  H   UNL     1     -49.382  27.699  27.424  1.00  0.00     0.029 H 
ATOM     49  C   UNL     1     -48.646  25.150  26.257  1.00  0.00    -0.046 C 
ATOM     50  C   UNL     1     -46.664  25.943  26.083  1.00  0.00    -0.046 C 
ATOM     51  C   UNL     1     -47.275  24.738  26.821  1.00  0.00    -0.052 C 
ATOM     52  H   UNL     1     -49.481  25.043  26.953  1.00  0.00     0.027 H 
ATOM     53  H   UNL     1     -48.904  24.673  25.306  1.00  0.00     0.027 H 
ATOM     54  H   UNL     1     -45.891  26.479  26.637  1.00  0.00     0.027 H 
ATOM     55  H   UNL     1     -46.293  25.711  25.079  1.00  0.00     0.027 H 
ATOM     56  H   UNL     1     -46.910  23.758  26.505  1.00  0.00     0.027 H 
ATOM     57  H   UNL     1     -47.204  24.804  27.914  1.00  0.00     0.027 H 
ENDBRANCH  41  43
ENDBRANCH  38  41
ENDBRANCH   6  38
TORSDOF 6
ENDMDL
MODEL 2
REMARK VINA RESULT:     -10.9      1.546      2.240
REMARK SMILES O=C(NCc1ccc2cc(CN[C@@H]3CC34CCC4)[nH]c2c1)c1cc(=O)n2ccccc2n1
REMARK SMILES IDX 5 1 6 2 7 3 8 4 9 5 10 6 19 7 20 8 21 9 4 15 3 18 1 19 2 20
REMARK SMILES IDX 22 22 23 23 32 24 24 25 31 27 25 28 26 29 30 30 27 31 29 32
REMARK SMILES IDX 28 34 11 38 12 41 13 43 14 44 15 45 16 49 18 50 17 51
REMARK H PARENT 6 10 7 11 9 12 19 13 21 14 4 16 4 17 3 21 23 26 30 33 27 35
REMARK H PARENT 29 36 28 37 11 39 11 40 12 42 13 46 14 47 14 48 16 52 16 53
REMARK H PARENT 18 54 18 55 17 56 17 57
REMARK Flexibility Score: inf
ROOT
ATOM      1  C   UNL     1     -47.961  33.680  25.997  1.00  0.00    -0.027 A 
ATOM      2  C   UNL     1     -46.636  33.778  25.550  1.00  0.00    -0.057 A 
ATOM      3  C   UNL     1     -46.078  32.797  24.720  1.00  0.00    -0.052 A 
ATOM      4  C   UNL     1     -46.864  31.700  24.324  1.00  0.00    -0.000 A 
ATOM      5  C   UNL     1     -46.630  30.557  23.512  1.00  0.00    -0.032 A 
ATOM      6  C   UNL     1     -47.792  29.810  23.474  1.00  0.00     0.030 A 
ATOM      7  N   UNL     1     -48.722  30.472  24.240  1.00  0.00    -0.357 N 
ATOM      8  C   UNL     1     -48.182  31.623  24.769  1.00  0.00     0.046 A 
ATOM      9  C   UNL     1     -48.758  32.594  25.597  1.00  0.00    -0.033 A 
ATOM     10  H   UNL     1     -46.022  34.626  25.844  1.00  0.00     0.063 H 
ATOM     11  H   UNL     1     -45.049  32.885  24.385  1.00  0.00     0.063 H 
ATOM     12  H   UNL     1     -45.710  30.306  23.001  1.00  0.00     0.065 H 
ATOM     13  H   UNL     1     -49.671  30.165  24.399  1.00  0.00     0.166 HD
ATOM     14  H   UNL     1     -49.792  32.512  25.920  1.00  0.00     0.065 H 
ENDROOT
BRANCH   1  15
ATOM     15  C   UNL     1     -48.553  34.764  26.859  1.00  0.00     0.043 C 
ATOM     16  H   UNL     1     -49.452  35.185  26.393  1.00  0.00     0.054 H 
ATOM     17  H   UNL     1     -48.861  34.363  27.833  1.00  0.00     0.054 H 
BRANCH  15  18
ATOM     18  N   UNL     1     -47.598  35.815  27.086  1.00  0.00    -0.347 N 
ATOM     19  O   UNL     1     -49.044  37.222  28.178  1.00  0.00    -0.268 OA
ATOM     20  C   UNL     1     -47.918  36.954  27.778  1.00  0.00     0.270 C 
ATOM     21  H   UNL     1     -46.614  35.662  26.881  1.00  0.00     0.164 HD
BRANCH  20  22
ATOM     22  C   UNL     1     -46.722  37.845  28.008  1.00  0.00     0.136 A 
ATOM     23  C   UNL     1     -46.044  37.650  29.142  1.00  0.00     0.035 A 
ATOM     24  N   UNL     1     -46.404  38.785  27.056  1.00  0.00    -0.225 NA
ATOM     25  C   UNL     1     -44.873  38.495  29.405  1.00  0.00     0.258 A 
ATOM     26  H   UNL     1     -46.303  36.906  29.883  1.00  0.00     0.071 H 
ATOM     27  C   UNL     1     -45.368  39.530  27.292  1.00  0.00     0.140 A 
ATOM     28  O   UNL     1     -44.243  38.325  30.448  1.00  0.00    -0.269 OA
ATOM     29  N   UNL     1     -44.574  39.436  28.430  1.00  0.00    -0.268 N 
ATOM     30  C   UNL     1     -44.987  40.563  26.287  1.00  0.00    -0.019 A 
ATOM     31  C   UNL     1     -43.478  40.273  28.608  1.00  0.00     0.014 A 
ATOM     32  C   UNL     1     -43.924  41.346  26.503  1.00  0.00    -0.057 A 
ATOM     33  H   UNL     1     -45.600  40.645  25.397  1.00  0.00     0.066 H 
ATOM     34  C   UNL     1     -43.142  41.198  27.701  1.00  0.00    -0.045 A 
ATOM     35  H   UNL     1     -42.902  40.143  29.521  1.00  0.00     0.082 H 
ATOM     36  H   UNL     1     -43.630  42.103  25.784  1.00  0.00     0.062 H 
ATOM     37  H   UNL     1     -42.284  41.846  27.852  1.00  0.00     0.064 H 
ENDBRANCH  20  22
ENDBRANCH  15  18
ENDBRANCH   1  15
BRANCH   6  38
ATOM     38  C   UNL     1     -48.103  28.529  22.782  1.00  0.00     0.036 C 
ATOM     39  H   UNL     1     -47.300  28.280  22.077  1.00  0.00     0.049 H 
ATOM     40  H   UNL     1     -49.025  28.647  22.201  1.00  0.00     0.049 H 
BRANCH  38  41
ATOM     41  N   UNL     1     -48.266  27.470  23.772  1.00  0.00    -0.308 NA
ATOM     42  H   UNL     1     -49.119  27.638  24.302  1.00  0.00     0.123 HD
BRANCH  41  43
ATOM     43  C   UNL     1     -47.101  27.339  24.649  1.00  0.00     0.013 C 
ATOM     44  C   UNL     1     -46.119  26.224  24.381  1.00  0.00    -0.030 C 
ATOM     45  C   UNL     1     -46.981  26.196  25.604  1.00  0.00    -0.013 C 
ATOM     46  H   UNL     1     -46.654  28.286  24.948  1.00  0.00     0.047 H 
ATOM     47  H   UNL     1     -46.334  25.529  23.579  1.00  0.00     0.029 H 
ATOM     48  H   UNL     1     -45.065  26.449  24.497  1.00  0.00     0.029 H 
ATOM     49  C   UNL     1     -46.502  26.264  27.006  1.00  0.00    -0.046 C 
ATOM     50  C   UNL     1     -47.987  25.157  25.931  1.00  0.00    -0.046 C 
ATOM     51  C   UNL     1     -47.076  24.842  27.131  1.00  0.00    -0.052 C 
ATOM     52  H   UNL     1     -45.425  26.341  27.169  1.00  0.00     0.027 H 
ATOM     53  H   UNL     1     -47.015  27.013  27.619  1.00  0.00     0.027 H 
ATOM     54  H   UNL     1     -48.116  24.337  25.222  1.00  0.00     0.027 H 
ATOM     55  H   UNL     1     -48.971  25.551  26.208  1.00  0.00     0.027 H 
ATOM     56  H   UNL     1     -47.592  24.622  28.070  1.00  0.00     0.027 H 
ATOM     57  H   UNL     1     -46.344  24.048  26.937  1.00  0.00     0.027 H 
ENDBRANCH  41  43
ENDBRANCH  38  41
ENDBRANCH   6  38
TORSDOF 6
ENDMDL
MODEL 3
REMARK VINA RESULT:     -10.7      1.966      3.198
REMARK SMILES O=C(NCc1ccc2cc(CN[C@@H]3CC34CCC4)[nH]c2c1)c1cc(=O)n2ccccc2n1
REMARK SMILES IDX 5 1 6 2 7 3 8 4 9 5 10 6 19 7 20 8 21 9 4 15 3 18 1 19 2 20
REMARK SMILES IDX 22 22 23 23 32 24 24 25 31 27 25 28 26 29 30 30 27 31 29 32
REMARK SMILES IDX 28 34 11 38 12 41 13 43 14 44 15 45 16 49 18 50 17 51
REMARK H PARENT 6 10 7 11 9 12 19 13 21 14 4 16 4 17 3 21 23 26 30 33 27 35
REMARK H PARENT 29 36 28 37 11 39 11 40 12 42 13 46 14 47 14 48 16 52 16 53
REMARK H PARENT 18 54 18 55 17 56 17 57
REMARK Flexibility Score: inf
ROOT
ATOM      1  C   UNL     1     -46.644  35.727  28.291  1.00  0.00    -0.027 A 
ATOM      2  C   UNL     1     -48.000  35.775  27.944  1.00  0.00    -0.057 A 
ATOM      3  C   UNL     1     -48.512  34.979  26.911  1.00  0.00    -0.052 A 
ATOM      4  C   UNL     1     -47.650  34.112  26.216  1.00  0.00    -0.000 A 
ATOM      5  C   UNL     1     -47.823  33.189  25.150  1.00  0.00    -0.032 A 
ATOM      6  C   UNL     1     -46.600  32.605  24.882  1.00  0.00     0.030 A 
ATOM      7  N   UNL     1     -45.693  33.149  25.760  1.00  0.00    -0.357 N 
ATOM      8  C   UNL     1     -46.306  34.068  26.581  1.00  0.00     0.046 A 
ATOM      9  C   UNL     1     -45.776  34.855  27.611  1.00  0.00    -0.033 A 
ATOM     10  H   UNL     1     -48.678  36.437  28.479  1.00  0.00     0.063 H 
ATOM     11  H   UNL     1     -49.565  35.031  26.651  1.00  0.00     0.063 H 
ATOM     12  H   UNL     1     -48.747  32.968  24.632  1.00  0.00     0.065 H 
ATOM     13  H   UNL     1     -44.711  32.913  25.805  1.00  0.00     0.166 HD
ATOM     14  H   UNL     1     -44.725  34.792  27.880  1.00  0.00     0.065 H 
ENDROOT
BRANCH   1  15
ATOM     15  C   UNL     1     -46.121  36.565  29.428  1.00  0.00     0.043 C 
ATOM     16  H   UNL     1     -46.927  36.821  30.126  1.00  0.00     0.054 H 
ATOM     17  H   UNL     1     -45.368  36.014  30.005  1.00  0.00     0.054 H 
BRANCH  15  18
ATOM     18  N   UNL     1     -45.516  37.773  28.935  1.00  0.00    -0.347 N 
ATOM     19  O   UNL     1     -44.220  38.166  30.787  1.00  0.00    -0.268 OA
ATOM     20  C   UNL     1     -44.567  38.457  29.649  1.00  0.00     0.270 C 
ATOM     21  H   UNL     1     -45.659  38.057  27.970  1.00  0.00     0.164 HD
BRANCH  20  22
ATOM     22  C   UNL     1     -43.980  39.611  28.873  1.00  0.00     0.136 A 
ATOM     23  C   UNL     1     -42.937  40.233  29.428  1.00  0.00     0.035 A 
ATOM     24  N   UNL     1     -44.541  39.947  27.662  1.00  0.00    -0.225 NA
ATOM     25  C   UNL     1     -42.336  41.360  28.706  1.00  0.00     0.258 A 
ATOM     26  H   UNL     1     -42.504  39.958  30.381  1.00  0.00     0.071 H 
ATOM     27  C   UNL     1     -44.007  40.943  27.027  1.00  0.00     0.140 A 
ATOM     28  O   UNL     1     -41.377  41.941  29.210  1.00  0.00    -0.269 OA
ATOM     29  N   UNL     1     -42.920  41.679  27.488  1.00  0.00    -0.268 N 
ATOM     30  C   UNL     1     -44.582  41.343  25.711  1.00  0.00    -0.019 A 
ATOM     31  C   UNL     1     -42.405  42.736  26.745  1.00  0.00     0.014 A 
ATOM     32  C   UNL     1     -44.052  42.367  25.032  1.00  0.00    -0.057 A 
ATOM     33  H   UNL     1     -45.429  40.776  25.343  1.00  0.00     0.066 H 
ATOM     34  C   UNL     1     -42.927  43.088  25.564  1.00  0.00    -0.045 A 
ATOM     35  H   UNL     1     -41.555  43.266  27.167  1.00  0.00     0.082 H 
ATOM     36  H   UNL     1     -44.456  42.673  24.073  1.00  0.00     0.062 H 
ATOM     37  H   UNL     1     -42.516  43.915  24.993  1.00  0.00     0.064 H 
ENDBRANCH  20  22
ENDBRANCH  15  18
ENDBRANCH   1  15
BRANCH   6  38
ATOM     38  C   UNL     1     -46.210  31.581  23.873  1.00  0.00     0.036 C 
ATOM     39  H   UNL     1     -45.798  30.698  24.376  1.00  0.00     0.049 H 
ATOM     40  H   UNL     1     -45.422  31.991  23.230  1.00  0.00     0.049 H 
BRANCH  38  41
ATOM     41  N   UNL     1     -47.375  31.221  23.072  1.00  0.00    -0.308 NA
ATOM     42  H   UNL     1     -48.200  31.670  23.465  1.00  0.00     0.123 HD
BRANCH  41  43
ATOM     43  C   UNL     1     -47.551  29.772  22.959  1.00  0.00     0.013 C 
ATOM     44  C   UNL     1     -48.932  29.233  22.681  1.00  0.00    -0.030 C 
ATOM     45  C   UNL     1     -48.282  29.001  24.008  1.00  0.00    -0.013 C 
ATOM     46  H   UNL     1     -46.742  29.261  22.438  1.00  0.00     0.047 H 
ATOM     47  H   UNL     1     -49.757  29.933  22.623  1.00  0.00     0.029 H 
ATOM     48  H   UNL     1     -49.014  28.400  21.992  1.00  0.00     0.029 H 
ATOM     49  C   UNL     1     -47.894  27.682  24.567  1.00  0.00    -0.046 C 
ATOM     50  C   UNL     1     -48.790  29.476  25.317  1.00  0.00    -0.046 C 
ATOM     51  C   UNL     1     -48.943  27.981  25.651  1.00  0.00    -0.052 C 
ATOM     52  H   UNL     1     -48.098  26.797  23.960  1.00  0.00     0.027 H 
ATOM     53  H   UNL     1     -46.863  27.638  24.935  1.00  0.00     0.027 H 
ATOM     54  H   UNL     1     -49.721  30.047  25.321  1.00  0.00     0.027 H 
ATOM     55  H   UNL     1     -48.046  29.997  25.930  1.00  0.00     0.027 H 
ATOM     56  H   UNL     1     -48.665  27.694  26.668  1.00  0.00     0.027 H 
ATOM     57  H   UNL     1     -49.939  27.576  25.431  1.00  0.00     0.027 H 
ENDBRANCH  41  43
ENDBRANCH  38  41
ENDBRANCH   6  38
TORSDOF 6
ENDMDL
MODEL 4
REMARK VINA RESULT:     -10.4      2.706     11.549
REMARK SMILES O=C(NCc1ccc2cc(CN[C@@H]3CC34CCC4)[nH]c2c1)c1cc(=O)n2ccccc2n1
REMARK SMILES IDX 5 1 6 2 7 3 8 4 9 5 10 6 19 7 20 8 21 9 4 15 3 18 1 19 2 20
REMARK SMILES IDX 22 22 23 23 32 24 24 25 31 27 25 28 26 29 30 30 27 31 29 32
REMARK SMILES IDX 28 34 11 38 12 41 13 43 14 44 15 45 16 49 18 50 17 51
REMARK H PARENT 6 10 7 11 9 12 19 13 21 14 4 16 4 17 3 21 23 26 30 33 27 35
REMARK H PARENT 29 36 28 37 11 39 11 40 12 42 13 46 14 47 14 48 16 52 16 53
REMARK H PARENT 18 54 18 55 17 56 17 57
REMARK Flexibility Score: inf
ROOT
ATOM      1  C   UNL     1     -48.241  33.975  26.220  1.00  0.00    -0.027 A 
ATOM      2  C   UNL     1     -46.901  33.595  26.065  1.00  0.00    -0.057 A 
ATOM      3  C   UNL     1     -45.863  34.370  26.600  1.00  0.00    -0.052 A 
ATOM      4  C   UNL     1     -46.173  35.543  27.310  1.00  0.00    -0.000 A 
ATOM      5  C   UNL     1     -45.397  36.535  27.969  1.00  0.00    -0.032 A 
ATOM      6  C   UNL     1     -46.261  37.470  28.507  1.00  0.00     0.030 A 
ATOM      7  N   UNL     1     -47.537  37.068  28.193  1.00  0.00    -0.357 N 
ATOM      8  C   UNL     1     -47.511  35.900  27.465  1.00  0.00     0.046 A 
ATOM      9  C   UNL     1     -48.562  35.140  26.939  1.00  0.00    -0.033 A 
ATOM     10  H   UNL     1     -46.650  32.686  25.523  1.00  0.00     0.063 H 
ATOM     11  H   UNL     1     -44.829  34.064  26.467  1.00  0.00     0.063 H 
ATOM     12  H   UNL     1     -44.318  36.563  28.049  1.00  0.00     0.065 H 
ATOM     13  H   UNL     1     -48.382  37.556  28.455  1.00  0.00     0.166 HD
ATOM     14  H   UNL     1     -49.597  35.438  27.084  1.00  0.00     0.065 H 
ENDROOT
BRANCH   1  15
ATOM     15  C   UNL     1     -49.344  33.110  25.668  1.00  0.00     0.043 C 
ATOM     16  H   UNL     1     -50.246  33.188  26.286  1.00  0.00     0.054 H 
ATOM     17  H   UNL     1     -49.625  33.434  24.658  1.00  0.00     0.054 H 
BRANCH  15  18
ATOM     18  N   UNL     1     -48.930  31.735  25.602  1.00  0.00    -0.347 N 
ATOM     19  O   UNL     1     -49.117  31.536  23.324  1.00  0.00    -0.268 OA
ATOM     20  C   UNL     1     -48.805  31.067  24.411  1.00  0.00     0.270 C 
ATOM     21  H   UNL     1     -48.558  31.275  26.429  1.00  0.00     0.164 HD
BRANCH  20  22
ATOM     22  C   UNL     1     -48.225  29.684  24.583  1.00  0.00     0.136 A 
ATOM     23  C   UNL     1     -47.178  29.378  23.812  1.00  0.00     0.035 A 
ATOM     24  N   UNL     1     -48.794  28.838  25.506  1.00  0.00    -0.225 NA
ATOM     25  C   UNL     1     -46.583  28.043  23.947  1.00  0.00     0.258 A 
ATOM     26  H   UNL     1     -46.738  30.053  23.090  1.00  0.00     0.071 H 
ATOM     27  C   UNL     1     -48.265  27.659  25.623  1.00  0.00     0.140 A 
ATOM     28  O   UNL     1     -45.621  27.751  23.240  1.00  0.00    -0.269 OA
ATOM     29  N   UNL     1     -47.176  27.209  24.884  1.00  0.00    -0.268 N 
ATOM     30  C   UNL     1     -48.850  26.708  26.611  1.00  0.00    -0.019 A 
ATOM     31  C   UNL     1     -46.667  25.928  25.070  1.00  0.00     0.014 A 
ATOM     32  C   UNL     1     -48.325  25.486  26.754  1.00  0.00    -0.057 A 
ATOM     33  H   UNL     1     -49.699  27.050  27.191  1.00  0.00     0.066 H 
ATOM     34  C   UNL     1     -47.197  25.080  25.959  1.00  0.00    -0.045 A 
ATOM     35  H   UNL     1     -45.814  25.643  24.457  1.00  0.00     0.082 H 
ATOM     36  H   UNL     1     -48.736  24.779  27.467  1.00  0.00     0.062 H 
ATOM     37  H   UNL     1     -46.791  24.082  26.094  1.00  0.00     0.064 H 
ENDBRANCH  20  22
ENDBRANCH  15  18
ENDBRANCH   1  15
BRANCH   6  38
ATOM     38  C   UNL     1     -45.990  38.708  29.290  1.00  0.00     0.036 C 
ATOM     39  H   UNL     1     -45.963  38.475  30.361  1.00  0.00     0.049 H 
ATOM     40  H   UNL     1     -46.806  39.422  29.128  1.00  0.00     0.049 H 
BRANCH  38  41
ATOM     41  N   UNL     1     -44.723  39.288  28.857  1.00  0.00    -0.308 NA
ATOM     42  H   UNL     1     -44.279  39.747  29.651  1.00  0.00     0.123 HD
BRANCH  41  43
ATOM     43  C   UNL     1     -44.882  40.200  27.724  1.00  0.00     0.013 C 
ATOM     44  C   UNL     1     -44.080  39.941  26.472  1.00  0.00    -0.030 C 
ATOM     45  C   UNL     1     -43.785  41.133  27.327  1.00  0.00    -0.013 C 
ATOM     46  H   UNL     1     -45.905  40.536  27.556  1.00  0.00     0.047 H 
ATOM     47  H   UNL     1     -43.378  39.117  26.470  1.00  0.00     0.029 H 
ATOM     48  H   UNL     1     -44.576  40.098  25.520  1.00  0.00     0.029 H 
ATOM     49  C   UNL     1     -43.935  42.552  26.921  1.00  0.00    -0.046 C 
ATOM     50  C   UNL     1     -42.505  41.403  28.024  1.00  0.00    -0.046 C 
ATOM     51  C   UNL     1     -42.409  42.626  27.094  1.00  0.00    -0.052 C 
ATOM     52  H   UNL     1     -44.294  42.753  25.909  1.00  0.00     0.027 H 
ATOM     53  H   UNL     1     -44.500  43.163  27.633  1.00  0.00     0.027 H 
ATOM     54  H   UNL     1     -41.702  40.671  27.908  1.00  0.00     0.027 H 
ATOM     55  H   UNL     1     -42.611  41.655  29.085  1.00  0.00     0.027 H 
ATOM     56  H   UNL     1     -42.030  43.541  27.557  1.00  0.00     0.027 H 
ATOM     57  H   UNL     1     -41.846  42.439  26.171  1.00  0.00     0.027 H 
ENDBRANCH  41  43
ENDBRANCH  38  41
ENDBRANCH   6  38
TORSDOF 6
ENDMDL
MODEL 5
REMARK VINA RESULT:     -10.3      2.868     11.309
REMARK SMILES O=C(NCc1ccc2cc(CN[C@@H]3CC34CCC4)[nH]c2c1)c1cc(=O)n2ccccc2n1
REMARK SMILES IDX 5 1 6 2 7 3 8 4 9 5 10 6 19 7 20 8 21 9 4 15 3 18 1 19 2 20
REMARK SMILES IDX 22 22 23 23 32 24 24 25 31 27 25 28 26 29 30 30 27 31 29 32
REMARK SMILES IDX 28 34 11 38 12 41 13 43 14 44 15 45 16 49 18 50 17 51
REMARK H PARENT 6 10 7 11 9 12 19 13 21 14 4 16 4 17 3 21 23 26 30 33 27 35
REMARK H PARENT 29 36 28 37 11 39 11 40 12 42 13 46 14 47 14 48 16 52 16 53
REMARK H PARENT 18 54 18 55 17 56 17 57
REMARK Flexibility Score: inf
ROOT
ATOM      1  C   UNL     1     -46.872  33.660  25.855  1.00  0.00    -0.027 A 
ATOM      2  C   UNL     1     -48.167  34.166  26.032  1.00  0.00    -0.057 A 
ATOM      3  C   UNL     1     -48.446  35.105  27.034  1.00  0.00    -0.052 A 
ATOM      4  C   UNL     1     -47.407  35.551  27.870  1.00  0.00    -0.000 A 
ATOM      5  C   UNL     1     -47.333  36.469  28.953  1.00  0.00    -0.032 A 
ATOM      6  C   UNL     1     -46.025  36.509  29.395  1.00  0.00     0.030 A 
ATOM      7  N   UNL     1     -45.306  35.642  28.608  1.00  0.00    -0.357 N 
ATOM      8  C   UNL     1     -46.124  35.046  27.674  1.00  0.00     0.046 A 
ATOM      9  C   UNL     1     -45.824  34.108  26.678  1.00  0.00    -0.033 A 
ATOM     10  H   UNL     1     -48.976  33.833  25.387  1.00  0.00     0.063 H 
ATOM     11  H   UNL     1     -49.456  35.485  27.161  1.00  0.00     0.063 H 
ATOM     12  H   UNL     1     -48.150  37.047  29.366  1.00  0.00     0.065 H 
ATOM     13  H   UNL     1     -44.316  35.461  28.695  1.00  0.00     0.166 HD
ATOM     14  H   UNL     1     -44.811  33.740  26.542  1.00  0.00     0.065 H 
ENDROOT
BRANCH   1  15
ATOM     15  C   UNL     1     -46.586  32.678  24.750  1.00  0.00     0.043 C 
ATOM     16  H   UNL     1     -46.910  33.077  23.781  1.00  0.00     0.054 H 
ATOM     17  H   UNL     1     -45.509  32.486  24.667  1.00  0.00     0.054 H 
BRANCH  15  18
ATOM     18  N   UNL     1     -47.250  31.427  24.994  1.00  0.00    -0.347 N 
ATOM     19  O   UNL     1     -48.649  31.539  23.179  1.00  0.00    -0.268 OA
ATOM     20  C   UNL     1     -48.209  30.933  24.148  1.00  0.00     0.270 C 
ATOM     21  H   UNL     1     -46.903  30.798  25.713  1.00  0.00     0.164 HD
BRANCH  20  22
ATOM     22  C   UNL     1     -48.660  29.545  24.534  1.00  0.00     0.136 A 
ATOM     23  C   UNL     1     -49.961  29.280  24.390  1.00  0.00     0.035 A 
ATOM     24  N   UNL     1     -47.724  28.651  25.000  1.00  0.00    -0.225 NA
ATOM     25  C   UNL     1     -50.442  27.943  24.753  1.00  0.00     0.258 A 
ATOM     26  H   UNL     1     -50.688  29.992  24.021  1.00  0.00     0.071 H 
ATOM     27  C   UNL     1     -48.153  27.469  25.320  1.00  0.00     0.140 A 
ATOM     28  O   UNL     1     -51.639  27.690  24.626  1.00  0.00    -0.269 OA
ATOM     29  N   UNL     1     -49.479  27.060  25.221  1.00  0.00    -0.268 N 
ATOM     30  C   UNL     1     -47.174  26.467  25.830  1.00  0.00    -0.019 A 
ATOM     31  C   UNL     1     -49.859  25.772  25.585  1.00  0.00     0.014 A 
ATOM     32  C   UNL     1     -47.588  25.240  26.168  1.00  0.00    -0.057 A 
ATOM     33  H   UNL     1     -46.139  26.777  25.912  1.00  0.00     0.066 H 
ATOM     34  C   UNL     1     -48.973  24.878  26.042  1.00  0.00    -0.045 A 
ATOM     35  H   UNL     1     -50.912  25.521  25.481  1.00  0.00     0.082 H 
ATOM     36  H   UNL     1     -46.891  24.497  26.541  1.00  0.00     0.062 H 
ATOM     37  H   UNL     1     -49.282  23.876  26.323  1.00  0.00     0.064 H 
ENDBRANCH  20  22
ENDBRANCH  15  18
ENDBRANCH   1  15
BRANCH   6  38
ATOM     38  C   UNL     1     -45.393  37.291  30.494  1.00  0.00     0.036 C 
ATOM     39  H   UNL     1     -44.449  36.819  30.794  1.00  0.00     0.049 H 
ATOM     40  H   UNL     1     -46.055  37.286  31.368  1.00  0.00     0.049 H 
BRANCH  38  41
ATOM     41  N   UNL     1     -45.164  38.661  30.046  1.00  0.00    -0.308 NA
ATOM     42  H   UNL     1     -45.957  39.237  30.322  1.00  0.00     0.123 HD
BRANCH  41  43
ATOM     43  C   UNL     1     -44.909  38.744  28.607  1.00  0.00     0.013 C 
ATOM     44  C   UNL     1     -44.518  40.078  28.021  1.00  0.00    -0.030 C 
ATOM     45  C   UNL     1     -45.847  39.471  27.700  1.00  0.00    -0.013 C 
ATOM     46  H   UNL     1     -44.382  37.885  28.193  1.00  0.00     0.047 H 
ATOM     47  H   UNL     1     -44.486  40.940  28.676  1.00  0.00     0.029 H 
ATOM     48  H   UNL     1     -43.752  40.081  27.253  1.00  0.00     0.029 H 
ATOM     49  C   UNL     1     -46.299  39.028  26.358  1.00  0.00    -0.046 C 
ATOM     50  C   UNL     1     -47.169  40.061  28.019  1.00  0.00    -0.046 C 
ATOM     51  C   UNL     1     -47.355  40.138  26.493  1.00  0.00    -0.052 C 
ATOM     52  H   UNL     1     -45.604  39.154  25.524  1.00  0.00     0.027 H 
ATOM     53  H   UNL     1     -46.710  38.014  26.337  1.00  0.00     0.027 H 
ATOM     54  H   UNL     1     -47.181  41.024  28.534  1.00  0.00     0.027 H 
ATOM     55  H   UNL     1     -47.861  39.376  28.520  1.00  0.00     0.027 H 
ATOM     56  H   UNL     1     -48.354  39.886  26.127  1.00  0.00     0.027 H 
ATOM     57  H   UNL     1     -47.052  41.098  26.056  1.00  0.00     0.027 H 
ENDBRANCH  41  43
ENDBRANCH  38  41
ENDBRANCH   6  38
TORSDOF 6
ENDMDL
MODEL 6
REMARK VINA RESULT:     -10.2      1.959      3.252
REMARK SMILES O=C(NCc1ccc2cc(CN[C@@H]3CC34CCC4)[nH]c2c1)c1cc(=O)n2ccccc2n1
REMARK SMILES IDX 5 1 6 2 7 3 8 4 9 5 10 6 19 7 20 8 21 9 4 15 3 18 1 19 2 20
REMARK SMILES IDX 22 22 23 23 32 24 24 25 31 27 25 28 26 29 30 30 27 31 29 32
REMARK SMILES IDX 28 34 11 38 12 41 13 43 14 44 15 45 16 49 18 50 17 51
REMARK H PARENT 6 10 7 11 9 12 19 13 21 14 4 16 4 17 3 21 23 26 30 33 27 35
REMARK H PARENT 29 36 28 37 11 39 11 40 12 42 13 46 14 47 14 48 16 52 16 53
REMARK H PARENT 18 54 18 55 17 56 17 57
REMARK Flexibility Score: inf
ROOT
ATOM      1  C   UNL     1     -47.999  35.089  26.814  1.00  0.00    -0.027 A 
ATOM      2  C   UNL     1     -46.710  35.125  26.265  1.00  0.00    -0.057 A 
ATOM      3  C   UNL     1     -46.233  34.076  25.469  1.00  0.00    -0.052 A 
ATOM      4  C   UNL     1     -47.066  32.972  25.210  1.00  0.00    -0.000 A 
ATOM      5  C   UNL     1     -46.914  31.771  24.466  1.00  0.00    -0.032 A 
ATOM      6  C   UNL     1     -48.089  31.051  24.567  1.00  0.00     0.030 A 
ATOM      7  N   UNL     1     -48.947  31.785  25.350  1.00  0.00    -0.357 N 
ATOM      8  C   UNL     1     -48.348  32.957  25.755  1.00  0.00     0.046 A 
ATOM      9  C   UNL     1     -48.844  33.996  26.553  1.00  0.00    -0.033 A 
ATOM     10  H   UNL     1     -46.060  35.976  26.453  1.00  0.00     0.063 H 
ATOM     11  H   UNL     1     -45.231  34.117  25.054  1.00  0.00     0.063 H 
ATOM     12  H   UNL     1     -46.040  31.464  23.908  1.00  0.00     0.065 H 
ATOM     13  H   UNL     1     -49.887  31.512  25.599  1.00  0.00     0.166 HD
ATOM     14  H   UNL     1     -49.852  33.962  26.955  1.00  0.00     0.065 H 
ENDROOT
BRANCH   1  15
ATOM     15  C   UNL     1     -48.505  36.243  27.639  1.00  0.00     0.043 C 
ATOM     16  H   UNL     1     -49.456  36.617  27.243  1.00  0.00     0.054 H 
ATOM     17  H   UNL     1     -48.696  35.930  28.673  1.00  0.00     0.054 H 
BRANCH  15  18
ATOM     18  N   UNL     1     -47.545  37.314  27.662  1.00  0.00    -0.347 N 
ATOM     19  O   UNL     1     -46.455  36.620  29.558  1.00  0.00    -0.268 OA
ATOM     20  C   UNL     1     -46.556  37.387  28.608  1.00  0.00     0.270 C 
ATOM     21  H   UNL     1     -47.477  37.953  26.874  1.00  0.00     0.164 HD
BRANCH  20  22
ATOM     22  C   UNL     1     -45.589  38.517  28.347  1.00  0.00     0.136 A 
ATOM     23  C   UNL     1     -45.791  39.228  27.235  1.00  0.00     0.035 A 
ATOM     24  N   UNL     1     -44.579  38.745  29.253  1.00  0.00    -0.225 NA
ATOM     25  C   UNL     1     -44.874  40.335  26.943  1.00  0.00     0.258 A 
ATOM     26  H   UNL     1     -46.591  39.039  26.531  1.00  0.00     0.071 H 
ATOM     27  C   UNL     1     -43.771  39.725  28.991  1.00  0.00     0.140 A 
ATOM     28  O   UNL     1     -45.050  40.995  25.920  1.00  0.00    -0.269 OA
ATOM     29  N   UNL     1     -43.863  40.545  27.871  1.00  0.00    -0.268 N 
ATOM     30  C   UNL     1     -42.660  40.009  29.945  1.00  0.00    -0.019 A 
ATOM     31  C   UNL     1     -42.955  41.577  27.664  1.00  0.00     0.014 A 
ATOM     32  C   UNL     1     -41.811  41.014  29.702  1.00  0.00    -0.057 A 
ATOM     33  H   UNL     1     -42.579  39.376  30.820  1.00  0.00     0.066 H 
ATOM     34  C   UNL     1     -41.961  41.826  28.524  1.00  0.00    -0.045 A 
ATOM     35  H   UNL     1     -43.088  42.178  26.766  1.00  0.00     0.082 H 
ATOM     36  H   UNL     1     -40.997  41.236  30.383  1.00  0.00     0.062 H 
ATOM     37  H   UNL     1     -41.258  42.635  28.351  1.00  0.00     0.064 H 
ENDBRANCH  20  22
ENDBRANCH  15  18
ENDBRANCH   1  15
BRANCH   6  38
ATOM     38  C   UNL     1     -48.475  29.732  23.992  1.00  0.00     0.036 C 
ATOM     39  H   UNL     1     -49.552  29.570  24.116  1.00  0.00     0.049 H 
ATOM     40  H   UNL     1     -47.957  28.935  24.539  1.00  0.00     0.049 H 
BRANCH  38  41
ATOM     41  N   UNL     1     -48.107  29.692  22.581  1.00  0.00    -0.308 NA
ATOM     42  H   UNL     1     -47.731  30.598  22.309  1.00  0.00     0.123 HD
BRANCH  41  43
ATOM     43  C   UNL     1     -49.224  29.291  21.722  1.00  0.00     0.013 C 
ATOM     44  C   UNL     1     -49.254  29.790  20.299  1.00  0.00    -0.030 C 
ATOM     45  C   UNL     1     -50.258  30.279  21.294  1.00  0.00    -0.013 C 
ATOM     46  H   UNL     1     -49.547  28.259  21.857  1.00  0.00     0.047 H 
ATOM     47  H   UNL     1     -48.474  30.468  19.973  1.00  0.00     0.029 H 
ATOM     48  H   UNL     1     -49.580  29.096  19.533  1.00  0.00     0.029 H 
ATOM     49  C   UNL     1     -51.724  30.054  21.232  1.00  0.00    -0.046 C 
ATOM     50  C   UNL     1     -50.430  31.685  21.733  1.00  0.00    -0.046 C 
ATOM     51  C   UNL     1     -51.818  31.581  21.076  1.00  0.00    -0.052 C 
ATOM     52  H   UNL     1     -52.111  29.480  20.387  1.00  0.00     0.027 H 
ATOM     53  H   UNL     1     -52.156  29.667  22.161  1.00  0.00     0.027 H 
ATOM     54  H   UNL     1     -49.768  32.436  21.295  1.00  0.00     0.027 H 
ATOM     55  H   UNL     1     -50.459  31.820  22.819  1.00  0.00     0.027 H 
ATOM     56  H   UNL     1     -52.635  32.061  21.621  1.00  0.00     0.027 H 
ATOM     57  H   UNL     1     -51.844  31.922  20.033  1.00  0.00     0.027 H 
ENDBRANCH  41  43
ENDBRANCH  38  41
ENDBRANCH   6  38
TORSDOF 6
ENDMDL
MODEL 7
REMARK VINA RESULT:     -10.2      2.415      3.754
REMARK SMILES O=C(NCc1ccc2cc(CN[C@@H]3CC34CCC4)[nH]c2c1)c1cc(=O)n2ccccc2n1
REMARK SMILES IDX 5 1 6 2 7 3 8 4 9 5 10 6 19 7 20 8 21 9 4 15 3 18 1 19 2 20
REMARK SMILES IDX 22 22 23 23 32 24 24 25 31 27 25 28 26 29 30 30 27 31 29 32
REMARK SMILES IDX 28 34 11 38 12 41 13 43 14 44 15 45 16 49 18 50 17 51
REMARK H PARENT 6 10 7 11 9 12 19 13 21 14 4 16 4 17 3 21 23 26 30 33 27 35
REMARK H PARENT 29 36 28 37 11 39 11 40 12 42 13 46 14 47 14 48 16 52 16 53
REMARK H PARENT 18 54 18 55 17 56 17 57
REMARK Flexibility Score: inf
ROOT
ATOM      1  C   UNL     1     -47.433  36.488  27.378  1.00  0.00    -0.027 A 
ATOM      2  C   UNL     1     -46.121  35.999  27.351  1.00  0.00    -0.057 A 
ATOM      3  C   UNL     1     -45.850  34.676  26.977  1.00  0.00    -0.052 A 
ATOM      4  C   UNL     1     -46.912  33.829  26.616  1.00  0.00    -0.000 A 
ATOM      5  C   UNL     1     -46.999  32.475  26.195  1.00  0.00    -0.032 A 
ATOM      6  C   UNL     1     -48.330  32.178  25.970  1.00  0.00     0.030 A 
ATOM      7  N   UNL     1     -49.049  33.317  26.242  1.00  0.00    -0.357 N 
ATOM      8  C   UNL     1     -48.210  34.335  26.638  1.00  0.00     0.046 A 
ATOM      9  C   UNL     1     -48.502  35.654  27.008  1.00  0.00    -0.033 A 
ATOM     10  H   UNL     1     -45.291  36.647  27.621  1.00  0.00     0.063 H 
ATOM     11  H   UNL     1     -44.827  34.310  26.965  1.00  0.00     0.063 H 
ATOM     12  H   UNL     1     -46.175  31.786  26.063  1.00  0.00     0.065 H 
ATOM     13  H   UNL     1     -50.053  33.405  26.166  1.00  0.00     0.166 HD
ATOM     14  H   UNL     1     -49.524  36.023  27.005  1.00  0.00     0.065 H 
ENDROOT
BRANCH   1  15
ATOM     15  C   UNL     1     -47.701  37.923  27.749  1.00  0.00     0.043 C 
ATOM     16  H   UNL     1     -48.606  38.292  27.251  1.00  0.00     0.054 H 
ATOM     17  H   UNL     1     -47.872  38.023  28.827  1.00  0.00     0.054 H 
BRANCH  15  18
ATOM     18  N   UNL     1     -46.587  38.759  27.390  1.00  0.00    -0.347 N 
ATOM     19  O   UNL     1     -47.835  40.408  26.395  1.00  0.00    -0.268 OA
ATOM     20  C   UNL     1     -46.755  39.973  26.775  1.00  0.00     0.270 C 
ATOM     21  H   UNL     1     -45.656  38.544  27.736  1.00  0.00     0.164 HD
BRANCH  20  22
ATOM     22  C   UNL     1     -45.457  40.728  26.624  1.00  0.00     0.136 A 
ATOM     23  C   UNL     1     -44.546  40.544  27.583  1.00  0.00     0.035 A 
ATOM     24  N   UNL     1     -45.290  41.545  25.529  1.00  0.00    -0.225 NA
ATOM     25  C   UNL     1     -43.269  41.259  27.475  1.00  0.00     0.258 A 
ATOM     26  H   UNL     1     -44.689  39.897  28.439  1.00  0.00     0.071 H 
ATOM     27  C   UNL     1     -44.159  42.175  25.437  1.00  0.00     0.140 A 
ATOM     28  O   UNL     1     -42.425  41.097  28.354  1.00  0.00    -0.269 OA
ATOM     29  N   UNL     1     -43.126  42.076  26.362  1.00  0.00    -0.268 N 
ATOM     30  C   UNL     1     -43.934  43.071  24.267  1.00  0.00    -0.019 A 
ATOM     31  C   UNL     1     -41.942  42.786  26.190  1.00  0.00     0.014 A 
ATOM     32  C   UNL     1     -42.778  43.734  24.145  1.00  0.00    -0.057 A 
ATOM     33  H   UNL     1     -44.734  43.155  23.541  1.00  0.00     0.066 H 
ATOM     34  C   UNL     1     -41.747  43.589  25.137  1.00  0.00    -0.045 A 
ATOM     35  H   UNL     1     -41.177  42.660  26.953  1.00  0.00     0.082 H 
ATOM     36  H   UNL     1     -42.596  44.391  23.301  1.00  0.00     0.062 H 
ATOM     37  H   UNL     1     -40.819  44.138  25.014  1.00  0.00     0.064 H 
ENDBRANCH  20  22
ENDBRANCH  15  18
ENDBRANCH   1  15
BRANCH   6  38
ATOM     38  C   UNL     1     -48.984  30.916  25.523  1.00  0.00     0.036 C 
ATOM     39  H   UNL     1     -49.552  31.095  24.602  1.00  0.00     0.049 H 
ATOM     40  H   UNL     1     -49.695  30.588  26.290  1.00  0.00     0.049 H 
BRANCH  38  41
ATOM     41  N   UNL     1     -47.967  29.892  25.310  1.00  0.00    -0.308 NA
ATOM     42  H   UNL     1     -47.059  30.262  25.586  1.00  0.00     0.123 HD
BRANCH  41  43
ATOM     43  C   UNL     1     -47.953  29.394  23.933  1.00  0.00     0.013 C 
ATOM     44  C   UNL     1     -46.750  28.614  23.462  1.00  0.00    -0.030 C 
ATOM     45  C   UNL     1     -47.030  29.978  22.914  1.00  0.00    -0.013 C 
ATOM     46  H   UNL     1     -48.913  29.021  23.580  1.00  0.00     0.047 H 
ATOM     47  H   UNL     1     -45.917  28.489  24.143  1.00  0.00     0.029 H 
ATOM     48  H   UNL     1     -46.931  27.754  22.826  1.00  0.00     0.029 H 
ATOM     49  C   UNL     1     -47.360  30.297  21.503  1.00  0.00    -0.046 C 
ATOM     50  C   UNL     1     -46.144  31.160  23.040  1.00  0.00    -0.046 C 
ATOM     51  C   UNL     1     -46.033  31.074  21.507  1.00  0.00    -0.052 C 
ATOM     52  H   UNL     1     -47.405  29.466  20.795  1.00  0.00     0.027 H 
ATOM     53  H   UNL     1     -48.250  30.923  21.383  1.00  0.00     0.027 H 
ATOM     54  H   UNL     1     -45.203  31.032  23.578  1.00  0.00     0.027 H 
ATOM     55  H   UNL     1     -46.645  32.065  23.401  1.00  0.00     0.027 H 
ATOM     56  H   UNL     1     -46.045  32.031  20.979  1.00  0.00     0.027 H 
ATOM     57  H   UNL     1     -45.173  30.489  21.156  1.00  0.00     0.027 H 
ENDBRANCH  41  43
ENDBRANCH  38  41
ENDBRANCH   6  38
TORSDOF 6
ENDMDL
