MODEL 1
REMARK VINA RESULT:      -9.9      0.000      0.000
REMARK SMILES CCc1cc(N(C)CC2CC2)c2ccc(OC[C@H]3O[C@@H](n4cc(-c5ccn(C)n5)c5c(N)ncnc54)C[C@@H]3O)cc2n1
REMARK SMILES IDX 17 1 16 4 15 5 3 6 4 7 42 8 5 9 41 11 12 12 40 13 13 14
REMARK SMILES IDX 14 16 2 19 1 22 6 26 7 27 8 31 9 34 10 35 11 36 18 42 19 43
REMARK SMILES IDX 38 44 20 46 37 47 39 52 21 54 22 55 36 56 23 57 30 59 35 60
REMARK SMILES IDX 31 61 34 62 33 63 24 65 25 66 29 67 26 68 27 70 28 72 32 76
REMARK H PARENT 17 2 17 3 4 10 40 15 13 17 14 18 2 20 2 21 1 23 1 24 1 25 7 28
REMARK H PARENT 7 29 7 30 8 32 8 33 9 37 10 38 10 39 11 40 11 41 18 45 38 48
REMARK H PARENT 20 49 37 50 37 51 39 53 22 58 34 64 25 69 26 71 28 73 28 74
REMARK H PARENT 28 75 32 77 32 78
REMARK Flexibility Score: inf
ROOT
ATOM      1  C   UNL     1     -46.385  35.551  26.873  1.00  0.00     0.117 C 
ATOM      2  H   UNL     1     -46.482  36.452  26.256  1.00  0.00     0.073 H 
ATOM      3  H   UNL     1     -45.562  34.923  26.511  1.00  0.00     0.073 H 
ENDROOT
BRANCH   1   4
ATOM      4  O   UNL     1     -47.609  34.807  26.821  1.00  0.00    -0.491 OA
BRANCH   4   5
ATOM      5  C   UNL     1     -47.621  33.680  26.048  1.00  0.00     0.121 A 
ATOM      6  C   UNL     1     -46.251  30.998  22.367  1.00  0.00     0.043 A 
ATOM      7  C   UNL     1     -47.094  29.953  22.716  1.00  0.00    -0.016 A 
ATOM      8  N   UNL     1     -46.179  32.146  23.078  1.00  0.00    -0.253 NA
ATOM      9  C   UNL     1     -47.904  30.075  23.850  1.00  0.00     0.048 A 
ATOM     10  H   UNL     1     -47.115  29.052  22.114  1.00  0.00     0.066 H 
ATOM     11  C   UNL     1     -46.946  32.277  24.174  1.00  0.00     0.076 A 
ATOM     12  C   UNL     1     -47.829  31.269  24.611  1.00  0.00     0.024 A 
ATOM     13  C   UNL     1     -46.858  33.460  24.899  1.00  0.00     0.007 A 
ATOM     14  C   UNL     1     -48.601  31.494  25.770  1.00  0.00    -0.047 A 
ATOM     15  H   UNL     1     -46.165  34.210  24.531  1.00  0.00     0.069 H 
ATOM     16  C   UNL     1     -48.495  32.688  26.480  1.00  0.00    -0.019 A 
ATOM     17  H   UNL     1     -49.291  30.730  26.118  1.00  0.00     0.063 H 
ATOM     18  H   UNL     1     -49.096  32.843  27.372  1.00  0.00     0.066 H 
BRANCH   6  19
ATOM     19  C   UNL     1     -45.387  30.905  21.138  1.00  0.00    -0.013 C 
ATOM     20  H   UNL     1     -44.368  31.223  21.388  1.00  0.00     0.033 H 
ATOM     21  H   UNL     1     -45.317  29.862  20.809  1.00  0.00     0.033 H 
BRANCH  19  22
ATOM     22  C   UNL     1     -45.924  31.774  20.012  1.00  0.00    -0.060 C 
ATOM     23  H   UNL     1     -47.011  31.673  19.917  1.00  0.00     0.023 H 
ATOM     24  H   UNL     1     -45.477  31.502  19.050  1.00  0.00     0.023 H 
ATOM     25  H   UNL     1     -45.696  32.828  20.204  1.00  0.00     0.023 H 
ENDBRANCH  19  22
ENDBRANCH   6  19
BRANCH   9  26
ATOM     26  N   UNL     1     -48.778  29.031  24.258  1.00  0.00    -0.374 N 
BRANCH  26  27
ATOM     27  C   UNL     1     -50.168  29.497  24.283  1.00  0.00     0.006 C 
ATOM     28  H   UNL     1     -50.421  29.975  25.237  1.00  0.00     0.046 H 
ATOM     29  H   UNL     1     -50.365  30.202  23.467  1.00  0.00     0.046 H 
ATOM     30  H   UNL     1     -50.846  28.648  24.141  1.00  0.00     0.046 H 
ENDBRANCH  26  27
BRANCH  26  31
ATOM     31  C   UNL     1     -48.360  28.315  25.473  1.00  0.00     0.020 C 
ATOM     32  H   UNL     1     -49.210  28.268  26.165  1.00  0.00     0.050 H 
ATOM     33  H   UNL     1     -47.559  28.840  26.007  1.00  0.00     0.050 H 
BRANCH  31  34
ATOM     34  C   UNL     1     -47.924  26.914  25.140  1.00  0.00    -0.024 C 
ATOM     35  C   UNL     1     -46.460  26.557  25.073  1.00  0.00    -0.048 C 
ATOM     36  C   UNL     1     -47.310  26.031  26.197  1.00  0.00    -0.048 C 
ATOM     37  H   UNL     1     -48.584  26.446  24.417  1.00  0.00     0.032 H 
ATOM     38  H   UNL     1     -46.146  25.857  24.307  1.00  0.00     0.027 H 
ATOM     39  H   UNL     1     -45.722  27.314  25.310  1.00  0.00     0.027 H 
ATOM     40  H   UNL     1     -47.582  24.981  26.190  1.00  0.00     0.027 H 
ATOM     41  H   UNL     1     -47.166  26.444  27.188  1.00  0.00     0.027 H 
ENDBRANCH  31  34
ENDBRANCH  26  31
ENDBRANCH   9  26
ENDBRANCH   4   5
ENDBRANCH   1   4
BRANCH   1  42
ATOM     42  C   UNL     1     -46.128  35.954  28.326  1.00  0.00     0.120 C 
ATOM     43  O   UNL     1     -44.826  36.557  28.481  1.00  0.00    -0.348 OA
ATOM     44  C   UNL     1     -47.123  36.992  28.829  1.00  0.00     0.088 C 
ATOM     45  H   UNL     1     -46.144  35.057  28.957  1.00  0.00     0.067 H 
ATOM     46  C   UNL     1     -44.934  37.647  29.422  1.00  0.00     0.138 C 
ATOM     47  C   UNL     1     -46.355  37.620  29.970  1.00  0.00     0.022 C 
ATOM     48  H   UNL     1     -47.331  37.745  28.060  1.00  0.00     0.063 H 
ATOM     49  H   UNL     1     -44.188  37.494  30.210  1.00  0.00     0.085 H 
ATOM     50  H   UNL     1     -46.756  38.594  30.263  1.00  0.00     0.034 H 
ATOM     51  H   UNL     1     -46.405  36.973  30.855  1.00  0.00     0.034 H 
BRANCH  44  52
ATOM     52  O   UNL     1     -48.355  36.435  29.252  1.00  0.00    -0.390 OA
ATOM     53  H   UNL     1     -49.083  37.001  28.941  1.00  0.00     0.211 HD
ENDBRANCH  44  52
BRANCH  46  54
ATOM     54  N   UNL     1     -44.601  38.906  28.761  1.00  0.00    -0.305 N 
ATOM     55  C   UNL     1     -45.246  39.485  27.701  1.00  0.00     0.019 A 
ATOM     56  C   UNL     1     -43.549  39.704  29.144  1.00  0.00     0.148 A 
ATOM     57  C   UNL     1     -44.626  40.691  27.430  1.00  0.00     0.033 A 
ATOM     58  H   UNL     1     -46.095  39.015  27.221  1.00  0.00     0.083 H 
ATOM     59  C   UNL     1     -43.516  40.822  28.316  1.00  0.00     0.071 A 
ATOM     60  N   UNL     1     -42.706  39.428  30.154  1.00  0.00    -0.218 NA
ATOM     61  C   UNL     1     -42.462  41.724  28.540  1.00  0.00     0.137 A 
ATOM     62  C   UNL     1     -41.766  40.375  30.286  1.00  0.00     0.120 A 
ATOM     63  N   UNL     1     -41.596  41.483  29.543  1.00  0.00    -0.219 NA
ATOM     64  H   UNL     1     -41.048  40.228  31.087  1.00  0.00     0.106 H 
BRANCH  57  65
ATOM     65  C   UNL     1     -45.051  41.639  26.404  1.00  0.00     0.095 A 
ATOM     66  C   UNL     1     -44.376  41.884  25.189  1.00  0.00    -0.016 A 
ATOM     67  N   UNL     1     -46.117  42.434  26.551  1.00  0.00    -0.173 NA
ATOM     68  C   UNL     1     -45.108  42.873  24.572  1.00  0.00     0.025 A 
ATOM     69  H   UNL     1     -43.476  41.415  24.818  1.00  0.00     0.066 H 
ATOM     70  N   UNL     1     -46.128  43.169  25.426  1.00  0.00    -0.275 N 
ATOM     71  H   UNL     1     -44.979  43.384  23.629  1.00  0.00     0.084 H 
BRANCH  70  72
ATOM     72  C   UNL     1     -47.160  44.160  25.239  1.00  0.00     0.030 C 
ATOM     73  H   UNL     1     -46.769  44.948  24.591  1.00  0.00     0.048 H 
ATOM     74  H   UNL     1     -47.442  44.578  26.208  1.00  0.00     0.048 H 
ATOM     75  H   UNL     1     -48.024  43.675  24.777  1.00  0.00     0.048 H 
ENDBRANCH  70  72
ENDBRANCH  57  65
BRANCH  61  76
ATOM     76  N   UNL     1     -42.205  42.851  27.767  1.00  0.00    -0.383 N 
ATOM     77  H   UNL     1     -42.767  42.897  26.924  1.00  0.00     0.158 HD
ATOM     78  H   UNL     1     -41.206  42.943  27.624  1.00  0.00     0.158 HD
ENDBRANCH  61  76
ENDBRANCH  46  54
ENDBRANCH   1  42
TORSDOF 14
ENDMDL
MODEL 2
REMARK VINA RESULT:      -9.4      2.653     12.058
REMARK SMILES CCc1cc(N(C)CC2CC2)c2ccc(OC[C@H]3O[C@@H](n4cc(-c5ccn(C)n5)c5c(N)ncnc54)C[C@@H]3O)cc2n1
REMARK SMILES IDX 17 1 16 4 15 5 3 6 4 7 42 8 5 9 41 11 12 12 40 13 13 14
REMARK SMILES IDX 14 16 2 19 1 22 6 26 7 27 8 31 9 34 10 35 11 36 18 42 19 43
REMARK SMILES IDX 38 44 20 46 37 47 39 52 21 54 22 55 36 56 23 57 30 59 35 60
REMARK SMILES IDX 31 61 34 62 33 63 24 65 25 66 29 67 26 68 27 70 28 72 32 76
REMARK H PARENT 17 2 17 3 4 10 40 15 13 17 14 18 2 20 2 21 1 23 1 24 1 25 7 28
REMARK H PARENT 7 29 7 30 8 32 8 33 9 37 10 38 10 39 11 40 11 41 18 45 38 48
REMARK H PARENT 20 49 37 50 37 51 39 53 22 58 34 64 25 69 26 71 28 73 28 74
REMARK H PARENT 28 75 32 77 32 78
REMARK Flexibility Score: inf
ROOT
ATOM      1  C   UNL     1     -46.524  33.527  26.616  1.00  0.00     0.117 C 
ATOM      2  H   UNL     1     -46.191  32.531  26.930  1.00  0.00     0.073 H 
ATOM      3  H   UNL     1     -45.680  34.112  26.231  1.00  0.00     0.073 H 
ENDROOT
BRANCH   1   4
ATOM      4  O   UNL     1     -47.104  34.208  27.735  1.00  0.00    -0.491 OA
BRANCH   4   5
ATOM      5  C   UNL     1     -47.117  35.575  27.695  1.00  0.00     0.121 A 
ATOM      6  C   UNL     1     -45.101  39.865  27.321  1.00  0.00     0.043 A 
ATOM      7  C   UNL     1     -46.311  40.531  27.462  1.00  0.00    -0.016 A 
ATOM      8  N   UNL     1     -45.002  38.517  27.349  1.00  0.00    -0.253 NA
ATOM      9  C   UNL     1     -47.484  39.790  27.636  1.00  0.00     0.048 A 
ATOM     10  H   UNL     1     -46.337  41.614  27.432  1.00  0.00     0.066 H 
ATOM     11  C   UNL     1     -46.121  37.790  27.509  1.00  0.00     0.076 A 
ATOM     12  C   UNL     1     -47.395  38.375  27.656  1.00  0.00     0.024 A 
ATOM     13  C   UNL     1     -46.006  36.404  27.530  1.00  0.00     0.007 A 
ATOM     14  C   UNL     1     -48.515  37.535  27.824  1.00  0.00    -0.047 A 
ATOM     15  H   UNL     1     -45.008  35.994  27.412  1.00  0.00     0.069 H 
ATOM     16  C   UNL     1     -48.375  36.148  27.842  1.00  0.00    -0.019 A 
ATOM     17  H   UNL     1     -49.505  37.968  27.944  1.00  0.00     0.063 H 
ATOM     18  H   UNL     1     -49.250  35.517  27.971  1.00  0.00     0.066 H 
BRANCH   6  19
ATOM     19  C   UNL     1     -43.818  40.637  27.159  1.00  0.00    -0.013 C 
ATOM     20  H   UNL     1     -43.156  40.095  26.473  1.00  0.00     0.033 H 
ATOM     21  H   UNL     1     -44.024  41.608  26.692  1.00  0.00     0.033 H 
BRANCH  19  22
ATOM     22  C   UNL     1     -43.113  40.835  28.491  1.00  0.00    -0.060 C 
ATOM     23  H   UNL     1     -42.403  40.024  28.687  1.00  0.00     0.023 H 
ATOM     24  H   UNL     1     -43.828  40.863  29.320  1.00  0.00     0.023 H 
ATOM     25  H   UNL     1     -42.559  41.779  28.490  1.00  0.00     0.023 H 
ENDBRANCH  19  22
ENDBRANCH   6  19
BRANCH   9  26
ATOM     26  N   UNL     1     -48.750  40.420  27.776  1.00  0.00    -0.374 N 
BRANCH  26  27
ATOM     27  C   UNL     1     -48.910  41.490  26.786  1.00  0.00     0.006 C 
ATOM     28  H   UNL     1     -49.965  41.749  26.634  1.00  0.00     0.046 H 
ATOM     29  H   UNL     1     -48.361  42.390  27.082  1.00  0.00     0.046 H 
ATOM     30  H   UNL     1     -48.500  41.167  25.823  1.00  0.00     0.046 H 
ENDBRANCH  26  27
BRANCH  26  31
ATOM     31  C   UNL     1     -49.095  40.813  29.151  1.00  0.00     0.020 C 
ATOM     32  H   UNL     1     -48.185  40.788  29.764  1.00  0.00     0.050 H 
ATOM     33  H   UNL     1     -49.798  40.113  29.617  1.00  0.00     0.050 H 
BRANCH  31  34
ATOM     34  C   UNL     1     -49.663  42.206  29.178  1.00  0.00    -0.024 C 
ATOM     35  C   UNL     1     -50.985  42.488  29.848  1.00  0.00    -0.048 C 
ATOM     36  C   UNL     1     -49.709  42.989  30.466  1.00  0.00    -0.048 C 
ATOM     37  H   UNL     1     -49.441  42.751  28.267  1.00  0.00     0.032 H 
ATOM     38  H   UNL     1     -51.642  43.214  29.384  1.00  0.00     0.027 H 
ATOM     39  H   UNL     1     -51.504  41.679  30.349  1.00  0.00     0.027 H 
ATOM     40  H   UNL     1     -49.493  44.051  30.412  1.00  0.00     0.027 H 
ATOM     41  H   UNL     1     -49.350  42.510  31.369  1.00  0.00     0.027 H 
ENDBRANCH  31  34
ENDBRANCH  26  31
ENDBRANCH   9  26
ENDBRANCH   4   5
ENDBRANCH   1   4
BRANCH   1  42
ATOM     42  C   UNL     1     -47.594  33.388  25.530  1.00  0.00     0.120 C 
ATOM     43  O   UNL     1     -47.102  32.632  24.404  1.00  0.00    -0.348 OA
ATOM     44  C   UNL     1     -48.828  32.641  26.018  1.00  0.00     0.088 C 
ATOM     45  H   UNL     1     -47.860  34.385  25.158  1.00  0.00     0.067 H 
ATOM     46  C   UNL     1     -48.167  31.783  23.922  1.00  0.00     0.138 C 
ATOM     47  C   UNL     1     -49.414  32.142  24.718  1.00  0.00     0.022 C 
ATOM     48  H   UNL     1     -48.550  31.791  26.654  1.00  0.00     0.063 H 
ATOM     49  H   UNL     1     -48.296  31.972  22.850  1.00  0.00     0.085 H 
ATOM     50  H   UNL     1     -50.123  31.321  24.862  1.00  0.00     0.034 H 
ATOM     51  H   UNL     1     -49.960  32.952  24.219  1.00  0.00     0.034 H 
BRANCH  44  52
ATOM     52  O   UNL     1     -49.733  33.457  26.740  1.00  0.00    -0.390 OA
ATOM     53  H   UNL     1     -49.487  34.391  26.615  1.00  0.00     0.211 HD
ENDBRANCH  44  52
BRANCH  46  54
ATOM     54  N   UNL     1     -47.783  30.381  24.062  1.00  0.00    -0.305 N 
ATOM     55  C   UNL     1     -48.380  29.429  24.844  1.00  0.00     0.019 A 
ATOM     56  C   UNL     1     -46.725  29.817  23.388  1.00  0.00     0.148 A 
ATOM     57  C   UNL     1     -47.724  28.230  24.635  1.00  0.00     0.033 A 
ATOM     58  H   UNL     1     -49.224  29.659  25.481  1.00  0.00     0.083 H 
ATOM     59  C   UNL     1     -46.640  28.473  23.742  1.00  0.00     0.071 A 
ATOM     60  N   UNL     1     -45.921  30.475  22.535  1.00  0.00    -0.218 NA
ATOM     61  C   UNL     1     -45.572  27.755  23.178  1.00  0.00     0.137 A 
ATOM     62  C   UNL     1     -44.963  29.677  22.042  1.00  0.00     0.120 A 
ATOM     63  N   UNL     1     -44.743  28.380  22.318  1.00  0.00    -0.219 NA
ATOM     64  H   UNL     1     -44.275  30.135  21.339  1.00  0.00     0.106 H 
BRANCH  57  65
ATOM     65  C   UNL     1     -48.093  26.956  25.245  1.00  0.00     0.095 A 
ATOM     66  C   UNL     1     -49.403  26.435  25.317  1.00  0.00    -0.016 A 
ATOM     67  N   UNL     1     -47.209  26.169  25.867  1.00  0.00    -0.173 NA
ATOM     68  C   UNL     1     -49.275  25.252  26.009  1.00  0.00     0.025 A 
ATOM     69  H   UNL     1     -50.316  26.864  24.930  1.00  0.00     0.066 H 
ATOM     70  N   UNL     1     -47.952  25.143  26.318  1.00  0.00    -0.275 N 
ATOM     71  H   UNL     1     -50.000  24.509  26.308  1.00  0.00     0.084 H 
BRANCH  70  72
ATOM     72  C   UNL     1     -47.316  24.081  27.059  1.00  0.00     0.030 C 
ATOM     73  H   UNL     1     -46.943  24.492  28.001  1.00  0.00     0.048 H 
ATOM     74  H   UNL     1     -46.487  23.676  26.474  1.00  0.00     0.048 H 
ATOM     75  H   UNL     1     -48.057  23.300  27.247  1.00  0.00     0.048 H 
ENDBRANCH  70  72
ENDBRANCH  57  65
BRANCH  61  76
ATOM     76  N   UNL     1     -45.264  26.431  23.473  1.00  0.00    -0.383 N 
ATOM     77  H   UNL     1     -44.308  26.181  23.247  1.00  0.00     0.158 HD
ATOM     78  H   UNL     1     -45.973  25.823  23.080  1.00  0.00     0.158 HD
ENDBRANCH  61  76
ENDBRANCH  46  54
ENDBRANCH   1  42
TORSDOF 14
ENDMDL
MODEL 3
REMARK VINA RESULT:      -9.1      2.345      3.515
REMARK SMILES CCc1cc(N(C)CC2CC2)c2ccc(OC[C@H]3O[C@@H](n4cc(-c5ccn(C)n5)c5c(N)ncnc54)C[C@@H]3O)cc2n1
REMARK SMILES IDX 17 1 16 4 15 5 3 6 4 7 42 8 5 9 41 11 12 12 40 13 13 14
REMARK SMILES IDX 14 16 2 19 1 22 6 26 7 27 8 31 9 34 10 35 11 36 18 42 19 43
REMARK SMILES IDX 38 44 20 46 37 47 39 52 21 54 22 55 36 56 23 57 30 59 35 60
REMARK SMILES IDX 31 61 34 62 33 63 24 65 25 66 29 67 26 68 27 70 28 72 32 76
REMARK H PARENT 17 2 17 3 4 10 40 15 13 17 14 18 2 20 2 21 1 23 1 24 1 25 7 28
REMARK H PARENT 7 29 7 30 8 32 8 33 9 37 10 38 10 39 11 40 11 41 18 45 38 48
REMARK H PARENT 20 49 37 50 37 51 39 53 22 58 34 64 25 69 26 71 28 73 28 74
REMARK H PARENT 28 75 32 77 32 78
REMARK Flexibility Score: inf
ROOT
ATOM      1  C   UNL     1     -47.135  35.104  27.975  1.00  0.00     0.117 C 
ATOM      2  H   UNL     1     -47.069  34.073  28.340  1.00  0.00     0.073 H 
ATOM      3  H   UNL     1     -48.050  35.585  28.345  1.00  0.00     0.073 H 
ENDROOT
BRANCH   1   4
ATOM      4  O   UNL     1     -47.146  35.101  26.543  1.00  0.00    -0.491 OA
BRANCH   4   5
ATOM      5  C   UNL     1     -47.401  33.909  25.923  1.00  0.00     0.121 A 
ATOM      6  C   UNL     1     -46.383  30.296  23.004  1.00  0.00     0.043 A 
ATOM      7  C   UNL     1     -47.582  29.648  23.263  1.00  0.00    -0.016 A 
ATOM      8  N   UNL     1     -46.053  31.477  23.574  1.00  0.00    -0.253 NA
ATOM      9  C   UNL     1     -48.494  30.224  24.153  1.00  0.00     0.048 A 
ATOM     10  H   UNL     1     -47.799  28.701  22.781  1.00  0.00     0.066 H 
ATOM     11  C   UNL     1     -46.916  32.042  24.436  1.00  0.00     0.076 A 
ATOM     12  C   UNL     1     -48.155  31.457  24.767  1.00  0.00     0.024 A 
ATOM     13  C   UNL     1     -46.563  33.253  25.020  1.00  0.00     0.007 A 
ATOM     14  C   UNL     1     -49.001  32.122  25.678  1.00  0.00    -0.047 A 
ATOM     15  H   UNL     1     -45.600  33.669  24.740  1.00  0.00     0.069 H 
ATOM     16  C   UNL     1     -48.625  33.336  26.250  1.00  0.00    -0.019 A 
ATOM     17  H   UNL     1     -49.963  31.688  25.941  1.00  0.00     0.063 H 
ATOM     18  H   UNL     1     -49.289  33.832  26.952  1.00  0.00     0.066 H 
BRANCH   6  19
ATOM     19  C   UNL     1     -45.393  29.713  22.030  1.00  0.00    -0.013 C 
ATOM     20  H   UNL     1     -45.931  29.330  21.154  1.00  0.00     0.033 H 
ATOM     21  H   UNL     1     -44.722  30.499  21.665  1.00  0.00     0.033 H 
BRANCH  19  22
ATOM     22  C   UNL     1     -44.588  28.588  22.660  1.00  0.00    -0.060 C 
ATOM     23  H   UNL     1     -44.390  27.789  21.936  1.00  0.00     0.023 H 
ATOM     24  H   UNL     1     -45.117  28.146  23.510  1.00  0.00     0.023 H 
ATOM     25  H   UNL     1     -43.626  28.966  23.020  1.00  0.00     0.023 H 
ENDBRANCH  19  22
ENDBRANCH   6  19
BRANCH   9  26
ATOM     26  N   UNL     1     -49.732  29.598  24.462  1.00  0.00    -0.374 N 
BRANCH  26  27
ATOM     27  C   UNL     1     -49.522  28.204  24.865  1.00  0.00     0.006 C 
ATOM     28  H   UNL     1     -49.424  28.104  25.952  1.00  0.00     0.046 H 
ATOM     29  H   UNL     1     -50.342  27.564  24.520  1.00  0.00     0.046 H 
ATOM     30  H   UNL     1     -48.605  27.820  24.407  1.00  0.00     0.046 H 
ENDBRANCH  26  27
BRANCH  26  31
ATOM     31  C   UNL     1     -50.786  29.783  23.453  1.00  0.00     0.020 C 
ATOM     32  H   UNL     1     -50.474  30.573  22.758  1.00  0.00     0.050 H 
ATOM     33  H   UNL     1     -51.729  30.123  23.899  1.00  0.00     0.050 H 
BRANCH  31  34
ATOM     34  C   UNL     1     -51.010  28.513  22.681  1.00  0.00    -0.024 C 
ATOM     35  C   UNL     1     -51.978  28.474  21.523  1.00  0.00    -0.048 C 
ATOM     36  C   UNL     1     -50.498  28.375  21.269  1.00  0.00    -0.048 C 
ATOM     37  H   UNL     1     -50.963  27.637  23.319  1.00  0.00     0.032 H 
ATOM     38  H   UNL     1     -52.573  27.578  21.393  1.00  0.00     0.027 H 
ATOM     39  H   UNL     1     -52.480  29.387  21.227  1.00  0.00     0.027 H 
ATOM     40  H   UNL     1     -50.088  27.414  20.978  1.00  0.00     0.027 H 
ATOM     41  H   UNL     1     -49.994  29.224  20.822  1.00  0.00     0.027 H 
ENDBRANCH  31  34
ENDBRANCH  26  31
ENDBRANCH   9  26
ENDBRANCH   4   5
ENDBRANCH   1   4
BRANCH   1  42
ATOM     42  C   UNL     1     -45.911  35.892  28.446  1.00  0.00     0.120 C 
ATOM     43  O   UNL     1     -45.529  36.893  27.479  1.00  0.00    -0.348 OA
ATOM     44  C   UNL     1     -46.167  36.650  29.742  1.00  0.00     0.088 C 
ATOM     45  H   UNL     1     -45.061  35.207  28.553  1.00  0.00     0.067 H 
ATOM     46  C   UNL     1     -45.112  38.080  28.190  1.00  0.00     0.138 C 
ATOM     47  C   UNL     1     -45.116  37.734  29.672  1.00  0.00     0.022 C 
ATOM     48  H   UNL     1     -47.168  37.099  29.746  1.00  0.00     0.063 H 
ATOM     49  H   UNL     1     -44.113  38.357  27.835  1.00  0.00     0.085 H 
ATOM     50  H   UNL     1     -45.329  38.571  30.342  1.00  0.00     0.034 H 
ATOM     51  H   UNL     1     -44.141  37.328  29.967  1.00  0.00     0.034 H 
BRANCH  44  52
ATOM     52  O   UNL     1     -46.036  35.846  30.901  1.00  0.00    -0.390 OA
ATOM     53  H   UNL     1     -45.991  36.423  31.684  1.00  0.00     0.211 HD
ENDBRANCH  44  52
BRANCH  46  54
ATOM     54  N   UNL     1     -46.002  39.191  27.860  1.00  0.00    -0.305 N 
ATOM     55  C   UNL     1     -47.296  39.370  28.268  1.00  0.00     0.019 A 
ATOM     56  C   UNL     1     -45.626  40.248  27.064  1.00  0.00     0.148 A 
ATOM     57  C   UNL     1     -47.741  40.577  27.763  1.00  0.00     0.033 A 
ATOM     58  H   UNL     1     -47.806  38.644  28.888  1.00  0.00     0.083 H 
ATOM     59  C   UNL     1     -46.701  41.126  26.958  1.00  0.00     0.071 A 
ATOM     60  N   UNL     1     -44.417  40.386  26.493  1.00  0.00    -0.218 NA
ATOM     61  C   UNL     1     -46.502  42.244  26.130  1.00  0.00     0.137 A 
ATOM     62  C   UNL     1     -44.342  41.503  25.756  1.00  0.00     0.120 A 
ATOM     63  N   UNL     1     -45.303  42.419  25.540  1.00  0.00    -0.219 NA
ATOM     64  H   UNL     1     -43.392  41.690  25.266  1.00  0.00     0.106 H 
BRANCH  57  65
ATOM     65  C   UNL     1     -49.056  41.158  28.019  1.00  0.00     0.095 A 
ATOM     66  C   UNL     1     -50.290  40.494  27.846  1.00  0.00    -0.016 A 
ATOM     67  N   UNL     1     -49.225  42.431  28.391  1.00  0.00    -0.173 NA
ATOM     68  C   UNL     1     -51.245  41.434  28.159  1.00  0.00     0.025 A 
ATOM     69  H   UNL     1     -50.462  39.475  27.527  1.00  0.00     0.066 H 
ATOM     70  N   UNL     1     -50.560  42.571  28.471  1.00  0.00    -0.275 N 
ATOM     71  H   UNL     1     -52.324  41.390  28.172  1.00  0.00     0.084 H 
BRANCH  70  72
ATOM     72  C   UNL     1     -51.116  43.847  28.849  1.00  0.00     0.030 C 
ATOM     73  H   UNL     1     -51.920  43.674  29.568  1.00  0.00     0.048 H 
ATOM     74  H   UNL     1     -51.509  44.348  27.961  1.00  0.00     0.048 H 
ATOM     75  H   UNL     1     -50.322  44.450  29.296  1.00  0.00     0.048 H 
ENDBRANCH  70  72
ENDBRANCH  57  65
BRANCH  61  76
ATOM     76  N   UNL     1     -47.477  43.188  25.827  1.00  0.00    -0.383 N 
ATOM     77  H   UNL     1     -47.678  43.254  24.835  1.00  0.00     0.158 HD
ATOM     78  H   UNL     1     -47.251  44.067  26.279  1.00  0.00     0.158 HD
ENDBRANCH  61  76
ENDBRANCH  46  54
ENDBRANCH   1  42
TORSDOF 14
ENDMDL
MODEL 4
REMARK VINA RESULT:      -8.9      2.505     12.041
REMARK SMILES CCc1cc(N(C)CC2CC2)c2ccc(OC[C@H]3O[C@@H](n4cc(-c5ccn(C)n5)c5c(N)ncnc54)C[C@@H]3O)cc2n1
REMARK SMILES IDX 17 1 16 4 15 5 3 6 4 7 42 8 5 9 41 11 12 12 40 13 13 14
REMARK SMILES IDX 14 16 2 19 1 22 6 26 7 27 8 31 9 34 10 35 11 36 18 42 19 43
REMARK SMILES IDX 38 44 20 46 37 47 39 52 21 54 22 55 36 56 23 57 30 59 35 60
REMARK SMILES IDX 31 61 34 62 33 63 24 65 25 66 29 67 26 68 27 70 28 72 32 76
REMARK H PARENT 17 2 17 3 4 10 40 15 13 17 14 18 2 20 2 21 1 23 1 24 1 25 7 28
REMARK H PARENT 7 29 7 30 8 32 8 33 9 37 10 38 10 39 11 40 11 41 18 45 38 48
REMARK H PARENT 20 49 37 50 37 51 39 53 22 58 34 64 25 69 26 71 28 73 28 74
REMARK H PARENT 28 75 32 77 32 78
REMARK Flexibility Score: inf
ROOT
ATOM      1  C   UNL     1     -49.121  32.967  26.291  1.00  0.00     0.117 C 
ATOM      2  H   UNL     1     -49.746  33.814  26.594  1.00  0.00     0.073 H 
ATOM      3  H   UNL     1     -49.457  32.045  26.783  1.00  0.00     0.073 H 
ENDROOT
BRANCH   1   4
ATOM      4  O   UNL     1     -47.759  33.229  26.652  1.00  0.00    -0.491 OA
BRANCH   4   5
ATOM      5  C   UNL     1     -47.458  34.495  27.071  1.00  0.00     0.121 A 
ATOM      6  C   UNL     1     -48.493  39.010  28.146  1.00  0.00     0.043 A 
ATOM      7  C   UNL     1     -47.180  39.313  28.477  1.00  0.00    -0.016 A 
ATOM      8  N   UNL     1     -48.875  37.784  27.723  1.00  0.00    -0.253 NA
ATOM      9  C   UNL     1     -46.202  38.318  28.380  1.00  0.00     0.048 A 
ATOM     10  H   UNL     1     -46.925  40.312  28.812  1.00  0.00     0.066 H 
ATOM     11  C   UNL     1     -47.948  36.814  27.630  1.00  0.00     0.076 A 
ATOM     12  C   UNL     1     -46.592  37.025  27.949  1.00  0.00     0.024 A 
ATOM     13  C   UNL     1     -48.355  35.556  27.199  1.00  0.00     0.007 A 
ATOM     14  C   UNL     1     -45.686  35.951  27.817  1.00  0.00    -0.047 A 
ATOM     15  H   UNL     1     -49.408  35.436  26.966  1.00  0.00     0.069 H 
ATOM     16  C   UNL     1     -46.118  34.699  27.384  1.00  0.00    -0.019 A 
ATOM     17  H   UNL     1     -44.635  36.096  28.053  1.00  0.00     0.063 H 
ATOM     18  H   UNL     1     -45.406  33.884  27.290  1.00  0.00     0.066 H 
BRANCH   6  19
ATOM     19  C   UNL     1     -49.563  40.067  28.216  1.00  0.00    -0.013 C 
ATOM     20  H   UNL     1     -49.696  40.513  27.222  1.00  0.00     0.033 H 
ATOM     21  H   UNL     1     -50.523  39.610  28.483  1.00  0.00     0.033 H 
BRANCH  19  22
ATOM     22  C   UNL     1     -49.207  41.157  29.214  1.00  0.00    -0.060 C 
ATOM     23  H   UNL     1     -48.825  42.050  28.707  1.00  0.00     0.023 H 
ATOM     24  H   UNL     1     -48.440  40.818  29.918  1.00  0.00     0.023 H 
ATOM     25  H   UNL     1     -50.091  41.447  29.791  1.00  0.00     0.023 H 
ENDBRANCH  19  22
ENDBRANCH   6  19
BRANCH   9  26
ATOM     26  N   UNL     1     -44.845  38.572  28.716  1.00  0.00    -0.374 N 
BRANCH  26  27
ATOM     27  C   UNL     1     -44.557  38.130  30.084  1.00  0.00     0.006 C 
ATOM     28  H   UNL     1     -44.940  37.120  30.276  1.00  0.00     0.046 H 
ATOM     29  H   UNL     1     -43.481  38.148  30.289  1.00  0.00     0.046 H 
ATOM     30  H   UNL     1     -45.029  38.811  30.800  1.00  0.00     0.046 H 
ENDBRANCH  26  27
BRANCH  26  31
ATOM     31  C   UNL     1     -44.377  39.933  28.410  1.00  0.00     0.020 C 
ATOM     32  H   UNL     1     -43.494  40.148  29.025  1.00  0.00     0.050 H 
ATOM     33  H   UNL     1     -45.123  40.694  28.667  1.00  0.00     0.050 H 
BRANCH  31  34
ATOM     34  C   UNL     1     -44.001  40.050  26.959  1.00  0.00    -0.024 C 
ATOM     35  C   UNL     1     -44.796  40.929  26.024  1.00  0.00    -0.048 C 
ATOM     36  C   UNL     1     -43.402  41.326  26.424  1.00  0.00    -0.048 C 
ATOM     37  H   UNL     1     -43.625  39.114  26.560  1.00  0.00     0.032 H 
ATOM     38  H   UNL     1     -44.951  40.578  25.010  1.00  0.00     0.027 H 
ATOM     39  H   UNL     1     -45.620  41.510  26.422  1.00  0.00     0.027 H 
ATOM     40  H   UNL     1     -42.609  41.236  25.688  1.00  0.00     0.027 H 
ATOM     41  H   UNL     1     -43.278  42.159  27.106  1.00  0.00     0.027 H 
ENDBRANCH  31  34
ENDBRANCH  26  31
ENDBRANCH   9  26
ENDBRANCH   4   5
ENDBRANCH   1   4
BRANCH   1  42
ATOM     42  C   UNL     1     -49.192  32.797  24.772  1.00  0.00     0.120 C 
ATOM     43  O   UNL     1     -47.964  32.248  24.248  1.00  0.00    -0.348 OA
ATOM     44  C   UNL     1     -50.289  31.832  24.343  1.00  0.00     0.088 C 
ATOM     45  H   UNL     1     -49.329  33.781  24.306  1.00  0.00     0.067 H 
ATOM     46  C   UNL     1     -48.292  31.315  23.196  1.00  0.00     0.138 C 
ATOM     47  C   UNL     1     -49.797  31.401  22.980  1.00  0.00     0.022 C 
ATOM     48  H   UNL     1     -50.338  30.966  25.014  1.00  0.00     0.063 H 
ATOM     49  H   UNL     1     -47.732  31.600  22.299  1.00  0.00     0.085 H 
ATOM     50  H   UNL     1     -50.268  30.477  22.634  1.00  0.00     0.034 H 
ATOM     51  H   UNL     1     -50.027  32.175  22.237  1.00  0.00     0.034 H 
BRANCH  44  52
ATOM     52  O   UNL     1     -51.574  32.426  24.289  1.00  0.00    -0.390 OA
ATOM     53  H   UNL     1     -52.216  31.766  23.973  1.00  0.00     0.211 HD
ENDBRANCH  44  52
BRANCH  46  54
ATOM     54  N   UNL     1     -47.844  29.975  23.568  1.00  0.00    -0.305 N 
ATOM     55  C   UNL     1     -48.472  29.089  24.401  1.00  0.00     0.019 A 
ATOM     56  C   UNL     1     -46.682  29.411  23.097  1.00  0.00     0.148 A 
ATOM     57  C   UNL     1     -47.725  27.926  24.431  1.00  0.00     0.033 A 
ATOM     58  H   UNL     1     -49.398  29.334  24.904  1.00  0.00     0.083 H 
ATOM     59  C   UNL     1     -46.559  28.133  23.638  1.00  0.00     0.071 A 
ATOM     60  N   UNL     1     -45.822  30.013  22.257  1.00  0.00    -0.218 NA
ATOM     61  C   UNL     1     -45.390  27.431  23.298  1.00  0.00     0.137 A 
ATOM     62  C   UNL     1     -44.767  29.232  21.985  1.00  0.00     0.120 A 
ATOM     63  N   UNL     1     -44.504  28.001  22.457  1.00  0.00    -0.219 NA
ATOM     64  H   UNL     1     -44.028  29.646  21.306  1.00  0.00     0.106 H 
BRANCH  57  65
ATOM     65  C   UNL     1     -48.088  26.716  25.164  1.00  0.00     0.095 A 
ATOM     66  C   UNL     1     -49.401  26.227  25.334  1.00  0.00    -0.016 A 
ATOM     67  N   UNL     1     -47.190  25.970  25.817  1.00  0.00    -0.173 NA
ATOM     68  C   UNL     1     -49.261  25.107  26.120  1.00  0.00     0.025 A 
ATOM     69  H   UNL     1     -50.323  26.638  24.947  1.00  0.00     0.066 H 
ATOM     70  N   UNL     1     -47.928  25.001  26.386  1.00  0.00    -0.275 N 
ATOM     71  H   UNL     1     -49.984  24.405  26.512  1.00  0.00     0.084 H 
BRANCH  70  72
ATOM     72  C   UNL     1     -47.277  23.996  27.191  1.00  0.00     0.030 C 
ATOM     73  H   UNL     1     -47.303  24.320  28.234  1.00  0.00     0.048 H 
ATOM     74  H   UNL     1     -46.243  23.880  26.860  1.00  0.00     0.048 H 
ATOM     75  H   UNL     1     -47.817  23.053  27.067  1.00  0.00     0.048 H 
ENDBRANCH  70  72
ENDBRANCH  57  65
BRANCH  61  76
ATOM     76  N   UNL     1     -45.041  26.183  23.802  1.00  0.00    -0.383 N 
ATOM     77  H   UNL     1     -45.715  25.813  24.462  1.00  0.00     0.158 HD
ATOM     78  H   UNL     1     -44.083  26.207  24.133  1.00  0.00     0.158 HD
ENDBRANCH  61  76
ENDBRANCH  46  54
ENDBRANCH   1  42
TORSDOF 14
ENDMDL
MODEL 5
REMARK VINA RESULT:      -8.8      1.570      2.251
REMARK SMILES CCc1cc(N(C)CC2CC2)c2ccc(OC[C@H]3O[C@@H](n4cc(-c5ccn(C)n5)c5c(N)ncnc54)C[C@@H]3O)cc2n1
REMARK SMILES IDX 17 1 16 4 15 5 3 6 4 7 42 8 5 9 41 11 12 12 40 13 13 14
REMARK SMILES IDX 14 16 2 19 1 22 6 26 7 27 8 31 9 34 10 35 11 36 18 42 19 43
REMARK SMILES IDX 38 44 20 46 37 47 39 52 21 54 22 55 36 56 23 57 30 59 35 60
REMARK SMILES IDX 31 61 34 62 33 63 24 65 25 66 29 67 26 68 27 70 28 72 32 76
REMARK H PARENT 17 2 17 3 4 10 40 15 13 17 14 18 2 20 2 21 1 23 1 24 1 25 7 28
REMARK H PARENT 7 29 7 30 8 32 8 33 9 37 10 38 10 39 11 40 11 41 18 45 38 48
REMARK H PARENT 20 49 37 50 37 51 39 53 22 58 34 64 25 69 26 71 28 73 28 74
REMARK H PARENT 28 75 32 77 32 78
REMARK Flexibility Score: inf
ROOT
ATOM      1  C   UNL     1     -45.971  34.391  27.268  1.00  0.00     0.117 C 
ATOM      2  H   UNL     1     -46.064  34.660  26.210  1.00  0.00     0.073 H 
ATOM      3  H   UNL     1     -44.953  34.587  27.628  1.00  0.00     0.073 H 
ENDROOT
BRANCH   1   4
ATOM      4  O   UNL     1     -46.272  32.999  27.432  1.00  0.00    -0.491 OA
BRANCH   4   5
ATOM      5  C   UNL     1     -46.733  32.327  26.334  1.00  0.00     0.121 A 
ATOM      6  C   UNL     1     -46.635  31.017  21.764  1.00  0.00     0.043 A 
ATOM      7  C   UNL     1     -47.773  30.232  21.885  1.00  0.00    -0.016 A 
ATOM      8  N   UNL     1     -46.115  31.714  22.799  1.00  0.00    -0.253 NA
ATOM      9  C   UNL     1     -48.415  30.143  23.124  1.00  0.00     0.048 A 
ATOM     10  H   UNL     1     -48.150  29.692  21.024  1.00  0.00     0.066 H 
ATOM     11  C   UNL     1     -46.717  31.634  23.999  1.00  0.00     0.076 A 
ATOM     12  C   UNL     1     -47.874  30.860  24.221  1.00  0.00     0.024 A 
ATOM     13  C   UNL     1     -46.169  32.351  25.057  1.00  0.00     0.007 A 
ATOM     14  C   UNL     1     -48.442  30.838  25.512  1.00  0.00    -0.047 A 
ATOM     15  H   UNL     1     -45.278  32.933  24.845  1.00  0.00     0.069 H 
ATOM     16  C   UNL     1     -47.874  31.565  26.556  1.00  0.00    -0.019 A 
ATOM     17  H   UNL     1     -49.337  30.251  25.700  1.00  0.00     0.063 H 
ATOM     18  H   UNL     1     -48.325  31.535  27.544  1.00  0.00     0.066 H 
BRANCH   6  19
ATOM     19  C   UNL     1     -45.937  31.153  20.436  1.00  0.00    -0.013 C 
ATOM     20  H   UNL     1     -44.938  31.576  20.595  1.00  0.00     0.033 H 
ATOM     21  H   UNL     1     -45.789  30.162  19.990  1.00  0.00     0.033 H 
BRANCH  19  22
ATOM     22  C   UNL     1     -46.718  32.045  19.484  1.00  0.00    -0.060 C 
ATOM     23  H   UNL     1     -46.050  32.550  18.778  1.00  0.00     0.023 H 
ATOM     24  H   UNL     1     -47.277  32.814  20.026  1.00  0.00     0.023 H 
ATOM     25  H   UNL     1     -47.433  31.449  18.907  1.00  0.00     0.023 H 
ENDBRANCH  19  22
ENDBRANCH   6  19
BRANCH   9  26
ATOM     26  N   UNL     1     -49.577  29.346  23.306  1.00  0.00    -0.374 N 
BRANCH  26  27
ATOM     27  C   UNL     1     -49.232  28.052  23.903  1.00  0.00     0.006 C 
ATOM     28  H   UNL     1     -49.330  27.231  23.183  1.00  0.00     0.046 H 
ATOM     29  H   UNL     1     -48.211  28.058  24.300  1.00  0.00     0.046 H 
ATOM     30  H   UNL     1     -49.901  27.843  24.745  1.00  0.00     0.046 H 
ENDBRANCH  26  27
BRANCH  26  31
ATOM     31  C   UNL     1     -50.452  29.252  22.126  1.00  0.00     0.020 C 
ATOM     32  H   UNL     1     -50.054  29.905  21.339  1.00  0.00     0.050 H 
ATOM     33  H   UNL     1     -51.468  29.607  22.336  1.00  0.00     0.050 H 
BRANCH  31  34
ATOM     34  C   UNL     1     -50.498  27.839  21.611  1.00  0.00    -0.024 C 
ATOM     35  C   UNL     1     -51.800  27.080  21.555  1.00  0.00    -0.048 C 
ATOM     36  C   UNL     1     -51.139  27.529  20.281  1.00  0.00    -0.048 C 
ATOM     37  H   UNL     1     -49.607  27.281  21.880  1.00  0.00     0.032 H 
ATOM     38  H   UNL     1     -51.778  26.022  21.789  1.00  0.00     0.027 H 
ATOM     39  H   UNL     1     -52.714  27.580  21.853  1.00  0.00     0.027 H 
ATOM     40  H   UNL     1     -50.659  26.783  19.658  1.00  0.00     0.027 H 
ATOM     41  H   UNL     1     -51.588  28.345  19.728  1.00  0.00     0.027 H 
ENDBRANCH  31  34
ENDBRANCH  26  31
ENDBRANCH   9  26
ENDBRANCH   4   5
ENDBRANCH   1   4
BRANCH   1  42
ATOM     42  C   UNL     1     -46.975  35.200  28.091  1.00  0.00     0.120 C 
ATOM     43  O   UNL     1     -46.304  36.094  29.004  1.00  0.00    -0.348 OA
ATOM     44  C   UNL     1     -47.860  36.087  27.225  1.00  0.00     0.088 C 
ATOM     45  H   UNL     1     -47.580  34.515  28.697  1.00  0.00     0.067 H 
ATOM     46  C   UNL     1     -47.037  37.338  29.049  1.00  0.00     0.138 C 
ATOM     47  C   UNL     1     -48.297  37.141  28.216  1.00  0.00     0.022 C 
ATOM     48  H   UNL     1     -47.283  36.551  26.416  1.00  0.00     0.063 H 
ATOM     49  H   UNL     1     -47.268  37.561  30.096  1.00  0.00     0.085 H 
ATOM     50  H   UNL     1     -48.677  38.044  27.731  1.00  0.00     0.034 H 
ATOM     51  H   UNL     1     -49.106  36.750  28.845  1.00  0.00     0.034 H 
BRANCH  44  52
ATOM     52  O   UNL     1     -48.957  35.400  26.650  1.00  0.00    -0.390 OA
ATOM     53  H   UNL     1     -49.325  34.783  27.307  1.00  0.00     0.211 HD
ENDBRANCH  44  52
BRANCH  46  54
ATOM     54  N   UNL     1     -46.194  38.426  28.559  1.00  0.00    -0.305 N 
ATOM     55  C   UNL     1     -46.429  39.243  27.486  1.00  0.00     0.019 A 
ATOM     56  C   UNL     1     -45.005  38.783  29.150  1.00  0.00     0.148 A 
ATOM     57  C   UNL     1     -45.399  40.163  27.414  1.00  0.00     0.033 A 
ATOM     58  H   UNL     1     -47.302  39.126  26.858  1.00  0.00     0.083 H 
ATOM     59  C   UNL     1     -44.462  39.853  28.444  1.00  0.00     0.071 A 
ATOM     60  N   UNL     1     -44.474  38.182  30.229  1.00  0.00    -0.218 NA
ATOM     61  C   UNL     1     -43.211  40.312  28.887  1.00  0.00     0.137 A 
ATOM     62  C   UNL     1     -43.298  38.728  30.572  1.00  0.00     0.120 A 
ATOM     63  N   UNL     1     -42.645  39.736  29.967  1.00  0.00    -0.219 NA
ATOM     64  H   UNL     1     -42.808  38.300  31.441  1.00  0.00     0.106 H 
BRANCH  57  65
ATOM     65  C   UNL     1     -45.308  41.244  26.438  1.00  0.00     0.095 A 
ATOM     66  C   UNL     1     -44.361  41.326  25.395  1.00  0.00    -0.016 A 
ATOM     67  N   UNL     1     -46.098  42.322  26.478  1.00  0.00    -0.173 NA
ATOM     68  C   UNL     1     -44.627  42.522  24.768  1.00  0.00     0.025 A 
ATOM     69  H   UNL     1     -43.584  40.618  25.140  1.00  0.00     0.066 H 
ATOM     70  N   UNL     1     -45.665  43.079  25.455  1.00  0.00    -0.275 N 
ATOM     71  H   UNL     1     -44.165  43.012  23.924  1.00  0.00     0.084 H 
BRANCH  70  72
ATOM     72  C   UNL     1     -46.297  44.349  25.196  1.00  0.00     0.030 C 
ATOM     73  H   UNL     1     -47.259  44.165  24.712  1.00  0.00     0.048 H 
ATOM     74  H   UNL     1     -45.658  44.947  24.543  1.00  0.00     0.048 H 
ATOM     75  H   UNL     1     -46.439  44.863  26.150  1.00  0.00     0.048 H 
ENDBRANCH  70  72
ENDBRANCH  57  65
BRANCH  61  76
ATOM     76  N   UNL     1     -42.466  41.308  28.266  1.00  0.00    -0.383 N 
ATOM     77  H   UNL     1     -42.692  42.241  28.591  1.00  0.00     0.158 HD
ATOM     78  H   UNL     1     -42.503  41.182  27.261  1.00  0.00     0.158 HD
ENDBRANCH  61  76
ENDBRANCH  46  54
ENDBRANCH   1  42
TORSDOF 14
ENDMDL
MODEL 6
REMARK VINA RESULT:      -8.8      2.210     12.125
REMARK SMILES CCc1cc(N(C)CC2CC2)c2ccc(OC[C@H]3O[C@@H](n4cc(-c5ccn(C)n5)c5c(N)ncnc54)C[C@@H]3O)cc2n1
REMARK SMILES IDX 17 1 16 4 15 5 3 6 4 7 42 8 5 9 41 11 12 12 40 13 13 14
REMARK SMILES IDX 14 16 2 19 1 22 6 26 7 27 8 31 9 34 10 35 11 36 18 42 19 43
REMARK SMILES IDX 38 44 20 46 37 47 39 52 21 54 22 55 36 56 23 57 30 59 35 60
REMARK SMILES IDX 31 61 34 62 33 63 24 65 25 66 29 67 26 68 27 70 28 72 32 76
REMARK H PARENT 17 2 17 3 4 10 40 15 13 17 14 18 2 20 2 21 1 23 1 24 1 25 7 28
REMARK H PARENT 7 29 7 30 8 32 8 33 9 37 10 38 10 39 11 40 11 41 18 45 38 48
REMARK H PARENT 20 49 37 50 37 51 39 53 22 58 34 64 25 69 26 71 28 73 28 74
REMARK H PARENT 28 75 32 77 32 78
REMARK Flexibility Score: inf
ROOT
ATOM      1  C   UNL     1     -46.538  33.375  27.201  1.00  0.00     0.117 C 
ATOM      2  H   UNL     1     -46.546  32.361  27.618  1.00  0.00     0.073 H 
ATOM      3  H   UNL     1     -45.516  33.676  26.941  1.00  0.00     0.073 H 
ENDROOT
BRANCH   1   4
ATOM      4  O   UNL     1     -47.072  34.289  28.167  1.00  0.00    -0.491 OA
BRANCH   4   5
ATOM      5  C   UNL     1     -46.775  35.613  28.002  1.00  0.00     0.121 A 
ATOM      6  C   UNL     1     -47.868  40.205  27.425  1.00  0.00     0.043 A 
ATOM      7  C   UNL     1     -46.537  40.594  27.366  1.00  0.00    -0.016 A 
ATOM      8  N   UNL     1     -48.246  38.917  27.585  1.00  0.00    -0.253 NA
ATOM      9  C   UNL     1     -45.535  39.626  27.482  1.00  0.00     0.048 A 
ATOM     10  H   UNL     1     -46.286  41.641  27.237  1.00  0.00     0.066 H 
ATOM     11  C   UNL     1     -47.295  37.975  27.704  1.00  0.00     0.076 A 
ATOM     12  C   UNL     1     -45.918  38.272  27.662  1.00  0.00     0.024 A 
ATOM     13  C   UNL     1     -47.697  36.654  27.874  1.00  0.00     0.007 A 
ATOM     14  C   UNL     1     -44.989  37.219  27.790  1.00  0.00    -0.047 A 
ATOM     15  H   UNL     1     -48.766  36.468  27.903  1.00  0.00     0.069 H 
ATOM     16  C   UNL     1     -45.416  35.903  27.959  1.00  0.00    -0.019 A 
ATOM     17  H   UNL     1     -43.923  37.429  27.754  1.00  0.00     0.063 H 
ATOM     18  H   UNL     1     -44.685  35.105  28.058  1.00  0.00     0.066 H 
BRANCH   6  19
ATOM     19  C   UNL     1     -48.969  41.223  27.277  1.00  0.00    -0.013 C 
ATOM     20  H   UNL     1     -49.756  40.812  26.633  1.00  0.00     0.033 H 
ATOM     21  H   UNL     1     -49.432  41.414  28.252  1.00  0.00     0.033 H 
BRANCH  19  22
ATOM     22  C   UNL     1     -48.453  42.521  26.679  1.00  0.00    -0.060 C 
ATOM     23  H   UNL     1     -49.020  43.382  27.050  1.00  0.00     0.023 H 
ATOM     24  H   UNL     1     -48.529  42.515  25.587  1.00  0.00     0.023 H 
ATOM     25  H   UNL     1     -47.400  42.668  26.943  1.00  0.00     0.023 H 
ENDBRANCH  19  22
ENDBRANCH   6  19
BRANCH   9  26
ATOM     26  N   UNL     1     -44.157  39.970  27.438  1.00  0.00    -0.374 N 
BRANCH  26  27
ATOM     27  C   UNL     1     -43.660  40.296  28.778  1.00  0.00     0.006 C 
ATOM     28  H   UNL     1     -43.077  39.472  29.208  1.00  0.00     0.046 H 
ATOM     29  H   UNL     1     -43.042  41.201  28.763  1.00  0.00     0.046 H 
ATOM     30  H   UNL     1     -44.503  40.496  29.447  1.00  0.00     0.046 H 
ENDBRANCH  26  27
BRANCH  26  31
ATOM     31  C   UNL     1     -43.799  40.955  26.405  1.00  0.00     0.020 C 
ATOM     32  H   UNL     1     -44.719  41.423  26.031  1.00  0.00     0.050 H 
ATOM     33  H   UNL     1     -43.318  40.488  25.538  1.00  0.00     0.050 H 
BRANCH  31  34
ATOM     34  C   UNL     1     -42.906  42.022  26.977  1.00  0.00    -0.024 C 
ATOM     35  C   UNL     1     -42.168  42.977  26.072  1.00  0.00    -0.048 C 
ATOM     36  C   UNL     1     -43.311  43.474  26.913  1.00  0.00    -0.048 C 
ATOM     37  H   UNL     1     -42.391  41.684  27.870  1.00  0.00     0.032 H 
ATOM     38  H   UNL     1     -41.164  43.270  26.359  1.00  0.00     0.027 H 
ATOM     39  H   UNL     1     -42.321  42.911  25.001  1.00  0.00     0.027 H 
ATOM     40  H   UNL     1     -43.085  44.093  27.775  1.00  0.00     0.027 H 
ATOM     41  H   UNL     1     -44.243  43.724  26.421  1.00  0.00     0.027 H 
ENDBRANCH  31  34
ENDBRANCH  26  31
ENDBRANCH   9  26
ENDBRANCH   4   5
ENDBRANCH   1   4
BRANCH   1  42
ATOM     42  C   UNL     1     -47.423  33.421  25.954  1.00  0.00     0.120 C 
ATOM     43  O   UNL     1     -46.902  32.573  24.909  1.00  0.00    -0.348 OA
ATOM     44  C   UNL     1     -48.836  32.921  26.222  1.00  0.00     0.088 C 
ATOM     45  H   UNL     1     -47.437  34.445  25.560  1.00  0.00     0.067 H 
ATOM     46  C   UNL     1     -48.012  31.929  24.246  1.00  0.00     0.138 C 
ATOM     47  C   UNL     1     -49.285  32.521  24.836  1.00  0.00     0.022 C 
ATOM     48  H   UNL     1     -48.827  32.043  26.880  1.00  0.00     0.063 H 
ATOM     49  H   UNL     1     -47.928  32.124  23.171  1.00  0.00     0.085 H 
ATOM     50  H   UNL     1     -50.146  31.847  24.849  1.00  0.00     0.034 H 
ATOM     51  H   UNL     1     -49.584  33.411  24.268  1.00  0.00     0.034 H 
BRANCH  44  52
ATOM     52  O   UNL     1     -49.681  33.900  26.801  1.00  0.00    -0.390 OA
ATOM     53  H   UNL     1     -49.822  33.684  27.740  1.00  0.00     0.211 HD
ENDBRANCH  44  52
BRANCH  46  54
ATOM     54  N   UNL     1     -47.921  30.481  24.423  1.00  0.00    -0.305 N 
ATOM     55  C   UNL     1     -48.754  29.678  25.154  1.00  0.00     0.019 A 
ATOM     56  C   UNL     1     -46.940  29.711  23.843  1.00  0.00     0.148 A 
ATOM     57  C   UNL     1     -48.328  28.371  25.006  1.00  0.00     0.033 A 
ATOM     58  H   UNL     1     -49.588  30.079  25.717  1.00  0.00     0.083 H 
ATOM     59  C   UNL     1     -47.147  28.383  24.207  1.00  0.00     0.071 A 
ATOM     60  N   UNL     1     -45.956  30.185  23.060  1.00  0.00    -0.218 NA
ATOM     61  C   UNL     1     -46.196  27.461  23.738  1.00  0.00     0.137 A 
ATOM     62  C   UNL     1     -45.134  29.207  22.653  1.00  0.00     0.120 A 
ATOM     63  N   UNL     1     -45.194  27.897  22.950  1.00  0.00    -0.219 NA
ATOM     64  H   UNL     1     -44.314  29.509  22.009  1.00  0.00     0.106 H 
BRANCH  57  65
ATOM     65  C   UNL     1     -48.987  27.204  25.586  1.00  0.00     0.095 A 
ATOM     66  C   UNL     1     -48.352  25.990  25.921  1.00  0.00    -0.016 A 
ATOM     67  N   UNL     1     -50.306  27.152  25.801  1.00  0.00    -0.173 NA
ATOM     68  C   UNL     1     -49.361  25.179  26.386  1.00  0.00     0.025 A 
ATOM     69  H   UNL     1     -47.305  25.735  25.828  1.00  0.00     0.066 H 
ATOM     70  N   UNL     1     -50.505  25.915  26.288  1.00  0.00    -0.275 N 
ATOM     71  H   UNL     1     -49.360  24.163  26.753  1.00  0.00     0.084 H 
BRANCH  70  72
ATOM     72  C   UNL     1     -51.841  25.497  26.635  1.00  0.00     0.030 C 
ATOM     73  H   UNL     1     -52.360  25.204  25.719  1.00  0.00     0.048 H 
ATOM     74  H   UNL     1     -52.368  26.325  27.114  1.00  0.00     0.048 H 
ATOM     75  H   UNL     1     -51.770  24.651  27.324  1.00  0.00     0.048 H 
ENDBRANCH  70  72
ENDBRANCH  57  65
BRANCH  61  76
ATOM     76  N   UNL     1     -46.177  26.109  24.062  1.00  0.00    -0.383 N 
ATOM     77  H   UNL     1     -46.616  25.522  23.363  1.00  0.00     0.158 HD
ATOM     78  H   UNL     1     -46.518  25.982  25.008  1.00  0.00     0.158 HD
ENDBRANCH  61  76
ENDBRANCH  46  54
ENDBRANCH   1  42
TORSDOF 14
ENDMDL
MODEL 7
REMARK VINA RESULT:      -8.8      1.285      3.203
REMARK SMILES CCc1cc(N(C)CC2CC2)c2ccc(OC[C@H]3O[C@@H](n4cc(-c5ccn(C)n5)c5c(N)ncnc54)C[C@@H]3O)cc2n1
REMARK SMILES IDX 17 1 16 4 15 5 3 6 4 7 42 8 5 9 41 11 12 12 40 13 13 14
REMARK SMILES IDX 14 16 2 19 1 22 6 26 7 27 8 31 9 34 10 35 11 36 18 42 19 43
REMARK SMILES IDX 38 44 20 46 37 47 39 52 21 54 22 55 36 56 23 57 30 59 35 60
REMARK SMILES IDX 31 61 34 62 33 63 24 65 25 66 29 67 26 68 27 70 28 72 32 76
REMARK H PARENT 17 2 17 3 4 10 40 15 13 17 14 18 2 20 2 21 1 23 1 24 1 25 7 28
REMARK H PARENT 7 29 7 30 8 32 8 33 9 37 10 38 10 39 11 40 11 41 18 45 38 48
REMARK H PARENT 20 49 37 50 37 51 39 53 22 58 34 64 25 69 26 71 28 73 28 74
REMARK H PARENT 28 75 32 77 32 78
REMARK Flexibility Score: inf
ROOT
ATOM      1  C   UNL     1     -45.797  35.101  27.059  1.00  0.00     0.117 C 
ATOM      2  H   UNL     1     -45.196  35.795  26.460  1.00  0.00     0.073 H 
ATOM      3  H   UNL     1     -45.252  34.164  27.225  1.00  0.00     0.073 H 
ENDROOT
BRANCH   1   4
ATOM      4  O   UNL     1     -47.024  34.823  26.372  1.00  0.00    -0.491 OA
BRANCH   4   5
ATOM      5  C   UNL     1     -47.125  33.613  25.742  1.00  0.00     0.121 A 
ATOM      6  C   UNL     1     -48.629  29.123  25.308  1.00  0.00     0.043 A 
ATOM      7  C   UNL     1     -47.971  28.938  24.101  1.00  0.00    -0.016 A 
ATOM      8  N   UNL     1     -48.581  30.287  25.996  1.00  0.00    -0.253 NA
ATOM      9  C   UNL     1     -47.226  29.990  23.559  1.00  0.00     0.048 A 
ATOM     10  H   UNL     1     -48.042  27.985  23.589  1.00  0.00     0.066 H 
ATOM     11  C   UNL     1     -47.875  31.310  25.484  1.00  0.00     0.076 A 
ATOM     12  C   UNL     1     -47.176  31.219  24.264  1.00  0.00     0.024 A 
ATOM     13  C   UNL     1     -47.837  32.503  26.199  1.00  0.00     0.007 A 
ATOM     14  C   UNL     1     -46.457  32.342  23.805  1.00  0.00    -0.047 A 
ATOM     15  H   UNL     1     -48.389  32.532  27.132  1.00  0.00     0.069 H 
ATOM     16  C   UNL     1     -46.434  33.527  24.538  1.00  0.00    -0.019 A 
ATOM     17  H   UNL     1     -45.907  32.288  22.868  1.00  0.00     0.063 H 
ATOM     18  H   UNL     1     -45.875  34.382  24.168  1.00  0.00     0.066 H 
BRANCH   6  19
ATOM     19  C   UNL     1     -49.417  28.000  25.930  1.00  0.00    -0.013 C 
ATOM     20  H   UNL     1     -50.137  28.417  26.646  1.00  0.00     0.033 H 
ATOM     21  H   UNL     1     -50.005  27.486  25.160  1.00  0.00     0.033 H 
BRANCH  19  22
ATOM     22  C   UNL     1     -48.511  27.011  26.644  1.00  0.00    -0.060 C 
ATOM     23  H   UNL     1     -47.583  26.848  26.084  1.00  0.00     0.023 H 
ATOM     24  H   UNL     1     -49.001  26.040  26.770  1.00  0.00     0.023 H 
ATOM     25  H   UNL     1     -48.245  27.388  27.637  1.00  0.00     0.023 H 
ENDBRANCH  19  22
ENDBRANCH   6  19
BRANCH   9  26
ATOM     26  N   UNL     1     -46.540  29.857  22.321  1.00  0.00    -0.374 N 
BRANCH  26  27
ATOM     27  C   UNL     1     -45.097  29.719  22.539  1.00  0.00     0.006 C 
ATOM     28  H   UNL     1     -44.812  29.988  23.563  1.00  0.00     0.046 H 
ATOM     29  H   UNL     1     -44.761  28.697  22.332  1.00  0.00     0.046 H 
ATOM     30  H   UNL     1     -44.555  30.378  21.853  1.00  0.00     0.046 H 
ENDBRANCH  26  27
BRANCH  26  31
ATOM     31  C   UNL     1     -46.905  30.855  21.303  1.00  0.00     0.020 C 
ATOM     32  H   UNL     1     -46.332  30.651  20.389  1.00  0.00     0.050 H 
ATOM     33  H   UNL     1     -46.640  31.874  21.610  1.00  0.00     0.050 H 
BRANCH  31  34
ATOM     34  C   UNL     1     -48.373  30.779  20.987  1.00  0.00    -0.024 C 
ATOM     35  C   UNL     1     -48.918  31.356  19.703  1.00  0.00    -0.048 C 
ATOM     36  C   UNL     1     -48.875  29.865  19.897  1.00  0.00    -0.048 C 
ATOM     37  H   UNL     1     -48.985  30.881  21.877  1.00  0.00     0.032 H 
ATOM     38  H   UNL     1     -49.886  31.842  19.740  1.00  0.00     0.027 H 
ATOM     39  H   UNL     1     -48.229  31.791  18.989  1.00  0.00     0.027 H 
ATOM     40  H   UNL     1     -49.808  29.341  20.075  1.00  0.00     0.027 H 
ATOM     41  H   UNL     1     -48.148  29.292  19.334  1.00  0.00     0.027 H 
ENDBRANCH  31  34
ENDBRANCH  26  31
ENDBRANCH   9  26
ENDBRANCH   4   5
ENDBRANCH   1   4
BRANCH   1  42
ATOM     42  C   UNL     1     -46.135  35.748  28.403  1.00  0.00     0.120 C 
ATOM     43  O   UNL     1     -45.012  36.489  28.925  1.00  0.00    -0.348 OA
ATOM     44  C   UNL     1     -47.276  36.751  28.298  1.00  0.00     0.088 C 
ATOM     45  H   UNL     1     -46.369  34.962  29.132  1.00  0.00     0.067 H 
ATOM     46  C   UNL     1     -45.508  37.697  29.543  1.00  0.00     0.138 C 
ATOM     47  C   UNL     1     -47.028  37.620  29.510  1.00  0.00     0.022 C 
ATOM     48  H   UNL     1     -47.191  37.352  27.385  1.00  0.00     0.063 H 
ATOM     49  H   UNL     1     -45.121  37.741  30.567  1.00  0.00     0.085 H 
ATOM     50  H   UNL     1     -47.539  38.585  29.450  1.00  0.00     0.034 H 
ATOM     51  H   UNL     1     -47.399  37.118  30.412  1.00  0.00     0.034 H 
BRANCH  44  52
ATOM     52  O   UNL     1     -48.559  36.151  28.319  1.00  0.00    -0.390 OA
ATOM     53  H   UNL     1     -48.881  36.121  29.237  1.00  0.00     0.211 HD
ENDBRANCH  44  52
BRANCH  46  54
ATOM     54  N   UNL     1     -44.980  38.864  28.840  1.00  0.00    -0.305 N 
ATOM     55  C   UNL     1     -45.522  39.496  27.753  1.00  0.00     0.019 A 
ATOM     56  C   UNL     1     -43.820  39.504  29.206  1.00  0.00     0.148 A 
ATOM     57  C   UNL     1     -44.722  40.581  27.446  1.00  0.00     0.033 A 
ATOM     58  H   UNL     1     -46.431  39.146  27.281  1.00  0.00     0.083 H 
ATOM     59  C   UNL     1     -43.610  40.572  28.338  1.00  0.00     0.071 A 
ATOM     60  N   UNL     1     -43.034  39.140  30.235  1.00  0.00    -0.218 NA
ATOM     61  C   UNL     1     -42.430  41.308  28.541  1.00  0.00     0.137 A 
ATOM     62  C   UNL     1     -41.960  39.934  30.343  1.00  0.00     0.120 A 
ATOM     63  N   UNL     1     -41.616  40.974  29.562  1.00  0.00    -0.219 NA
ATOM     64  H   UNL     1     -41.278  39.708  31.156  1.00  0.00     0.106 H 
BRANCH  57  65
ATOM     65  C   UNL     1     -44.990  41.544  26.382  1.00  0.00     0.095 A 
ATOM     66  C   UNL     1     -46.211  42.223  26.183  1.00  0.00    -0.016 A 
ATOM     67  N   UNL     1     -44.098  41.835  25.429  1.00  0.00    -0.173 NA
ATOM     68  C   UNL     1     -46.015  42.980  25.051  1.00  0.00     0.025 A 
ATOM     69  H   UNL     1     -47.114  42.163  26.775  1.00  0.00     0.066 H 
ATOM     70  N   UNL     1     -44.744  42.709  24.637  1.00  0.00    -0.275 N 
ATOM     71  H   UNL     1     -46.663  43.658  24.514  1.00  0.00     0.084 H 
BRANCH  70  72
ATOM     72  C   UNL     1     -44.073  43.244  23.478  1.00  0.00     0.030 C 
ATOM     73  H   UNL     1     -43.422  44.059  23.800  1.00  0.00     0.048 H 
ATOM     74  H   UNL     1     -44.816  43.616  22.768  1.00  0.00     0.048 H 
ATOM     75  H   UNL     1     -43.488  42.442  23.019  1.00  0.00     0.048 H 
ENDBRANCH  70  72
ENDBRANCH  57  65
BRANCH  61  76
ATOM     76  N   UNL     1     -41.998  42.352  27.730  1.00  0.00    -0.383 N 
ATOM     77  H   UNL     1     -41.013  42.565  27.840  1.00  0.00     0.158 HD
ATOM     78  H   UNL     1     -42.623  43.143  27.834  1.00  0.00     0.158 HD
ENDBRANCH  61  76
ENDBRANCH  46  54
ENDBRANCH   1  42
TORSDOF 14
ENDMDL
