MODEL 1
REMARK VINA RESULT:     -11.3      0.000      0.000
REMARK SMILES Nc1ncnc2c1c(-c1ncco1)cn2[C@@H]1O[C@H](COc2ccc3ccc(N4CCC4)nc3c2)[C@@H](O)[C@@H]1F
REMARK SMILES IDX 19 1 18 4 16 5 17 6 37 7 35 9 38 10 15 14 2 15 3 16 7 17
REMARK SMILES IDX 4 18 6 19 8 20 5 21 14 23 1 25 9 28 10 29 13 30 11 31 12 32
REMARK SMILES IDX 36 35 20 37 21 38 22 39 34 40 23 41 33 43 24 45 32 47 25 48
REMARK SMILES IDX 27 49 26 50 28 53 29 54 31 55 30 56
REMARK H PARENT 19 2 19 3 16 8 37 11 18 12 35 13 4 22 14 24 1 26 1 27 11 33
REMARK H PARENT 12 34 36 36 22 42 34 44 23 46 25 51 26 52 29 57 29 58 31 59
REMARK H PARENT 31 60 30 61 30 62
REMARK Flexibility Score: inf
ROOT
ATOM      1  C   UNL     1     -46.980  35.770  26.801  1.00  0.00     0.117 C 
ATOM      2  H   UNL     1     -46.341  35.533  25.942  1.00  0.00     0.073 H 
ATOM      3  H   UNL     1     -47.515  36.687  26.527  1.00  0.00     0.073 H 
ENDROOT
BRANCH   1   4
ATOM      4  C   UNL     1     -46.065  35.988  28.017  1.00  0.00     0.123 C 
ATOM      5  C   UNL     1     -45.147  38.002  28.780  1.00  0.00     0.169 C 
ATOM      6  O   UNL     1     -45.086  37.007  27.736  1.00  0.00    -0.345 OA
ATOM      7  C   UNL     1     -46.510  37.874  29.449  1.00  0.00     0.173 C 
ATOM      8  H   UNL     1     -44.390  37.708  29.519  1.00  0.00     0.088 H 
ATOM      9  C   UNL     1     -46.780  36.388  29.313  1.00  0.00     0.119 C 
ATOM     10  F   UNL     1     -47.488  38.550  28.798  1.00  0.00    -0.239 F 
ATOM     11  H   UNL     1     -46.489  38.232  30.482  1.00  0.00     0.074 H 
ATOM     12  H   UNL     1     -45.500  35.060  28.165  1.00  0.00     0.067 H 
ATOM     13  H   UNL     1     -47.850  36.157  29.291  1.00  0.00     0.066 H 
BRANCH   5  14
ATOM     14  N   UNL     1     -44.731  39.283  28.241  1.00  0.00    -0.302 N 
ATOM     15  C   UNL     1     -42.401  41.964  28.291  1.00  0.00     0.137 A 
ATOM     16  N   UNL     1     -41.670  41.669  29.384  1.00  0.00    -0.219 NA
ATOM     17  C   UNL     1     -43.478  41.129  27.951  1.00  0.00     0.074 A 
ATOM     18  C   UNL     1     -41.982  40.563  30.083  1.00  0.00     0.120 A 
ATOM     19  C   UNL     1     -43.679  40.013  28.755  1.00  0.00     0.148 A 
ATOM     20  C   UNL     1     -44.498  41.095  26.966  1.00  0.00     0.068 A 
ATOM     21  N   UNL     1     -42.966  39.681  29.846  1.00  0.00    -0.218 NA
ATOM     22  H   UNL     1     -41.358  40.359  30.948  1.00  0.00     0.106 H 
ATOM     23  C   UNL     1     -45.251  39.955  27.164  1.00  0.00     0.022 A 
ATOM     24  H   UNL     1     -46.094  39.578  26.601  1.00  0.00     0.083 H 
BRANCH  15  25
ATOM     25  N   UNL     1     -42.028  43.085  27.570  1.00  0.00    -0.383 N 
ATOM     26  H   UNL     1     -41.739  43.850  28.161  1.00  0.00     0.158 HD
ATOM     27  H   UNL     1     -42.614  43.296  26.763  1.00  0.00     0.158 HD
ENDBRANCH  15  25
BRANCH  20  28
ATOM     28  C   UNL     1     -44.791  42.135  25.841  1.00  0.00     0.228 A 
ATOM     29  N   UNL     1     -43.952  42.403  24.851  1.00  0.00    -0.218 NA
ATOM     30  O   UNL     1     -45.937  42.897  25.803  1.00  0.00    -0.444 OA
ATOM     31  C   UNL     1     -44.591  43.372  24.119  1.00  0.00     0.066 A 
ATOM     32  C   UNL     1     -45.795  43.675  24.697  1.00  0.00     0.112 A 
ATOM     33  H   UNL     1     -44.151  43.798  23.228  1.00  0.00     0.087 H 
ATOM     34  H   UNL     1     -46.603  44.357  24.480  1.00  0.00     0.106 H 
ENDBRANCH  20  28
ENDBRANCH   5  14
BRANCH   9  35
ATOM     35  O   UNL     1     -46.228  35.692  30.443  1.00  0.00    -0.387 OA
ATOM     36  H   UNL     1     -45.795  34.871  30.145  1.00  0.00     0.211 HD
ENDBRANCH   9  35
ENDBRANCH   1   4
BRANCH   1  37
ATOM     37  O   UNL     1     -47.861  34.656  26.937  1.00  0.00    -0.491 OA
BRANCH  37  38
ATOM     38  C   UNL     1     -47.705  33.581  26.108  1.00  0.00     0.121 A 
ATOM     39  C   UNL     1     -46.655  33.699  25.198  1.00  0.00    -0.019 A 
ATOM     40  C   UNL     1     -48.448  32.400  26.136  1.00  0.00     0.007 A 
ATOM     41  C   UNL     1     -46.345  32.646  24.340  1.00  0.00    -0.049 A 
ATOM     42  H   UNL     1     -46.066  34.612  25.169  1.00  0.00     0.066 H 
ATOM     43  C   UNL     1     -48.136  31.321  25.319  1.00  0.00     0.076 A 
ATOM     44  H   UNL     1     -49.263  32.253  26.836  1.00  0.00     0.069 H 
ATOM     45  C   UNL     1     -47.073  31.449  24.408  1.00  0.00     0.001 A 
ATOM     46  H   UNL     1     -45.516  32.753  23.644  1.00  0.00     0.063 H 
ATOM     47  N   UNL     1     -48.835  30.183  25.455  1.00  0.00    -0.231 NA
ATOM     48  C   UNL     1     -46.763  30.345  23.611  1.00  0.00    -0.049 A 
ATOM     49  C   UNL     1     -48.487  29.100  24.728  1.00  0.00     0.129 A 
ATOM     50  C   UNL     1     -47.473  29.159  23.777  1.00  0.00    -0.019 A 
ATOM     51  H   UNL     1     -45.959  30.389  22.883  1.00  0.00     0.063 H 
ATOM     52  H   UNL     1     -47.227  28.289  23.180  1.00  0.00     0.066 H 
BRANCH  49  53
ATOM     53  N   UNL     1     -49.173  27.887  24.947  1.00  0.00    -0.356 N 
ATOM     54  C   UNL     1     -50.577  27.722  24.668  1.00  0.00     0.021 C 
ATOM     55  C   UNL     1     -49.302  27.242  26.227  1.00  0.00     0.021 C 
ATOM     56  C   UNL     1     -50.550  26.558  25.662  1.00  0.00    -0.018 C 
ATOM     57  H   UNL     1     -51.185  28.578  24.978  1.00  0.00     0.049 H 
ATOM     58  H   UNL     1     -50.783  27.457  23.628  1.00  0.00     0.049 H 
ATOM     59  H   UNL     1     -49.490  27.944  27.045  1.00  0.00     0.049 H 
ATOM     60  H   UNL     1     -48.466  26.582  26.468  1.00  0.00     0.049 H 
ATOM     61  H   UNL     1     -50.363  25.579  25.208  1.00  0.00     0.030 H 
ATOM     62  H   UNL     1     -51.404  26.491  26.340  1.00  0.00     0.030 H 
ENDBRANCH  49  53
ENDBRANCH  37  38
ENDBRANCH   1  37
TORSDOF 8
ENDMDL
MODEL 2
REMARK VINA RESULT:     -10.0      1.502      2.233
REMARK SMILES Nc1ncnc2c1c(-c1ncco1)cn2[C@@H]1O[C@H](COc2ccc3ccc(N4CCC4)nc3c2)[C@@H](O)[C@@H]1F
REMARK SMILES IDX 19 1 18 4 16 5 17 6 37 7 35 9 38 10 15 14 2 15 3 16 7 17
REMARK SMILES IDX 4 18 6 19 8 20 5 21 14 23 1 25 9 28 10 29 13 30 11 31 12 32
REMARK SMILES IDX 36 35 20 37 21 38 22 39 34 40 23 41 33 43 24 45 32 47 25 48
REMARK SMILES IDX 27 49 26 50 28 53 29 54 31 55 30 56
REMARK H PARENT 19 2 19 3 16 8 37 11 18 12 35 13 4 22 14 24 1 26 1 27 11 33
REMARK H PARENT 12 34 36 36 22 42 34 44 23 46 25 51 26 52 29 57 29 58 31 59
REMARK H PARENT 31 60 30 61 30 62
REMARK Flexibility Score: inf
ROOT
ATOM      1  C   UNL     1     -46.940  35.780  26.935  1.00  0.00     0.117 C 
ATOM      2  H   UNL     1     -46.396  35.172  26.202  1.00  0.00     0.073 H 
ATOM      3  H   UNL     1     -47.186  36.715  26.419  1.00  0.00     0.073 H 
ENDROOT
BRANCH   1   4
ATOM      4  C   UNL     1     -46.003  36.020  28.129  1.00  0.00     0.123 C 
ATOM      5  C   UNL     1     -45.083  38.050  28.848  1.00  0.00     0.169 C 
ATOM      6  O   UNL     1     -45.036  37.041  27.816  1.00  0.00    -0.345 OA
ATOM      7  C   UNL     1     -46.432  37.922  29.545  1.00  0.00     0.173 C 
ATOM      8  H   UNL     1     -44.310  37.770  29.575  1.00  0.00     0.088 H 
ATOM      9  C   UNL     1     -46.695  36.432  29.434  1.00  0.00     0.119 C 
ATOM     10  F   UNL     1     -47.427  38.582  28.905  1.00  0.00    -0.239 F 
ATOM     11  H   UNL     1     -46.393  38.293  30.573  1.00  0.00     0.074 H 
ATOM     12  H   UNL     1     -45.429  35.097  28.278  1.00  0.00     0.067 H 
ATOM     13  H   UNL     1     -47.763  36.194  29.436  1.00  0.00     0.066 H 
BRANCH   5  14
ATOM     14  N   UNL     1     -44.687  39.326  28.284  1.00  0.00    -0.302 N 
ATOM     15  C   UNL     1     -42.377  42.024  28.256  1.00  0.00     0.137 A 
ATOM     16  N   UNL     1     -41.624  41.750  29.340  1.00  0.00    -0.219 NA
ATOM     17  C   UNL     1     -43.454  41.177  27.947  1.00  0.00     0.074 A 
ATOM     18  C   UNL     1     -41.916  40.652  30.059  1.00  0.00     0.120 A 
ATOM     19  C   UNL     1     -43.632  40.070  28.769  1.00  0.00     0.148 A 
ATOM     20  C   UNL     1     -44.491  41.122  26.980  1.00  0.00     0.068 A 
ATOM     21  N   UNL     1     -42.897  39.759  29.852  1.00  0.00    -0.218 NA
ATOM     22  H   UNL     1     -41.275  40.464  30.916  1.00  0.00     0.106 H 
ATOM     23  C   UNL     1     -45.231  39.979  27.207  1.00  0.00     0.022 A 
ATOM     24  H   UNL     1     -46.080  39.588  26.664  1.00  0.00     0.083 H 
BRANCH  15  25
ATOM     25  N   UNL     1     -42.025  43.138  27.513  1.00  0.00    -0.383 N 
ATOM     26  H   UNL     1     -41.494  42.904  26.687  1.00  0.00     0.158 HD
ATOM     27  H   UNL     1     -41.731  43.947  28.059  1.00  0.00     0.158 HD
ENDBRANCH  15  25
BRANCH  20  28
ATOM     28  C   UNL     1     -44.811  42.144  25.847  1.00  0.00     0.228 A 
ATOM     29  N   UNL     1     -43.976  42.432  24.858  1.00  0.00    -0.218 NA
ATOM     30  O   UNL     1     -45.980  42.868  25.797  1.00  0.00    -0.444 OA
ATOM     31  C   UNL     1     -44.642  43.374  24.117  1.00  0.00     0.066 A 
ATOM     32  C   UNL     1     -45.858  43.643  24.687  1.00  0.00     0.112 A 
ATOM     33  H   UNL     1     -44.212  43.807  23.224  1.00  0.00     0.087 H 
ATOM     34  H   UNL     1     -46.686  44.297  24.461  1.00  0.00     0.106 H 
ENDBRANCH  20  28
ENDBRANCH   5  14
BRANCH   9  35
ATOM     35  O   UNL     1     -46.116  35.755  30.562  1.00  0.00    -0.387 OA
ATOM     36  H   UNL     1     -45.169  35.594  30.398  1.00  0.00     0.211 HD
ENDBRANCH   9  35
ENDBRANCH   1   4
BRANCH   1  37
ATOM     37  O   UNL     1     -48.107  35.027  27.261  1.00  0.00    -0.491 OA
BRANCH  37  38
ATOM     38  C   UNL     1     -48.440  33.948  26.490  1.00  0.00     0.121 A 
ATOM     39  C   UNL     1     -49.810  33.779  26.295  1.00  0.00    -0.019 A 
ATOM     40  C   UNL     1     -47.553  33.073  25.863  1.00  0.00     0.007 A 
ATOM     41  C   UNL     1     -50.284  32.759  25.473  1.00  0.00    -0.049 A 
ATOM     42  H   UNL     1     -50.512  34.457  26.775  1.00  0.00     0.066 H 
ATOM     43  C   UNL     1     -47.996  32.072  25.008  1.00  0.00     0.076 A 
ATOM     44  H   UNL     1     -46.478  33.174  25.969  1.00  0.00     0.069 H 
ATOM     45  C   UNL     1     -49.380  31.912  24.815  1.00  0.00     0.001 A 
ATOM     46  H   UNL     1     -51.356  32.648  25.326  1.00  0.00     0.063 H 
ATOM     47  N   UNL     1     -47.088  31.319  24.368  1.00  0.00    -0.231 NA
ATOM     48  C   UNL     1     -49.802  30.913  23.936  1.00  0.00    -0.049 A 
ATOM     49  C   UNL     1     -47.502  30.398  23.471  1.00  0.00     0.129 A 
ATOM     50  C   UNL     1     -48.855  30.154  23.255  1.00  0.00    -0.019 A 
ATOM     51  H   UNL     1     -50.858  30.737  23.756  1.00  0.00     0.063 H 
ATOM     52  H   UNL     1     -49.171  29.391  22.554  1.00  0.00     0.066 H 
BRANCH  49  53
ATOM     53  N   UNL     1     -46.534  29.678  22.742  1.00  0.00    -0.356 N 
ATOM     54  C   UNL     1     -45.906  28.483  23.246  1.00  0.00     0.021 C 
ATOM     55  C   UNL     1     -45.273  30.216  22.307  1.00  0.00     0.021 C 
ATOM     56  C   UNL     1     -44.767  28.772  22.265  1.00  0.00    -0.018 C 
ATOM     57  H   UNL     1     -45.631  28.549  24.304  1.00  0.00     0.049 H 
ATOM     58  H   UNL     1     -46.484  27.576  23.053  1.00  0.00     0.049 H 
ATOM     59  H   UNL     1     -44.795  30.851  23.059  1.00  0.00     0.049 H 
ATOM     60  H   UNL     1     -45.326  30.729  21.344  1.00  0.00     0.049 H 
ATOM     61  H   UNL     1     -44.874  28.282  21.291  1.00  0.00     0.030 H 
ATOM     62  H   UNL     1     -43.756  28.609  22.648  1.00  0.00     0.030 H 
ENDBRANCH  49  53
ENDBRANCH  37  38
ENDBRANCH   1  37
TORSDOF 8
ENDMDL
MODEL 3
REMARK VINA RESULT:      -9.7      1.847      2.470
REMARK SMILES Nc1ncnc2c1c(-c1ncco1)cn2[C@@H]1O[C@H](COc2ccc3ccc(N4CCC4)nc3c2)[C@@H](O)[C@@H]1F
REMARK SMILES IDX 19 1 18 4 16 5 17 6 37 7 35 9 38 10 15 14 2 15 3 16 7 17
REMARK SMILES IDX 4 18 6 19 8 20 5 21 14 23 1 25 9 28 10 29 13 30 11 31 12 32
REMARK SMILES IDX 36 35 20 37 21 38 22 39 34 40 23 41 33 43 24 45 32 47 25 48
REMARK SMILES IDX 27 49 26 50 28 53 29 54 31 55 30 56
REMARK H PARENT 19 2 19 3 16 8 37 11 18 12 35 13 4 22 14 24 1 26 1 27 11 33
REMARK H PARENT 12 34 36 36 22 42 34 44 23 46 25 51 26 52 29 57 29 58 31 59
REMARK H PARENT 31 60 30 61 30 62
REMARK Flexibility Score: inf
ROOT
ATOM      1  C   UNL     1     -45.354  34.962  27.396  1.00  0.00     0.117 C 
ATOM      2  H   UNL     1     -45.352  33.947  27.812  1.00  0.00     0.073 H 
ATOM      3  H   UNL     1     -44.298  35.233  27.274  1.00  0.00     0.073 H 
ENDROOT
BRANCH   1   4
ATOM      4  C   UNL     1     -46.061  35.879  28.407  1.00  0.00     0.123 C 
ATOM      5  C   UNL     1     -46.087  38.220  28.450  1.00  0.00     0.169 C 
ATOM      6  O   UNL     1     -45.267  37.052  28.668  1.00  0.00    -0.345 OA
ATOM      7  C   UNL     1     -47.251  37.796  27.562  1.00  0.00     0.173 C 
ATOM      8  H   UNL     1     -46.503  38.481  29.432  1.00  0.00     0.088 H 
ATOM      9  C   UNL     1     -47.458  36.356  27.993  1.00  0.00     0.119 C 
ATOM     10  F   UNL     1     -46.947  37.809  26.242  1.00  0.00    -0.239 F 
ATOM     11  H   UNL     1     -48.126  38.436  27.708  1.00  0.00     0.074 H 
ATOM     12  H   UNL     1     -46.112  35.332  29.356  1.00  0.00     0.067 H 
ATOM     13  H   UNL     1     -47.895  35.741  27.202  1.00  0.00     0.066 H 
BRANCH   5  14
ATOM     14  N   UNL     1     -45.242  39.326  28.043  1.00  0.00    -0.302 N 
ATOM     15  C   UNL     1     -42.266  41.196  28.556  1.00  0.00     0.137 A 
ATOM     16  N   UNL     1     -41.821  40.686  29.722  1.00  0.00    -0.219 NA
ATOM     17  C   UNL     1     -43.478  40.722  28.028  1.00  0.00     0.074 A 
ATOM     18  C   UNL     1     -42.541  39.715  30.311  1.00  0.00     0.120 A 
ATOM     19  C   UNL     1     -44.111  39.706  28.735  1.00  0.00     0.148 A 
ATOM     20  C   UNL     1     -44.307  41.002  26.911  1.00  0.00     0.068 A 
ATOM     21  N   UNL     1     -43.694  39.165  29.894  1.00  0.00    -0.218 NA
ATOM     22  H   UNL     1     -42.138  39.325  31.241  1.00  0.00     0.106 H 
ATOM     23  C   UNL     1     -45.380  40.134  26.942  1.00  0.00     0.022 A 
ATOM     24  H   UNL     1     -46.203  40.029  26.249  1.00  0.00     0.083 H 
BRANCH  15  25
ATOM     25  N   UNL     1     -41.481  42.164  27.955  1.00  0.00    -0.383 N 
ATOM     26  H   UNL     1     -40.572  41.817  27.685  1.00  0.00     0.158 HD
ATOM     27  H   UNL     1     -41.535  43.090  28.379  1.00  0.00     0.158 HD
ENDBRANCH  15  25
BRANCH  20  28
ATOM     28  C   UNL     1     -44.115  42.094  25.815  1.00  0.00     0.228 A 
ATOM     29  N   UNL     1     -43.797  43.353  26.079  1.00  0.00    -0.218 NA
ATOM     30  O   UNL     1     -44.300  41.851  24.473  1.00  0.00    -0.444 OA
ATOM     31  C   UNL     1     -43.752  43.956  24.848  1.00  0.00     0.066 A 
ATOM     32  C   UNL     1     -44.060  43.047  23.871  1.00  0.00     0.112 A 
ATOM     33  H   UNL     1     -43.507  45.003  24.733  1.00  0.00     0.087 H 
ATOM     34  H   UNL     1     -44.149  43.073  22.796  1.00  0.00     0.106 H 
ENDBRANCH  20  28
ENDBRANCH   5  14
BRANCH   9  35
ATOM     35  O   UNL     1     -48.369  36.312  29.105  1.00  0.00    -0.387 OA
ATOM     36  H   UNL     1     -49.263  36.563  28.808  1.00  0.00     0.211 HD
ENDBRANCH   9  35
ENDBRANCH   1   4
BRANCH   1  37
ATOM     37  O   UNL     1     -46.028  34.857  26.144  1.00  0.00    -0.491 OA
BRANCH  37  38
ATOM     38  C   UNL     1     -46.583  33.661  25.785  1.00  0.00     0.121 A 
ATOM     39  C   UNL     1     -47.188  32.967  26.832  1.00  0.00    -0.019 A 
ATOM     40  C   UNL     1     -46.636  33.127  24.497  1.00  0.00     0.007 A 
ATOM     41  C   UNL     1     -47.850  31.765  26.590  1.00  0.00    -0.049 A 
ATOM     42  H   UNL     1     -47.157  33.374  27.839  1.00  0.00     0.066 H 
ATOM     43  C   UNL     1     -47.322  31.951  24.222  1.00  0.00     0.076 A 
ATOM     44  H   UNL     1     -46.196  33.636  23.647  1.00  0.00     0.069 H 
ATOM     45  C   UNL     1     -47.933  31.261  25.284  1.00  0.00     0.001 A 
ATOM     46  H   UNL     1     -48.325  31.243  27.418  1.00  0.00     0.063 H 
ATOM     47  N   UNL     1     -47.410  31.535  22.948  1.00  0.00    -0.231 NA
ATOM     48  C   UNL     1     -48.635  30.092  24.982  1.00  0.00    -0.049 A 
ATOM     49  C   UNL     1     -48.144  30.440  22.656  1.00  0.00     0.129 A 
ATOM     50  C   UNL     1     -48.745  29.682  23.657  1.00  0.00    -0.019 A 
ATOM     51  H   UNL     1     -49.118  29.512  25.763  1.00  0.00     0.063 H 
ATOM     52  H   UNL     1     -49.306  28.789  23.407  1.00  0.00     0.066 H 
BRANCH  49  53
ATOM     53  N   UNL     1     -48.300  30.069  21.305  1.00  0.00    -0.356 N 
ATOM     54  C   UNL     1     -48.738  30.991  20.287  1.00  0.00     0.021 C 
ATOM     55  C   UNL     1     -49.201  29.050  20.837  1.00  0.00     0.021 C 
ATOM     56  C   UNL     1     -49.172  29.763  19.483  1.00  0.00    -0.018 C 
ATOM     57  H   UNL     1     -49.557  31.641  20.613  1.00  0.00     0.049 H 
ATOM     58  H   UNL     1     -47.924  31.580  19.858  1.00  0.00     0.049 H 
ATOM     59  H   UNL     1     -50.170  29.066  21.347  1.00  0.00     0.049 H 
ATOM     60  H   UNL     1     -48.771  28.046  20.855  1.00  0.00     0.049 H 
ATOM     61  H   UNL     1     -48.413  29.386  18.789  1.00  0.00     0.030 H 
ATOM     62  H   UNL     1     -50.131  29.847  18.967  1.00  0.00     0.030 H 
ENDBRANCH  49  53
ENDBRANCH  37  38
ENDBRANCH   1  37
TORSDOF 8
ENDMDL
MODEL 4
REMARK VINA RESULT:      -9.7      2.096      2.672
REMARK SMILES Nc1ncnc2c1c(-c1ncco1)cn2[C@@H]1O[C@H](COc2ccc3ccc(N4CCC4)nc3c2)[C@@H](O)[C@@H]1F
REMARK SMILES IDX 19 1 18 4 16 5 17 6 37 7 35 9 38 10 15 14 2 15 3 16 7 17
REMARK SMILES IDX 4 18 6 19 8 20 5 21 14 23 1 25 9 28 10 29 13 30 11 31 12 32
REMARK SMILES IDX 36 35 20 37 21 38 22 39 34 40 23 41 33 43 24 45 32 47 25 48
REMARK SMILES IDX 27 49 26 50 28 53 29 54 31 55 30 56
REMARK H PARENT 19 2 19 3 16 8 37 11 18 12 35 13 4 22 14 24 1 26 1 27 11 33
REMARK H PARENT 12 34 36 36 22 42 34 44 23 46 25 51 26 52 29 57 29 58 31 59
REMARK H PARENT 31 60 30 61 30 62
REMARK Flexibility Score: inf
ROOT
ATOM      1  C   UNL     1     -47.049  35.072  26.055  1.00  0.00     0.117 C 
ATOM      2  H   UNL     1     -46.270  34.705  25.377  1.00  0.00     0.073 H 
ATOM      3  H   UNL     1     -47.588  35.845  25.495  1.00  0.00     0.073 H 
ENDROOT
BRANCH   1   4
ATOM      4  C   UNL     1     -46.352  35.652  27.295  1.00  0.00     0.123 C 
ATOM      5  C   UNL     1     -46.508  37.829  28.144  1.00  0.00     0.169 C 
ATOM      6  O   UNL     1     -45.977  37.025  27.069  1.00  0.00    -0.345 OA
ATOM      7  C   UNL     1     -47.646  37.039  28.781  1.00  0.00     0.173 C 
ATOM      8  H   UNL     1     -45.704  37.902  28.888  1.00  0.00     0.088 H 
ATOM      9  C   UNL     1     -47.173  35.611  28.590  1.00  0.00     0.119 C 
ATOM     10  F   UNL     1     -48.826  37.191  28.134  1.00  0.00    -0.239 F 
ATOM     11  H   UNL     1     -47.800  37.323  29.826  1.00  0.00     0.074 H 
ATOM     12  H   UNL     1     -45.412  35.101  27.424  1.00  0.00     0.067 H 
ATOM     13  H   UNL     1     -48.002  34.899  28.538  1.00  0.00     0.066 H 
BRANCH   5  14
ATOM     14  N   UNL     1     -46.754  39.173  27.657  1.00  0.00    -0.302 N 
ATOM     15  C   UNL     1     -45.476  42.095  26.094  1.00  0.00     0.137 A 
ATOM     16  N   UNL     1     -44.153  41.834  26.066  1.00  0.00    -0.219 NA
ATOM     17  C   UNL     1     -46.339  41.161  26.689  1.00  0.00     0.074 A 
ATOM     18  C   UNL     1     -43.722  40.668  26.578  1.00  0.00     0.120 A 
ATOM     19  C   UNL     1     -45.757  39.992  27.167  1.00  0.00     0.148 A 
ATOM     20  C   UNL     1     -47.725  41.058  26.974  1.00  0.00     0.068 A 
ATOM     21  N   UNL     1     -44.446  39.691  27.149  1.00  0.00    -0.218 NA
ATOM     22  H   UNL     1     -42.651  40.495  26.523  1.00  0.00     0.106 H 
ATOM     23  C   UNL     1     -47.954  39.832  27.566  1.00  0.00     0.022 A 
ATOM     24  H   UNL     1     -48.882  39.389  27.899  1.00  0.00     0.083 H 
BRANCH  15  25
ATOM     25  N   UNL     1     -45.892  43.284  25.521  1.00  0.00    -0.383 N 
ATOM     26  H   UNL     1     -45.471  44.094  25.953  1.00  0.00     0.158 HD
ATOM     27  H   UNL     1     -46.883  43.327  25.284  1.00  0.00     0.158 HD
ENDBRANCH  15  25
BRANCH  20  28
ATOM     28  C   UNL     1     -48.846  42.110  26.714  1.00  0.00     0.228 A 
ATOM     29  N   UNL     1     -50.042  41.807  26.230  1.00  0.00    -0.218 NA
ATOM     30  O   UNL     1     -48.675  43.458  26.930  1.00  0.00    -0.444 OA
ATOM     31  C   UNL     1     -50.689  43.013  26.145  1.00  0.00     0.066 A 
ATOM     32  C   UNL     1     -49.860  44.018  26.567  1.00  0.00     0.112 A 
ATOM     33  H   UNL     1     -51.705  43.092  25.784  1.00  0.00     0.087 H 
ATOM     34  H   UNL     1     -49.938  45.090  26.666  1.00  0.00     0.106 H 
ENDBRANCH  20  28
ENDBRANCH   5  14
BRANCH   9  35
ATOM     35  O   UNL     1     -46.357  35.219  29.707  1.00  0.00    -0.387 OA
ATOM     36  H   UNL     1     -46.278  34.248  29.732  1.00  0.00     0.211 HD
ENDBRANCH   9  35
ENDBRANCH   1   4
BRANCH   1  37
ATOM     37  O   UNL     1     -47.872  33.941  26.334  1.00  0.00    -0.491 OA
BRANCH  37  38
ATOM     38  C   UNL     1     -47.714  32.804  25.593  1.00  0.00     0.121 A 
ATOM     39  C   UNL     1     -46.671  32.856  24.669  1.00  0.00    -0.019 A 
ATOM     40  C   UNL     1     -48.448  31.624  25.720  1.00  0.00     0.007 A 
ATOM     41  C   UNL     1     -46.358  31.741  23.896  1.00  0.00    -0.049 A 
ATOM     42  H   UNL     1     -46.089  33.769  24.563  1.00  0.00     0.066 H 
ATOM     43  C   UNL     1     -48.132  30.486  24.990  1.00  0.00     0.076 A 
ATOM     44  H   UNL     1     -49.257  31.527  26.436  1.00  0.00     0.069 H 
ATOM     45  C   UNL     1     -47.076  30.548  24.064  1.00  0.00     0.001 A 
ATOM     46  H   UNL     1     -45.535  31.798  23.187  1.00  0.00     0.063 H 
ATOM     47  N   UNL     1     -48.821  29.356  25.222  1.00  0.00    -0.231 NA
ATOM     48  C   UNL     1     -46.763  29.386  23.355  1.00  0.00    -0.049 A 
ATOM     49  C   UNL     1     -48.471  28.221  24.580  1.00  0.00     0.129 A 
ATOM     50  C   UNL     1     -47.463  28.212  23.620  1.00  0.00    -0.019 A 
ATOM     51  H   UNL     1     -45.965  29.378  22.620  1.00  0.00     0.063 H 
ATOM     52  H   UNL     1     -47.215  27.299  23.093  1.00  0.00     0.066 H 
BRANCH  49  53
ATOM     53  N   UNL     1     -49.145  27.025  24.901  1.00  0.00    -0.356 N 
ATOM     54  C   UNL     1     -50.368  26.998  25.662  1.00  0.00     0.021 C 
ATOM     55  C   UNL     1     -48.582  25.953  25.677  1.00  0.00     0.021 C 
ATOM     56  C   UNL     1     -50.020  25.548  26.007  1.00  0.00    -0.018 C 
ATOM     57  H   UNL     1     -50.366  27.687  26.513  1.00  0.00     0.049 H 
ATOM     58  H   UNL     1     -51.262  27.142  25.051  1.00  0.00     0.049 H 
ATOM     59  H   UNL     1     -47.992  26.303  26.530  1.00  0.00     0.049 H 
ATOM     60  H   UNL     1     -48.011  25.237  25.081  1.00  0.00     0.049 H 
ATOM     61  H   UNL     1     -50.450  24.805  25.326  1.00  0.00     0.030 H 
ATOM     62  H   UNL     1     -50.206  25.247  27.041  1.00  0.00     0.030 H 
ENDBRANCH  49  53
ENDBRANCH  37  38
ENDBRANCH   1  37
TORSDOF 8
ENDMDL
MODEL 5
REMARK VINA RESULT:      -9.6      2.130      2.984
REMARK SMILES Nc1ncnc2c1c(-c1ncco1)cn2[C@@H]1O[C@H](COc2ccc3ccc(N4CCC4)nc3c2)[C@@H](O)[C@@H]1F
REMARK SMILES IDX 19 1 18 4 16 5 17 6 37 7 35 9 38 10 15 14 2 15 3 16 7 17
REMARK SMILES IDX 4 18 6 19 8 20 5 21 14 23 1 25 9 28 10 29 13 30 11 31 12 32
REMARK SMILES IDX 36 35 20 37 21 38 22 39 34 40 23 41 33 43 24 45 32 47 25 48
REMARK SMILES IDX 27 49 26 50 28 53 29 54 31 55 30 56
REMARK H PARENT 19 2 19 3 16 8 37 11 18 12 35 13 4 22 14 24 1 26 1 27 11 33
REMARK H PARENT 12 34 36 36 22 42 34 44 23 46 25 51 26 52 29 57 29 58 31 59
REMARK H PARENT 31 60 30 61 30 62
REMARK Flexibility Score: inf
ROOT
ATOM      1  C   UNL     1     -46.024  36.820  28.199  1.00  0.00     0.117 C 
ATOM      2  H   UNL     1     -46.522  36.013  28.750  1.00  0.00     0.073 H 
ATOM      3  H   UNL     1     -44.971  36.778  28.504  1.00  0.00     0.073 H 
ENDROOT
BRANCH   1   4
ATOM      4  C   UNL     1     -46.683  38.144  28.616  1.00  0.00     0.123 C 
ATOM      5  C   UNL     1     -46.326  40.274  27.710  1.00  0.00     0.169 C 
ATOM      6  O   UNL     1     -45.742  39.231  28.519  1.00  0.00    -0.345 OA
ATOM      7  C   UNL     1     -47.433  39.635  26.878  1.00  0.00     0.173 C 
ATOM      8  H   UNL     1     -46.805  40.966  28.415  1.00  0.00     0.088 H 
ATOM      9  C   UNL     1     -47.924  38.542  27.808  1.00  0.00     0.119 C 
ATOM     10  F   UNL     1     -46.978  39.059  25.740  1.00  0.00    -0.239 F 
ATOM     11  H   UNL     1     -48.201  40.363  26.600  1.00  0.00     0.074 H 
ATOM     12  H   UNL     1     -46.934  38.058  29.680  1.00  0.00     0.067 H 
ATOM     13  H   UNL     1     -48.361  37.698  27.267  1.00  0.00     0.066 H 
BRANCH   5  14
ATOM     14  N   UNL     1     -45.268  41.012  27.048  1.00  0.00    -0.302 N 
ATOM     15  C   UNL     1     -41.843  41.948  26.959  1.00  0.00     0.137 A 
ATOM     16  N   UNL     1     -41.402  41.481  28.145  1.00  0.00    -0.219 NA
ATOM     17  C   UNL     1     -43.201  41.797  26.635  1.00  0.00     0.074 A 
ATOM     18  C   UNL     1     -42.278  40.856  28.951  1.00  0.00     0.120 A 
ATOM     19  C   UNL     1     -43.990  41.119  27.557  1.00  0.00     0.148 A 
ATOM     20  C   UNL     1     -44.065  42.169  25.572  1.00  0.00     0.068 A 
ATOM     21  N   UNL     1     -43.585  40.631  28.743  1.00  0.00    -0.218 NA
ATOM     22  H   UNL     1     -41.875  40.486  29.889  1.00  0.00     0.106 H 
ATOM     23  C   UNL     1     -45.324  41.676  25.849  1.00  0.00     0.022 A 
ATOM     24  H   UNL     1     -46.232  41.737  25.265  1.00  0.00     0.083 H 
BRANCH  15  25
ATOM     25  N   UNL     1     -40.908  42.549  26.135  1.00  0.00    -0.383 N 
ATOM     26  H   UNL     1     -39.963  42.444  26.475  1.00  0.00     0.158 HD
ATOM     27  H   UNL     1     -41.183  43.455  25.756  1.00  0.00     0.158 HD
ENDBRANCH  15  25
BRANCH  20  28
ATOM     28  C   UNL     1     -43.727  43.003  24.299  1.00  0.00     0.228 A 
ATOM     29  N   UNL     1     -42.556  43.587  24.091  1.00  0.00    -0.218 NA
ATOM     30  O   UNL     1     -44.636  43.239  23.293  1.00  0.00    -0.444 OA
ATOM     31  C   UNL     1     -42.701  44.217  22.881  1.00  0.00     0.066 A 
ATOM     32  C   UNL     1     -43.964  44.009  22.396  1.00  0.00     0.112 A 
ATOM     33  H   UNL     1     -41.897  44.784  22.432  1.00  0.00     0.087 H 
ATOM     34  H   UNL     1     -44.508  44.307  21.513  1.00  0.00     0.106 H 
ENDBRANCH  20  28
ENDBRANCH   5  14
BRANCH   9  35
ATOM     35  O   UNL     1     -48.953  39.064  28.665  1.00  0.00    -0.387 OA
ATOM     36  H   UNL     1     -48.804  38.762  29.580  1.00  0.00     0.211 HD
ENDBRANCH   9  35
ENDBRANCH   1   4
BRANCH   1  37
ATOM     37  O   UNL     1     -46.195  36.501  26.820  1.00  0.00    -0.491 OA
BRANCH  37  38
ATOM     38  C   UNL     1     -46.822  35.334  26.480  1.00  0.00     0.121 A 
ATOM     39  C   UNL     1     -48.135  35.230  26.936  1.00  0.00    -0.019 A 
ATOM     40  C   UNL     1     -46.292  34.307  25.698  1.00  0.00     0.007 A 
ATOM     41  C   UNL     1     -48.911  34.121  26.603  1.00  0.00    -0.049 A 
ATOM     42  H   UNL     1     -48.562  36.025  27.543  1.00  0.00     0.066 H 
ATOM     43  C   UNL     1     -47.055  33.211  25.319  1.00  0.00     0.076 A 
ATOM     44  H   UNL     1     -45.282  34.350  25.306  1.00  0.00     0.069 H 
ATOM     45  C   UNL     1     -48.379  33.116  25.781  1.00  0.00     0.001 A 
ATOM     46  H   UNL     1     -49.936  34.062  26.960  1.00  0.00     0.063 H 
ATOM     47  N   UNL     1     -46.513  32.299  24.495  1.00  0.00    -0.231 NA
ATOM     48  C   UNL     1     -49.134  32.015  25.371  1.00  0.00    -0.049 A 
ATOM     49  C   UNL     1     -47.269  31.273  24.051  1.00  0.00     0.129 A 
ATOM     50  C   UNL     1     -48.576  31.090  24.494  1.00  0.00    -0.019 A 
ATOM     51  H   UNL     1     -50.159  31.885  25.704  1.00  0.00     0.063 H 
ATOM     52  H   UNL     1     -49.159  30.244  24.152  1.00  0.00     0.066 H 
BRANCH  49  53
ATOM     53  N   UNL     1     -46.714  30.375  23.116  1.00  0.00    -0.356 N 
ATOM     54  C   UNL     1     -46.455  28.991  23.421  1.00  0.00     0.021 C 
ATOM     55  C   UNL     1     -45.422  30.532  22.503  1.00  0.00     0.021 C 
ATOM     56  C   UNL     1     -45.439  29.018  22.276  1.00  0.00    -0.018 C 
ATOM     57  H   UNL     1     -46.024  28.838  24.415  1.00  0.00     0.049 H 
ATOM     58  H   UNL     1     -47.324  28.346  23.272  1.00  0.00     0.049 H 
ATOM     59  H   UNL     1     -44.655  30.886  23.199  1.00  0.00     0.049 H 
ATOM     60  H   UNL     1     -45.439  31.148  21.601  1.00  0.00     0.049 H 
ATOM     61  H   UNL     1     -45.843  28.710  21.305  1.00  0.00     0.030 H 
ATOM     62  H   UNL     1     -44.497  28.497  22.463  1.00  0.00     0.030 H 
ENDBRANCH  49  53
ENDBRANCH  37  38
ENDBRANCH   1  37
TORSDOF 8
ENDMDL
MODEL 6
REMARK VINA RESULT:      -9.5      2.629     11.564
REMARK SMILES Nc1ncnc2c1c(-c1ncco1)cn2[C@@H]1O[C@H](COc2ccc3ccc(N4CCC4)nc3c2)[C@@H](O)[C@@H]1F
REMARK SMILES IDX 19 1 18 4 16 5 17 6 37 7 35 9 38 10 15 14 2 15 3 16 7 17
REMARK SMILES IDX 4 18 6 19 8 20 5 21 14 23 1 25 9 28 10 29 13 30 11 31 12 32
REMARK SMILES IDX 36 35 20 37 21 38 22 39 34 40 23 41 33 43 24 45 32 47 25 48
REMARK SMILES IDX 27 49 26 50 28 53 29 54 31 55 30 56
REMARK H PARENT 19 2 19 3 16 8 37 11 18 12 35 13 4 22 14 24 1 26 1 27 11 33
REMARK H PARENT 12 34 36 36 22 42 34 44 23 46 25 51 26 52 29 57 29 58 31 59
REMARK H PARENT 31 60 30 61 30 62
REMARK Flexibility Score: inf
ROOT
ATOM      1  C   UNL     1     -47.425  35.487  26.210  1.00  0.00     0.117 C 
ATOM      2  H   UNL     1     -48.152  35.355  25.400  1.00  0.00     0.073 H 
ATOM      3  H   UNL     1     -46.457  35.637  25.716  1.00  0.00     0.073 H 
ENDROOT
BRANCH   1   4
ATOM      4  C   UNL     1     -47.436  34.206  27.059  1.00  0.00     0.123 C 
ATOM      5  C   UNL     1     -47.659  31.995  26.321  1.00  0.00     0.169 C 
ATOM      6  O   UNL     1     -48.358  33.243  26.512  1.00  0.00    -0.345 OA
ATOM      7  C   UNL     1     -46.169  32.313  26.274  1.00  0.00     0.173 C 
ATOM      8  H   UNL     1     -47.840  31.408  27.231  1.00  0.00     0.088 H 
ATOM      9  C   UNL     1     -46.080  33.505  27.207  1.00  0.00     0.119 C 
ATOM     10  F   UNL     1     -45.745  32.695  25.046  1.00  0.00    -0.239 F 
ATOM     11  H   UNL     1     -45.563  31.457  26.584  1.00  0.00     0.074 H 
ATOM     12  H   UNL     1     -47.833  34.476  28.045  1.00  0.00     0.067 H 
ATOM     13  H   UNL     1     -45.239  34.163  26.966  1.00  0.00     0.066 H 
BRANCH   5  14
ATOM     14  N   UNL     1     -48.271  31.270  25.224  1.00  0.00    -0.302 N 
ATOM     15  C   UNL     1     -49.776  28.271  24.058  1.00  0.00     0.137 A 
ATOM     16  N   UNL     1     -49.551  27.433  25.091  1.00  0.00    -0.219 NA
ATOM     17  C   UNL     1     -49.282  29.583  24.130  1.00  0.00     0.074 A 
ATOM     18  C   UNL     1     -48.893  27.905  26.165  1.00  0.00     0.120 A 
ATOM     19  C   UNL     1     -48.630  29.940  25.306  1.00  0.00     0.148 A 
ATOM     20  C   UNL     1     -49.240  30.727  23.292  1.00  0.00     0.068 A 
ATOM     21  N   UNL     1     -48.396  29.138  26.360  1.00  0.00    -0.218 NA
ATOM     22  H   UNL     1     -48.746  27.199  26.976  1.00  0.00     0.106 H 
ATOM     23  C   UNL     1     -48.618  31.746  23.985  1.00  0.00     0.022 A 
ATOM     24  H   UNL     1     -48.426  32.767  23.686  1.00  0.00     0.083 H 
BRANCH  15  25
ATOM     25  N   UNL     1     -50.492  27.766  22.987  1.00  0.00    -0.383 N 
ATOM     26  H   UNL     1     -51.348  27.311  23.269  1.00  0.00     0.158 HD
ATOM     27  H   UNL     1     -49.930  27.324  22.260  1.00  0.00     0.158 HD
ENDBRANCH  15  25
BRANCH  20  28
ATOM     28  C   UNL     1     -49.765  30.875  21.832  1.00  0.00     0.228 A 
ATOM     29  N   UNL     1     -50.998  30.563  21.458  1.00  0.00    -0.218 NA
ATOM     30  O   UNL     1     -48.977  31.308  20.791  1.00  0.00    -0.444 OA
ATOM     31  C   UNL     1     -51.021  30.825  20.112  1.00  0.00     0.066 A 
ATOM     32  C   UNL     1     -49.793  31.275  19.704  1.00  0.00     0.112 A 
ATOM     33  H   UNL     1     -51.909  30.673  19.515  1.00  0.00     0.087 H 
ATOM     34  H   UNL     1     -49.361  31.587  18.766  1.00  0.00     0.106 H 
ENDBRANCH  20  28
ENDBRANCH   5  14
BRANCH   9  35
ATOM     35  O   UNL     1     -45.878  33.049  28.555  1.00  0.00    -0.387 OA
ATOM     36  H   UNL     1     -45.449  33.750  29.079  1.00  0.00     0.211 HD
ENDBRANCH   9  35
ENDBRANCH   1   4
BRANCH   1  37
ATOM     37  O   UNL     1     -47.851  36.649  26.917  1.00  0.00    -0.491 OA
BRANCH  37  38
ATOM     38  C   UNL     1     -46.923  37.589  27.273  1.00  0.00     0.121 A 
ATOM     39  C   UNL     1     -46.159  37.252  28.389  1.00  0.00    -0.019 A 
ATOM     40  C   UNL     1     -46.655  38.782  26.602  1.00  0.00     0.007 A 
ATOM     41  C   UNL     1     -45.132  38.091  28.819  1.00  0.00    -0.049 A 
ATOM     42  H   UNL     1     -46.355  36.323  28.919  1.00  0.00     0.066 H 
ATOM     43  C   UNL     1     -45.613  39.617  26.986  1.00  0.00     0.076 A 
ATOM     44  H   UNL     1     -47.210  39.080  25.719  1.00  0.00     0.069 H 
ATOM     45  C   UNL     1     -44.846  39.267  28.110  1.00  0.00     0.001 A 
ATOM     46  H   UNL     1     -44.541  37.807  29.686  1.00  0.00     0.063 H 
ATOM     47  N   UNL     1     -45.352  40.707  26.247  1.00  0.00    -0.231 NA
ATOM     48  C   UNL     1     -43.790  40.110  28.466  1.00  0.00    -0.049 A 
ATOM     49  C   UNL     1     -44.291  41.482  26.558  1.00  0.00     0.129 A 
ATOM     50  C   UNL     1     -43.508  41.222  27.679  1.00  0.00    -0.019 A 
ATOM     51  H   UNL     1     -43.171  39.895  29.331  1.00  0.00     0.063 H 
ATOM     52  H   UNL     1     -42.678  41.872  27.932  1.00  0.00     0.066 H 
BRANCH  49  53
ATOM     53  N   UNL     1     -43.977  42.571  25.720  1.00  0.00    -0.356 N 
ATOM     54  C   UNL     1     -44.105  42.515  24.285  1.00  0.00     0.021 C 
ATOM     55  C   UNL     1     -42.678  43.183  25.628  1.00  0.00     0.021 C 
ATOM     56  C   UNL     1     -43.096  43.665  24.237  1.00  0.00    -0.018 C 
ATOM     57  H   UNL     1     -43.750  41.573  23.854  1.00  0.00     0.049 H 
ATOM     58  H   UNL     1     -45.112  42.748  23.931  1.00  0.00     0.049 H 
ATOM     59  H   UNL     1     -41.859  42.458  25.640  1.00  0.00     0.049 H 
ATOM     60  H   UNL     1     -42.512  43.966  26.372  1.00  0.00     0.049 H 
ATOM     61  H   UNL     1     -43.548  44.663  24.220  1.00  0.00     0.030 H 
ATOM     62  H   UNL     1     -42.332  43.596  23.458  1.00  0.00     0.030 H 
ENDBRANCH  49  53
ENDBRANCH  37  38
ENDBRANCH   1  37
TORSDOF 8
ENDMDL
MODEL 7
REMARK VINA RESULT:      -9.2      4.696      9.257
REMARK SMILES Nc1ncnc2c1c(-c1ncco1)cn2[C@@H]1O[C@H](COc2ccc3ccc(N4CCC4)nc3c2)[C@@H](O)[C@@H]1F
REMARK SMILES IDX 19 1 18 4 16 5 17 6 37 7 35 9 38 10 15 14 2 15 3 16 7 17
REMARK SMILES IDX 4 18 6 19 8 20 5 21 14 23 1 25 9 28 10 29 13 30 11 31 12 32
REMARK SMILES IDX 36 35 20 37 21 38 22 39 34 40 23 41 33 43 24 45 32 47 25 48
REMARK SMILES IDX 27 49 26 50 28 53 29 54 31 55 30 56
REMARK H PARENT 19 2 19 3 16 8 37 11 18 12 35 13 4 22 14 24 1 26 1 27 11 33
REMARK H PARENT 12 34 36 36 22 42 34 44 23 46 25 51 26 52 29 57 29 58 31 59
REMARK H PARENT 31 60 30 61 30 62
REMARK Flexibility Score: inf
ROOT
ATOM      1  C   UNL     1     -44.877  36.880  29.223  1.00  0.00     0.117 C 
ATOM      2  H   UNL     1     -44.395  37.049  28.253  1.00  0.00     0.073 H 
ATOM      3  H   UNL     1     -44.227  36.177  29.757  1.00  0.00     0.073 H 
ENDROOT
BRANCH   1   4
ATOM      4  C   UNL     1     -46.265  36.278  28.956  1.00  0.00     0.123 C 
ATOM      5  C   UNL     1     -48.127  37.329  28.001  1.00  0.00     0.169 C 
ATOM      6  O   UNL     1     -47.295  37.262  29.178  1.00  0.00    -0.345 OA
ATOM      7  C   UNL     1     -47.321  36.753  26.843  1.00  0.00     0.173 C 
ATOM      8  H   UNL     1     -48.966  36.646  28.188  1.00  0.00     0.088 H 
ATOM      9  C   UNL     1     -46.474  35.710  27.547  1.00  0.00     0.119 C 
ATOM     10  F   UNL     1     -46.496  37.659  26.266  1.00  0.00    -0.239 F 
ATOM     11  H   UNL     1     -47.969  36.347  26.061  1.00  0.00     0.074 H 
ATOM     12  H   UNL     1     -46.428  35.497  29.709  1.00  0.00     0.067 H 
ATOM     13  H   UNL     1     -45.530  35.518  27.028  1.00  0.00     0.066 H 
BRANCH   5  14
ATOM     14  N   UNL     1     -48.687  38.663  27.890  1.00  0.00    -0.302 N 
ATOM     15  C   UNL     1     -51.458  40.823  28.412  1.00  0.00     0.137 A 
ATOM     16  N   UNL     1     -52.425  39.949  28.759  1.00  0.00    -0.219 NA
ATOM     17  C   UNL     1     -50.186  40.330  28.082  1.00  0.00     0.074 A 
ATOM     18  C   UNL     1     -52.114  38.641  28.810  1.00  0.00     0.120 A 
ATOM     19  C   UNL     1     -50.002  38.956  28.191  1.00  0.00     0.148 A 
ATOM     20  C   UNL     1     -48.949  40.860  27.629  1.00  0.00     0.068 A 
ATOM     21  N   UNL     1     -50.936  38.055  28.542  1.00  0.00    -0.218 NA
ATOM     22  H   UNL     1     -52.920  37.976  29.106  1.00  0.00     0.106 H 
ATOM     23  C   UNL     1     -48.049  39.819  27.520  1.00  0.00     0.022 A 
ATOM     24  H   UNL     1     -47.007  39.835  27.231  1.00  0.00     0.083 H 
BRANCH  15  25
ATOM     25  N   UNL     1     -51.798  42.164  28.409  1.00  0.00    -0.383 N 
ATOM     26  H   UNL     1     -51.068  42.753  28.784  1.00  0.00     0.158 HD
ATOM     27  H   UNL     1     -52.762  42.368  28.673  1.00  0.00     0.158 HD
ENDBRANCH  15  25
BRANCH  20  28
ATOM     28  C   UNL     1     -48.603  42.338  27.276  1.00  0.00     0.228 A 
ATOM     29  N   UNL     1     -47.973  42.702  26.167  1.00  0.00    -0.218 NA
ATOM     30  O   UNL     1     -48.888  43.395  28.109  1.00  0.00    -0.444 OA
ATOM     31  C   UNL     1     -47.860  44.064  26.273  1.00  0.00     0.066 A 
ATOM     32  C   UNL     1     -48.412  44.488  27.453  1.00  0.00     0.112 A 
ATOM     33  H   UNL     1     -47.388  44.660  25.504  1.00  0.00     0.087 H 
ATOM     34  H   UNL     1     -48.542  45.440  27.943  1.00  0.00     0.106 H 
ENDBRANCH  20  28
ENDBRANCH   5  14
BRANCH   9  35
ATOM     35  O   UNL     1     -47.186  34.462  27.594  1.00  0.00    -0.387 OA
ATOM     36  H   UNL     1     -47.384  34.163  26.688  1.00  0.00     0.211 HD
ENDBRANCH   9  35
ENDBRANCH   1   4
BRANCH   1  37
ATOM     37  O   UNL     1     -44.916  38.158  29.855  1.00  0.00    -0.491 OA
BRANCH  37  38
ATOM     38  C   UNL     1     -44.298  39.218  29.251  1.00  0.00     0.121 A 
ATOM     39  C   UNL     1     -43.126  39.637  29.878  1.00  0.00    -0.019 A 
ATOM     40  C   UNL     1     -44.702  39.851  28.075  1.00  0.00     0.007 A 
ATOM     41  C   UNL     1     -42.362  40.665  29.328  1.00  0.00    -0.049 A 
ATOM     42  H   UNL     1     -42.798  39.150  30.793  1.00  0.00     0.066 H 
ATOM     43  C   UNL     1     -43.939  40.850  27.485  1.00  0.00     0.076 A 
ATOM     44  H   UNL     1     -45.597  39.550  27.541  1.00  0.00     0.069 H 
ATOM     45  C   UNL     1     -42.757  41.263  28.123  1.00  0.00     0.001 A 
ATOM     46  H   UNL     1     -41.445  40.972  29.826  1.00  0.00     0.063 H 
ATOM     47  N   UNL     1     -44.338  41.359  26.308  1.00  0.00    -0.231 NA
ATOM     48  C   UNL     1     -41.995  42.256  27.501  1.00  0.00    -0.049 A 
ATOM     49  C   UNL     1     -43.564  42.271  25.682  1.00  0.00     0.129 A 
ATOM     50  C   UNL     1     -42.400  42.758  26.268  1.00  0.00    -0.019 A 
ATOM     51  H   UNL     1     -41.078  42.621  27.953  1.00  0.00     0.063 H 
ATOM     52  H   UNL     1     -41.806  43.512  25.766  1.00  0.00     0.066 H 
BRANCH  49  53
ATOM     53  N   UNL     1     -43.951  42.728  24.406  1.00  0.00    -0.356 N 
ATOM     54  C   UNL     1     -43.069  43.470  23.541  1.00  0.00     0.021 C 
ATOM     55  C   UNL     1     -45.037  43.640  24.160  1.00  0.00     0.021 C 
ATOM     56  C   UNL     1     -44.329  43.998  22.851  1.00  0.00    -0.018 C 
ATOM     57  H   UNL     1     -42.480  44.228  24.067  1.00  0.00     0.049 H 
ATOM     58  H   UNL     1     -42.423  42.832  22.932  1.00  0.00     0.049 H 
ATOM     59  H   UNL     1     -45.091  44.450  24.893  1.00  0.00     0.049 H 
ATOM     60  H   UNL     1     -46.006  43.146  24.057  1.00  0.00     0.049 H 
ATOM     61  H   UNL     1     -44.652  43.408  21.985  1.00  0.00     0.030 H 
ATOM     62  H   UNL     1     -44.320  45.059  22.588  1.00  0.00     0.030 H 
ENDBRANCH  49  53
ENDBRANCH  37  38
ENDBRANCH   1  37
TORSDOF 8
ENDMDL
