MODEL 1
REMARK VINA RESULT:     -10.4      0.000      0.000
REMARK SMILES CCNc1ccc2ccc(CCc3cncc(-n4cc([C@H]5CCCO5)c5c(N)ncnc54)c3)cc2n1
REMARK SMILES IDX 11 1 10 4 4 5 5 6 36 7 6 8 35 10 7 11 34 13 8 14 9 16 3 19
REMARK SMILES IDX 2 21 1 24 12 28 13 31 14 32 33 33 15 34 17 36 16 38 18 40
REMARK SMILES IDX 19 41 32 42 20 43 26 45 31 46 27 47 30 48 29 49 21 51 22 52
REMARK SMILES IDX 25 53 23 55 24 58 28 63
REMARK H PARENT 11 2 11 3 5 9 6 12 34 15 8 17 9 18 3 20 2 22 2 23 1 25 1 26
REMARK H PARENT 1 27 12 29 12 30 14 35 33 37 16 39 19 44 30 50 21 54 22 56
REMARK H PARENT 22 57 23 59 23 60 24 61 24 62 28 64 28 65
REMARK Flexibility Score: inf
ROOT
ATOM      1  C   UNL     1     -47.907  33.813  26.599  1.00  0.00    -0.024 C 
ATOM      2  H   UNL     1     -47.544  33.588  27.610  1.00  0.00     0.032 H 
ATOM      3  H   UNL     1     -48.989  33.971  26.703  1.00  0.00     0.032 H 
ENDROOT
BRANCH   1   4
ATOM      4  C   UNL     1     -47.646  32.608  25.729  1.00  0.00    -0.046 A 
ATOM      5  C   UNL     1     -48.729  28.117  24.561  1.00  0.00     0.126 A 
ATOM      6  C   UNL     1     -47.781  28.092  23.548  1.00  0.00    -0.019 A 
ATOM      7  N   UNL     1     -48.939  29.203  25.327  1.00  0.00    -0.231 NA
ATOM      8  C   UNL     1     -47.006  29.224  23.324  1.00  0.00    -0.049 A 
ATOM      9  H   UNL     1     -47.659  27.215  22.924  1.00  0.00     0.066 H 
ATOM     10  C   UNL     1     -48.193  30.304  25.111  1.00  0.00     0.073 A 
ATOM     11  C   UNL     1     -47.201  30.361  24.114  1.00  0.00     0.000 A 
ATOM     12  H   UNL     1     -46.264  29.215  22.530  1.00  0.00     0.063 H 
ATOM     13  C   UNL     1     -48.397  31.433  25.896  1.00  0.00    -0.032 A 
ATOM     14  C   UNL     1     -46.443  31.530  23.930  1.00  0.00    -0.053 A 
ATOM     15  H   UNL     1     -49.175  31.389  26.656  1.00  0.00     0.065 H 
ATOM     16  C   UNL     1     -46.665  32.647  24.735  1.00  0.00    -0.058 A 
ATOM     17  H   UNL     1     -45.678  31.575  23.158  1.00  0.00     0.063 H 
ATOM     18  H   UNL     1     -46.068  33.542  24.579  1.00  0.00     0.063 H 
BRANCH   5  19
ATOM     19  N   UNL     1     -49.551  27.022  24.834  1.00  0.00    -0.370 N 
ATOM     20  H   UNL     1     -50.481  27.363  24.586  1.00  0.00     0.162 HD
BRANCH  19  21
ATOM     21  C   UNL     1     -49.504  26.579  26.223  1.00  0.00     0.013 C 
ATOM     22  H   UNL     1     -50.382  25.968  26.466  1.00  0.00     0.049 H 
ATOM     23  H   UNL     1     -49.480  27.435  26.907  1.00  0.00     0.049 H 
BRANCH  21  24
ATOM     24  C   UNL     1     -48.246  25.752  26.443  1.00  0.00    -0.048 C 
ATOM     25  H   UNL     1     -47.961  25.765  27.500  1.00  0.00     0.025 H 
ATOM     26  H   UNL     1     -48.404  24.711  26.143  1.00  0.00     0.025 H 
ATOM     27  H   UNL     1     -47.409  26.147  25.857  1.00  0.00     0.025 H 
ENDBRANCH  21  24
ENDBRANCH  19  21
ENDBRANCH   5  19
ENDBRANCH   1   4
BRANCH   1  28
ATOM     28  C   UNL     1     -47.223  35.091  26.098  1.00  0.00    -0.022 C 
ATOM     29  H   UNL     1     -46.338  34.812  25.510  1.00  0.00     0.032 H 
ATOM     30  H   UNL     1     -47.879  35.631  25.403  1.00  0.00     0.032 H 
BRANCH  28  31
ATOM     31  C   UNL     1     -46.778  36.013  27.203  1.00  0.00    -0.027 A 
ATOM     32  C   UNL     1     -46.977  35.683  28.535  1.00  0.00     0.030 A 
ATOM     33  C   UNL     1     -46.140  37.230  26.924  1.00  0.00    -0.032 A 
ATOM     34  N   UNL     1     -46.610  36.471  29.565  1.00  0.00    -0.262 NA
ATOM     35  H   UNL     1     -47.450  34.748  28.826  1.00  0.00     0.084 H 
ATOM     36  C   UNL     1     -45.731  38.074  27.966  1.00  0.00     0.066 A 
ATOM     37  H   UNL     1     -45.996  37.496  25.881  1.00  0.00     0.065 H 
ATOM     38  C   UNL     1     -45.994  37.644  29.261  1.00  0.00     0.051 A 
ATOM     39  H   UNL     1     -45.712  38.200  30.146  1.00  0.00     0.086 H 
BRANCH  36  40
ATOM     40  N   UNL     1     -45.069  39.316  27.698  1.00  0.00    -0.299 N 
ATOM     41  C   UNL     1     -45.366  40.160  26.641  1.00  0.00     0.018 A 
ATOM     42  C   UNL     1     -44.026  39.909  28.409  1.00  0.00     0.150 A 
ATOM     43  C   UNL     1     -44.545  41.274  26.663  1.00  0.00     0.012 A 
ATOM     44  H   UNL     1     -46.125  39.914  25.912  1.00  0.00     0.083 H 
ATOM     45  C   UNL     1     -43.705  41.127  27.808  1.00  0.00     0.067 A 
ATOM     46  N   UNL     1     -43.425  39.416  29.510  1.00  0.00    -0.218 NA
ATOM     47  C   UNL     1     -42.680  41.878  28.408  1.00  0.00     0.136 A 
ATOM     48  C   UNL     1     -42.452  40.208  29.975  1.00  0.00     0.120 A 
ATOM     49  N   UNL     1     -42.054  41.394  29.493  1.00  0.00    -0.219 NA
ATOM     50  H   UNL     1     -41.923  39.848  30.854  1.00  0.00     0.106 H 
BRANCH  43  51
ATOM     51  C   UNL     1     -44.530  42.384  25.661  1.00  0.00     0.085 C 
ATOM     52  C   UNL     1     -45.041  43.706  26.225  1.00  0.00    -0.020 C 
ATOM     53  O   UNL     1     -43.196  42.646  25.165  1.00  0.00    -0.373 OA
ATOM     54  H   UNL     1     -45.115  42.097  24.780  1.00  0.00     0.066 H 
ATOM     55  C   UNL     1     -44.296  44.720  25.394  1.00  0.00    -0.027 C 
ATOM     56  H   UNL     1     -46.128  43.807  26.154  1.00  0.00     0.030 H 
ATOM     57  H   UNL     1     -44.765  43.821  27.281  1.00  0.00     0.030 H 
ATOM     58  C   UNL     1     -42.949  44.055  25.240  1.00  0.00     0.048 C 
ATOM     59  H   UNL     1     -44.237  45.708  25.858  1.00  0.00     0.029 H 
ATOM     60  H   UNL     1     -44.779  44.823  24.416  1.00  0.00     0.029 H 
ATOM     61  H   UNL     1     -42.313  44.239  26.112  1.00  0.00     0.057 H 
ATOM     62  H   UNL     1     -42.417  44.386  24.344  1.00  0.00     0.057 H 
ENDBRANCH  43  51
BRANCH  47  63
ATOM     63  N   UNL     1     -42.263  43.132  27.968  1.00  0.00    -0.383 N 
ATOM     64  H   UNL     1     -42.432  43.861  28.647  1.00  0.00     0.158 HD
ATOM     65  H   UNL     1     -41.287  43.057  27.692  1.00  0.00     0.158 HD
ENDBRANCH  47  63
ENDBRANCH  36  40
ENDBRANCH  28  31
ENDBRANCH   1  28
TORSDOF 9
ENDMDL
MODEL 2
REMARK VINA RESULT:     -10.3      3.269     12.309
REMARK SMILES CCNc1ccc2ccc(CCc3cncc(-n4cc([C@H]5CCCO5)c5c(N)ncnc54)c3)cc2n1
REMARK SMILES IDX 11 1 10 4 4 5 5 6 36 7 6 8 35 10 7 11 34 13 8 14 9 16 3 19
REMARK SMILES IDX 2 21 1 24 12 28 13 31 14 32 33 33 15 34 17 36 16 38 18 40
REMARK SMILES IDX 19 41 32 42 20 43 26 45 31 46 27 47 30 48 29 49 21 51 22 52
REMARK SMILES IDX 25 53 23 55 24 58 28 63
REMARK H PARENT 11 2 11 3 5 9 6 12 34 15 8 17 9 18 3 20 2 22 2 23 1 25 1 26
REMARK H PARENT 1 27 12 29 12 30 14 35 33 37 16 39 19 44 30 50 21 54 22 56
REMARK H PARENT 22 57 23 59 23 60 24 61 24 62 28 64 28 65
REMARK Flexibility Score: inf
ROOT
ATOM      1  C   UNL     1     -46.671  37.351  27.453  1.00  0.00    -0.024 C 
ATOM      2  H   UNL     1     -47.037  37.898  26.576  1.00  0.00     0.032 H 
ATOM      3  H   UNL     1     -47.525  37.291  28.141  1.00  0.00     0.032 H 
ENDROOT
BRANCH   1   4
ATOM      4  C   UNL     1     -45.562  38.160  28.081  1.00  0.00    -0.046 A 
ATOM      5  C   UNL     1     -42.547  41.840  27.805  1.00  0.00     0.126 A 
ATOM      6  C   UNL     1     -42.014  41.569  29.057  1.00  0.00    -0.019 A 
ATOM      7  N   UNL     1     -43.533  41.099  27.265  1.00  0.00    -0.231 NA
ATOM      8  C   UNL     1     -42.500  40.483  29.775  1.00  0.00    -0.049 A 
ATOM      9  H   UNL     1     -41.245  42.204  29.481  1.00  0.00     0.066 H 
ATOM     10  C   UNL     1     -44.011  40.050  27.959  1.00  0.00     0.073 A 
ATOM     11  C   UNL     1     -43.518  39.695  29.230  1.00  0.00     0.000 A 
ATOM     12  H   UNL     1     -42.091  40.265  30.758  1.00  0.00     0.063 H 
ATOM     13  C   UNL     1     -45.028  39.274  27.414  1.00  0.00    -0.032 A 
ATOM     14  C   UNL     1     -44.044  38.586  29.913  1.00  0.00    -0.053 A 
ATOM     15  H   UNL     1     -45.416  39.560  26.438  1.00  0.00     0.065 H 
ATOM     16  C   UNL     1     -45.060  37.822  29.340  1.00  0.00    -0.058 A 
ATOM     17  H   UNL     1     -43.665  38.314  30.896  1.00  0.00     0.063 H 
ATOM     18  H   UNL     1     -45.454  36.967  29.884  1.00  0.00     0.063 H 
BRANCH   5  19
ATOM     19  N   UNL     1     -42.117  42.920  27.033  1.00  0.00    -0.370 N 
ATOM     20  H   UNL     1     -41.583  43.483  27.697  1.00  0.00     0.162 HD
BRANCH  19  21
ATOM     21  C   UNL     1     -43.203  43.692  26.439  1.00  0.00     0.013 C 
ATOM     22  H   UNL     1     -43.202  44.720  26.821  1.00  0.00     0.049 H 
ATOM     23  H   UNL     1     -44.175  43.241  26.668  1.00  0.00     0.049 H 
BRANCH  21  24
ATOM     24  C   UNL     1     -43.030  43.723  24.929  1.00  0.00    -0.048 C 
ATOM     25  H   UNL     1     -43.218  44.729  24.542  1.00  0.00     0.025 H 
ATOM     26  H   UNL     1     -42.013  43.431  24.644  1.00  0.00     0.025 H 
ATOM     27  H   UNL     1     -43.726  43.031  24.440  1.00  0.00     0.025 H 
ENDBRANCH  21  24
ENDBRANCH  19  21
ENDBRANCH   5  19
ENDBRANCH   1   4
BRANCH   1  28
ATOM     28  C   UNL     1     -46.234  35.947  27.017  1.00  0.00    -0.022 C 
ATOM     29  H   UNL     1     -45.625  36.032  26.107  1.00  0.00     0.032 H 
ATOM     30  H   UNL     1     -45.575  35.498  27.771  1.00  0.00     0.032 H 
BRANCH  28  31
ATOM     31  C   UNL     1     -47.383  35.018  26.724  1.00  0.00    -0.027 A 
ATOM     32  C   UNL     1     -48.681  35.348  27.087  1.00  0.00     0.030 A 
ATOM     33  C   UNL     1     -47.184  33.797  26.066  1.00  0.00    -0.032 A 
ATOM     34  N   UNL     1     -49.747  34.554  26.861  1.00  0.00    -0.262 NA
ATOM     35  H   UNL     1     -48.912  36.286  27.586  1.00  0.00     0.084 H 
ATOM     36  C   UNL     1     -48.267  32.947  25.800  1.00  0.00     0.066 A 
ATOM     37  H   UNL     1     -46.167  33.532  25.792  1.00  0.00     0.065 H 
ATOM     38  C   UNL     1     -49.520  33.377  26.222  1.00  0.00     0.051 A 
ATOM     39  H   UNL     1     -50.432  32.817  26.059  1.00  0.00     0.086 H 
BRANCH  36  40
ATOM     40  N   UNL     1     -48.081  31.700  25.120  1.00  0.00    -0.299 N 
ATOM     41  C   UNL     1     -48.731  30.520  25.438  1.00  0.00     0.018 A 
ATOM     42  C   UNL     1     -47.238  31.420  24.044  1.00  0.00     0.150 A 
ATOM     43  C   UNL     1     -48.329  29.500  24.593  1.00  0.00     0.012 A 
ATOM     44  H   UNL     1     -49.424  30.456  26.264  1.00  0.00     0.083 H 
ATOM     45  C   UNL     1     -47.393  30.081  23.686  1.00  0.00     0.067 A 
ATOM     46  N   UNL     1     -46.416  32.290  23.424  1.00  0.00    -0.218 NA
ATOM     47  C   UNL     1     -46.628  29.625  22.598  1.00  0.00     0.136 A 
ATOM     48  C   UNL     1     -45.725  31.735  22.421  1.00  0.00     0.120 A 
ATOM     49  N   UNL     1     -45.787  30.470  21.980  1.00  0.00    -0.219 NA
ATOM     50  H   UNL     1     -45.034  32.389  21.897  1.00  0.00     0.106 H 
BRANCH  43  51
ATOM     51  C   UNL     1     -48.769  28.071  24.655  1.00  0.00     0.085 C 
ATOM     52  C   UNL     1     -47.674  27.129  25.143  1.00  0.00    -0.020 C 
ATOM     53  O   UNL     1     -49.889  27.889  25.553  1.00  0.00    -0.373 OA
ATOM     54  H   UNL     1     -49.132  27.752  23.671  1.00  0.00     0.066 H 
ATOM     55  C   UNL     1     -48.466  26.022  25.791  1.00  0.00    -0.027 C 
ATOM     56  H   UNL     1     -47.024  26.777  24.336  1.00  0.00     0.030 H 
ATOM     57  H   UNL     1     -47.038  27.614  25.894  1.00  0.00     0.030 H 
ATOM     58  C   UNL     1     -49.598  26.792  26.428  1.00  0.00     0.048 C 
ATOM     59  H   UNL     1     -47.891  25.432  26.508  1.00  0.00     0.029 H 
ATOM     60  H   UNL     1     -48.857  25.348  25.019  1.00  0.00     0.029 H 
ATOM     61  H   UNL     1     -49.302  27.205  27.398  1.00  0.00     0.057 H 
ATOM     62  H   UNL     1     -50.496  26.183  26.567  1.00  0.00     0.057 H 
ENDBRANCH  43  51
BRANCH  47  63
ATOM     63  N   UNL     1     -46.691  28.333  22.079  1.00  0.00    -0.383 N 
ATOM     64  H   UNL     1     -46.897  28.320  21.089  1.00  0.00     0.158 HD
ATOM     65  H   UNL     1     -45.824  27.859  22.317  1.00  0.00     0.158 HD
ENDBRANCH  47  63
ENDBRANCH  36  40
ENDBRANCH  28  31
ENDBRANCH   1  28
TORSDOF 9
ENDMDL
MODEL 3
REMARK VINA RESULT:     -10.2      3.428     12.594
REMARK SMILES CCNc1ccc2ccc(CCc3cncc(-n4cc([C@H]5CCCO5)c5c(N)ncnc54)c3)cc2n1
REMARK SMILES IDX 11 1 10 4 4 5 5 6 36 7 6 8 35 10 7 11 34 13 8 14 9 16 3 19
REMARK SMILES IDX 2 21 1 24 12 28 13 31 14 32 33 33 15 34 17 36 16 38 18 40
REMARK SMILES IDX 19 41 32 42 20 43 26 45 31 46 27 47 30 48 29 49 21 51 22 52
REMARK SMILES IDX 25 53 23 55 24 58 28 63
REMARK H PARENT 11 2 11 3 5 9 6 12 34 15 8 17 9 18 3 20 2 22 2 23 1 25 1 26
REMARK H PARENT 1 27 12 29 12 30 14 35 33 37 16 39 19 44 30 50 21 54 22 56
REMARK H PARENT 22 57 23 59 23 60 24 61 24 62 28 64 28 65
REMARK Flexibility Score: inf
ROOT
ATOM      1  C   UNL     1     -46.075  35.892  27.943  1.00  0.00    -0.024 C 
ATOM      2  H   UNL     1     -46.991  35.711  28.518  1.00  0.00     0.032 H 
ATOM      3  H   UNL     1     -45.247  35.710  28.642  1.00  0.00     0.032 H 
ENDROOT
BRANCH   1   4
ATOM      4  C   UNL     1     -46.072  37.338  27.509  1.00  0.00    -0.046 A 
ATOM      5  C   UNL     1     -43.800  41.520  27.293  1.00  0.00     0.126 A 
ATOM      6  C   UNL     1     -44.844  42.116  26.601  1.00  0.00    -0.019 A 
ATOM      7  N   UNL     1     -43.829  40.230  27.673  1.00  0.00    -0.231 NA
ATOM      8  C   UNL     1     -45.972  41.360  26.304  1.00  0.00    -0.049 A 
ATOM      9  H   UNL     1     -44.777  43.148  26.277  1.00  0.00     0.066 H 
ATOM     10  C   UNL     1     -44.917  39.492  27.383  1.00  0.00     0.073 A 
ATOM     11  C   UNL     1     -46.028  40.020  26.697  1.00  0.00     0.000 A 
ATOM     12  H   UNL     1     -46.794  41.817  25.759  1.00  0.00     0.063 H 
ATOM     13  C   UNL     1     -44.962  38.158  27.771  1.00  0.00    -0.032 A 
ATOM     14  C   UNL     1     -47.144  39.212  26.422  1.00  0.00    -0.053 A 
ATOM     15  H   UNL     1     -44.097  37.750  28.289  1.00  0.00     0.065 H 
ATOM     16  C   UNL     1     -47.165  37.878  26.828  1.00  0.00    -0.058 A 
ATOM     17  H   UNL     1     -48.001  39.619  25.890  1.00  0.00     0.063 H 
ATOM     18  H   UNL     1     -48.039  37.269  26.607  1.00  0.00     0.063 H 
BRANCH   5  19
ATOM     19  N   UNL     1     -42.632  42.215  27.615  1.00  0.00    -0.370 N 
ATOM     20  H   UNL     1     -42.956  43.177  27.723  1.00  0.00     0.162 HD
BRANCH  19  21
ATOM     21  C   UNL     1     -41.588  42.118  26.601  1.00  0.00     0.013 C 
ATOM     22  H   UNL     1     -41.633  41.149  26.090  1.00  0.00     0.049 H 
ATOM     23  H   UNL     1     -40.594  42.224  27.051  1.00  0.00     0.049 H 
BRANCH  21  24
ATOM     24  C   UNL     1     -41.777  43.228  25.579  1.00  0.00    -0.048 C 
ATOM     25  H   UNL     1     -41.172  44.101  25.848  1.00  0.00     0.025 H 
ATOM     26  H   UNL     1     -41.476  42.898  24.579  1.00  0.00     0.025 H 
ATOM     27  H   UNL     1     -42.826  43.540  25.528  1.00  0.00     0.025 H 
ENDBRANCH  21  24
ENDBRANCH  19  21
ENDBRANCH   5  19
ENDBRANCH   1   4
BRANCH   1  28
ATOM     28  C   UNL     1     -46.017  34.901  26.774  1.00  0.00    -0.022 C 
ATOM     29  H   UNL     1     -45.741  35.446  25.861  1.00  0.00     0.032 H 
ATOM     30  H   UNL     1     -45.217  34.166  26.931  1.00  0.00     0.032 H 
BRANCH  28  31
ATOM     31  C   UNL     1     -47.320  34.190  26.517  1.00  0.00    -0.027 A 
ATOM     32  C   UNL     1     -48.533  34.771  26.859  1.00  0.00     0.030 A 
ATOM     33  C   UNL     1     -47.354  32.925  25.916  1.00  0.00    -0.032 A 
ATOM     34  N   UNL     1     -49.728  34.181  26.663  1.00  0.00    -0.262 NA
ATOM     35  H   UNL     1     -48.583  35.758  27.314  1.00  0.00     0.084 H 
ATOM     36  C   UNL     1     -48.577  32.280  25.683  1.00  0.00     0.066 A 
ATOM     37  H   UNL     1     -46.406  32.463  25.659  1.00  0.00     0.065 H 
ATOM     38  C   UNL     1     -49.727  32.954  26.079  1.00  0.00     0.051 A 
ATOM     39  H   UNL     1     -50.728  32.567  25.937  1.00  0.00     0.086 H 
BRANCH  36  40
ATOM     40  N   UNL     1     -48.629  30.990  25.060  1.00  0.00    -0.299 N 
ATOM     41  C   UNL     1     -48.386  29.790  25.705  1.00  0.00     0.018 A 
ATOM     42  C   UNL     1     -48.917  30.685  23.730  1.00  0.00     0.150 A 
ATOM     43  C   UNL     1     -48.515  28.731  24.824  1.00  0.00     0.012 A 
ATOM     44  H   UNL     1     -48.106  29.750  26.748  1.00  0.00     0.083 H 
ATOM     45  C   UNL     1     -48.879  29.300  23.567  1.00  0.00     0.067 A 
ATOM     46  N   UNL     1     -49.207  31.565  22.751  1.00  0.00    -0.218 NA
ATOM     47  C   UNL     1     -49.167  28.807  22.282  1.00  0.00     0.136 A 
ATOM     48  C   UNL     1     -49.439  30.979  21.571  1.00  0.00     0.120 A 
ATOM     49  N   UNL     1     -49.437  29.668  21.288  1.00  0.00    -0.219 NA
ATOM     50  H   UNL     1     -49.662  31.646  20.742  1.00  0.00     0.106 H 
BRANCH  43  51
ATOM     51  C   UNL     1     -48.281  27.286  25.133  1.00  0.00     0.085 C 
ATOM     52  C   UNL     1     -48.078  27.019  26.621  1.00  0.00    -0.020 C 
ATOM     53  O   UNL     1     -49.395  26.458  24.723  1.00  0.00    -0.373 OA
ATOM     54  H   UNL     1     -47.421  26.918  24.562  1.00  0.00     0.066 H 
ATOM     55  C   UNL     1     -48.581  25.605  26.766  1.00  0.00    -0.027 C 
ATOM     56  H   UNL     1     -47.037  27.139  26.937  1.00  0.00     0.030 H 
ATOM     57  H   UNL     1     -48.691  27.692  27.233  1.00  0.00     0.030 H 
ATOM     58  C   UNL     1     -49.753  25.600  25.813  1.00  0.00     0.048 C 
ATOM     59  H   UNL     1     -48.858  25.340  27.790  1.00  0.00     0.029 H 
ATOM     60  H   UNL     1     -47.813  24.902  26.421  1.00  0.00     0.029 H 
ATOM     61  H   UNL     1     -50.650  26.013  26.285  1.00  0.00     0.057 H 
ATOM     62  H   UNL     1     -49.984  24.600  25.436  1.00  0.00     0.057 H 
ENDBRANCH  43  51
BRANCH  47  63
ATOM     63  N   UNL     1     -49.218  27.454  21.953  1.00  0.00    -0.383 N 
ATOM     64  H   UNL     1     -49.000  26.853  22.736  1.00  0.00     0.158 HD
ATOM     65  H   UNL     1     -50.129  27.267  21.542  1.00  0.00     0.158 HD
ENDBRANCH  47  63
ENDBRANCH  36  40
ENDBRANCH  28  31
ENDBRANCH   1  28
TORSDOF 9
ENDMDL
MODEL 4
REMARK VINA RESULT:     -10.1      3.376     12.324
REMARK SMILES CCNc1ccc2ccc(CCc3cncc(-n4cc([C@H]5CCCO5)c5c(N)ncnc54)c3)cc2n1
REMARK SMILES IDX 11 1 10 4 4 5 5 6 36 7 6 8 35 10 7 11 34 13 8 14 9 16 3 19
REMARK SMILES IDX 2 21 1 24 12 28 13 31 14 32 33 33 15 34 17 36 16 38 18 40
REMARK SMILES IDX 19 41 32 42 20 43 26 45 31 46 27 47 30 48 29 49 21 51 22 52
REMARK SMILES IDX 25 53 23 55 24 58 28 63
REMARK H PARENT 11 2 11 3 5 9 6 12 34 15 8 17 9 18 3 20 2 22 2 23 1 25 1 26
REMARK H PARENT 1 27 12 29 12 30 14 35 33 37 16 39 19 44 30 50 21 54 22 56
REMARK H PARENT 22 57 23 59 23 60 24 61 24 62 28 64 28 65
REMARK Flexibility Score: inf
ROOT
ATOM      1  C   UNL     1     -47.881  36.013  28.676  1.00  0.00    -0.024 C 
ATOM      2  H   UNL     1     -48.626  36.321  29.420  1.00  0.00     0.032 H 
ATOM      3  H   UNL     1     -47.457  35.073  29.054  1.00  0.00     0.032 H 
ENDROOT
BRANCH   1   4
ATOM      4  C   UNL     1     -46.808  37.074  28.622  1.00  0.00    -0.046 A 
ATOM      5  C   UNL     1     -44.899  40.823  26.383  1.00  0.00     0.126 A 
ATOM      6  C   UNL     1     -43.911  40.966  27.347  1.00  0.00    -0.019 A 
ATOM      7  N   UNL     1     -45.841  39.864  26.453  1.00  0.00    -0.231 NA
ATOM      8  C   UNL     1     -43.880  40.078  28.416  1.00  0.00    -0.049 A 
ATOM      9  H   UNL     1     -43.187  41.770  27.282  1.00  0.00     0.066 H 
ATOM     10  C   UNL     1     -45.818  39.005  27.489  1.00  0.00     0.073 A 
ATOM     11  C   UNL     1     -44.844  39.070  28.503  1.00  0.00     0.000 A 
ATOM     12  H   UNL     1     -43.112  40.185  29.177  1.00  0.00     0.063 H 
ATOM     13  C   UNL     1     -46.784  38.009  27.573  1.00  0.00    -0.032 A 
ATOM     14  C   UNL     1     -44.856  38.146  29.562  1.00  0.00    -0.053 A 
ATOM     15  H   UNL     1     -47.543  37.971  26.794  1.00  0.00     0.065 H 
ATOM     16  C   UNL     1     -45.833  37.153  29.619  1.00  0.00    -0.058 A 
ATOM     17  H   UNL     1     -44.105  38.198  30.347  1.00  0.00     0.063 H 
ATOM     18  H   UNL     1     -45.827  36.446  30.445  1.00  0.00     0.063 H 
BRANCH   5  19
ATOM     19  N   UNL     1     -44.999  41.685  25.289  1.00  0.00    -0.370 N 
ATOM     20  H   UNL     1     -44.545  41.163  24.539  1.00  0.00     0.162 HD
BRANCH  19  21
ATOM     21  C   UNL     1     -44.359  42.979  25.496  1.00  0.00     0.013 C 
ATOM     22  H   UNL     1     -43.538  43.124  24.783  1.00  0.00     0.049 H 
ATOM     23  H   UNL     1     -43.951  43.057  26.511  1.00  0.00     0.049 H 
BRANCH  21  24
ATOM     24  C   UNL     1     -45.386  44.084  25.304  1.00  0.00    -0.048 C 
ATOM     25  H   UNL     1     -45.889  43.974  24.338  1.00  0.00     0.025 H 
ATOM     26  H   UNL     1     -46.146  44.055  26.091  1.00  0.00     0.025 H 
ATOM     27  H   UNL     1     -44.911  45.071  25.333  1.00  0.00     0.025 H 
ENDBRANCH  21  24
ENDBRANCH  19  21
ENDBRANCH   5  19
ENDBRANCH   1   4
BRANCH   1  28
ATOM     28  C   UNL     1     -48.584  35.784  27.333  1.00  0.00    -0.022 C 
ATOM     29  H   UNL     1     -49.628  35.500  27.523  1.00  0.00     0.032 H 
ATOM     30  H   UNL     1     -48.632  36.718  26.759  1.00  0.00     0.032 H 
BRANCH  28  31
ATOM     31  C   UNL     1     -47.952  34.703  26.495  1.00  0.00    -0.027 A 
ATOM     32  C   UNL     1     -46.679  34.858  25.967  1.00  0.00     0.030 A 
ATOM     33  C   UNL     1     -48.622  33.501  26.231  1.00  0.00    -0.032 A 
ATOM     34  N   UNL     1     -46.066  33.931  25.204  1.00  0.00    -0.262 NA
ATOM     35  H   UNL     1     -46.094  35.757  26.146  1.00  0.00     0.084 H 
ATOM     36  C   UNL     1     -48.017  32.504  25.451  1.00  0.00     0.066 A 
ATOM     37  H   UNL     1     -49.624  33.383  26.633  1.00  0.00     0.065 H 
ATOM     38  C   UNL     1     -46.743  32.777  24.965  1.00  0.00     0.051 A 
ATOM     39  H   UNL     1     -46.168  32.081  24.367  1.00  0.00     0.086 H 
BRANCH  36  40
ATOM     40  N   UNL     1     -48.685  31.267  25.179  1.00  0.00    -0.299 N 
ATOM     41  C   UNL     1     -48.310  30.036  25.690  1.00  0.00     0.018 A 
ATOM     42  C   UNL     1     -49.801  31.047  24.372  1.00  0.00     0.150 A 
ATOM     43  C   UNL     1     -49.158  29.042  25.235  1.00  0.00     0.012 A 
ATOM     44  H   UNL     1     -47.445  29.923  26.328  1.00  0.00     0.083 H 
ATOM     45  C   UNL     1     -50.127  29.691  24.412  1.00  0.00     0.067 A 
ATOM     46  N   UNL     1     -50.481  31.979  23.676  1.00  0.00    -0.218 NA
ATOM     47  C   UNL     1     -51.248  29.288  23.666  1.00  0.00     0.136 A 
ATOM     48  C   UNL     1     -51.511  31.473  22.989  1.00  0.00     0.120 A 
ATOM     49  N   UNL     1     -51.927  30.198  22.948  1.00  0.00    -0.219 NA
ATOM     50  H   UNL     1     -52.085  32.180  22.395  1.00  0.00     0.106 H 
BRANCH  43  51
ATOM     51  C   UNL     1     -49.048  27.579  25.527  1.00  0.00     0.085 C 
ATOM     52  C   UNL     1     -47.926  26.898  24.750  1.00  0.00    -0.020 C 
ATOM     53  O   UNL     1     -48.781  27.325  26.927  1.00  0.00    -0.373 OA
ATOM     54  H   UNL     1     -50.004  27.085  25.320  1.00  0.00     0.066 H 
ATOM     55  C   UNL     1     -47.543  25.763  25.665  1.00  0.00    -0.027 C 
ATOM     56  H   UNL     1     -48.238  26.562  23.757  1.00  0.00     0.030 H 
ATOM     57  H   UNL     1     -47.068  27.570  24.619  1.00  0.00     0.030 H 
ATOM     58  C   UNL     1     -47.686  26.407  27.024  1.00  0.00     0.048 C 
ATOM     59  H   UNL     1     -46.541  25.368  25.480  1.00  0.00     0.029 H 
ATOM     60  H   UNL     1     -48.264  24.943  25.560  1.00  0.00     0.029 H 
ATOM     61  H   UNL     1     -46.790  26.979  27.289  1.00  0.00     0.057 H 
ATOM     62  H   UNL     1     -47.883  25.679  27.816  1.00  0.00     0.057 H 
ENDBRANCH  43  51
BRANCH  47  63
ATOM     63  N   UNL     1     -51.741  27.986  23.629  1.00  0.00    -0.383 N 
ATOM     64  H   UNL     1     -51.043  27.313  23.344  1.00  0.00     0.158 HD
ATOM     65  H   UNL     1     -52.152  27.781  24.536  1.00  0.00     0.158 HD
ENDBRANCH  47  63
ENDBRANCH  36  40
ENDBRANCH  28  31
ENDBRANCH   1  28
TORSDOF 9
ENDMDL
MODEL 5
REMARK VINA RESULT:      -9.9      1.189      1.918
REMARK SMILES CCNc1ccc2ccc(CCc3cncc(-n4cc([C@H]5CCCO5)c5c(N)ncnc54)c3)cc2n1
REMARK SMILES IDX 11 1 10 4 4 5 5 6 36 7 6 8 35 10 7 11 34 13 8 14 9 16 3 19
REMARK SMILES IDX 2 21 1 24 12 28 13 31 14 32 33 33 15 34 17 36 16 38 18 40
REMARK SMILES IDX 19 41 32 42 20 43 26 45 31 46 27 47 30 48 29 49 21 51 22 52
REMARK SMILES IDX 25 53 23 55 24 58 28 63
REMARK H PARENT 11 2 11 3 5 9 6 12 34 15 8 17 9 18 3 20 2 22 2 23 1 25 1 26
REMARK H PARENT 1 27 12 29 12 30 14 35 33 37 16 39 19 44 30 50 21 54 22 56
REMARK H PARENT 22 57 23 59 23 60 24 61 24 62 28 64 28 65
REMARK Flexibility Score: inf
ROOT
ATOM      1  C   UNL     1     -48.466  36.186  27.223  1.00  0.00    -0.024 C 
ATOM      2  H   UNL     1     -49.550  36.239  27.069  1.00  0.00     0.032 H 
ATOM      3  H   UNL     1     -48.060  37.105  26.779  1.00  0.00     0.032 H 
ENDROOT
BRANCH   1   4
ATOM      4  C   UNL     1     -47.944  34.982  26.476  1.00  0.00    -0.046 A 
ATOM      5  C   UNL     1     -48.649  30.529  24.934  1.00  0.00     0.126 A 
ATOM      6  C   UNL     1     -47.411  30.489  24.310  1.00  0.00    -0.019 A 
ATOM      7  N   UNL     1     -49.088  31.614  25.598  1.00  0.00    -0.231 NA
ATOM      8  C   UNL     1     -46.583  31.603  24.386  1.00  0.00    -0.049 A 
ATOM      9  H   UNL     1     -47.099  29.614  23.752  1.00  0.00     0.066 H 
ATOM     10  C   UNL     1     -48.292  32.697  25.670  1.00  0.00     0.073 A 
ATOM     11  C   UNL     1     -47.015  32.738  25.078  1.00  0.00     0.000 A 
ATOM     12  H   UNL     1     -45.612  31.583  23.896  1.00  0.00     0.063 H 
ATOM     13  C   UNL     1     -48.731  33.824  26.355  1.00  0.00    -0.032 A 
ATOM     14  C   UNL     1     -46.217  33.889  25.186  1.00  0.00    -0.053 A 
ATOM     15  H   UNL     1     -49.724  33.794  26.799  1.00  0.00     0.065 H 
ATOM     16  C   UNL     1     -46.680  35.005  25.883  1.00  0.00    -0.058 A 
ATOM     17  H   UNL     1     -45.232  33.922  24.726  1.00  0.00     0.063 H 
ATOM     18  H   UNL     1     -46.048  35.886  25.957  1.00  0.00     0.063 H 
BRANCH   5  19
ATOM     19  N   UNL     1     -49.537  29.452  24.889  1.00  0.00    -0.370 N 
ATOM     20  H   UNL     1     -50.055  29.541  25.765  1.00  0.00     0.162 HD
BRANCH  19  21
ATOM     21  C   UNL     1     -48.885  28.151  24.790  1.00  0.00     0.013 C 
ATOM     22  H   UNL     1     -47.802  28.269  24.660  1.00  0.00     0.049 H 
ATOM     23  H   UNL     1     -49.274  27.582  23.937  1.00  0.00     0.049 H 
BRANCH  21  24
ATOM     24  C   UNL     1     -49.151  27.358  26.060  1.00  0.00    -0.048 C 
ATOM     25  H   UNL     1     -49.766  26.480  25.840  1.00  0.00     0.025 H 
ATOM     26  H   UNL     1     -48.214  27.016  26.512  1.00  0.00     0.025 H 
ATOM     27  H   UNL     1     -49.677  27.969  26.801  1.00  0.00     0.025 H 
ENDBRANCH  21  24
ENDBRANCH  19  21
ENDBRANCH   5  19
ENDBRANCH   1   4
BRANCH   1  28
ATOM     28  C   UNL     1     -48.178  36.145  28.729  1.00  0.00    -0.022 C 
ATOM     29  H   UNL     1     -49.033  36.578  29.265  1.00  0.00     0.032 H 
ATOM     30  H   UNL     1     -48.106  35.107  29.078  1.00  0.00     0.032 H 
BRANCH  28  31
ATOM     31  C   UNL     1     -46.942  36.906  29.130  1.00  0.00    -0.027 A 
ATOM     32  C   UNL     1     -46.207  36.540  30.249  1.00  0.00     0.030 A 
ATOM     33  C   UNL     1     -46.485  38.000  28.384  1.00  0.00    -0.032 A 
ATOM     34  N   UNL     1     -45.100  37.188  30.662  1.00  0.00    -0.262 NA
ATOM     35  H   UNL     1     -46.493  35.692  30.865  1.00  0.00     0.084 H 
ATOM     36  C   UNL     1     -45.330  38.695  28.771  1.00  0.00     0.066 A 
ATOM     37  H   UNL     1     -47.066  38.296  27.515  1.00  0.00     0.065 H 
ATOM     38  C   UNL     1     -44.684  38.245  29.917  1.00  0.00     0.051 A 
ATOM     39  H   UNL     1     -43.775  38.688  30.306  1.00  0.00     0.086 H 
BRANCH  36  40
ATOM     40  N   UNL     1     -44.845  39.809  28.014  1.00  0.00    -0.299 N 
ATOM     41  C   UNL     1     -45.460  40.330  26.888  1.00  0.00     0.018 A 
ATOM     42  C   UNL     1     -43.696  40.569  28.235  1.00  0.00     0.150 A 
ATOM     43  C   UNL     1     -44.738  41.400  26.391  1.00  0.00     0.012 A 
ATOM     44  H   UNL     1     -46.362  39.897  26.481  1.00  0.00     0.083 H 
ATOM     45  C   UNL     1     -43.624  41.571  27.266  1.00  0.00     0.067 A 
ATOM     46  N   UNL     1     -42.801  40.397  29.228  1.00  0.00    -0.218 NA
ATOM     47  C   UNL     1     -42.532  42.452  27.348  1.00  0.00     0.136 A 
ATOM     48  C   UNL     1     -41.796  41.280  29.187  1.00  0.00     0.120 A 
ATOM     49  N   UNL     1     -41.617  42.284  28.316  1.00  0.00    -0.219 NA
ATOM     50  H   UNL     1     -41.036  41.174  29.957  1.00  0.00     0.106 H 
BRANCH  43  51
ATOM     51  C   UNL     1     -45.056  42.190  25.160  1.00  0.00     0.085 C 
ATOM     52  C   UNL     1     -45.454  43.631  25.461  1.00  0.00    -0.020 C 
ATOM     53  O   UNL     1     -43.927  42.262  24.258  1.00  0.00    -0.373 OA
ATOM     54  H   UNL     1     -45.849  41.689  24.592  1.00  0.00     0.066 H 
ATOM     55  C   UNL     1     -45.020  44.352  24.210  1.00  0.00    -0.027 C 
ATOM     56  H   UNL     1     -46.522  43.743  25.672  1.00  0.00     0.030 H 
ATOM     57  H   UNL     1     -44.901  44.025  26.323  1.00  0.00     0.030 H 
ATOM     58  C   UNL     1     -43.738  43.629  23.872  1.00  0.00     0.048 C 
ATOM     59  H   UNL     1     -44.882  45.428  24.349  1.00  0.00     0.029 H 
ATOM     60  H   UNL     1     -45.761  44.196  23.417  1.00  0.00     0.029 H 
ATOM     61  H   UNL     1     -42.894  44.026  24.446  1.00  0.00     0.057 H 
ATOM     62  H   UNL     1     -43.493  43.682  22.808  1.00  0.00     0.057 H 
ENDBRANCH  43  51
BRANCH  47  63
ATOM     63  N   UNL     1     -42.328  43.532  26.492  1.00  0.00    -0.383 N 
ATOM     64  H   UNL     1     -41.355  43.659  26.249  1.00  0.00     0.158 HD
ATOM     65  H   UNL     1     -42.932  43.409  25.684  1.00  0.00     0.158 HD
ENDBRANCH  47  63
ENDBRANCH  36  40
ENDBRANCH  28  31
ENDBRANCH   1  28
TORSDOF 9
ENDMDL
MODEL 6
REMARK VINA RESULT:      -9.9      2.122      2.973
REMARK SMILES CCNc1ccc2ccc(CCc3cncc(-n4cc([C@H]5CCCO5)c5c(N)ncnc54)c3)cc2n1
REMARK SMILES IDX 11 1 10 4 4 5 5 6 36 7 6 8 35 10 7 11 34 13 8 14 9 16 3 19
REMARK SMILES IDX 2 21 1 24 12 28 13 31 14 32 33 33 15 34 17 36 16 38 18 40
REMARK SMILES IDX 19 41 32 42 20 43 26 45 31 46 27 47 30 48 29 49 21 51 22 52
REMARK SMILES IDX 25 53 23 55 24 58 28 63
REMARK H PARENT 11 2 11 3 5 9 6 12 34 15 8 17 9 18 3 20 2 22 2 23 1 25 1 26
REMARK H PARENT 1 27 12 29 12 30 14 35 33 37 16 39 19 44 30 50 21 54 22 56
REMARK H PARENT 22 57 23 59 23 60 24 61 24 62 28 64 28 65
REMARK Flexibility Score: inf
ROOT
ATOM      1  C   UNL     1     -46.376  34.587  26.745  1.00  0.00    -0.024 C 
ATOM      2  H   UNL     1     -46.134  35.401  26.050  1.00  0.00     0.032 H 
ATOM      3  H   UNL     1     -45.411  34.156  27.043  1.00  0.00     0.032 H 
ENDROOT
BRANCH   1   4
ATOM      4  C   UNL     1     -47.189  33.558  25.996  1.00  0.00    -0.046 A 
ATOM      5  C   UNL     1     -47.660  30.718  22.199  1.00  0.00     0.126 A 
ATOM      6  C   UNL     1     -48.862  30.204  22.663  1.00  0.00    -0.019 A 
ATOM      7  N   UNL     1     -46.957  31.639  22.884  1.00  0.00    -0.231 NA
ATOM      8  C   UNL     1     -49.372  30.668  23.870  1.00  0.00    -0.049 A 
ATOM      9  H   UNL     1     -49.388  29.436  22.107  1.00  0.00     0.066 H 
ATOM     10  C   UNL     1     -47.444  32.088  24.056  1.00  0.00     0.073 A 
ATOM     11  C   UNL     1     -48.663  31.631  24.594  1.00  0.00     0.000 A 
ATOM     12  H   UNL     1     -50.311  30.268  24.243  1.00  0.00     0.063 H 
ATOM     13  C   UNL     1     -46.730  33.041  24.773  1.00  0.00    -0.032 A 
ATOM     14  C   UNL     1     -49.133  32.134  25.818  1.00  0.00    -0.053 A 
ATOM     15  H   UNL     1     -45.782  33.382  24.361  1.00  0.00     0.065 H 
ATOM     16  C   UNL     1     -48.400  33.094  26.514  1.00  0.00    -0.058 A 
ATOM     17  H   UNL     1     -50.074  31.779  26.234  1.00  0.00     0.063 H 
ATOM     18  H   UNL     1     -48.781  33.473  27.460  1.00  0.00     0.063 H 
BRANCH   5  19
ATOM     19  N   UNL     1     -47.082  30.290  21.002  1.00  0.00    -0.370 N 
ATOM     20  H   UNL     1     -46.082  30.317  21.204  1.00  0.00     0.162 HD
BRANCH  19  21
ATOM     21  C   UNL     1     -47.413  31.127  19.854  1.00  0.00     0.013 C 
ATOM     22  H   UNL     1     -48.250  31.796  20.090  1.00  0.00     0.049 H 
ATOM     23  H   UNL     1     -47.696  30.513  18.991  1.00  0.00     0.049 H 
BRANCH  21  24
ATOM     24  C   UNL     1     -46.200  31.962  19.475  1.00  0.00    -0.048 C 
ATOM     25  H   UNL     1     -45.825  31.666  18.491  1.00  0.00     0.025 H 
ATOM     26  H   UNL     1     -46.452  33.027  19.440  1.00  0.00     0.025 H 
ATOM     27  H   UNL     1     -45.392  31.833  20.204  1.00  0.00     0.025 H 
ENDBRANCH  21  24
ENDBRANCH  19  21
ENDBRANCH   5  19
ENDBRANCH   1   4
BRANCH   1  28
ATOM     28  C   UNL     1     -47.101  35.173  27.963  1.00  0.00    -0.022 C 
ATOM     29  H   UNL     1     -48.093  34.708  28.041  1.00  0.00     0.032 H 
ATOM     30  H   UNL     1     -46.576  34.905  28.888  1.00  0.00     0.032 H 
BRANCH  28  31
ATOM     31  C   UNL     1     -47.289  36.666  27.896  1.00  0.00    -0.027 A 
ATOM     32  C   UNL     1     -48.552  37.234  27.971  1.00  0.00     0.030 A 
ATOM     33  C   UNL     1     -46.195  37.533  27.766  1.00  0.00    -0.032 A 
ATOM     34  N   UNL     1     -48.783  38.560  27.908  1.00  0.00    -0.262 NA
ATOM     35  H   UNL     1     -49.445  36.623  28.089  1.00  0.00     0.084 H 
ATOM     36  C   UNL     1     -46.390  38.921  27.708  1.00  0.00     0.066 A 
ATOM     37  H   UNL     1     -45.207  37.090  27.694  1.00  0.00     0.065 H 
ATOM     38  C   UNL     1     -47.702  39.373  27.781  1.00  0.00     0.051 A 
ATOM     39  H   UNL     1     -47.977  40.420  27.764  1.00  0.00     0.086 H 
BRANCH  36  40
ATOM     40  N   UNL     1     -45.282  39.820  27.585  1.00  0.00    -0.299 N 
ATOM     41  C   UNL     1     -45.109  40.728  26.554  1.00  0.00     0.018 A 
ATOM     42  C   UNL     1     -44.186  39.962  28.437  1.00  0.00     0.150 A 
ATOM     43  C   UNL     1     -43.938  41.444  26.729  1.00  0.00     0.012 A 
ATOM     44  H   UNL     1     -45.810  40.799  25.735  1.00  0.00     0.083 H 
ATOM     45  C   UNL     1     -43.360  40.973  27.946  1.00  0.00     0.067 A 
ATOM     46  N   UNL     1     -43.954  39.263  29.566  1.00  0.00    -0.218 NA
ATOM     47  C   UNL     1     -42.208  41.269  28.695  1.00  0.00     0.136 A 
ATOM     48  C   UNL     1     -42.818  39.618  30.178  1.00  0.00     0.120 A 
ATOM     49  N   UNL     1     -41.947  40.570  29.811  1.00  0.00    -0.219 NA
ATOM     50  H   UNL     1     -42.574  39.072  31.086  1.00  0.00     0.106 H 
BRANCH  43  51
ATOM     51  C   UNL     1     -43.384  42.478  25.800  1.00  0.00     0.085 C 
ATOM     52  C   UNL     1     -44.266  42.719  24.580  1.00  0.00    -0.020 C 
ATOM     53  O   UNL     1     -43.233  43.763  26.449  1.00  0.00    -0.373 OA
ATOM     54  H   UNL     1     -42.374  42.193  25.486  1.00  0.00     0.066 H 
ATOM     55  C   UNL     1     -43.961  44.156  24.240  1.00  0.00    -0.027 C 
ATOM     56  H   UNL     1     -44.054  42.029  23.758  1.00  0.00     0.030 H 
ATOM     57  H   UNL     1     -45.330  42.619  24.831  1.00  0.00     0.030 H 
ATOM     58  C   UNL     1     -43.818  44.769  25.613  1.00  0.00     0.048 C 
ATOM     59  H   UNL     1     -44.732  44.637  23.632  1.00  0.00     0.029 H 
ATOM     60  H   UNL     1     -43.008  44.213  23.701  1.00  0.00     0.029 H 
ATOM     61  H   UNL     1     -44.794  45.031  26.034  1.00  0.00     0.057 H 
ATOM     62  H   UNL     1     -43.186  45.661  25.611  1.00  0.00     0.057 H 
ENDBRANCH  43  51
BRANCH  47  63
ATOM     63  N   UNL     1     -41.300  42.276  28.376  1.00  0.00    -0.383 N 
ATOM     64  H   UNL     1     -40.863  42.680  29.193  1.00  0.00     0.158 HD
ATOM     65  H   UNL     1     -40.634  41.894  27.710  1.00  0.00     0.158 HD
ENDBRANCH  47  63
ENDBRANCH  36  40
ENDBRANCH  28  31
ENDBRANCH   1  28
TORSDOF 9
ENDMDL
MODEL 7
REMARK VINA RESULT:      -9.5      1.780      2.242
REMARK SMILES CCNc1ccc2ccc(CCc3cncc(-n4cc([C@H]5CCCO5)c5c(N)ncnc54)c3)cc2n1
REMARK SMILES IDX 11 1 10 4 4 5 5 6 36 7 6 8 35 10 7 11 34 13 8 14 9 16 3 19
REMARK SMILES IDX 2 21 1 24 12 28 13 31 14 32 33 33 15 34 17 36 16 38 18 40
REMARK SMILES IDX 19 41 32 42 20 43 26 45 31 46 27 47 30 48 29 49 21 51 22 52
REMARK SMILES IDX 25 53 23 55 24 58 28 63
REMARK H PARENT 11 2 11 3 5 9 6 12 34 15 8 17 9 18 3 20 2 22 2 23 1 25 1 26
REMARK H PARENT 1 27 12 29 12 30 14 35 33 37 16 39 19 44 30 50 21 54 22 56
REMARK H PARENT 22 57 23 59 23 60 24 61 24 62 28 64 28 65
REMARK Flexibility Score: inf
ROOT
ATOM      1  C   UNL     1     -47.485  34.530  26.945  1.00  0.00    -0.024 C 
ATOM      2  H   UNL     1     -46.735  34.444  27.740  1.00  0.00     0.032 H 
ATOM      3  H   UNL     1     -48.459  34.492  27.452  1.00  0.00     0.032 H 
ENDROOT
BRANCH   1   4
ATOM      4  C   UNL     1     -47.335  33.338  26.030  1.00  0.00    -0.046 A 
ATOM      5  C   UNL     1     -48.671  28.920  24.847  1.00  0.00     0.126 A 
ATOM      6  C   UNL     1     -47.804  28.887  23.765  1.00  0.00    -0.019 A 
ATOM      7  N   UNL     1     -48.782  29.994  25.651  1.00  0.00    -0.231 NA
ATOM      8  C   UNL     1     -47.005  29.996  23.509  1.00  0.00    -0.049 A 
ATOM      9  H   UNL     1     -47.762  28.022  23.114  1.00  0.00     0.066 H 
ATOM     10  C   UNL     1     -48.014  31.072  25.404  1.00  0.00     0.073 A 
ATOM     11  C   UNL     1     -47.097  31.118  24.336  1.00  0.00     0.000 A 
ATOM     12  H   UNL     1     -46.325  29.980  22.661  1.00  0.00     0.063 H 
ATOM     13  C   UNL     1     -48.116  32.187  26.227  1.00  0.00    -0.032 A 
ATOM     14  C   UNL     1     -46.312  32.264  24.122  1.00  0.00    -0.053 A 
ATOM     15  H   UNL     1     -48.835  32.152  27.042  1.00  0.00     0.065 H 
ATOM     16  C   UNL     1     -46.431  33.367  24.966  1.00  0.00    -0.058 A 
ATOM     17  H   UNL     1     -45.606  32.301  23.295  1.00  0.00     0.063 H 
ATOM     18  H   UNL     1     -45.814  34.244  24.785  1.00  0.00     0.063 H 
BRANCH   5  19
ATOM     19  N   UNL     1     -49.512  27.849  25.157  1.00  0.00    -0.370 N 
ATOM     20  H   UNL     1     -50.439  28.276  25.164  1.00  0.00     0.162 HD
BRANCH  19  21
ATOM     21  C   UNL     1     -49.212  27.214  26.436  1.00  0.00     0.013 C 
ATOM     22  H   UNL     1     -50.124  26.803  26.887  1.00  0.00     0.049 H 
ATOM     23  H   UNL     1     -48.775  27.934  27.138  1.00  0.00     0.049 H 
BRANCH  21  24
ATOM     24  C   UNL     1     -48.214  26.088  26.216  1.00  0.00    -0.048 C 
ATOM     25  H   UNL     1     -47.234  26.363  26.616  1.00  0.00     0.025 H 
ATOM     26  H   UNL     1     -48.542  25.169  26.714  1.00  0.00     0.025 H 
ATOM     27  H   UNL     1     -48.100  25.868  25.148  1.00  0.00     0.025 H 
ENDBRANCH  21  24
ENDBRANCH  19  21
ENDBRANCH   5  19
ENDBRANCH   1   4
BRANCH   1  28
ATOM     28  C   UNL     1     -47.303  35.876  26.232  1.00  0.00    -0.022 C 
ATOM     29  H   UNL     1     -46.749  35.711  25.299  1.00  0.00     0.032 H 
ATOM     30  H   UNL     1     -48.276  36.285  25.929  1.00  0.00     0.032 H 
BRANCH  28  31
ATOM     31  C   UNL     1     -46.553  36.896  27.047  1.00  0.00    -0.027 A 
ATOM     32  C   UNL     1     -45.945  36.550  28.245  1.00  0.00     0.030 A 
ATOM     33  C   UNL     1     -46.432  38.225  26.619  1.00  0.00    -0.032 A 
ATOM     34  N   UNL     1     -45.269  37.420  29.021  1.00  0.00    -0.262 NA
ATOM     35  H   UNL     1     -45.984  35.534  28.630  1.00  0.00     0.084 H 
ATOM     36  C   UNL     1     -45.727  39.161  27.390  1.00  0.00     0.066 A 
ATOM     37  H   UNL     1     -46.918  38.501  25.688  1.00  0.00     0.065 H 
ATOM     38  C   UNL     1     -45.171  38.701  28.579  1.00  0.00     0.051 A 
ATOM     39  H   UNL     1     -44.591  39.323  29.249  1.00  0.00     0.086 H 
BRANCH  36  40
ATOM     40  N   UNL     1     -45.586  40.520  26.962  1.00  0.00    -0.299 N 
ATOM     41  C   UNL     1     -46.633  41.344  26.584  1.00  0.00     0.018 A 
ATOM     42  C   UNL     1     -44.416  41.269  26.833  1.00  0.00     0.150 A 
ATOM     43  C   UNL     1     -46.162  42.594  26.224  1.00  0.00     0.012 A 
ATOM     44  H   UNL     1     -47.655  40.993  26.563  1.00  0.00     0.083 H 
ATOM     45  C   UNL     1     -44.748  42.555  26.407  1.00  0.00     0.067 A 
ATOM     46  N   UNL     1     -43.162  40.846  27.093  1.00  0.00    -0.218 NA
ATOM     47  C   UNL     1     -43.685  43.460  26.242  1.00  0.00     0.136 A 
ATOM     48  C   UNL     1     -42.237  41.787  26.877  1.00  0.00     0.120 A 
ATOM     49  N   UNL     1     -42.427  43.052  26.474  1.00  0.00    -0.219 NA
ATOM     50  H   UNL     1     -41.206  41.493  27.055  1.00  0.00     0.106 H 
BRANCH  43  51
ATOM     51  C   UNL     1     -46.982  43.737  25.713  1.00  0.00     0.085 C 
ATOM     52  C   UNL     1     -48.482  43.510  25.861  1.00  0.00    -0.020 C 
ATOM     53  O   UNL     1     -46.688  44.969  26.414  1.00  0.00    -0.373 OA
ATOM     54  H   UNL     1     -46.731  43.934  24.664  1.00  0.00     0.066 H 
ATOM     55  C   UNL     1     -49.009  44.916  25.995  1.00  0.00    -0.027 C 
ATOM     56  H   UNL     1     -48.917  42.967  25.016  1.00  0.00     0.030 H 
ATOM     57  H   UNL     1     -48.711  42.943  26.773  1.00  0.00     0.030 H 
ATOM     58  C   UNL     1     -47.925  45.570  26.818  1.00  0.00     0.048 C 
ATOM     59  H   UNL     1     -49.996  44.972  26.462  1.00  0.00     0.029 H 
ATOM     60  H   UNL     1     -49.066  45.385  25.005  1.00  0.00     0.029 H 
ATOM     61  H   UNL     1     -48.062  45.371  27.886  1.00  0.00     0.057 H 
ATOM     62  H   UNL     1     -47.877  46.651  26.667  1.00  0.00     0.057 H 
ENDBRANCH  43  51
BRANCH  47  63
ATOM     63  N   UNL     1     -43.838  44.793  25.867  1.00  0.00    -0.383 N 
ATOM     64  H   UNL     1     -44.316  44.897  24.983  1.00  0.00     0.158 HD
ATOM     65  H   UNL     1     -44.295  45.281  26.632  1.00  0.00     0.158 HD
ENDBRANCH  47  63
ENDBRANCH  36  40
ENDBRANCH  28  31
ENDBRANCH   1  28
TORSDOF 9
ENDMDL
