MODEL 1
REMARK VINA RESULT:      -9.9      0.000      0.000
REMARK SMILES CN(C)c1ccc2ccc(OC[C@H]3O[C@@H](n4cc(C5CCCC5)c5c(N)ncnc54)[C@H](O)[C@@H]3O)cc2n1
REMARK SMILES IDX 12 1 11 4 10 5 4 6 5 7 37 8 6 9 36 11 7 12 35 14 8 15 9 17
REMARK SMILES IDX 2 20 1 21 3 25 13 29 14 30 33 31 15 33 31 34 34 38 16 40
REMARK SMILES IDX 17 41 30 42 18 43 24 45 29 46 25 47 28 48 27 49 19 51 20 52
REMARK SMILES IDX 23 53 21 55 22 58 26 65 32 68
REMARK H PARENT 12 2 12 3 5 10 6 13 35 16 8 18 9 19 1 22 1 23 1 24 3 26 3 27
REMARK H PARENT 3 28 13 32 33 35 15 36 31 37 34 39 17 44 28 50 19 54 20 56
REMARK H PARENT 20 57 23 59 23 60 21 61 21 62 22 63 22 64 26 66 26 67 32 69
REMARK Flexibility Score: inf
ROOT
ATOM      1  C   UNL     1     -47.438  35.928  27.099  1.00  0.00     0.117 C 
ATOM      2  H   UNL     1     -46.966  36.117  26.128  1.00  0.00     0.073 H 
ATOM      3  H   UNL     1     -48.076  36.795  27.302  1.00  0.00     0.073 H 
ENDROOT
BRANCH   1   4
ATOM      4  O   UNL     1     -48.214  34.740  26.916  1.00  0.00    -0.491 OA
BRANCH   4   5
ATOM      5  C   UNL     1     -47.748  33.764  26.082  1.00  0.00     0.121 A 
ATOM      6  C   UNL     1     -48.700  29.355  24.507  1.00  0.00     0.128 A 
ATOM      7  C   UNL     1     -47.574  29.371  23.686  1.00  0.00    -0.019 A 
ATOM      8  N   UNL     1     -49.010  30.427  25.270  1.00  0.00    -0.231 NA
ATOM      9  C   UNL     1     -46.746  30.490  23.664  1.00  0.00    -0.049 A 
ATOM     10  H   UNL     1     -47.352  28.527  23.041  1.00  0.00     0.066 H 
ATOM     11  C   UNL     1     -48.216  31.514  25.256  1.00  0.00     0.076 A 
ATOM     12  C   UNL     1     -47.059  31.590  24.463  1.00  0.00     0.001 A 
ATOM     13  H   UNL     1     -45.874  30.495  23.018  1.00  0.00     0.063 H 
ATOM     14  C   UNL     1     -48.536  32.608  26.048  1.00  0.00     0.007 A 
ATOM     15  C   UNL     1     -46.262  32.746  24.481  1.00  0.00    -0.049 A 
ATOM     16  H   UNL     1     -49.433  32.559  26.663  1.00  0.00     0.069 H 
ATOM     17  C   UNL     1     -46.606  33.831  25.290  1.00  0.00    -0.019 A 
ATOM     18  H   UNL     1     -45.370  32.810  23.860  1.00  0.00     0.063 H 
ATOM     19  H   UNL     1     -45.968  34.707  25.262  1.00  0.00     0.066 H 
BRANCH   6  20
ATOM     20  N   UNL     1     -49.538  28.219  24.513  1.00  0.00    -0.363 N 
BRANCH  20  21
ATOM     21  C   UNL     1     -49.515  27.519  25.798  1.00  0.00     0.008 C 
ATOM     22  H   UNL     1     -50.522  27.355  26.194  1.00  0.00     0.046 H 
ATOM     23  H   UNL     1     -49.001  26.554  25.721  1.00  0.00     0.046 H 
ATOM     24  H   UNL     1     -48.985  28.123  26.543  1.00  0.00     0.046 H 
ENDBRANCH  20  21
BRANCH  20  25
ATOM     25  C   UNL     1     -50.886  28.514  24.022  1.00  0.00     0.008 C 
ATOM     26  H   UNL     1     -51.409  27.600  23.718  1.00  0.00     0.046 H 
ATOM     27  H   UNL     1     -51.481  28.961  24.827  1.00  0.00     0.046 H 
ATOM     28  H   UNL     1     -50.872  29.224  23.187  1.00  0.00     0.046 H 
ENDBRANCH  20  25
ENDBRANCH   6  20
ENDBRANCH   4   5
ENDBRANCH   1   4
BRANCH   1  29
ATOM     29  C   UNL     1     -46.351  35.734  28.168  1.00  0.00     0.123 C 
ATOM     30  O   UNL     1     -45.238  36.614  27.874  1.00  0.00    -0.345 OA
ATOM     31  C   UNL     1     -46.847  36.120  29.557  1.00  0.00     0.114 C 
ATOM     32  H   UNL     1     -45.956  34.713  28.144  1.00  0.00     0.067 H 
ATOM     33  C   UNL     1     -45.220  37.681  28.845  1.00  0.00     0.164 C 
ATOM     34  C   UNL     1     -46.534  37.601  29.629  1.00  0.00     0.128 C 
ATOM     35  H   UNL     1     -47.901  35.889  29.737  1.00  0.00     0.066 H 
ATOM     36  H   UNL     1     -44.340  37.552  29.484  1.00  0.00     0.088 H 
ATOM     37  H   UNL     1     -47.329  38.180  29.144  1.00  0.00     0.068 H 
BRANCH  31  38
ATOM     38  O   UNL     1     -46.091  35.428  30.562  1.00  0.00    -0.387 OA
ATOM     39  H   UNL     1     -46.085  36.028  31.337  1.00  0.00     0.211 HD
ENDBRANCH  31  38
BRANCH  33  40
ATOM     40  N   UNL     1     -45.060  38.963  28.163  1.00  0.00    -0.303 N 
ATOM     41  C   UNL     1     -43.899  39.676  28.007  1.00  0.00     0.013 A 
ATOM     42  C   UNL     1     -46.091  39.637  27.557  1.00  0.00     0.147 A 
ATOM     43  C   UNL     1     -44.171  40.833  27.293  1.00  0.00    -0.014 A 
ATOM     44  H   UNL     1     -42.967  39.305  28.418  1.00  0.00     0.082 H 
ATOM     45  C   UNL     1     -45.586  40.816  27.023  1.00  0.00     0.065 A 
ATOM     46  N   UNL     1     -47.364  39.202  27.496  1.00  0.00    -0.218 NA
ATOM     47  C   UNL     1     -46.516  41.651  26.379  1.00  0.00     0.136 A 
ATOM     48  C   UNL     1     -48.152  40.086  26.856  1.00  0.00     0.120 A 
ATOM     49  N   UNL     1     -47.806  41.263  26.309  1.00  0.00    -0.219 NA
ATOM     50  H   UNL     1     -49.200  39.816  26.770  1.00  0.00     0.106 H 
BRANCH  43  51
ATOM     51  C   UNL     1     -43.191  41.903  26.879  1.00  0.00    -0.014 C 
ATOM     52  C   UNL     1     -41.721  41.469  26.871  1.00  0.00    -0.046 C 
ATOM     53  C   UNL     1     -43.181  43.095  27.839  1.00  0.00    -0.046 C 
ATOM     54  H   UNL     1     -43.461  42.232  25.868  1.00  0.00     0.035 H 
ATOM     55  C   UNL     1     -41.161  41.818  28.252  1.00  0.00    -0.053 C 
ATOM     56  H   UNL     1     -41.177  42.056  26.120  1.00  0.00     0.027 H 
ATOM     57  H   UNL     1     -41.570  40.414  26.620  1.00  0.00     0.027 H 
ATOM     58  C   UNL     1     -42.208  42.688  28.939  1.00  0.00    -0.053 C 
ATOM     59  H   UNL     1     -42.792  43.981  27.322  1.00  0.00     0.027 H 
ATOM     60  H   UNL     1     -44.167  43.346  28.241  1.00  0.00     0.027 H 
ATOM     61  H   UNL     1     -40.964  40.915  28.842  1.00  0.00     0.027 H 
ATOM     62  H   UNL     1     -40.210  42.352  28.152  1.00  0.00     0.027 H 
ATOM     63  H   UNL     1     -41.763  43.557  29.432  1.00  0.00     0.027 H 
ATOM     64  H   UNL     1     -42.730  42.105  29.708  1.00  0.00     0.027 H 
ENDBRANCH  43  51
BRANCH  47  65
ATOM     65  N   UNL     1     -46.213  42.884  25.817  1.00  0.00    -0.383 N 
ATOM     66  H   UNL     1     -45.641  42.828  24.987  1.00  0.00     0.158 HD
ATOM     67  H   UNL     1     -45.879  43.516  26.535  1.00  0.00     0.158 HD
ENDBRANCH  47  65
ENDBRANCH  33  40
BRANCH  34  68
ATOM     68  O   UNL     1     -46.436  38.015  30.995  1.00  0.00    -0.386 OA
ATOM     69  H   UNL     1     -47.360  38.159  31.301  1.00  0.00     0.211 HD
ENDBRANCH  34  68
ENDBRANCH   1  29
TORSDOF 11
ENDMDL
MODEL 2
REMARK VINA RESULT:      -9.7      1.527      2.789
REMARK SMILES CN(C)c1ccc2ccc(OC[C@H]3O[C@@H](n4cc(C5CCCC5)c5c(N)ncnc54)[C@H](O)[C@@H]3O)cc2n1
REMARK SMILES IDX 12 1 11 4 10 5 4 6 5 7 37 8 6 9 36 11 7 12 35 14 8 15 9 17
REMARK SMILES IDX 2 20 1 21 3 25 13 29 14 30 33 31 15 33 31 34 34 38 16 40
REMARK SMILES IDX 17 41 30 42 18 43 24 45 29 46 25 47 28 48 27 49 19 51 20 52
REMARK SMILES IDX 23 53 21 55 22 58 26 65 32 68
REMARK H PARENT 12 2 12 3 5 10 6 13 35 16 8 18 9 19 1 22 1 23 1 24 3 26 3 27
REMARK H PARENT 3 28 13 32 33 35 15 36 31 37 34 39 17 44 28 50 19 54 20 56
REMARK H PARENT 20 57 23 59 23 60 21 61 21 62 22 63 22 64 26 66 26 67 32 69
REMARK Flexibility Score: inf
ROOT
ATOM      1  C   UNL     1     -47.369  36.472  27.398  1.00  0.00     0.117 C 
ATOM      2  H   UNL     1     -46.878  36.724  26.451  1.00  0.00     0.073 H 
ATOM      3  H   UNL     1     -47.937  37.361  27.693  1.00  0.00     0.073 H 
ENDROOT
BRANCH   1   4
ATOM      4  O   UNL     1     -48.235  35.376  27.093  1.00  0.00    -0.491 OA
BRANCH   4   5
ATOM      5  C   UNL     1     -47.777  34.370  26.291  1.00  0.00     0.121 A 
ATOM      6  C   UNL     1     -48.996  30.125  24.468  1.00  0.00     0.128 A 
ATOM      7  C   UNL     1     -47.781  30.031  23.792  1.00  0.00    -0.019 A 
ATOM      8  N   UNL     1     -49.282  31.210  25.222  1.00  0.00    -0.231 NA
ATOM      9  C   UNL     1     -46.841  31.050  23.909  1.00  0.00    -0.049 A 
ATOM     10  H   UNL     1     -47.572  29.179  23.153  1.00  0.00     0.066 H 
ATOM     11  C   UNL     1     -48.379  32.202  25.341  1.00  0.00     0.076 A 
ATOM     12  C   UNL     1     -47.130  32.163  24.698  1.00  0.00     0.001 A 
ATOM     13  H   UNL     1     -45.899  30.970  23.375  1.00  0.00     0.063 H 
ATOM     14  C   UNL     1     -48.675  33.310  26.123  1.00  0.00     0.007 A 
ATOM     15  C   UNL     1     -46.221  33.223  24.852  1.00  0.00    -0.049 A 
ATOM     16  H   UNL     1     -49.642  33.349  26.621  1.00  0.00     0.069 H 
ATOM     17  C   UNL     1     -46.544  34.323  25.648  1.00  0.00    -0.019 A 
ATOM     18  H   UNL     1     -45.257  33.198  24.348  1.00  0.00     0.063 H 
ATOM     19  H   UNL     1     -45.817  35.123  25.726  1.00  0.00     0.066 H 
BRANCH   6  20
ATOM     20  N   UNL     1     -49.947  29.089  24.334  1.00  0.00    -0.363 N 
BRANCH  20  21
ATOM     21  C   UNL     1     -51.177  29.547  23.686  1.00  0.00     0.008 C 
ATOM     22  H   UNL     1     -51.545  28.825  22.950  1.00  0.00     0.046 H 
ATOM     23  H   UNL     1     -51.967  29.743  24.420  1.00  0.00     0.046 H 
ATOM     24  H   UNL     1     -50.988  30.477  23.138  1.00  0.00     0.046 H 
ENDBRANCH  20  21
BRANCH  20  25
ATOM     25  C   UNL     1     -49.376  27.879  23.737  1.00  0.00     0.008 C 
ATOM     26  H   UNL     1     -49.966  26.992  23.994  1.00  0.00     0.046 H 
ATOM     27  H   UNL     1     -49.397  27.963  22.645  1.00  0.00     0.046 H 
ATOM     28  H   UNL     1     -48.333  27.725  24.039  1.00  0.00     0.046 H 
ENDBRANCH  20  25
ENDBRANCH   6  20
ENDBRANCH   4   5
ENDBRANCH   1   4
BRANCH   1  29
ATOM     29  C   UNL     1     -46.306  36.081  28.437  1.00  0.00     0.123 C 
ATOM     30  O   UNL     1     -45.074  36.781  28.138  1.00  0.00    -0.345 OA
ATOM     31  C   UNL     1     -46.708  36.505  29.846  1.00  0.00     0.114 C 
ATOM     32  H   UNL     1     -46.079  35.012  28.381  1.00  0.00     0.067 H 
ATOM     33  C   UNL     1     -44.869  37.807  29.131  1.00  0.00     0.164 C 
ATOM     34  C   UNL     1     -46.163  37.916  29.943  1.00  0.00     0.128 C 
ATOM     35  H   UNL     1     -47.782  36.440  30.044  1.00  0.00     0.066 H 
ATOM     36  H   UNL     1     -44.008  37.524  29.748  1.00  0.00     0.088 H 
ATOM     37  H   UNL     1     -46.865  38.626  29.489  1.00  0.00     0.068 H 
BRANCH  31  38
ATOM     38  O   UNL     1     -46.053  35.677  30.817  1.00  0.00    -0.387 OA
ATOM     39  H   UNL     1     -45.102  35.709  30.582  1.00  0.00     0.211 HD
ENDBRANCH  31  38
BRANCH  33  40
ATOM     40  N   UNL     1     -44.519  39.065  28.475  1.00  0.00    -0.303 N 
ATOM     41  C   UNL     1     -45.107  39.606  27.360  1.00  0.00     0.013 A 
ATOM     42  C   UNL     1     -43.527  39.904  28.918  1.00  0.00     0.147 A 
ATOM     43  C   UNL     1     -44.491  40.812  27.065  1.00  0.00    -0.014 A 
ATOM     44  H   UNL     1     -45.919  39.088  26.862  1.00  0.00     0.082 H 
ATOM     45  C   UNL     1     -43.461  40.992  28.056  1.00  0.00     0.065 A 
ATOM     46  N   UNL     1     -42.768  39.690  30.009  1.00  0.00    -0.218 NA
ATOM     47  C   UNL     1     -42.473  41.950  28.346  1.00  0.00     0.136 A 
ATOM     48  C   UNL     1     -41.867  40.675  30.178  1.00  0.00     0.120 A 
ATOM     49  N   UNL     1     -41.679  41.768  29.420  1.00  0.00    -0.219 NA
ATOM     50  H   UNL     1     -41.206  40.575  31.034  1.00  0.00     0.106 H 
BRANCH  43  51
ATOM     51  C   UNL     1     -44.823  41.755  25.935  1.00  0.00    -0.014 C 
ATOM     52  C   UNL     1     -44.424  43.217  26.172  1.00  0.00    -0.046 C 
ATOM     53  C   UNL     1     -46.327  41.858  25.677  1.00  0.00    -0.046 C 
ATOM     54  H   UNL     1     -44.307  41.396  25.036  1.00  0.00     0.035 H 
ATOM     55  C   UNL     1     -45.645  43.902  26.791  1.00  0.00    -0.053 C 
ATOM     56  H   UNL     1     -44.216  43.693  25.204  1.00  0.00     0.027 H 
ATOM     57  H   UNL     1     -43.526  43.340  26.786  1.00  0.00     0.027 H 
ATOM     58  C   UNL     1     -46.808  42.925  26.653  1.00  0.00    -0.053 C 
ATOM     59  H   UNL     1     -46.503  42.203  24.650  1.00  0.00     0.027 H 
ATOM     60  H   UNL     1     -46.864  40.913  25.811  1.00  0.00     0.027 H 
ATOM     61  H   UNL     1     -45.472  44.147  27.845  1.00  0.00     0.027 H 
ATOM     62  H   UNL     1     -45.857  44.842  26.271  1.00  0.00     0.027 H 
ATOM     63  H   UNL     1     -47.720  43.417  26.304  1.00  0.00     0.027 H 
ATOM     64  H   UNL     1     -47.031  42.473  27.627  1.00  0.00     0.027 H 
ENDBRANCH  43  51
BRANCH  47  65
ATOM     65  N   UNL     1     -42.227  43.085  27.584  1.00  0.00    -0.383 N 
ATOM     66  H   UNL     1     -41.716  42.905  26.731  1.00  0.00     0.158 HD
ATOM     67  H   UNL     1     -41.847  43.818  28.173  1.00  0.00     0.158 HD
ENDBRANCH  47  65
ENDBRANCH  33  40
BRANCH  34  68
ATOM     68  O   UNL     1     -45.975  38.274  31.316  1.00  0.00    -0.386 OA
ATOM     69  H   UNL     1     -45.545  37.499  31.741  1.00  0.00     0.211 HD
ENDBRANCH  34  68
ENDBRANCH   1  29
TORSDOF 11
ENDMDL
MODEL 3
REMARK VINA RESULT:      -9.4      2.337      3.677
REMARK SMILES CN(C)c1ccc2ccc(OC[C@H]3O[C@@H](n4cc(C5CCCC5)c5c(N)ncnc54)[C@H](O)[C@@H]3O)cc2n1
REMARK SMILES IDX 12 1 11 4 10 5 4 6 5 7 37 8 6 9 36 11 7 12 35 14 8 15 9 17
REMARK SMILES IDX 2 20 1 21 3 25 13 29 14 30 33 31 15 33 31 34 34 38 16 40
REMARK SMILES IDX 17 41 30 42 18 43 24 45 29 46 25 47 28 48 27 49 19 51 20 52
REMARK SMILES IDX 23 53 21 55 22 58 26 65 32 68
REMARK H PARENT 12 2 12 3 5 10 6 13 35 16 8 18 9 19 1 22 1 23 1 24 3 26 3 27
REMARK H PARENT 3 28 13 32 33 35 15 36 31 37 34 39 17 44 28 50 19 54 20 56
REMARK H PARENT 20 57 23 59 23 60 21 61 21 62 22 63 22 64 26 66 26 67 32 69
REMARK Flexibility Score: inf
ROOT
ATOM      1  C   UNL     1     -45.850  36.603  27.523  1.00  0.00     0.117 C 
ATOM      2  H   UNL     1     -45.778  35.630  28.023  1.00  0.00     0.073 H 
ATOM      3  H   UNL     1     -44.820  36.930  27.343  1.00  0.00     0.073 H 
ENDROOT
BRANCH   1   4
ATOM      4  O   UNL     1     -46.539  36.346  26.296  1.00  0.00    -0.491 OA
BRANCH   4   5
ATOM      5  C   UNL     1     -47.208  35.165  26.144  1.00  0.00     0.121 A 
ATOM      6  C   UNL     1     -46.912  30.889  24.033  1.00  0.00     0.128 A 
ATOM      7  C   UNL     1     -48.135  30.500  24.578  1.00  0.00    -0.019 A 
ATOM      8  N   UNL     1     -46.397  32.110  24.300  1.00  0.00    -0.231 NA
ATOM      9  C   UNL     1     -48.846  31.381  25.387  1.00  0.00    -0.049 A 
ATOM     10  H   UNL     1     -48.524  29.503  24.398  1.00  0.00     0.066 H 
ATOM     11  C   UNL     1     -47.078  32.970  25.081  1.00  0.00     0.076 A 
ATOM     12  C   UNL     1     -48.321  32.647  25.651  1.00  0.00     0.001 A 
ATOM     13  H   UNL     1     -49.795  31.068  25.811  1.00  0.00     0.063 H 
ATOM     14  C   UNL     1     -46.547  34.226  25.345  1.00  0.00     0.007 A 
ATOM     15  C   UNL     1     -48.993  33.577  26.460  1.00  0.00    -0.049 A 
ATOM     16  H   UNL     1     -45.583  34.482  24.911  1.00  0.00     0.069 H 
ATOM     17  C   UNL     1     -48.437  34.834  26.706  1.00  0.00    -0.019 A 
ATOM     18  H   UNL     1     -49.952  33.325  26.908  1.00  0.00     0.063 H 
ATOM     19  H   UNL     1     -48.986  35.514  27.347  1.00  0.00     0.066 H 
BRANCH   6  20
ATOM     20  N   UNL     1     -46.194  29.982  23.223  1.00  0.00    -0.363 N 
BRANCH  20  21
ATOM     21  C   UNL     1     -46.644  28.601  23.403  1.00  0.00     0.008 C 
ATOM     22  H   UNL     1     -45.941  28.017  24.007  1.00  0.00     0.046 H 
ATOM     23  H   UNL     1     -47.635  28.560  23.870  1.00  0.00     0.046 H 
ATOM     24  H   UNL     1     -46.709  28.099  22.432  1.00  0.00     0.046 H 
ENDBRANCH  20  21
BRANCH  20  25
ATOM     25  C   UNL     1     -46.135  30.409  21.823  1.00  0.00     0.008 C 
ATOM     26  H   UNL     1     -46.873  29.877  21.212  1.00  0.00     0.046 H 
ATOM     27  H   UNL     1     -46.380  31.474  21.752  1.00  0.00     0.046 H 
ATOM     28  H   UNL     1     -45.135  30.269  21.394  1.00  0.00     0.046 H 
ENDBRANCH  20  25
ENDBRANCH   6  20
ENDBRANCH   4   5
ENDBRANCH   1   4
BRANCH   1  29
ATOM     29  C   UNL     1     -46.630  37.580  28.416  1.00  0.00     0.123 C 
ATOM     30  O   UNL     1     -45.748  38.654  28.824  1.00  0.00    -0.345 OA
ATOM     31  C   UNL     1     -47.784  38.236  27.665  1.00  0.00     0.114 C 
ATOM     32  H   UNL     1     -46.968  37.087  29.334  1.00  0.00     0.067 H 
ATOM     33  C   UNL     1     -46.127  39.858  28.126  1.00  0.00     0.164 C 
ATOM     34  C   UNL     1     -47.133  39.457  27.044  1.00  0.00     0.128 C 
ATOM     35  H   UNL     1     -48.271  37.584  26.934  1.00  0.00     0.066 H 
ATOM     36  H   UNL     1     -46.549  40.561  28.854  1.00  0.00     0.088 H 
ATOM     37  H   UNL     1     -46.631  39.182  26.108  1.00  0.00     0.068 H 
BRANCH  31  38
ATOM     38  O   UNL     1     -48.798  38.660  28.588  1.00  0.00    -0.387 OA
ATOM     39  H   UNL     1     -48.677  39.629  28.675  1.00  0.00     0.211 HD
ENDBRANCH  31  38
BRANCH  33  40
ATOM     40  N   UNL     1     -44.938  40.497  27.567  1.00  0.00    -0.303 N 
ATOM     41  C   UNL     1     -44.828  41.116  26.348  1.00  0.00     0.013 A 
ATOM     42  C   UNL     1     -43.735  40.574  28.225  1.00  0.00     0.147 A 
ATOM     43  C   UNL     1     -43.538  41.601  26.202  1.00  0.00    -0.014 A 
ATOM     44  H   UNL     1     -45.679  41.162  25.678  1.00  0.00     0.082 H 
ATOM     45  C   UNL     1     -42.830  41.232  27.401  1.00  0.00     0.065 A 
ATOM     46  N   UNL     1     -43.501  40.092  29.461  1.00  0.00    -0.218 NA
ATOM     47  C   UNL     1     -41.528  41.380  27.909  1.00  0.00     0.136 A 
ATOM     48  C   UNL     1     -42.224  40.297  29.831  1.00  0.00     0.120 A 
ATOM     49  N   UNL     1     -41.244  40.898  29.136  1.00  0.00    -0.219 NA
ATOM     50  H   UNL     1     -41.947  39.930  30.815  1.00  0.00     0.106 H 
BRANCH  43  51
ATOM     51  C   UNL     1     -42.975  42.361  25.026  1.00  0.00    -0.014 C 
ATOM     52  C   UNL     1     -42.471  43.773  25.348  1.00  0.00    -0.046 C 
ATOM     53  C   UNL     1     -44.021  42.621  23.939  1.00  0.00    -0.046 C 
ATOM     54  H   UNL     1     -42.140  41.779  24.619  1.00  0.00     0.035 H 
ATOM     55  C   UNL     1     -43.649  44.718  25.098  1.00  0.00    -0.053 C 
ATOM     56  H   UNL     1     -41.665  44.034  24.649  1.00  0.00     0.027 H 
ATOM     57  H   UNL     1     -42.063  43.880  26.358  1.00  0.00     0.027 H 
ATOM     58  C   UNL     1     -44.718  43.901  24.381  1.00  0.00    -0.053 C 
ATOM     59  H   UNL     1     -43.519  42.795  22.979  1.00  0.00     0.027 H 
ATOM     60  H   UNL     1     -44.730  41.798  23.802  1.00  0.00     0.027 H 
ATOM     61  H   UNL     1     -44.040  45.124  26.038  1.00  0.00     0.027 H 
ATOM     62  H   UNL     1     -43.329  45.570  24.488  1.00  0.00     0.027 H 
ATOM     63  H   UNL     1     -45.152  44.443  23.535  1.00  0.00     0.027 H 
ATOM     64  H   UNL     1     -45.534  43.667  25.074  1.00  0.00     0.027 H 
ENDBRANCH  43  51
BRANCH  47  65
ATOM     65  N   UNL     1     -40.476  41.975  27.224  1.00  0.00    -0.383 N 
ATOM     66  H   UNL     1     -39.577  41.864  27.671  1.00  0.00     0.158 HD
ATOM     67  H   UNL     1     -40.724  42.926  26.974  1.00  0.00     0.158 HD
ENDBRANCH  47  65
ENDBRANCH  33  40
BRANCH  34  68
ATOM     68  O   UNL     1     -48.125  40.447  26.757  1.00  0.00    -0.386 OA
ATOM     69  H   UNL     1     -47.842  41.259  27.235  1.00  0.00     0.211 HD
ENDBRANCH  34  68
ENDBRANCH   1  29
TORSDOF 11
ENDMDL
MODEL 4
REMARK VINA RESULT:      -9.0      2.162     11.164
REMARK SMILES CN(C)c1ccc2ccc(OC[C@H]3O[C@@H](n4cc(C5CCCC5)c5c(N)ncnc54)[C@H](O)[C@@H]3O)cc2n1
REMARK SMILES IDX 12 1 11 4 10 5 4 6 5 7 37 8 6 9 36 11 7 12 35 14 8 15 9 17
REMARK SMILES IDX 2 20 1 21 3 25 13 29 14 30 33 31 15 33 31 34 34 38 16 40
REMARK SMILES IDX 17 41 30 42 18 43 24 45 29 46 25 47 28 48 27 49 19 51 20 52
REMARK SMILES IDX 23 53 21 55 22 58 26 65 32 68
REMARK H PARENT 12 2 12 3 5 10 6 13 35 16 8 18 9 19 1 22 1 23 1 24 3 26 3 27
REMARK H PARENT 3 28 13 32 33 35 15 36 31 37 34 39 17 44 28 50 19 54 20 56
REMARK H PARENT 20 57 23 59 23 60 21 61 21 62 22 63 22 64 26 66 26 67 32 69
REMARK Flexibility Score: inf
ROOT
ATOM      1  C   UNL     1     -48.601  34.002  26.592  1.00  0.00     0.117 C 
ATOM      2  H   UNL     1     -49.028  34.045  27.601  1.00  0.00     0.073 H 
ATOM      3  H   UNL     1     -49.420  33.704  25.927  1.00  0.00     0.073 H 
ENDROOT
BRANCH   1   4
ATOM      4  O   UNL     1     -48.160  35.334  26.313  1.00  0.00    -0.491 OA
BRANCH   4   5
ATOM      5  C   UNL     1     -47.312  35.951  27.188  1.00  0.00     0.121 A 
ATOM      6  C   UNL     1     -44.639  39.870  27.749  1.00  0.00     0.128 A 
ATOM      7  C   UNL     1     -44.228  39.448  29.012  1.00  0.00    -0.019 A 
ATOM      8  N   UNL     1     -45.496  39.123  27.019  1.00  0.00    -0.231 NA
ATOM      9  C   UNL     1     -44.684  38.236  29.521  1.00  0.00    -0.049 A 
ATOM     10  H   UNL     1     -43.575  40.072  29.615  1.00  0.00     0.066 H 
ATOM     11  C   UNL     1     -45.943  37.948  27.502  1.00  0.00     0.076 A 
ATOM     12  C   UNL     1     -45.557  37.458  28.761  1.00  0.00     0.001 A 
ATOM     13  H   UNL     1     -44.363  37.918  30.509  1.00  0.00     0.063 H 
ATOM     14  C   UNL     1     -46.817  37.181  26.744  1.00  0.00     0.007 A 
ATOM     15  C   UNL     1     -46.052  36.227  29.224  1.00  0.00    -0.049 A 
ATOM     16  H   UNL     1     -47.123  37.557  25.769  1.00  0.00     0.069 H 
ATOM     17  C   UNL     1     -46.927  35.475  28.438  1.00  0.00    -0.019 A 
ATOM     18  H   UNL     1     -45.761  35.850  30.202  1.00  0.00     0.063 H 
ATOM     19  H   UNL     1     -47.292  34.538  28.842  1.00  0.00     0.066 H 
BRANCH   6  20
ATOM     20  N   UNL     1     -44.177  41.107  27.247  1.00  0.00    -0.363 N 
BRANCH  20  21
ATOM     21  C   UNL     1     -42.836  41.436  27.731  1.00  0.00     0.008 C 
ATOM     22  H   UNL     1     -42.449  40.674  28.416  1.00  0.00     0.046 H 
ATOM     23  H   UNL     1     -42.130  41.561  26.901  1.00  0.00     0.046 H 
ATOM     24  H   UNL     1     -42.860  42.375  28.295  1.00  0.00     0.046 H 
ENDBRANCH  20  21
BRANCH  20  25
ATOM     25  C   UNL     1     -44.327  41.213  25.794  1.00  0.00     0.008 C 
ATOM     26  H   UNL     1     -44.814  40.324  25.378  1.00  0.00     0.046 H 
ATOM     27  H   UNL     1     -44.972  42.065  25.552  1.00  0.00     0.046 H 
ATOM     28  H   UNL     1     -43.365  41.372  25.293  1.00  0.00     0.046 H 
ENDBRANCH  20  25
ENDBRANCH   6  20
ENDBRANCH   4   5
ENDBRANCH   1   4
BRANCH   1  29
ATOM     29  C   UNL     1     -47.433  33.004  26.572  1.00  0.00     0.123 C 
ATOM     30  O   UNL     1     -47.964  31.658  26.505  1.00  0.00    -0.345 OA
ATOM     31  C   UNL     1     -46.557  33.181  25.336  1.00  0.00     0.114 C 
ATOM     32  H   UNL     1     -46.851  33.064  27.498  1.00  0.00     0.067 H 
ATOM     33  C   UNL     1     -47.715  31.125  25.187  1.00  0.00     0.164 C 
ATOM     34  C   UNL     1     -47.230  32.286  24.314  1.00  0.00     0.128 C 
ATOM     35  H   UNL     1     -46.455  34.219  25.005  1.00  0.00     0.066 H 
ATOM     36  H   UNL     1     -46.972  30.324  25.274  1.00  0.00     0.088 H 
ATOM     37  H   UNL     1     -48.067  32.813  23.842  1.00  0.00     0.068 H 
BRANCH  31  38
ATOM     38  O   UNL     1     -45.233  32.693  25.595  1.00  0.00    -0.387 OA
ATOM     39  H   UNL     1     -44.748  32.809  24.751  1.00  0.00     0.211 HD
ENDBRANCH  31  38
BRANCH  33  40
ATOM     40  N   UNL     1     -48.935  30.512  24.666  1.00  0.00    -0.303 N 
ATOM     41  C   UNL     1     -49.858  31.089  23.832  1.00  0.00     0.013 A 
ATOM     42  C   UNL     1     -49.319  29.224  24.946  1.00  0.00     0.147 A 
ATOM     43  C   UNL     1     -50.861  30.171  23.565  1.00  0.00    -0.014 A 
ATOM     44  H   UNL     1     -49.729  32.111  23.494  1.00  0.00     0.082 H 
ATOM     45  C   UNL     1     -50.524  28.979  24.300  1.00  0.00     0.065 A 
ATOM     46  N   UNL     1     -48.623  28.363  25.713  1.00  0.00    -0.218 NA
ATOM     47  C   UNL     1     -51.082  27.705  24.498  1.00  0.00     0.136 A 
ATOM     48  C   UNL     1     -49.260  27.183  25.823  1.00  0.00     0.120 A 
ATOM     49  N   UNL     1     -50.428  26.815  25.272  1.00  0.00    -0.219 NA
ATOM     50  H   UNL     1     -48.769  26.431  26.434  1.00  0.00     0.106 H 
BRANCH  43  51
ATOM     51  C   UNL     1     -52.071  30.370  22.684  1.00  0.00    -0.014 C 
ATOM     52  C   UNL     1     -51.910  29.879  21.240  1.00  0.00    -0.046 C 
ATOM     53  C   UNL     1     -52.425  31.847  22.496  1.00  0.00    -0.046 C 
ATOM     54  H   UNL     1     -52.910  29.833  23.142  1.00  0.00     0.035 H 
ATOM     55  C   UNL     1     -51.412  31.078  20.430  1.00  0.00    -0.053 C 
ATOM     56  H   UNL     1     -52.893  29.583  20.851  1.00  0.00     0.027 H 
ATOM     57  H   UNL     1     -51.252  29.010  21.137  1.00  0.00     0.027 H 
ATOM     58  C   UNL     1     -51.554  32.301  21.332  1.00  0.00    -0.053 C 
ATOM     59  H   UNL     1     -53.481  31.939  22.214  1.00  0.00     0.027 H 
ATOM     60  H   UNL     1     -52.260  32.458  23.389  1.00  0.00     0.027 H 
ATOM     61  H   UNL     1     -50.369  30.946  20.122  1.00  0.00     0.027 H 
ATOM     62  H   UNL     1     -52.006  31.192  19.517  1.00  0.00     0.027 H 
ATOM     63  H   UNL     1     -51.990  33.154  20.803  1.00  0.00     0.027 H 
ATOM     64  H   UNL     1     -50.567  32.610  21.696  1.00  0.00     0.027 H 
ENDBRANCH  43  51
BRANCH  47  65
ATOM     65  N   UNL     1     -52.295  27.283  23.967  1.00  0.00    -0.383 N 
ATOM     66  H   UNL     1     -52.207  26.731  23.126  1.00  0.00     0.158 HD
ATOM     67  H   UNL     1     -52.935  28.067  23.908  1.00  0.00     0.158 HD
ENDBRANCH  47  65
ENDBRANCH  33  40
BRANCH  34  68
ATOM     68  O   UNL     1     -46.293  31.914  23.299  1.00  0.00    -0.386 OA
ATOM     69  H   UNL     1     -45.760  31.179  23.677  1.00  0.00     0.211 HD
ENDBRANCH  34  68
ENDBRANCH   1  29
TORSDOF 11
ENDMDL
MODEL 5
REMARK VINA RESULT:      -9.0      3.151      6.584
REMARK SMILES CN(C)c1ccc2ccc(OC[C@H]3O[C@@H](n4cc(C5CCCC5)c5c(N)ncnc54)[C@H](O)[C@@H]3O)cc2n1
REMARK SMILES IDX 12 1 11 4 10 5 4 6 5 7 37 8 6 9 36 11 7 12 35 14 8 15 9 17
REMARK SMILES IDX 2 20 1 21 3 25 13 29 14 30 33 31 15 33 31 34 34 38 16 40
REMARK SMILES IDX 17 41 30 42 18 43 24 45 29 46 25 47 28 48 27 49 19 51 20 52
REMARK SMILES IDX 23 53 21 55 22 58 26 65 32 68
REMARK H PARENT 12 2 12 3 5 10 6 13 35 16 8 18 9 19 1 22 1 23 1 24 3 26 3 27
REMARK H PARENT 3 28 13 32 33 35 15 36 31 37 34 39 17 44 28 50 19 54 20 56
REMARK H PARENT 20 57 23 59 23 60 21 61 21 62 22 63 22 64 26 66 26 67 32 69
REMARK Flexibility Score: inf
ROOT
ATOM      1  C   UNL     1     -43.391  40.913  28.072  1.00  0.00     0.117 C 
ATOM      2  H   UNL     1     -43.379  41.669  28.865  1.00  0.00     0.073 H 
ATOM      3  H   UNL     1     -42.707  40.120  28.396  1.00  0.00     0.073 H 
ENDROOT
BRANCH   1   4
ATOM      4  O   UNL     1     -44.742  40.446  28.016  1.00  0.00    -0.491 OA
BRANCH   4   5
ATOM      5  C   UNL     1     -45.020  39.168  28.409  1.00  0.00     0.121 A 
ATOM      6  C   UNL     1     -46.859  35.042  26.854  1.00  0.00     0.128 A 
ATOM      7  C   UNL     1     -46.625  34.436  28.087  1.00  0.00    -0.019 A 
ATOM      8  N   UNL     1     -46.509  36.331  26.643  1.00  0.00    -0.231 NA
ATOM      9  C   UNL     1     -46.047  35.167  29.121  1.00  0.00    -0.049 A 
ATOM     10  H   UNL     1     -46.867  33.389  28.239  1.00  0.00     0.066 H 
ATOM     11  C   UNL     1     -45.949  37.046  27.636  1.00  0.00     0.076 A 
ATOM     12  C   UNL     1     -45.700  36.501  28.907  1.00  0.00     0.001 A 
ATOM     13  H   UNL     1     -45.865  34.685  30.077  1.00  0.00     0.063 H 
ATOM     14  C   UNL     1     -45.600  38.371  27.416  1.00  0.00     0.007 A 
ATOM     15  C   UNL     1     -45.112  37.287  29.912  1.00  0.00    -0.049 A 
ATOM     16  H   UNL     1     -45.786  38.799  26.433  1.00  0.00     0.069 H 
ATOM     17  C   UNL     1     -44.774  38.618  29.663  1.00  0.00    -0.019 A 
ATOM     18  H   UNL     1     -44.911  36.863  30.894  1.00  0.00     0.063 H 
ATOM     19  H   UNL     1     -44.311  39.182  30.465  1.00  0.00     0.066 H 
BRANCH   6  20
ATOM     20  N   UNL     1     -47.436  34.288  25.809  1.00  0.00    -0.363 N 
BRANCH  20  21
ATOM     21  C   UNL     1     -46.446  33.479  25.097  1.00  0.00     0.008 C 
ATOM     22  H   UNL     1     -46.824  32.477  24.867  1.00  0.00     0.046 H 
ATOM     23  H   UNL     1     -46.128  33.962  24.166  1.00  0.00     0.046 H 
ATOM     24  H   UNL     1     -45.558  33.338  25.723  1.00  0.00     0.046 H 
ENDBRANCH  20  21
BRANCH  20  25
ATOM     25  C   UNL     1     -48.614  33.535  26.246  1.00  0.00     0.008 C 
ATOM     26  H   UNL     1     -48.347  32.771  26.985  1.00  0.00     0.046 H 
ATOM     27  H   UNL     1     -49.322  34.211  26.737  1.00  0.00     0.046 H 
ATOM     28  H   UNL     1     -49.135  33.063  25.404  1.00  0.00     0.046 H 
ENDBRANCH  20  25
ENDBRANCH   6  20
ENDBRANCH   4   5
ENDBRANCH   1   4
BRANCH   1  29
ATOM     29  C   UNL     1     -42.959  41.556  26.745  1.00  0.00     0.123 C 
ATOM     30  O   UNL     1     -44.097  41.600  25.849  1.00  0.00    -0.345 OA
ATOM     31  C   UNL     1     -42.508  43.000  26.935  1.00  0.00     0.114 C 
ATOM     32  H   UNL     1     -42.194  40.951  26.247  1.00  0.00     0.067 H 
ATOM     33  C   UNL     1     -44.541  42.968  25.728  1.00  0.00     0.164 C 
ATOM     34  C   UNL     1     -43.801  43.780  26.795  1.00  0.00     0.128 C 
ATOM     35  H   UNL     1     -41.989  43.187  27.880  1.00  0.00     0.066 H 
ATOM     36  H   UNL     1     -44.323  43.313  24.710  1.00  0.00     0.088 H 
ATOM     37  H   UNL     1     -44.345  43.785  27.747  1.00  0.00     0.068 H 
BRANCH  31  38
ATOM     38  O   UNL     1     -41.610  43.381  25.883  1.00  0.00    -0.387 OA
ATOM     39  H   UNL     1     -40.714  43.325  26.277  1.00  0.00     0.211 HD
ENDBRANCH  31  38
BRANCH  33  40
ATOM     40  N   UNL     1     -45.992  43.030  25.891  1.00  0.00    -0.303 N 
ATOM     41  C   UNL     1     -46.806  42.064  26.423  1.00  0.00     0.013 A 
ATOM     42  C   UNL     1     -46.751  44.115  25.530  1.00  0.00     0.147 A 
ATOM     43  C   UNL     1     -48.115  42.517  26.407  1.00  0.00    -0.014 A 
ATOM     44  H   UNL     1     -46.388  41.125  26.771  1.00  0.00     0.082 H 
ATOM     45  C   UNL     1     -48.081  43.828  25.812  1.00  0.00     0.065 A 
ATOM     46  N   UNL     1     -46.265  45.254  25.001  1.00  0.00    -0.218 NA
ATOM     47  C   UNL     1     -49.012  44.828  25.481  1.00  0.00     0.136 A 
ATOM     48  C   UNL     1     -47.252  46.128  24.731  1.00  0.00     0.120 A 
ATOM     49  N   UNL     1     -48.571  45.979  24.934  1.00  0.00    -0.219 NA
ATOM     50  H   UNL     1     -46.946  47.073  24.293  1.00  0.00     0.106 H 
BRANCH  43  51
ATOM     51  C   UNL     1     -49.340  41.790  26.908  1.00  0.00    -0.014 C 
ATOM     52  C   UNL     1     -49.981  42.389  28.166  1.00  0.00    -0.046 C 
ATOM     53  C   UNL     1     -49.036  40.355  27.340  1.00  0.00    -0.046 C 
ATOM     54  H   UNL     1     -50.085  41.795  26.103  1.00  0.00     0.035 H 
ATOM     55  C   UNL     1     -49.350  41.665  29.357  1.00  0.00    -0.053 C 
ATOM     56  H   UNL     1     -51.057  42.170  28.159  1.00  0.00     0.027 H 
ATOM     57  H   UNL     1     -49.878  43.477  28.242  1.00  0.00     0.027 H 
ATOM     58  C   UNL     1     -48.573  40.484  28.786  1.00  0.00    -0.053 C 
ATOM     59  H   UNL     1     -49.956  39.757  27.308  1.00  0.00     0.027 H 
ATOM     60  H   UNL     1     -48.288  39.854  26.717  1.00  0.00     0.027 H 
ATOM     61  H   UNL     1     -48.683  42.329  29.919  1.00  0.00     0.027 H 
ATOM     62  H   UNL     1     -50.128  41.326  30.050  1.00  0.00     0.027 H 
ATOM     63  H   UNL     1     -48.744  39.564  29.354  1.00  0.00     0.027 H 
ATOM     64  H   UNL     1     -47.497  40.695  28.820  1.00  0.00     0.027 H 
ENDBRANCH  43  51
BRANCH  47  65
ATOM     65  N   UNL     1     -50.386  44.715  25.652  1.00  0.00    -0.383 N 
ATOM     66  H   UNL     1     -50.829  45.556  25.994  1.00  0.00     0.158 HD
ATOM     67  H   UNL     1     -50.599  43.869  26.169  1.00  0.00     0.158 HD
ENDBRANCH  47  65
ENDBRANCH  33  40
BRANCH  34  68
ATOM     68  O   UNL     1     -43.519  45.132  26.424  1.00  0.00    -0.386 OA
ATOM     69  H   UNL     1     -42.619  45.122  26.027  1.00  0.00     0.211 HD
ENDBRANCH  34  68
ENDBRANCH   1  29
TORSDOF 11
ENDMDL
MODEL 6
REMARK VINA RESULT:      -8.7      2.231      4.292
REMARK SMILES CN(C)c1ccc2ccc(OC[C@H]3O[C@@H](n4cc(C5CCCC5)c5c(N)ncnc54)[C@H](O)[C@@H]3O)cc2n1
REMARK SMILES IDX 12 1 11 4 10 5 4 6 5 7 37 8 6 9 36 11 7 12 35 14 8 15 9 17
REMARK SMILES IDX 2 20 1 21 3 25 13 29 14 30 33 31 15 33 31 34 34 38 16 40
REMARK SMILES IDX 17 41 30 42 18 43 24 45 29 46 25 47 28 48 27 49 19 51 20 52
REMARK SMILES IDX 23 53 21 55 22 58 26 65 32 68
REMARK H PARENT 12 2 12 3 5 10 6 13 35 16 8 18 9 19 1 22 1 23 1 24 3 26 3 27
REMARK H PARENT 3 28 13 32 33 35 15 36 31 37 34 39 17 44 28 50 19 54 20 56
REMARK H PARENT 20 57 23 59 23 60 21 61 21 62 22 63 22 64 26 66 26 67 32 69
REMARK Flexibility Score: inf
ROOT
ATOM      1  C   UNL     1     -48.481  35.250  26.834  1.00  0.00     0.117 C 
ATOM      2  H   UNL     1     -48.788  35.507  25.813  1.00  0.00     0.073 H 
ATOM      3  H   UNL     1     -49.200  35.741  27.500  1.00  0.00     0.073 H 
ENDROOT
BRANCH   1   4
ATOM      4  O   UNL     1     -48.586  33.826  26.911  1.00  0.00    -0.491 OA
BRANCH   4   5
ATOM      5  C   UNL     1     -48.014  33.063  25.934  1.00  0.00     0.121 A 
ATOM      6  C   UNL     1     -49.018  29.760  22.631  1.00  0.00     0.128 A 
ATOM      7  C   UNL     1     -47.689  29.726  22.215  1.00  0.00    -0.019 A 
ATOM      8  N   UNL     1     -49.408  30.591  23.624  1.00  0.00    -0.231 NA
ATOM      9  C   UNL     1     -46.745  30.537  22.838  1.00  0.00    -0.049 A 
ATOM     10  H   UNL     1     -47.388  29.091  21.388  1.00  0.00     0.066 H 
ATOM     11  C   UNL     1     -48.503  31.379  24.233  1.00  0.00     0.076 A 
ATOM     12  C   UNL     1     -47.144  31.384  23.873  1.00  0.00     0.001 A 
ATOM     13  H   UNL     1     -45.713  30.507  22.504  1.00  0.00     0.063 H 
ATOM     14  C   UNL     1     -48.907  32.225  25.258  1.00  0.00     0.007 A 
ATOM     15  C   UNL     1     -46.238  32.225  24.538  1.00  0.00    -0.049 A 
ATOM     16  H   UNL     1     -49.958  32.230  25.540  1.00  0.00     0.069 H 
ATOM     17  C   UNL     1     -46.672  33.062  25.566  1.00  0.00    -0.019 A 
ATOM     18  H   UNL     1     -45.187  32.235  24.253  1.00  0.00     0.063 H 
ATOM     19  H   UNL     1     -45.938  33.703  26.042  1.00  0.00     0.066 H 
BRANCH   6  20
ATOM     20  N   UNL     1     -49.969  28.941  21.983  1.00  0.00    -0.363 N 
BRANCH  20  21
ATOM     21  C   UNL     1     -50.217  29.363  20.604  1.00  0.00     0.008 C 
ATOM     22  H   UNL     1     -50.955  30.170  20.549  1.00  0.00     0.046 H 
ATOM     23  H   UNL     1     -49.293  29.690  20.112  1.00  0.00     0.046 H 
ATOM     24  H   UNL     1     -50.628  28.528  20.025  1.00  0.00     0.046 H 
ENDBRANCH  20  21
BRANCH  20  25
ATOM     25  C   UNL     1     -49.667  27.515  22.122  1.00  0.00     0.008 C 
ATOM     26  H   UNL     1     -49.147  27.307  23.064  1.00  0.00     0.046 H 
ATOM     27  H   UNL     1     -50.600  26.941  22.148  1.00  0.00     0.046 H 
ATOM     28  H   UNL     1     -49.069  27.138  21.283  1.00  0.00     0.046 H 
ENDBRANCH  20  25
ENDBRANCH   6  20
ENDBRANCH   4   5
ENDBRANCH   1   4
BRANCH   1  29
ATOM     29  C   UNL     1     -47.039  35.725  27.070  1.00  0.00     0.123 C 
ATOM     30  O   UNL     1     -46.922  37.106  26.651  1.00  0.00    -0.345 OA
ATOM     31  C   UNL     1     -46.667  35.693  28.549  1.00  0.00     0.114 C 
ATOM     32  H   UNL     1     -46.334  35.152  26.459  1.00  0.00     0.067 H 
ATOM     33  C   UNL     1     -46.799  37.939  27.823  1.00  0.00     0.164 C 
ATOM     34  C   UNL     1     -47.107  37.059  29.038  1.00  0.00     0.128 C 
ATOM     35  H   UNL     1     -47.118  34.866  29.107  1.00  0.00     0.066 H 
ATOM     36  H   UNL     1     -45.784  38.352  27.848  1.00  0.00     0.088 H 
ATOM     37  H   UNL     1     -48.179  37.052  29.269  1.00  0.00     0.068 H 
BRANCH  31  38
ATOM     38  O   UNL     1     -45.245  35.572  28.699  1.00  0.00    -0.387 OA
ATOM     39  H   UNL     1     -45.116  34.854  29.354  1.00  0.00     0.211 HD
ENDBRANCH  31  38
BRANCH  33  40
ATOM     40  N   UNL     1     -47.712  39.075  27.716  1.00  0.00    -0.303 N 
ATOM     41  C   UNL     1     -48.999  39.147  28.182  1.00  0.00     0.013 A 
ATOM     42  C   UNL     1     -47.376  40.267  27.124  1.00  0.00     0.147 A 
ATOM     43  C   UNL     1     -49.516  40.399  27.888  1.00  0.00    -0.014 A 
ATOM     44  H   UNL     1     -49.449  38.299  28.686  1.00  0.00     0.082 H 
ATOM     45  C   UNL     1     -48.478  41.111  27.189  1.00  0.00     0.065 A 
ATOM     46  N   UNL     1     -46.173  40.549  26.586  1.00  0.00    -0.218 NA
ATOM     47  C   UNL     1     -48.320  42.379  26.603  1.00  0.00     0.136 A 
ATOM     48  C   UNL     1     -46.150  41.788  26.062  1.00  0.00     0.120 A 
ATOM     49  N   UNL     1     -47.138  42.698  26.038  1.00  0.00    -0.219 NA
ATOM     50  H   UNL     1     -45.216  42.093  25.599  1.00  0.00     0.106 H 
BRANCH  43  51
ATOM     51  C   UNL     1     -50.891  40.923  28.227  1.00  0.00    -0.014 C 
ATOM     52  C   UNL     1     -51.575  40.229  29.412  1.00  0.00    -0.046 C 
ATOM     53  C   UNL     1     -51.896  40.712  27.093  1.00  0.00    -0.046 C 
ATOM     54  H   UNL     1     -50.796  41.990  28.458  1.00  0.00     0.035 H 
ATOM     55  C   UNL     1     -52.409  39.090  28.821  1.00  0.00    -0.053 C 
ATOM     56  H   UNL     1     -52.257  40.940  29.898  1.00  0.00     0.027 H 
ATOM     57  H   UNL     1     -50.882  39.877  30.182  1.00  0.00     0.027 H 
ATOM     58  C   UNL     1     -52.425  39.300  27.311  1.00  0.00    -0.053 C 
ATOM     59  H   UNL     1     -52.722  41.427  27.195  1.00  0.00     0.027 H 
ATOM     60  H   UNL     1     -51.467  40.836  26.094  1.00  0.00     0.027 H 
ATOM     61  H   UNL     1     -51.980  38.112  29.069  1.00  0.00     0.027 H 
ATOM     62  H   UNL     1     -53.424  39.111  29.232  1.00  0.00     0.027 H 
ATOM     63  H   UNL     1     -53.425  39.168  26.887  1.00  0.00     0.027 H 
ATOM     64  H   UNL     1     -51.765  38.571  26.827  1.00  0.00     0.027 H 
ENDBRANCH  43  51
BRANCH  47  65
ATOM     65  N   UNL     1     -49.315  43.346  26.535  1.00  0.00    -0.383 N 
ATOM     66  H   UNL     1     -50.252  42.981  26.626  1.00  0.00     0.158 HD
ATOM     67  H   UNL     1     -49.157  43.945  25.732  1.00  0.00     0.158 HD
ENDBRANCH  47  65
ENDBRANCH  33  40
BRANCH  34  68
ATOM     68  O   UNL     1     -46.387  37.410  30.223  1.00  0.00    -0.386 OA
ATOM     69  H   UNL     1     -47.064  37.518  30.929  1.00  0.00     0.211 HD
ENDBRANCH  34  68
ENDBRANCH   1  29
TORSDOF 11
ENDMDL
MODEL 7
REMARK VINA RESULT:      -8.6      1.627      2.457
REMARK SMILES CN(C)c1ccc2ccc(OC[C@H]3O[C@@H](n4cc(C5CCCC5)c5c(N)ncnc54)[C@H](O)[C@@H]3O)cc2n1
REMARK SMILES IDX 12 1 11 4 10 5 4 6 5 7 37 8 6 9 36 11 7 12 35 14 8 15 9 17
REMARK SMILES IDX 2 20 1 21 3 25 13 29 14 30 33 31 15 33 31 34 34 38 16 40
REMARK SMILES IDX 17 41 30 42 18 43 24 45 29 46 25 47 28 48 27 49 19 51 20 52
REMARK SMILES IDX 23 53 21 55 22 58 26 65 32 68
REMARK H PARENT 12 2 12 3 5 10 6 13 35 16 8 18 9 19 1 22 1 23 1 24 3 26 3 27
REMARK H PARENT 3 28 13 32 33 35 15 36 31 37 34 39 17 44 28 50 19 54 20 56
REMARK H PARENT 20 57 23 59 23 60 21 61 21 62 22 63 22 64 26 66 26 67 32 69
REMARK Flexibility Score: inf
ROOT
ATOM      1  C   UNL     1     -47.802  34.405  26.126  1.00  0.00     0.117 C 
ATOM      2  H   UNL     1     -47.662  34.613  25.059  1.00  0.00     0.073 H 
ATOM      3  H   UNL     1     -48.375  35.248  26.529  1.00  0.00     0.073 H 
ENDROOT
BRANCH   1   4
ATOM      4  O   UNL     1     -48.553  33.189  26.178  1.00  0.00    -0.491 OA
BRANCH   4   5
ATOM      5  C   UNL     1     -48.138  32.119  25.437  1.00  0.00     0.121 A 
ATOM      6  C   UNL     1     -48.663  27.392  24.985  1.00  0.00     0.128 A 
ATOM      7  C   UNL     1     -47.784  27.366  23.904  1.00  0.00    -0.019 A 
ATOM      8  N   UNL     1     -48.963  28.558  25.600  1.00  0.00    -0.231 NA
ATOM      9  C   UNL     1     -47.191  28.545  23.463  1.00  0.00    -0.049 A 
ATOM     10  H   UNL     1     -47.580  26.435  23.384  1.00  0.00     0.066 H 
ATOM     11  C   UNL     1     -48.394  29.704  25.181  1.00  0.00     0.076 A 
ATOM     12  C   UNL     1     -47.490  29.746  24.106  1.00  0.00     0.001 A 
ATOM     13  H   UNL     1     -46.512  28.516  22.616  1.00  0.00     0.063 H 
ATOM     14  C   UNL     1     -48.700  30.897  25.822  1.00  0.00     0.007 A 
ATOM     15  C   UNL     1     -46.923  30.967  23.705  1.00  0.00    -0.049 A 
ATOM     16  H   UNL     1     -49.403  30.873  26.652  1.00  0.00     0.069 H 
ATOM     17  C   UNL     1     -47.246  32.150  24.370  1.00  0.00    -0.019 A 
ATOM     18  H   UNL     1     -46.229  31.001  22.867  1.00  0.00     0.063 H 
ATOM     19  H   UNL     1     -46.794  33.070  24.016  1.00  0.00     0.066 H 
BRANCH   6  20
ATOM     20  N   UNL     1     -49.267  26.191  25.417  1.00  0.00    -0.363 N 
BRANCH  20  21
ATOM     21  C   UNL     1     -48.378  25.398  26.268  1.00  0.00     0.008 C 
ATOM     22  H   UNL     1     -48.897  24.546  26.720  1.00  0.00     0.046 H 
ATOM     23  H   UNL     1     -47.510  25.031  25.708  1.00  0.00     0.046 H 
ATOM     24  H   UNL     1     -48.009  26.011  27.097  1.00  0.00     0.046 H 
ENDBRANCH  20  21
BRANCH  20  25
ATOM     25  C   UNL     1     -50.598  26.407  25.989  1.00  0.00     0.008 C 
ATOM     26  H   UNL     1     -50.689  25.940  26.976  1.00  0.00     0.046 H 
ATOM     27  H   UNL     1     -50.766  27.480  26.134  1.00  0.00     0.046 H 
ATOM     28  H   UNL     1     -51.393  26.033  25.332  1.00  0.00     0.046 H 
ENDBRANCH  20  25
ENDBRANCH   6  20
ENDBRANCH   4   5
ENDBRANCH   1   4
BRANCH   1  29
ATOM     29  C   UNL     1     -46.430  34.251  26.801  1.00  0.00     0.123 C 
ATOM     30  O   UNL     1     -45.706  35.501  26.691  1.00  0.00    -0.345 OA
ATOM     31  C   UNL     1     -46.561  33.962  28.293  1.00  0.00     0.114 C 
ATOM     32  H   UNL     1     -45.825  33.494  26.290  1.00  0.00     0.067 H 
ATOM     33  C   UNL     1     -45.656  36.125  27.991  1.00  0.00     0.164 C 
ATOM     34  C   UNL     1     -46.611  35.349  28.903  1.00  0.00     0.128 C 
ATOM     35  H   UNL     1     -47.423  33.341  28.555  1.00  0.00     0.066 H 
ATOM     36  H   UNL     1     -44.619  36.099  28.347  1.00  0.00     0.088 H 
ATOM     37  H   UNL     1     -47.631  35.748  28.853  1.00  0.00     0.068 H 
BRANCH  31  38
ATOM     38  O   UNL     1     -45.393  33.277  28.769  1.00  0.00    -0.387 OA
ATOM     39  H   UNL     1     -44.689  33.491  28.121  1.00  0.00     0.211 HD
ENDBRANCH  31  38
BRANCH  33  40
ATOM     40  N   UNL     1     -46.025  37.534  27.874  1.00  0.00    -0.303 N 
ATOM     41  C   UNL     1     -45.180  38.596  27.678  1.00  0.00     0.013 A 
ATOM     42  C   UNL     1     -47.319  37.989  27.936  1.00  0.00     0.147 A 
ATOM     43  C   UNL     1     -45.926  39.762  27.614  1.00  0.00    -0.014 A 
ATOM     44  H   UNL     1     -44.110  38.438  27.600  1.00  0.00     0.082 H 
ATOM     45  C   UNL     1     -47.300  39.372  27.802  1.00  0.00     0.065 A 
ATOM     46  N   UNL     1     -48.404  37.207  28.093  1.00  0.00    -0.218 NA
ATOM     47  C   UNL     1     -48.549  40.015  27.867  1.00  0.00     0.136 A 
ATOM     48  C   UNL     1     -49.532  37.939  28.137  1.00  0.00     0.120 A 
ATOM     49  N   UNL     1     -49.660  39.272  28.039  1.00  0.00    -0.219 NA
ATOM     50  H   UNL     1     -50.456  37.384  28.271  1.00  0.00     0.106 H 
BRANCH  43  51
ATOM     51  C   UNL     1     -45.414  41.164  27.394  1.00  0.00    -0.014 C 
ATOM     52  C   UNL     1     -45.576  41.698  25.965  1.00  0.00    -0.046 C 
ATOM     53  C   UNL     1     -43.906  41.282  27.623  1.00  0.00    -0.046 C 
ATOM     54  H   UNL     1     -45.955  41.830  28.077  1.00  0.00     0.035 H 
ATOM     55  C   UNL     1     -44.279  41.358  25.228  1.00  0.00    -0.053 C 
ATOM     56  H   UNL     1     -45.677  42.791  26.000  1.00  0.00     0.027 H 
ATOM     57  H   UNL     1     -46.460  41.314  25.445  1.00  0.00     0.027 H 
ATOM     58  C   UNL     1     -43.287  40.890  26.288  1.00  0.00    -0.053 C 
ATOM     59  H   UNL     1     -43.647  42.324  27.850  1.00  0.00     0.027 H 
ATOM     60  H   UNL     1     -43.533  40.658  28.442  1.00  0.00     0.027 H 
ATOM     61  H   UNL     1     -44.440  40.574  24.479  1.00  0.00     0.027 H 
ATOM     62  H   UNL     1     -43.902  42.239  24.697  1.00  0.00     0.027 H 
ATOM     63  H   UNL     1     -42.297  41.336  26.149  1.00  0.00     0.027 H 
ATOM     64  H   UNL     1     -43.167  39.802  26.231  1.00  0.00     0.027 H 
ENDBRANCH  43  51
BRANCH  47  65
ATOM     65  N   UNL     1     -48.733  41.390  27.790  1.00  0.00    -0.383 N 
ATOM     66  H   UNL     1     -48.532  41.881  28.649  1.00  0.00     0.158 HD
ATOM     67  H   UNL     1     -49.634  41.592  27.373  1.00  0.00     0.158 HD
ENDBRANCH  47  65
ENDBRANCH  33  40
BRANCH  34  68
ATOM     68  O   UNL     1     -46.209  35.294  30.275  1.00  0.00    -0.386 OA
ATOM     69  H   UNL     1     -45.333  34.846  30.283  1.00  0.00     0.211 HD
ENDBRANCH  34  68
ENDBRANCH   1  29
TORSDOF 11
ENDMDL
