MODEL 1
REMARK VINA RESULT:      -9.8      0.000      0.000
REMARK SMILES CC(C)CNCc1cc2ccc(CNC(=O)c3cc(=O)n4ccccc4n3)cc2[nH]1
REMARK SMILES IDX 6 1 5 4 4 6 2 9 1 11 3 15 7 19 8 20 30 21 9 22 29 24 10 26
REMARK SMILES IDX 28 27 11 28 12 30 13 33 14 36 15 37 16 39 17 40 18 41 27 42
REMARK SMILES IDX 19 43 26 45 20 46 21 47 25 48 22 49 24 50 23 52
REMARK H PARENT 6 2 6 3 5 5 4 7 4 8 2 10 1 12 1 13 1 14 3 16 3 17 3 18 8 23
REMARK H PARENT 30 25 10 29 28 31 11 32 13 34 13 35 14 38 18 44 25 51 22 53
REMARK H PARENT 24 54 23 55
REMARK Flexibility Score: inf
ROOT
ATOM      1  C   UNL     1     -48.616  29.392  23.704  1.00  0.00     0.036 C 
ATOM      2  H   UNL     1     -49.497  29.552  23.070  1.00  0.00     0.049 H 
ATOM      3  H   UNL     1     -47.813  28.990  23.074  1.00  0.00     0.049 H 
ENDROOT
BRANCH   1   4
ATOM      4  N   UNL     1     -48.927  28.464  24.789  1.00  0.00    -0.311 NA
ATOM      5  H   UNL     1     -49.830  28.032  24.585  1.00  0.00     0.123 HD
BRANCH   4   6
ATOM      6  C   UNL     1     -47.908  27.419  24.894  1.00  0.00    -0.002 C 
ATOM      7  H   UNL     1     -46.908  27.872  24.878  1.00  0.00     0.043 H 
ATOM      8  H   UNL     1     -47.981  26.743  24.033  1.00  0.00     0.043 H 
BRANCH   6   9
ATOM      9  C   UNL     1     -48.078  26.604  26.190  1.00  0.00    -0.035 C 
ATOM     10  H   UNL     1     -48.243  27.296  27.026  1.00  0.00     0.031 H 
BRANCH   9  11
ATOM     11  C   UNL     1     -49.309  25.701  26.080  1.00  0.00    -0.062 C 
ATOM     12  H   UNL     1     -49.957  25.819  26.955  1.00  0.00     0.023 H 
ATOM     13  H   UNL     1     -49.016  24.648  26.022  1.00  0.00     0.023 H 
ATOM     14  H   UNL     1     -49.898  25.939  25.188  1.00  0.00     0.023 H 
ENDBRANCH   9  11
BRANCH   9  15
ATOM     15  C   UNL     1     -46.842  25.759  26.507  1.00  0.00    -0.062 C 
ATOM     16  H   UNL     1     -46.480  25.249  25.607  1.00  0.00     0.023 H 
ATOM     17  H   UNL     1     -46.025  26.379  26.892  1.00  0.00     0.023 H 
ATOM     18  H   UNL     1     -47.064  24.989  27.252  1.00  0.00     0.023 H 
ENDBRANCH   9  15
ENDBRANCH   6   9
ENDBRANCH   4   6
ENDBRANCH   1   4
BRANCH   1  19
ATOM     19  C   UNL     1     -48.168  30.688  24.279  1.00  0.00     0.030 A 
ATOM     20  C   UNL     1     -46.969  31.366  24.181  1.00  0.00    -0.032 A 
ATOM     21  N   UNL     1     -48.993  31.442  25.081  1.00  0.00    -0.357 N 
ATOM     22  C   UNL     1     -47.076  32.563  24.943  1.00  0.00    -0.000 A 
ATOM     23  H   UNL     1     -46.103  31.038  23.623  1.00  0.00     0.065 H 
ATOM     24  C   UNL     1     -48.355  32.588  25.493  1.00  0.00     0.046 A 
ATOM     25  H   UNL     1     -49.948  31.189  25.297  1.00  0.00     0.166 HD
ATOM     26  C   UNL     1     -46.201  33.631  25.215  1.00  0.00    -0.052 A 
ATOM     27  C   UNL     1     -48.812  33.634  26.304  1.00  0.00    -0.033 A 
ATOM     28  C   UNL     1     -46.639  34.687  26.026  1.00  0.00    -0.057 A 
ATOM     29  H   UNL     1     -45.196  33.638  24.804  1.00  0.00     0.063 H 
ATOM     30  C   UNL     1     -47.933  34.702  26.560  1.00  0.00    -0.027 A 
ATOM     31  H   UNL     1     -49.813  33.620  26.724  1.00  0.00     0.065 H 
ATOM     32  H   UNL     1     -45.952  35.505  26.237  1.00  0.00     0.063 H 
BRANCH  30  33
ATOM     33  C   UNL     1     -48.371  35.832  27.454  1.00  0.00     0.043 C 
ATOM     34  H   UNL     1     -49.334  36.241  27.126  1.00  0.00     0.054 H 
ATOM     35  H   UNL     1     -48.511  35.483  28.484  1.00  0.00     0.054 H 
BRANCH  33  36
ATOM     36  N   UNL     1     -47.399  36.893  27.451  1.00  0.00    -0.347 N 
ATOM     37  C   UNL     1     -46.650  37.200  28.556  1.00  0.00     0.270 C 
ATOM     38  H   UNL     1     -47.289  37.485  26.632  1.00  0.00     0.164 HD
ATOM     39  O   UNL     1     -46.710  36.595  29.618  1.00  0.00    -0.268 OA
BRANCH  37  40
ATOM     40  C   UNL     1     -45.735  38.379  28.324  1.00  0.00     0.136 A 
ATOM     41  C   UNL     1     -46.005  39.141  27.262  1.00  0.00     0.035 A 
ATOM     42  N   UNL     1     -44.697  38.594  29.201  1.00  0.00    -0.225 NA
ATOM     43  C   UNL     1     -45.140  40.299  26.999  1.00  0.00     0.258 A 
ATOM     44  H   UNL     1     -46.825  38.962  26.579  1.00  0.00     0.071 H 
ATOM     45  C   UNL     1     -43.936  39.618  28.966  1.00  0.00     0.140 A 
ATOM     46  O   UNL     1     -45.382  41.007  26.023  1.00  0.00    -0.269 OA
ATOM     47  N   UNL     1     -44.102  40.494  27.898  1.00  0.00    -0.268 N 
ATOM     48  C   UNL     1     -42.799  39.890  29.891  1.00  0.00    -0.019 A 
ATOM     49  C   UNL     1     -43.240  41.570  27.716  1.00  0.00     0.014 A 
ATOM     50  C   UNL     1     -41.996  40.939  29.674  1.00  0.00    -0.057 A 
ATOM     51  H   UNL     1     -42.661  39.214  30.726  1.00  0.00     0.066 H 
ATOM     52  C   UNL     1     -42.221  41.809  28.550  1.00  0.00    -0.045 A 
ATOM     53  H   UNL     1     -43.430  42.214  26.860  1.00  0.00     0.082 H 
ATOM     54  H   UNL     1     -41.163  41.152  30.336  1.00  0.00     0.062 H 
ATOM     55  H   UNL     1     -41.555  42.651  28.398  1.00  0.00     0.064 H 
ENDBRANCH  37  40
ENDBRANCH  33  36
ENDBRANCH  30  33
ENDBRANCH   1  19
TORSDOF 9
ENDMDL
MODEL 2
REMARK VINA RESULT:      -9.6      1.892      3.147
REMARK SMILES CC(C)CNCc1cc2ccc(CNC(=O)c3cc(=O)n4ccccc4n3)cc2[nH]1
REMARK SMILES IDX 6 1 5 4 4 6 2 9 1 11 3 15 7 19 8 20 30 21 9 22 29 24 10 26
REMARK SMILES IDX 28 27 11 28 12 30 13 33 14 36 15 37 16 39 17 40 18 41 27 42
REMARK SMILES IDX 19 43 26 45 20 46 21 47 25 48 22 49 24 50 23 52
REMARK H PARENT 6 2 6 3 5 5 4 7 4 8 2 10 1 12 1 13 1 14 3 16 3 17 3 18 8 23
REMARK H PARENT 30 25 10 29 28 31 11 32 13 34 13 35 14 38 18 44 25 51 22 53
REMARK H PARENT 24 54 23 55
REMARK Flexibility Score: inf
ROOT
ATOM      1  C   UNL     1     -46.389  31.464  24.035  1.00  0.00     0.036 C 
ATOM      2  H   UNL     1     -46.629  31.812  23.023  1.00  0.00     0.049 H 
ATOM      3  H   UNL     1     -45.310  31.273  24.082  1.00  0.00     0.049 H 
ENDROOT
BRANCH   1   4
ATOM      4  N   UNL     1     -47.138  30.249  24.349  1.00  0.00    -0.311 NA
ATOM      5  H   UNL     1     -48.132  30.457  24.249  1.00  0.00     0.123 HD
BRANCH   4   6
ATOM      6  C   UNL     1     -46.780  29.162  23.437  1.00  0.00    -0.002 C 
ATOM      7  H   UNL     1     -45.687  29.090  23.355  1.00  0.00     0.043 H 
ATOM      8  H   UNL     1     -47.175  29.374  22.436  1.00  0.00     0.043 H 
BRANCH   6   9
ATOM      9  C   UNL     1     -47.345  27.815  23.926  1.00  0.00    -0.035 C 
ATOM     10  H   UNL     1     -47.831  27.306  23.084  1.00  0.00     0.031 H 
BRANCH   9  11
ATOM     11  C   UNL     1     -46.206  26.920  24.419  1.00  0.00    -0.062 C 
ATOM     12  H   UNL     1     -46.573  25.914  24.648  1.00  0.00     0.023 H 
ATOM     13  H   UNL     1     -45.757  27.326  25.331  1.00  0.00     0.023 H 
ATOM     14  H   UNL     1     -45.417  26.829  23.664  1.00  0.00     0.023 H 
ENDBRANCH   9  11
BRANCH   9  15
ATOM     15  C   UNL     1     -48.382  27.994  25.038  1.00  0.00    -0.062 C 
ATOM     16  H   UNL     1     -48.754  29.025  25.059  1.00  0.00     0.023 H 
ATOM     17  H   UNL     1     -49.240  27.330  24.891  1.00  0.00     0.023 H 
ATOM     18  H   UNL     1     -47.953  27.782  26.022  1.00  0.00     0.023 H 
ENDBRANCH   9  15
ENDBRANCH   6   9
ENDBRANCH   4   6
ENDBRANCH   1   4
BRANCH   1  19
ATOM     19  C   UNL     1     -46.729  32.521  25.024  1.00  0.00     0.030 A 
ATOM     20  C   UNL     1     -47.903  33.207  25.260  1.00  0.00    -0.032 A 
ATOM     21  N   UNL     1     -45.796  33.001  25.913  1.00  0.00    -0.357 N 
ATOM     22  C   UNL     1     -47.673  34.124  26.324  1.00  0.00    -0.000 A 
ATOM     23  H   UNL     1     -48.834  33.069  24.726  1.00  0.00     0.065 H 
ATOM     24  C   UNL     1     -46.345  33.972  26.716  1.00  0.00     0.046 A 
ATOM     25  H   UNL     1     -44.850  32.650  25.977  1.00  0.00     0.166 HD
ATOM     26  C   UNL     1     -48.472  35.072  26.990  1.00  0.00    -0.052 A 
ATOM     27  C   UNL     1     -45.771  34.719  27.752  1.00  0.00    -0.033 A 
ATOM     28  C   UNL     1     -47.915  35.830  28.028  1.00  0.00    -0.057 A 
ATOM     29  H   UNL     1     -49.509  35.216  26.704  1.00  0.00     0.063 H 
ATOM     30  C   UNL     1     -46.581  35.654  28.419  1.00  0.00    -0.027 A 
ATOM     31  H   UNL     1     -44.730  34.582  28.029  1.00  0.00     0.065 H 
ATOM     32  H   UNL     1     -48.538  36.566  28.533  1.00  0.00     0.063 H 
BRANCH  30  33
ATOM     33  C   UNL     1     -45.996  36.504  29.517  1.00  0.00     0.043 C 
ATOM     34  H   UNL     1     -46.780  36.863  30.194  1.00  0.00     0.054 H 
ATOM     35  H   UNL     1     -45.294  35.924  30.127  1.00  0.00     0.054 H 
BRANCH  33  36
ATOM     36  N   UNL     1     -45.306  37.642  28.971  1.00  0.00    -0.347 N 
ATOM     37  C   UNL     1     -44.519  38.458  29.740  1.00  0.00     0.270 C 
ATOM     38  H   UNL     1     -45.439  37.904  27.998  1.00  0.00     0.164 HD
ATOM     39  O   UNL     1     -44.305  38.281  30.933  1.00  0.00    -0.268 OA
BRANCH  37  40
ATOM     40  C   UNL     1     -43.941  39.611  28.956  1.00  0.00     0.136 A 
ATOM     41  C   UNL     1     -42.908  40.248  29.510  1.00  0.00     0.035 A 
ATOM     42  N   UNL     1     -44.501  39.931  27.741  1.00  0.00    -0.225 NA
ATOM     43  C   UNL     1     -42.315  41.376  28.781  1.00  0.00     0.258 A 
ATOM     44  H   UNL     1     -42.475  39.986  30.467  1.00  0.00     0.071 H 
ATOM     45  C   UNL     1     -43.974  40.928  27.099  1.00  0.00     0.140 A 
ATOM     46  O   UNL     1     -41.362  41.970  29.283  1.00  0.00    -0.269 OA
ATOM     47  N   UNL     1     -42.897  41.678  27.559  1.00  0.00    -0.268 N 
ATOM     48  C   UNL     1     -44.548  41.311  25.778  1.00  0.00    -0.019 A 
ATOM     49  C   UNL     1     -42.389  42.734  26.808  1.00  0.00     0.014 A 
ATOM     50  C   UNL     1     -44.026  42.335  25.093  1.00  0.00    -0.057 A 
ATOM     51  H   UNL     1     -45.387  40.732  25.411  1.00  0.00     0.066 H 
ATOM     52  C   UNL     1     -42.910  43.073  25.623  1.00  0.00    -0.045 A 
ATOM     53  H   UNL     1     -41.546  43.277  27.229  1.00  0.00     0.082 H 
ATOM     54  H   UNL     1     -44.431  42.629  24.130  1.00  0.00     0.062 H 
ATOM     55  H   UNL     1     -42.507  43.898  25.046  1.00  0.00     0.064 H 
ENDBRANCH  37  40
ENDBRANCH  33  36
ENDBRANCH  30  33
ENDBRANCH   1  19
TORSDOF 9
ENDMDL
MODEL 3
REMARK VINA RESULT:      -9.1      2.931     11.088
REMARK SMILES CC(C)CNCc1cc2ccc(CNC(=O)c3cc(=O)n4ccccc4n3)cc2[nH]1
REMARK SMILES IDX 6 1 5 4 4 6 2 9 1 11 3 15 7 19 8 20 30 21 9 22 29 24 10 26
REMARK SMILES IDX 28 27 11 28 12 30 13 33 14 36 15 37 16 39 17 40 18 41 27 42
REMARK SMILES IDX 19 43 26 45 20 46 21 47 25 48 22 49 24 50 23 52
REMARK H PARENT 6 2 6 3 5 5 4 7 4 8 2 10 1 12 1 13 1 14 3 16 3 17 3 18 8 23
REMARK H PARENT 30 25 10 29 28 31 11 32 13 34 13 35 14 38 18 44 25 51 22 53
REMARK H PARENT 24 54 23 55
REMARK Flexibility Score: inf
ROOT
ATOM      1  C   UNL     1     -45.554  37.347  30.282  1.00  0.00     0.036 C 
ATOM      2  H   UNL     1     -46.352  37.875  30.818  1.00  0.00     0.049 H 
ATOM      3  H   UNL     1     -45.039  36.693  30.997  1.00  0.00     0.049 H 
ENDROOT
BRANCH   1   4
ATOM      4  N   UNL     1     -44.615  38.299  29.693  1.00  0.00    -0.311 NA
ATOM      5  H   UNL     1     -43.967  37.778  29.101  1.00  0.00     0.123 HD
BRANCH   4   6
ATOM      6  C   UNL     1     -45.317  39.293  28.880  1.00  0.00    -0.002 C 
ATOM      7  H   UNL     1     -45.077  40.302  29.236  1.00  0.00     0.043 H 
ATOM      8  H   UNL     1     -46.400  39.153  28.980  1.00  0.00     0.043 H 
BRANCH   6   9
ATOM      9  C   UNL     1     -44.929  39.170  27.394  1.00  0.00    -0.035 C 
ATOM     10  H   UNL     1     -44.321  38.266  27.259  1.00  0.00     0.031 H 
BRANCH   9  11
ATOM     11  C   UNL     1     -46.188  39.019  26.537  1.00  0.00    -0.062 C 
ATOM     12  H   UNL     1     -46.194  39.751  25.722  1.00  0.00     0.023 H 
ATOM     13  H   UNL     1     -47.089  39.180  27.137  1.00  0.00     0.023 H 
ATOM     14  H   UNL     1     -46.250  38.019  26.094  1.00  0.00     0.023 H 
ENDBRANCH   9  11
BRANCH   9  15
ATOM     15  C   UNL     1     -44.113  40.371  26.910  1.00  0.00    -0.062 C 
ATOM     16  H   UNL     1     -44.758  41.245  26.766  1.00  0.00     0.023 H 
ATOM     17  H   UNL     1     -43.338  40.642  27.634  1.00  0.00     0.023 H 
ATOM     18  H   UNL     1     -43.625  40.163  25.952  1.00  0.00     0.023 H 
ENDBRANCH   9  15
ENDBRANCH   6   9
ENDBRANCH   4   6
ENDBRANCH   1   4
BRANCH   1  19
ATOM     19  C   UNL     1     -46.143  36.506  29.206  1.00  0.00     0.030 A 
ATOM     20  C   UNL     1     -47.453  36.287  28.831  1.00  0.00    -0.032 A 
ATOM     21  N   UNL     1     -45.352  35.752  28.370  1.00  0.00    -0.357 N 
ATOM     22  C   UNL     1     -47.453  35.378  27.737  1.00  0.00    -0.000 A 
ATOM     23  H   UNL     1     -48.324  36.732  29.293  1.00  0.00     0.065 H 
ATOM     24  C   UNL     1     -46.124  35.060  27.466  1.00  0.00     0.046 A 
ATOM     25  H   UNL     1     -44.342  35.747  28.407  1.00  0.00     0.166 HD
ATOM     26  C   UNL     1     -48.462  34.793  26.949  1.00  0.00    -0.052 A 
ATOM     27  C   UNL     1     -45.747  34.187  26.439  1.00  0.00    -0.033 A 
ATOM     28  C   UNL     1     -48.105  33.916  25.917  1.00  0.00    -0.057 A 
ATOM     29  H   UNL     1     -49.507  35.018  27.139  1.00  0.00     0.063 H 
ATOM     30  C   UNL     1     -46.763  33.619  25.650  1.00  0.00    -0.027 A 
ATOM     31  H   UNL     1     -44.702  33.955  26.258  1.00  0.00     0.065 H 
ATOM     32  H   UNL     1     -48.893  33.463  25.318  1.00  0.00     0.063 H 
BRANCH  30  33
ATOM     33  C   UNL     1     -46.405  32.647  24.556  1.00  0.00     0.043 C 
ATOM     34  H   UNL     1     -46.710  33.033  23.576  1.00  0.00     0.054 H 
ATOM     35  H   UNL     1     -45.321  32.493  24.510  1.00  0.00     0.054 H 
BRANCH  33  36
ATOM     36  N   UNL     1     -47.048  31.378  24.767  1.00  0.00    -0.347 N 
ATOM     37  C   UNL     1     -47.904  30.831  23.848  1.00  0.00     0.270 C 
ATOM     38  H   UNL     1     -46.924  30.880  25.644  1.00  0.00     0.164 HD
ATOM     39  O   UNL     1     -48.173  31.342  22.769  1.00  0.00    -0.268 OA
BRANCH  37  40
ATOM     40  C   UNL     1     -48.490  29.519  24.314  1.00  0.00     0.136 A 
ATOM     41  C   UNL     1     -49.812  29.383  24.194  1.00  0.00     0.035 A 
ATOM     42  N   UNL     1     -47.645  28.562  24.826  1.00  0.00    -0.225 NA
ATOM     43  C   UNL     1     -50.424  28.123  24.635  1.00  0.00     0.258 A 
ATOM     44  H   UNL     1     -50.467  30.144  23.789  1.00  0.00     0.071 H 
ATOM     45  C   UNL     1     -48.189  27.450  25.214  1.00  0.00     0.140 A 
ATOM     46  O   UNL     1     -51.642  27.987  24.527  1.00  0.00    -0.269 OA
ATOM     47  N   UNL     1     -49.551  27.174  25.146  1.00  0.00    -0.268 N 
ATOM     48  C   UNL     1     -47.312  26.383  25.775  1.00  0.00    -0.019 A 
ATOM     49  C   UNL     1     -50.056  25.954  25.584  1.00  0.00     0.014 A 
ATOM     50  C   UNL     1     -47.844  25.225  26.184  1.00  0.00    -0.057 A 
ATOM     51  H   UNL     1     -46.250  26.588  25.832  1.00  0.00     0.066 H 
ATOM     52  C   UNL     1     -49.262  25.000  26.087  1.00  0.00    -0.045 A 
ATOM     53  H   UNL     1     -51.130  25.807  25.501  1.00  0.00     0.082 H 
ATOM     54  H   UNL     1     -47.222  24.438  26.595  1.00  0.00     0.062 H 
ATOM     55  H   UNL     1     -49.667  24.053  26.426  1.00  0.00     0.064 H 
ENDBRANCH  37  40
ENDBRANCH  33  36
ENDBRANCH  30  33
ENDBRANCH   1  19
TORSDOF 9
ENDMDL
MODEL 4
REMARK VINA RESULT:      -8.7      1.945      2.772
REMARK SMILES CC(C)CNCc1cc2ccc(CNC(=O)c3cc(=O)n4ccccc4n3)cc2[nH]1
REMARK SMILES IDX 6 1 5 4 4 6 2 9 1 11 3 15 7 19 8 20 30 21 9 22 29 24 10 26
REMARK SMILES IDX 28 27 11 28 12 30 13 33 14 36 15 37 16 39 17 40 18 41 27 42
REMARK SMILES IDX 19 43 26 45 20 46 21 47 25 48 22 49 24 50 23 52
REMARK H PARENT 6 2 6 3 5 5 4 7 4 8 2 10 1 12 1 13 1 14 3 16 3 17 3 18 8 23
REMARK H PARENT 30 25 10 29 28 31 11 32 13 34 13 35 14 38 18 44 25 51 22 53
REMARK H PARENT 24 54 23 55
REMARK Flexibility Score: inf
ROOT
ATOM      1  C   UNL     1     -48.806  29.708  24.140  1.00  0.00     0.036 C 
ATOM      2  H   UNL     1     -48.277  29.441  23.217  1.00  0.00     0.049 H 
ATOM      3  H   UNL     1     -48.593  28.936  24.889  1.00  0.00     0.049 H 
ENDROOT
BRANCH   1   4
ATOM      4  N   UNL     1     -50.245  29.800  23.897  1.00  0.00    -0.311 NA
ATOM      5  H   UNL     1     -50.572  30.688  24.278  1.00  0.00     0.123 HD
BRANCH   4   6
ATOM      6  C   UNL     1     -50.538  29.754  22.464  1.00  0.00    -0.002 C 
ATOM      7  H   UNL     1     -50.678  30.773  22.080  1.00  0.00     0.043 H 
ATOM      8  H   UNL     1     -51.471  29.204  22.295  1.00  0.00     0.043 H 
BRANCH   6   9
ATOM      9  C   UNL     1     -49.400  29.067  21.684  1.00  0.00    -0.035 C 
ATOM     10  H   UNL     1     -48.505  29.034  22.318  1.00  0.00     0.031 H 
BRANCH   9  11
ATOM     11  C   UNL     1     -49.792  27.625  21.354  1.00  0.00    -0.062 C 
ATOM     12  H   UNL     1     -50.724  27.596  20.781  1.00  0.00     0.023 H 
ATOM     13  H   UNL     1     -49.946  27.044  22.269  1.00  0.00     0.023 H 
ATOM     14  H   UNL     1     -49.015  27.127  20.763  1.00  0.00     0.023 H 
ENDBRANCH   9  11
BRANCH   9  15
ATOM     15  C   UNL     1     -49.048  29.816  20.397  1.00  0.00    -0.062 C 
ATOM     16  H   UNL     1     -48.013  29.612  20.101  1.00  0.00     0.023 H 
ATOM     17  H   UNL     1     -49.699  29.513  19.571  1.00  0.00     0.023 H 
ATOM     18  H   UNL     1     -49.144  30.898  20.526  1.00  0.00     0.023 H 
ENDBRANCH   9  15
ENDBRANCH   6   9
ENDBRANCH   4   6
ENDBRANCH   1   4
BRANCH   1  19
ATOM     19  C   UNL     1     -48.308  31.015  24.646  1.00  0.00     0.030 A 
ATOM     20  C   UNL     1     -47.094  31.651  24.491  1.00  0.00    -0.032 A 
ATOM     21  N   UNL     1     -49.093  31.827  25.431  1.00  0.00    -0.357 N 
ATOM     22  C   UNL     1     -47.148  32.884  25.200  1.00  0.00    -0.000 A 
ATOM     23  H   UNL     1     -46.250  31.273  23.929  1.00  0.00     0.065 H 
ATOM     24  C   UNL     1     -48.413  32.971  25.777  1.00  0.00     0.046 A 
ATOM     25  H   UNL     1     -50.049  31.613  25.679  1.00  0.00     0.166 HD
ATOM     26  C   UNL     1     -46.237  33.937  25.404  1.00  0.00    -0.052 A 
ATOM     27  C   UNL     1     -48.820  34.065  26.549  1.00  0.00    -0.033 A 
ATOM     28  C   UNL     1     -46.625  35.040  26.176  1.00  0.00    -0.057 A 
ATOM     29  H   UNL     1     -45.243  33.896  24.971  1.00  0.00     0.063 H 
ATOM     30  C   UNL     1     -47.906  35.117  26.737  1.00  0.00    -0.027 A 
ATOM     31  H   UNL     1     -49.811  34.100  26.992  1.00  0.00     0.065 H 
ATOM     32  H   UNL     1     -45.911  35.846  26.334  1.00  0.00     0.063 H 
BRANCH  30  33
ATOM     33  C   UNL     1     -48.290  36.299  27.589  1.00  0.00     0.043 C 
ATOM     34  H   UNL     1     -49.187  36.791  27.194  1.00  0.00     0.054 H 
ATOM     35  H   UNL     1     -48.528  35.982  28.611  1.00  0.00     0.054 H 
BRANCH  33  36
ATOM     36  N   UNL     1     -47.224  37.263  27.637  1.00  0.00    -0.347 N 
ATOM     37  C   UNL     1     -46.414  37.403  28.733  1.00  0.00     0.270 C 
ATOM     38  H   UNL     1     -47.084  37.912  26.867  1.00  0.00     0.164 HD
ATOM     39  O   UNL     1     -46.498  36.715  29.743  1.00  0.00    -0.268 OA
BRANCH  37  40
ATOM     40  C   UNL     1     -45.401  38.510  28.566  1.00  0.00     0.136 A 
ATOM     41  C   UNL     1     -44.493  38.636  29.535  1.00  0.00     0.035 A 
ATOM     42  N   UNL     1     -45.473  39.309  27.448  1.00  0.00    -0.225 NA
ATOM     43  C   UNL     1     -43.488  39.700  29.412  1.00  0.00     0.258 A 
ATOM     44  H   UNL     1     -44.447  38.001  30.411  1.00  0.00     0.071 H 
ATOM     45  C   UNL     1     -44.583  40.248  27.342  1.00  0.00     0.140 A 
ATOM     46  O   UNL     1     -42.646  39.823  30.300  1.00  0.00    -0.269 OA
ATOM     47  N   UNL     1     -43.581  40.490  28.276  1.00  0.00    -0.268 N 
ATOM     48  C   UNL     1     -44.621  41.137  26.147  1.00  0.00    -0.019 A 
ATOM     49  C   UNL     1     -42.663  41.519  28.089  1.00  0.00     0.014 A 
ATOM     50  C   UNL     1     -43.717  42.114  26.011  1.00  0.00    -0.057 A 
ATOM     51  H   UNL     1     -45.398  40.955  25.414  1.00  0.00     0.066 H 
ATOM     52  C   UNL     1     -42.704  42.314  27.013  1.00  0.00    -0.045 A 
ATOM     53  H   UNL     1     -41.908  41.652  28.859  1.00  0.00     0.082 H 
ATOM     54  H   UNL     1     -43.729  42.772  25.148  1.00  0.00     0.062 H 
ATOM     55  H   UNL     1     -41.983  43.114  26.877  1.00  0.00     0.064 H 
ENDBRANCH  37  40
ENDBRANCH  33  36
ENDBRANCH  30  33
ENDBRANCH   1  19
TORSDOF 9
ENDMDL
MODEL 5
REMARK VINA RESULT:      -8.7      2.119      3.217
REMARK SMILES CC(C)CNCc1cc2ccc(CNC(=O)c3cc(=O)n4ccccc4n3)cc2[nH]1
REMARK SMILES IDX 6 1 5 4 4 6 2 9 1 11 3 15 7 19 8 20 30 21 9 22 29 24 10 26
REMARK SMILES IDX 28 27 11 28 12 30 13 33 14 36 15 37 16 39 17 40 18 41 27 42
REMARK SMILES IDX 19 43 26 45 20 46 21 47 25 48 22 49 24 50 23 52
REMARK H PARENT 6 2 6 3 5 5 4 7 4 8 2 10 1 12 1 13 1 14 3 16 3 17 3 18 8 23
REMARK H PARENT 30 25 10 29 28 31 11 32 13 34 13 35 14 38 18 44 25 51 22 53
REMARK H PARENT 24 54 23 55
REMARK Flexibility Score: inf
ROOT
ATOM      1  C   UNL     1     -46.248  31.276  23.920  1.00  0.00     0.036 C 
ATOM      2  H   UNL     1     -46.237  31.655  22.890  1.00  0.00     0.049 H 
ATOM      3  H   UNL     1     -45.231  30.949  24.172  1.00  0.00     0.049 H 
ENDROOT
BRANCH   1   4
ATOM      4  N   UNL     1     -47.188  30.165  24.046  1.00  0.00    -0.311 NA
ATOM      5  H   UNL     1     -48.134  30.549  24.031  1.00  0.00     0.123 HD
BRANCH   4   6
ATOM      6  C   UNL     1     -47.035  29.220  22.939  1.00  0.00    -0.002 C 
ATOM      7  H   UNL     1     -46.319  28.435  23.216  1.00  0.00     0.043 H 
ATOM      8  H   UNL     1     -46.635  29.741  22.061  1.00  0.00     0.043 H 
BRANCH   6   9
ATOM      9  C   UNL     1     -48.384  28.572  22.570  1.00  0.00    -0.035 C 
ATOM     10  H   UNL     1     -48.241  27.489  22.466  1.00  0.00     0.031 H 
BRANCH   9  11
ATOM     11  C   UNL     1     -49.398  28.804  23.692  1.00  0.00    -0.062 C 
ATOM     12  H   UNL     1     -49.202  29.752  24.204  1.00  0.00     0.023 H 
ATOM     13  H   UNL     1     -49.343  28.005  24.438  1.00  0.00     0.023 H 
ATOM     14  H   UNL     1     -50.422  28.835  23.303  1.00  0.00     0.023 H 
ENDBRANCH   9  11
BRANCH   9  15
ATOM     15  C   UNL     1     -48.939  29.110  21.249  1.00  0.00    -0.062 C 
ATOM     16  H   UNL     1     -49.444  28.315  20.689  1.00  0.00     0.023 H 
ATOM     17  H   UNL     1     -49.665  29.912  21.421  1.00  0.00     0.023 H 
ATOM     18  H   UNL     1     -48.142  29.503  20.611  1.00  0.00     0.023 H 
ENDBRANCH   9  15
ENDBRANCH   6   9
ENDBRANCH   4   6
ENDBRANCH   1   4
BRANCH   1  19
ATOM     19  C   UNL     1     -46.645  32.365  24.852  1.00  0.00     0.030 A 
ATOM     20  C   UNL     1     -47.884  32.858  25.205  1.00  0.00    -0.032 A 
ATOM     21  N   UNL     1     -45.707  33.100  25.539  1.00  0.00    -0.357 N 
ATOM     22  C   UNL     1     -47.689  33.918  26.134  1.00  0.00    -0.000 A 
ATOM     23  H   UNL     1     -48.835  32.499  24.836  1.00  0.00     0.065 H 
ATOM     24  C   UNL     1     -46.316  34.047  26.328  1.00  0.00     0.046 A 
ATOM     25  H   UNL     1     -44.712  32.929  25.486  1.00  0.00     0.166 HD
ATOM     26  C   UNL     1     -48.555  34.783  26.829  1.00  0.00    -0.052 A 
ATOM     27  C   UNL     1     -45.758  34.997  27.191  1.00  0.00    -0.033 A 
ATOM     28  C   UNL     1     -48.015  35.742  27.697  1.00  0.00    -0.057 A 
ATOM     29  H   UNL     1     -49.629  34.710  26.696  1.00  0.00     0.063 H 
ATOM     30  C   UNL     1     -46.632  35.848  27.891  1.00  0.00    -0.027 A 
ATOM     31  H   UNL     1     -44.682  35.077  27.315  1.00  0.00     0.065 H 
ATOM     32  H   UNL     1     -48.693  36.411  28.225  1.00  0.00     0.063 H 
BRANCH  30  33
ATOM     33  C   UNL     1     -46.075  36.908  28.804  1.00  0.00     0.043 C 
ATOM     34  H   UNL     1     -46.798  37.170  29.586  1.00  0.00     0.054 H 
ATOM     35  H   UNL     1     -45.175  36.547  29.316  1.00  0.00     0.054 H 
BRANCH  33  36
ATOM     36  N   UNL     1     -45.746  38.098  28.067  1.00  0.00    -0.347 N 
ATOM     37  C   UNL     1     -44.803  38.991  28.504  1.00  0.00     0.270 C 
ATOM     38  H   UNL     1     -46.258  38.336  27.222  1.00  0.00     0.164 HD
ATOM     39  O   UNL     1     -44.141  38.848  29.524  1.00  0.00    -0.268 OA
BRANCH  37  40
ATOM     40  C   UNL     1     -44.668  40.183  27.587  1.00  0.00     0.136 A 
ATOM     41  C   UNL     1     -45.794  40.637  27.033  1.00  0.00     0.035 A 
ATOM     42  N   UNL     1     -43.419  40.720  27.380  1.00  0.00    -0.225 NA
ATOM     43  C   UNL     1     -45.708  41.796  26.134  1.00  0.00     0.258 A 
ATOM     44  H   UNL     1     -46.772  40.206  27.204  1.00  0.00     0.071 H 
ATOM     45  C   UNL     1     -43.347  41.744  26.586  1.00  0.00     0.140 A 
ATOM     46  O   UNL     1     -46.740  42.222  25.619  1.00  0.00    -0.269 OA
ATOM     47  N   UNL     1     -44.438  42.319  25.943  1.00  0.00    -0.268 N 
ATOM     48  C   UNL     1     -42.013  42.359  26.332  1.00  0.00    -0.019 A 
ATOM     49  C   UNL     1     -44.276  43.418  25.105  1.00  0.00     0.014 A 
ATOM     50  C   UNL     1     -41.908  43.416  25.518  1.00  0.00    -0.057 A 
ATOM     51  H   UNL     1     -41.157  41.918  26.829  1.00  0.00     0.066 H 
ATOM     52  C   UNL     1     -43.075  43.965  24.882  1.00  0.00    -0.045 A 
ATOM     53  H   UNL     1     -45.173  43.815  24.636  1.00  0.00     0.082 H 
ATOM     54  H   UNL     1     -40.945  43.876  25.321  1.00  0.00     0.062 H 
ATOM     55  H   UNL     1     -42.961  44.822  24.226  1.00  0.00     0.064 H 
ENDBRANCH  37  40
ENDBRANCH  33  36
ENDBRANCH  30  33
ENDBRANCH   1  19
TORSDOF 9
ENDMDL
MODEL 6
REMARK VINA RESULT:      -8.6      2.537      3.799
REMARK SMILES CC(C)CNCc1cc2ccc(CNC(=O)c3cc(=O)n4ccccc4n3)cc2[nH]1
REMARK SMILES IDX 6 1 5 4 4 6 2 9 1 11 3 15 7 19 8 20 30 21 9 22 29 24 10 26
REMARK SMILES IDX 28 27 11 28 12 30 13 33 14 36 15 37 16 39 17 40 18 41 27 42
REMARK SMILES IDX 19 43 26 45 20 46 21 47 25 48 22 49 24 50 23 52
REMARK H PARENT 6 2 6 3 5 5 4 7 4 8 2 10 1 12 1 13 1 14 3 16 3 17 3 18 8 23
REMARK H PARENT 30 25 10 29 28 31 11 32 13 34 13 35 14 38 18 44 25 51 22 53
REMARK H PARENT 24 54 23 55
REMARK Flexibility Score: inf
ROOT
ATOM      1  C   UNL     1     -48.488  30.897  25.641  1.00  0.00     0.036 C 
ATOM      2  H   UNL     1     -48.648  30.209  26.480  1.00  0.00     0.049 H 
ATOM      3  H   UNL     1     -49.461  31.095  25.174  1.00  0.00     0.049 H 
ENDROOT
BRANCH   1   4
ATOM      4  N   UNL     1     -47.565  30.312  24.670  1.00  0.00    -0.311 NA
ATOM      5  H   UNL     1     -47.930  29.399  24.398  1.00  0.00     0.123 HD
BRANCH   4   6
ATOM      6  C   UNL     1     -47.450  31.158  23.481  1.00  0.00    -0.002 C 
ATOM      7  H   UNL     1     -46.689  31.932  23.647  1.00  0.00     0.043 H 
ATOM      8  H   UNL     1     -48.404  31.664  23.294  1.00  0.00     0.043 H 
BRANCH   6   9
ATOM      9  C   UNL     1     -47.069  30.326  22.241  1.00  0.00    -0.035 C 
ATOM     10  H   UNL     1     -46.623  29.379  22.572  1.00  0.00     0.031 H 
BRANCH   9  11
ATOM     11  C   UNL     1     -48.324  29.993  21.431  1.00  0.00    -0.062 C 
ATOM     12  H   UNL     1     -48.986  29.327  21.995  1.00  0.00     0.023 H 
ATOM     13  H   UNL     1     -48.062  29.489  20.496  1.00  0.00     0.023 H 
ATOM     14  H   UNL     1     -48.889  30.899  21.182  1.00  0.00     0.023 H 
ENDBRANCH   9  11
BRANCH   9  15
ATOM     15  C   UNL     1     -46.054  31.047  21.352  1.00  0.00    -0.062 C 
ATOM     16  H   UNL     1     -45.598  30.350  20.640  1.00  0.00     0.023 H 
ATOM     17  H   UNL     1     -46.529  31.850  20.777  1.00  0.00     0.023 H 
ATOM     18  H   UNL     1     -45.245  31.487  21.943  1.00  0.00     0.023 H 
ENDBRANCH   9  15
ENDBRANCH   6   9
ENDBRANCH   4   6
ENDBRANCH   1   4
BRANCH   1  19
ATOM     19  C   UNL     1     -47.928  32.180  26.141  1.00  0.00     0.030 A 
ATOM     20  C   UNL     1     -46.663  32.515  26.580  1.00  0.00    -0.032 A 
ATOM     21  N   UNL     1     -48.705  33.310  26.249  1.00  0.00    -0.357 N 
ATOM     22  C   UNL     1     -46.677  33.887  26.960  1.00  0.00    -0.000 A 
ATOM     23  H   UNL     1     -45.813  31.847  26.626  1.00  0.00     0.065 H 
ATOM     24  C   UNL     1     -47.967  34.361  26.740  1.00  0.00     0.046 A 
ATOM     25  H   UNL     1     -49.675  33.352  25.967  1.00  0.00     0.166 HD
ATOM     26  C   UNL     1     -45.709  34.770  27.472  1.00  0.00    -0.052 A 
ATOM     27  C   UNL     1     -48.343  35.684  27.001  1.00  0.00    -0.033 A 
ATOM     28  C   UNL     1     -46.066  36.098  27.741  1.00  0.00    -0.057 A 
ATOM     29  H   UNL     1     -44.695  34.429  27.658  1.00  0.00     0.063 H 
ATOM     30  C   UNL     1     -47.365  36.562  27.501  1.00  0.00    -0.027 A 
ATOM     31  H   UNL     1     -49.360  36.022  26.825  1.00  0.00     0.065 H 
ATOM     32  H   UNL     1     -45.312  36.773  28.144  1.00  0.00     0.063 H 
BRANCH  30  33
ATOM     33  C   UNL     1     -47.734  37.986  27.828  1.00  0.00     0.043 C 
ATOM     34  H   UNL     1     -48.591  38.315  27.230  1.00  0.00     0.054 H 
ATOM     35  H   UNL     1     -48.029  38.080  28.880  1.00  0.00     0.054 H 
BRANCH  33  36
ATOM     36  N   UNL     1     -46.630  38.872  27.573  1.00  0.00    -0.347 N 
ATOM     37  C   UNL     1     -46.766  40.009  26.820  1.00  0.00     0.270 C 
ATOM     38  H   UNL     1     -45.698  38.638  27.902  1.00  0.00     0.164 HD
ATOM     39  O   UNL     1     -47.822  40.388  26.331  1.00  0.00    -0.268 OA
BRANCH  37  40
ATOM     40  C   UNL     1     -45.460  40.749  26.653  1.00  0.00     0.136 A 
ATOM     41  C   UNL     1     -44.542  40.558  27.602  1.00  0.00     0.035 A 
ATOM     42  N   UNL     1     -45.298  41.563  25.555  1.00  0.00    -0.225 NA
ATOM     43  C   UNL     1     -43.258  41.260  27.479  1.00  0.00     0.258 A 
ATOM     44  H   UNL     1     -44.682  39.915  28.462  1.00  0.00     0.071 H 
ATOM     45  C   UNL     1     -44.161  42.180  25.449  1.00  0.00     0.140 A 
ATOM     46  O   UNL     1     -42.405  41.089  28.348  1.00  0.00    -0.269 OA
ATOM     47  N   UNL     1     -43.119  42.072  26.363  1.00  0.00    -0.268 N 
ATOM     48  C   UNL     1     -43.940  43.071  24.275  1.00  0.00    -0.019 A 
ATOM     49  C   UNL     1     -41.929  42.769  26.176  1.00  0.00     0.014 A 
ATOM     50  C   UNL     1     -42.779  43.722  24.138  1.00  0.00    -0.057 A 
ATOM     51  H   UNL     1     -44.746  43.162  23.557  1.00  0.00     0.066 H 
ATOM     52  C   UNL     1     -41.737  43.568  25.120  1.00  0.00    -0.045 A 
ATOM     53  H   UNL     1     -41.158  42.638  26.931  1.00  0.00     0.082 H 
ATOM     54  H   UNL     1     -42.599  44.376  23.291  1.00  0.00     0.062 H 
ATOM     55  H   UNL     1     -40.806  44.107  24.984  1.00  0.00     0.064 H 
ENDBRANCH  37  40
ENDBRANCH  33  36
ENDBRANCH  30  33
ENDBRANCH   1  19
TORSDOF 9
ENDMDL
MODEL 7
REMARK VINA RESULT:      -8.6      2.908     11.286
REMARK SMILES CC(C)CNCc1cc2ccc(CNC(=O)c3cc(=O)n4ccccc4n3)cc2[nH]1
REMARK SMILES IDX 6 1 5 4 4 6 2 9 1 11 3 15 7 19 8 20 30 21 9 22 29 24 10 26
REMARK SMILES IDX 28 27 11 28 12 30 13 33 14 36 15 37 16 39 17 40 18 41 27 42
REMARK SMILES IDX 19 43 26 45 20 46 21 47 25 48 22 49 24 50 23 52
REMARK H PARENT 6 2 6 3 5 5 4 7 4 8 2 10 1 12 1 13 1 14 3 16 3 17 3 18 8 23
REMARK H PARENT 30 25 10 29 28 31 11 32 13 34 13 35 14 38 18 44 25 51 22 53
REMARK H PARENT 24 54 23 55
REMARK Flexibility Score: inf
ROOT
ATOM      1  C   UNL     1     -45.684  39.476  28.208  1.00  0.00     0.036 C 
ATOM      2  H   UNL     1     -46.614  40.057  28.252  1.00  0.00     0.049 H 
ATOM      3  H   UNL     1     -45.202  39.533  29.191  1.00  0.00     0.049 H 
ENDROOT
BRANCH   1   4
ATOM      4  N   UNL     1     -44.799  40.007  27.173  1.00  0.00    -0.311 NA
ATOM      5  H   UNL     1     -44.653  39.274  26.477  1.00  0.00     0.123 HD
BRANCH   4   6
ATOM      6  C   UNL     1     -45.394  41.175  26.522  1.00  0.00    -0.002 C 
ATOM      7  H   UNL     1     -46.121  41.646  27.196  1.00  0.00     0.043 H 
ATOM      8  H   UNL     1     -45.932  40.861  25.619  1.00  0.00     0.043 H 
BRANCH   6   9
ATOM      9  C   UNL     1     -44.316  42.205  26.134  1.00  0.00    -0.035 C 
ATOM     10  H   UNL     1     -44.578  43.176  26.574  1.00  0.00     0.031 H 
BRANCH   9  11
ATOM     11  C   UNL     1     -42.961  41.783  26.708  1.00  0.00    -0.062 C 
ATOM     12  H   UNL     1     -42.613  42.504  27.455  1.00  0.00     0.023 H 
ATOM     13  H   UNL     1     -42.204  41.729  25.920  1.00  0.00     0.023 H 
ATOM     14  H   UNL     1     -43.021  40.800  27.188  1.00  0.00     0.023 H 
ENDBRANCH   9  11
BRANCH   9  15
ATOM     15  C   UNL     1     -44.205  42.381  24.618  1.00  0.00    -0.062 C 
ATOM     16  H   UNL     1     -43.315  41.871  24.233  1.00  0.00     0.023 H 
ATOM     17  H   UNL     1     -45.079  41.965  24.105  1.00  0.00     0.023 H 
ATOM     18  H   UNL     1     -44.121  43.437  24.344  1.00  0.00     0.023 H 
ENDBRANCH   9  15
ENDBRANCH   6   9
ENDBRANCH   4   6
ENDBRANCH   1   4
BRANCH   1  19
ATOM     19  C   UNL     1     -45.994  38.053  27.908  1.00  0.00     0.030 A 
ATOM     20  C   UNL     1     -45.237  36.906  28.039  1.00  0.00    -0.032 A 
ATOM     21  N   UNL     1     -47.212  37.676  27.392  1.00  0.00    -0.357 N 
ATOM     22  C   UNL     1     -46.021  35.806  27.593  1.00  0.00    -0.000 A 
ATOM     23  H   UNL     1     -44.223  36.859  28.415  1.00  0.00     0.065 H 
ATOM     24  C   UNL     1     -47.255  36.316  27.196  1.00  0.00     0.046 A 
ATOM     25  H   UNL     1     -47.972  38.320  27.221  1.00  0.00     0.166 HD
ATOM     26  C   UNL     1     -45.796  34.421  27.489  1.00  0.00    -0.052 A 
ATOM     27  C   UNL     1     -48.286  35.507  26.702  1.00  0.00    -0.033 A 
ATOM     28  C   UNL     1     -46.814  33.595  26.996  1.00  0.00    -0.057 A 
ATOM     29  H   UNL     1     -44.843  33.995  27.787  1.00  0.00     0.063 H 
ATOM     30  C   UNL     1     -48.054  34.123  26.614  1.00  0.00    -0.027 A 
ATOM     31  H   UNL     1     -49.235  35.936  26.394  1.00  0.00     0.065 H 
ATOM     32  H   UNL     1     -46.628  32.526  26.913  1.00  0.00     0.063 H 
BRANCH  30  33
ATOM     33  C   UNL     1     -49.123  33.219  26.057  1.00  0.00     0.043 C 
ATOM     34  H   UNL     1     -49.986  33.172  26.731  1.00  0.00     0.054 H 
ATOM     35  H   UNL     1     -49.492  33.597  25.097  1.00  0.00     0.054 H 
BRANCH  33  36
ATOM     36  N   UNL     1     -48.618  31.885  25.868  1.00  0.00    -0.347 N 
ATOM     37  C   UNL     1     -49.049  31.078  24.849  1.00  0.00     0.270 C 
ATOM     38  H   UNL     1     -47.962  31.486  26.535  1.00  0.00     0.164 HD
ATOM     39  O   UNL     1     -49.864  31.419  24.000  1.00  0.00    -0.268 OA
BRANCH  37  40
ATOM     40  C   UNL     1     -48.411  29.710  24.885  1.00  0.00     0.136 A 
ATOM     41  C   UNL     1     -47.434  29.487  24.004  1.00  0.00     0.035 A 
ATOM     42  N   UNL     1     -48.866  28.792  25.803  1.00  0.00    -0.225 NA
ATOM     43  C   UNL     1     -46.786  28.169  24.005  1.00  0.00     0.258 A 
ATOM     44  H   UNL     1     -47.084  30.218  23.286  1.00  0.00     0.071 H 
ATOM     45  C   UNL     1     -48.291  27.629  25.801  1.00  0.00     0.140 A 
ATOM     46  O   UNL     1     -45.883  27.954  23.198  1.00  0.00    -0.269 OA
ATOM     47  N   UNL     1     -47.261  27.262  24.940  1.00  0.00    -0.268 N 
ATOM     48  C   UNL     1     -48.750  26.603  26.780  1.00  0.00    -0.019 A 
ATOM     49  C   UNL     1     -46.696  25.993  25.003  1.00  0.00     0.014 A 
ATOM     50  C   UNL     1     -48.176  25.395  26.801  1.00  0.00    -0.057 A 
ATOM     51  H   UNL     1     -49.551  26.880  27.455  1.00  0.00     0.066 H 
ATOM     52  C   UNL     1     -47.114  25.076  25.884  1.00  0.00    -0.045 A 
ATOM     53  H   UNL     1     -45.896  25.775  24.299  1.00  0.00     0.082 H 
ATOM     54  H   UNL     1     -48.498  24.634  27.506  1.00  0.00     0.062 H 
ATOM     55  H   UNL     1     -46.667  24.089  25.923  1.00  0.00     0.064 H 
ENDBRANCH  37  40
ENDBRANCH  33  36
ENDBRANCH  30  33
ENDBRANCH   1  19
TORSDOF 9
ENDMDL
