MODEL 1
REMARK VINA RESULT:     -10.6      0.000      0.000
REMARK SMILES CC1(CNCc2cc3ccc(CNC(=O)c4cc(=O)n5ccccc5n4)cc3[nH]2)CCC1
REMARK SMILES IDX 5 1 4 4 3 6 2 9 30 10 32 11 31 12 1 19 6 23 7 24 29 25 8 26
REMARK SMILES IDX 28 28 9 30 27 31 10 32 11 34 12 37 13 40 14 41 15 43 16 44
REMARK SMILES IDX 17 45 26 46 18 47 25 49 19 50 20 51 24 52 21 53 23 54 22 56
REMARK H PARENT 5 2 5 3 4 5 3 7 3 8 30 13 30 14 32 15 32 16 31 17 31 18 1 20
REMARK H PARENT 1 21 1 22 7 27 29 29 9 33 27 35 10 36 12 38 12 39 13 42 17 48
REMARK H PARENT 24 55 21 57 23 58 22 59
REMARK Flexibility Score: inf
ROOT
ATOM      1  C   UNL     1     -48.363  30.007  24.131  1.00  0.00     0.036 C 
ATOM      2  H   UNL     1     -49.309  30.123  23.595  1.00  0.00     0.049 H 
ATOM      3  H   UNL     1     -47.593  29.705  23.411  1.00  0.00     0.049 H 
ENDROOT
BRANCH   1   4
ATOM      4  N   UNL     1     -48.487  29.025  25.199  1.00  0.00    -0.311 NA
ATOM      5  H   UNL     1     -49.187  29.345  25.866  1.00  0.00     0.123 HD
BRANCH   4   6
ATOM      6  C   UNL     1     -48.804  27.674  24.728  1.00  0.00     0.001 C 
ATOM      7  H   UNL     1     -49.874  27.610  24.494  1.00  0.00     0.043 H 
ATOM      8  H   UNL     1     -48.287  27.546  23.768  1.00  0.00     0.043 H 
BRANCH   6   9
ATOM      9  C   UNL     1     -48.378  26.529  25.665  1.00  0.00    -0.020 C 
ATOM     10  C   UNL     1     -47.837  27.085  27.023  1.00  0.00    -0.047 C 
ATOM     11  C   UNL     1     -46.941  25.953  25.445  1.00  0.00    -0.047 C 
ATOM     12  C   UNL     1     -46.720  26.029  26.965  1.00  0.00    -0.052 C 
ATOM     13  H   UNL     1     -47.455  28.112  26.978  1.00  0.00     0.027 H 
ATOM     14  H   UNL     1     -48.511  27.007  27.882  1.00  0.00     0.027 H 
ATOM     15  H   UNL     1     -46.882  24.948  25.019  1.00  0.00     0.027 H 
ATOM     16  H   UNL     1     -46.269  26.612  24.882  1.00  0.00     0.027 H 
ATOM     17  H   UNL     1     -46.957  25.100  27.495  1.00  0.00     0.027 H 
ATOM     18  H   UNL     1     -45.730  26.370  27.282  1.00  0.00     0.027 H 
BRANCH   9  19
ATOM     19  C   UNL     1     -49.466  25.469  25.861  1.00  0.00    -0.058 C 
ATOM     20  H   UNL     1     -50.460  25.850  25.601  1.00  0.00     0.024 H 
ATOM     21  H   UNL     1     -49.513  25.138  26.903  1.00  0.00     0.024 H 
ATOM     22  H   UNL     1     -49.274  24.593  25.231  1.00  0.00     0.024 H 
ENDBRANCH   9  19
ENDBRANCH   6   9
ENDBRANCH   4   6
ENDBRANCH   1   4
BRANCH   1  23
ATOM     23  C   UNL     1     -47.975  31.319  24.719  1.00  0.00     0.030 A 
ATOM     24  C   UNL     1     -46.783  32.014  24.690  1.00  0.00    -0.032 A 
ATOM     25  N   UNL     1     -48.860  32.067  25.458  1.00  0.00    -0.357 N 
ATOM     26  C   UNL     1     -46.956  33.217  25.431  1.00  0.00    -0.000 A 
ATOM     27  H   UNL     1     -45.876  31.695  24.191  1.00  0.00     0.065 H 
ATOM     28  C   UNL     1     -48.268  33.226  25.900  1.00  0.00     0.046 A 
ATOM     29  H   UNL     1     -49.823  31.800  25.615  1.00  0.00     0.166 HD
ATOM     30  C   UNL     1     -46.118  34.302  25.745  1.00  0.00    -0.052 A 
ATOM     31  C   UNL     1     -48.791  34.273  26.669  1.00  0.00    -0.033 A 
ATOM     32  C   UNL     1     -46.621  35.357  26.515  1.00  0.00    -0.057 A 
ATOM     33  H   UNL     1     -45.091  34.328  25.390  1.00  0.00     0.063 H 
ATOM     34  C   UNL     1     -47.942  35.347  26.984  1.00  0.00    -0.027 A 
ATOM     35  H   UNL     1     -49.821  34.250  27.013  1.00  0.00     0.065 H 
ATOM     36  H   UNL     1     -45.970  36.199  26.747  1.00  0.00     0.063 H 
BRANCH  34  37
ATOM     37  C   UNL     1     -48.460  36.511  27.792  1.00  0.00     0.043 C 
ATOM     38  H   UNL     1     -48.775  36.173  28.786  1.00  0.00     0.054 H 
ATOM     39  H   UNL     1     -49.336  36.954  27.308  1.00  0.00     0.054 H 
BRANCH  37  40
ATOM     40  N   UNL     1     -47.461  37.545  27.898  1.00  0.00    -0.347 N 
ATOM     41  C   UNL     1     -46.495  37.548  28.873  1.00  0.00     0.270 C 
ATOM     42  H   UNL     1     -47.301  38.162  27.109  1.00  0.00     0.164 HD
ATOM     43  O   UNL     1     -46.465  36.777  29.825  1.00  0.00    -0.268 OA
BRANCH  41  44
ATOM     44  C   UNL     1     -45.449  38.613  28.640  1.00  0.00     0.136 A 
ATOM     45  C   UNL     1     -44.499  38.725  29.570  1.00  0.00     0.035 A 
ATOM     46  N   UNL     1     -45.531  39.383  27.502  1.00  0.00    -0.225 NA
ATOM     47  C   UNL     1     -43.457  39.742  29.381  1.00  0.00     0.258 A 
ATOM     48  H   UNL     1     -44.444  38.111  30.460  1.00  0.00     0.071 H 
ATOM     49  C   UNL     1     -44.604  40.279  27.337  1.00  0.00     0.140 A 
ATOM     50  O   UNL     1     -42.580  39.856  30.236  1.00  0.00    -0.269 OA
ATOM     51  N   UNL     1     -43.559  40.503  28.225  1.00  0.00    -0.268 N 
ATOM     52  C   UNL     1     -44.649  41.134  26.117  1.00  0.00    -0.019 A 
ATOM     53  C   UNL     1     -42.606  41.484  27.976  1.00  0.00     0.014 A 
ATOM     54  C   UNL     1     -43.709  42.066  25.920  1.00  0.00    -0.057 A 
ATOM     55  H   UNL     1     -45.458  40.966  25.418  1.00  0.00     0.066 H 
ATOM     56  C   UNL     1     -42.653  42.250  26.878  1.00  0.00    -0.045 A 
ATOM     57  H   UNL     1     -41.816  41.606  28.713  1.00  0.00     0.082 H 
ATOM     58  H   UNL     1     -43.723  42.698  25.038  1.00  0.00     0.062 H 
ATOM     59  H   UNL     1     -41.903  43.013  26.693  1.00  0.00     0.064 H 
ENDBRANCH  41  44
ENDBRANCH  37  40
ENDBRANCH  34  37
ENDBRANCH   1  23
TORSDOF 8
ENDMDL
MODEL 2
REMARK VINA RESULT:     -10.1      1.768      2.563
REMARK SMILES CC1(CNCc2cc3ccc(CNC(=O)c4cc(=O)n5ccccc5n4)cc3[nH]2)CCC1
REMARK SMILES IDX 5 1 4 4 3 6 2 9 30 10 32 11 31 12 1 19 6 23 7 24 29 25 8 26
REMARK SMILES IDX 28 28 9 30 27 31 10 32 11 34 12 37 13 40 14 41 15 43 16 44
REMARK SMILES IDX 17 45 26 46 18 47 25 49 19 50 20 51 24 52 21 53 23 54 22 56
REMARK H PARENT 5 2 5 3 4 5 3 7 3 8 30 13 30 14 32 15 32 16 31 17 31 18 1 20
REMARK H PARENT 1 21 1 22 7 27 29 29 9 33 27 35 10 36 12 38 12 39 13 42 17 48
REMARK H PARENT 24 55 21 57 23 58 22 59
REMARK Flexibility Score: inf
ROOT
ATOM      1  C   UNL     1     -46.332  31.436  23.795  1.00  0.00     0.036 C 
ATOM      2  H   UNL     1     -46.791  31.695  22.835  1.00  0.00     0.049 H 
ATOM      3  H   UNL     1     -45.244  31.402  23.658  1.00  0.00     0.049 H 
ENDROOT
BRANCH   1   4
ATOM      4  N   UNL     1     -46.833  30.158  24.282  1.00  0.00    -0.311 NA
ATOM      5  H   UNL     1     -47.228  30.289  25.212  1.00  0.00     0.123 HD
BRANCH   4   6
ATOM      6  C   UNL     1     -47.810  29.526  23.392  1.00  0.00     0.001 C 
ATOM      7  H   UNL     1     -48.026  30.197  22.551  1.00  0.00     0.043 H 
ATOM      8  H   UNL     1     -47.315  28.653  22.949  1.00  0.00     0.043 H 
BRANCH   6   9
ATOM      9  C   UNL     1     -49.112  29.055  24.066  1.00  0.00    -0.020 C 
ATOM     10  C   UNL     1     -48.855  28.623  25.546  1.00  0.00    -0.047 C 
ATOM     11  C   UNL     1     -49.525  27.570  23.810  1.00  0.00    -0.047 C 
ATOM     12  C   UNL     1     -49.792  27.425  25.318  1.00  0.00    -0.052 C 
ATOM     13  H   UNL     1     -47.823  28.320  25.762  1.00  0.00     0.027 H 
ATOM     14  H   UNL     1     -49.174  29.327  26.320  1.00  0.00     0.027 H 
ATOM     15  H   UNL     1     -50.397  27.412  23.169  1.00  0.00     0.027 H 
ATOM     16  H   UNL     1     -48.711  26.926  23.457  1.00  0.00     0.027 H 
ATOM     17  H   UNL     1     -50.833  27.613  25.605  1.00  0.00     0.027 H 
ATOM     18  H   UNL     1     -49.470  26.481  25.766  1.00  0.00     0.027 H 
BRANCH   9  19
ATOM     19  C   UNL     1     -50.258  30.065  23.945  1.00  0.00    -0.058 C 
ATOM     20  H   UNL     1     -50.148  30.704  23.062  1.00  0.00     0.024 H 
ATOM     21  H   UNL     1     -50.296  30.727  24.816  1.00  0.00     0.024 H 
ATOM     22  H   UNL     1     -51.222  29.552  23.862  1.00  0.00     0.024 H 
ENDBRANCH   9  19
ENDBRANCH   6   9
ENDBRANCH   4   6
ENDBRANCH   1   4
BRANCH   1  23
ATOM     23  C   UNL     1     -46.654  32.497  24.788  1.00  0.00     0.030 A 
ATOM     24  C   UNL     1     -47.858  33.046  25.179  1.00  0.00    -0.032 A 
ATOM     25  N   UNL     1     -45.668  33.139  25.500  1.00  0.00    -0.357 N 
ATOM     26  C   UNL     1     -47.591  34.045  26.157  1.00  0.00    -0.000 A 
ATOM     27  H   UNL     1     -48.833  32.763  24.802  1.00  0.00     0.065 H 
ATOM     28  C   UNL     1     -46.210  34.081  26.341  1.00  0.00     0.046 A 
ATOM     29  H   UNL     1     -44.685  32.910  25.426  1.00  0.00     0.166 HD
ATOM     30  C   UNL     1     -48.397  34.920  26.906  1.00  0.00    -0.052 A 
ATOM     31  C   UNL     1     -45.589  34.953  27.244  1.00  0.00    -0.033 A 
ATOM     32  C   UNL     1     -47.795  35.801  27.812  1.00  0.00    -0.057 A 
ATOM     33  H   UNL     1     -49.477  34.913  26.789  1.00  0.00     0.063 H 
ATOM     34  C   UNL     1     -46.404  35.829  27.981  1.00  0.00    -0.027 A 
ATOM     35  H   UNL     1     -44.510  34.950  27.367  1.00  0.00     0.065 H 
ATOM     36  H   UNL     1     -48.425  36.471  28.396  1.00  0.00     0.063 H 
BRANCH  34  37
ATOM     37  C   UNL     1     -45.788  36.775  28.983  1.00  0.00     0.043 C 
ATOM     38  H   UNL     1     -45.086  36.236  29.630  1.00  0.00     0.054 H 
ATOM     39  H   UNL     1     -46.561  37.203  29.630  1.00  0.00     0.054 H 
BRANCH  37  40
ATOM     40  N   UNL     1     -45.132  37.870  28.316  1.00  0.00    -0.347 N 
ATOM     41  C   UNL     1     -45.711  39.106  28.171  1.00  0.00     0.270 C 
ATOM     42  H   UNL     1     -44.131  37.824  28.153  1.00  0.00     0.164 HD
ATOM     43  O   UNL     1     -46.875  39.366  28.450  1.00  0.00    -0.268 OA
BRANCH  41  44
ATOM     44  C   UNL     1     -44.743  40.132  27.631  1.00  0.00     0.136 A 
ATOM     45  C   UNL     1     -43.659  40.374  28.373  1.00  0.00     0.035 A 
ATOM     46  N   UNL     1     -45.023  40.739  26.428  1.00  0.00    -0.225 NA
ATOM     47  C   UNL     1     -42.688  41.359  27.882  1.00  0.00     0.258 A 
ATOM     48  H   UNL     1     -43.449  39.888  29.316  1.00  0.00     0.071 H 
ATOM     49  C   UNL     1     -44.158  41.607  25.996  1.00  0.00     0.140 A 
ATOM     50  O   UNL     1     -41.689  41.593  28.562  1.00  0.00    -0.269 OA
ATOM     51  N   UNL     1     -42.991  41.954  26.667  1.00  0.00    -0.268 N 
ATOM     52  C   UNL     1     -44.418  42.286  24.695  1.00  0.00    -0.019 A 
ATOM     53  C   UNL     1     -42.115  42.896  26.137  1.00  0.00     0.014 A 
ATOM     54  C   UNL     1     -43.545  43.186  24.226  1.00  0.00    -0.057 A 
ATOM     55  H   UNL     1     -45.323  42.021  24.165  1.00  0.00     0.066 H 
ATOM     56  C   UNL     1     -42.355  43.503  24.968  1.00  0.00    -0.045 A 
ATOM     57  H   UNL     1     -41.221  43.120  26.715  1.00  0.00     0.082 H 
ATOM     58  H   UNL     1     -43.716  43.691  23.281  1.00  0.00     0.062 H 
ATOM     59  H   UNL     1     -41.664  44.237  24.564  1.00  0.00     0.064 H 
ENDBRANCH  41  44
ENDBRANCH  37  40
ENDBRANCH  34  37
ENDBRANCH   1  23
TORSDOF 8
ENDMDL
MODEL 3
REMARK VINA RESULT:     -10.0      1.779      2.627
REMARK SMILES CC1(CNCc2cc3ccc(CNC(=O)c4cc(=O)n5ccccc5n4)cc3[nH]2)CCC1
REMARK SMILES IDX 5 1 4 4 3 6 2 9 30 10 32 11 31 12 1 19 6 23 7 24 29 25 8 26
REMARK SMILES IDX 28 28 9 30 27 31 10 32 11 34 12 37 13 40 14 41 15 43 16 44
REMARK SMILES IDX 17 45 26 46 18 47 25 49 19 50 20 51 24 52 21 53 23 54 22 56
REMARK H PARENT 5 2 5 3 4 5 3 7 3 8 30 13 30 14 32 15 32 16 31 17 31 18 1 20
REMARK H PARENT 1 21 1 22 7 27 29 29 9 33 27 35 10 36 12 38 12 39 13 42 17 48
REMARK H PARENT 24 55 21 57 23 58 22 59
REMARK Flexibility Score: inf
ROOT
ATOM      1  C   UNL     1     -47.729  30.626  25.065  1.00  0.00     0.036 C 
ATOM      2  H   UNL     1     -48.275  30.719  24.121  1.00  0.00     0.049 H 
ATOM      3  H   UNL     1     -46.707  30.296  24.841  1.00  0.00     0.049 H 
ENDROOT
BRANCH   1   4
ATOM      4  N   UNL     1     -48.392  29.687  25.959  1.00  0.00    -0.311 NA
ATOM      5  H   UNL     1     -49.002  30.204  26.590  1.00  0.00     0.123 HD
BRANCH   4   6
ATOM      6  C   UNL     1     -49.140  28.635  25.265  1.00  0.00     0.001 C 
ATOM      7  H   UNL     1     -50.214  28.775  25.438  1.00  0.00     0.043 H 
ATOM      8  H   UNL     1     -48.993  28.801  24.190  1.00  0.00     0.043 H 
BRANCH   6   9
ATOM      9  C   UNL     1     -48.714  27.193  25.595  1.00  0.00    -0.020 C 
ATOM     10  C   UNL     1     -48.120  27.097  27.038  1.00  0.00    -0.047 C 
ATOM     11  C   UNL     1     -47.300  26.757  25.092  1.00  0.00    -0.047 C 
ATOM     12  C   UNL     1     -47.031  26.162  26.485  1.00  0.00    -0.052 C 
ATOM     13  H   UNL     1     -47.714  28.039  27.429  1.00  0.00     0.027 H 
ATOM     14  H   UNL     1     -48.769  26.661  27.802  1.00  0.00     0.027 H 
ATOM     15  H   UNL     1     -47.278  26.036  24.270  1.00  0.00     0.027 H 
ATOM     16  H   UNL     1     -46.629  27.588  24.846  1.00  0.00     0.027 H 
ATOM     17  H   UNL     1     -47.276  25.097  26.567  1.00  0.00     0.027 H 
ATOM     18  H   UNL     1     -46.025  26.322  26.881  1.00  0.00     0.027 H 
BRANCH   9  19
ATOM     19  C   UNL     1     -49.822  26.163  25.352  1.00  0.00    -0.058 C 
ATOM     20  H   UNL     1     -49.677  25.621  24.410  1.00  0.00     0.024 H 
ATOM     21  H   UNL     1     -50.804  26.644  25.295  1.00  0.00     0.024 H 
ATOM     22  H   UNL     1     -49.849  25.422  26.158  1.00  0.00     0.024 H 
ENDBRANCH   9  19
ENDBRANCH   6   9
ENDBRANCH   4   6
ENDBRANCH   1   4
BRANCH   1  23
ATOM     23  C   UNL     1     -47.664  31.961  25.721  1.00  0.00     0.030 A 
ATOM     24  C   UNL     1     -48.615  32.949  25.874  1.00  0.00    -0.032 A 
ATOM     25  N   UNL     1     -46.506  32.421  26.303  1.00  0.00    -0.357 N 
ATOM     26  C   UNL     1     -48.013  34.035  26.570  1.00  0.00    -0.000 A 
ATOM     27  H   UNL     1     -49.637  32.903  25.522  1.00  0.00     0.065 H 
ATOM     28  C   UNL     1     -46.692  33.677  26.829  1.00  0.00     0.046 A 
ATOM     29  H   UNL     1     -45.653  31.880  26.356  1.00  0.00     0.166 HD
ATOM     30  C   UNL     1     -48.473  35.291  27.008  1.00  0.00    -0.052 A 
ATOM     31  C   UNL     1     -45.800  34.515  27.510  1.00  0.00    -0.033 A 
ATOM     32  C   UNL     1     -47.595  36.143  27.689  1.00  0.00    -0.057 A 
ATOM     33  H   UNL     1     -49.499  35.597  26.827  1.00  0.00     0.063 H 
ATOM     34  C   UNL     1     -46.266  35.770  27.935  1.00  0.00    -0.027 A 
ATOM     35  H   UNL     1     -44.777  34.201  27.700  1.00  0.00     0.065 H 
ATOM     36  H   UNL     1     -47.959  37.110  28.033  1.00  0.00     0.063 H 
BRANCH  34  37
ATOM     37  C   UNL     1     -45.353  36.703  28.691  1.00  0.00     0.043 C 
ATOM     38  H   UNL     1     -44.349  36.270  28.768  1.00  0.00     0.054 H 
ATOM     39  H   UNL     1     -45.720  36.853  29.712  1.00  0.00     0.054 H 
BRANCH  37  40
ATOM     40  N   UNL     1     -45.305  37.996  28.058  1.00  0.00    -0.347 N 
ATOM     41  C   UNL     1     -44.578  39.044  28.564  1.00  0.00     0.270 C 
ATOM     42  H   UNL     1     -45.612  38.089  27.096  1.00  0.00     0.164 HD
ATOM     43  O   UNL     1     -44.025  39.044  29.657  1.00  0.00    -0.268 OA
BRANCH  41  44
ATOM     44  C   UNL     1     -44.521  40.215  27.610  1.00  0.00     0.136 A 
ATOM     45  C   UNL     1     -45.681  40.602  27.075  1.00  0.00     0.035 A 
ATOM     46  N   UNL     1     -43.303  40.807  27.361  1.00  0.00    -0.225 NA
ATOM     47  C   UNL     1     -45.673  41.740  26.148  1.00  0.00     0.258 A 
ATOM     48  H   UNL     1     -46.632  40.129  27.281  1.00  0.00     0.071 H 
ATOM     49  C   UNL     1     -43.303  41.817  26.544  1.00  0.00     0.140 A 
ATOM     50  O   UNL     1     -46.737  42.100  25.646  1.00  0.00    -0.269 OA
ATOM     51  N   UNL     1     -44.435  42.321  25.916  1.00  0.00    -0.268 N 
ATOM     52  C   UNL     1     -42.007  42.492  26.247  1.00  0.00    -0.019 A 
ATOM     53  C   UNL     1     -44.350  43.408  25.051  1.00  0.00     0.014 A 
ATOM     54  C   UNL     1     -41.975  43.534  25.408  1.00  0.00    -0.057 A 
ATOM     55  H   UNL     1     -41.120  42.107  26.732  1.00  0.00     0.066 H 
ATOM     56  C   UNL     1     -43.183  44.009  24.788  1.00  0.00    -0.045 A 
ATOM     57  H   UNL     1     -45.275  43.751  24.595  1.00  0.00     0.082 H 
ATOM     58  H   UNL     1     -41.043  44.040  25.180  1.00  0.00     0.062 H 
ATOM     59  H   UNL     1     -43.128  44.856  24.112  1.00  0.00     0.064 H 
ENDBRANCH  41  44
ENDBRANCH  37  40
ENDBRANCH  34  37
ENDBRANCH   1  23
TORSDOF 8
ENDMDL
MODEL 4
REMARK VINA RESULT:      -9.5      3.080     11.628
REMARK SMILES CC1(CNCc2cc3ccc(CNC(=O)c4cc(=O)n5ccccc5n4)cc3[nH]2)CCC1
REMARK SMILES IDX 5 1 4 4 3 6 2 9 30 10 32 11 31 12 1 19 6 23 7 24 29 25 8 26
REMARK SMILES IDX 28 28 9 30 27 31 10 32 11 34 12 37 13 40 14 41 15 43 16 44
REMARK SMILES IDX 17 45 26 46 18 47 25 49 19 50 20 51 24 52 21 53 23 54 22 56
REMARK H PARENT 5 2 5 3 4 5 3 7 3 8 30 13 30 14 32 15 32 16 31 17 31 18 1 20
REMARK H PARENT 1 21 1 22 7 27 29 29 9 33 27 35 10 36 12 38 12 39 13 42 17 48
REMARK H PARENT 24 55 21 57 23 58 22 59
REMARK Flexibility Score: inf
ROOT
ATOM      1  C   UNL     1     -45.155  37.484  30.100  1.00  0.00     0.036 C 
ATOM      2  H   UNL     1     -45.607  37.301  31.080  1.00  0.00     0.049 H 
ATOM      3  H   UNL     1     -44.103  37.178  30.143  1.00  0.00     0.049 H 
ENDROOT
BRANCH   1   4
ATOM      4  N   UNL     1     -45.273  38.887  29.728  1.00  0.00    -0.311 NA
ATOM      5  H   UNL     1     -45.132  39.463  30.556  1.00  0.00     0.123 HD
BRANCH   4   6
ATOM      6  C   UNL     1     -44.361  39.295  28.656  1.00  0.00     0.001 C 
ATOM      7  H   UNL     1     -43.511  39.839  29.086  1.00  0.00     0.043 H 
ATOM      8  H   UNL     1     -43.936  38.374  28.236  1.00  0.00     0.043 H 
BRANCH   6   9
ATOM      9  C   UNL     1     -45.004  40.097  27.510  1.00  0.00    -0.020 C 
ATOM     10  C   UNL     1     -44.393  39.694  26.128  1.00  0.00    -0.047 C 
ATOM     11  C   UNL     1     -44.410  41.519  27.243  1.00  0.00    -0.047 C 
ATOM     12  C   UNL     1     -44.382  41.183  25.743  1.00  0.00    -0.052 C 
ATOM     13  H   UNL     1     -43.386  39.260  26.181  1.00  0.00     0.027 H 
ATOM     14  H   UNL     1     -45.010  39.050  25.494  1.00  0.00     0.027 H 
ATOM     15  H   UNL     1     -45.043  42.368  27.515  1.00  0.00     0.027 H 
ATOM     16  H   UNL     1     -43.410  41.679  27.664  1.00  0.00     0.027 H 
ATOM     17  H   UNL     1     -45.276  41.508  25.198  1.00  0.00     0.027 H 
ATOM     18  H   UNL     1     -43.496  41.524  25.199  1.00  0.00     0.027 H 
BRANCH   9  19
ATOM     19  C   UNL     1     -46.534  40.037  27.511  1.00  0.00    -0.058 C 
ATOM     20  H   UNL     1     -46.980  40.961  27.896  1.00  0.00     0.024 H 
ATOM     21  H   UNL     1     -46.898  39.220  28.142  1.00  0.00     0.024 H 
ATOM     22  H   UNL     1     -46.919  39.883  26.496  1.00  0.00     0.024 H 
ENDBRANCH   9  19
ENDBRANCH   6   9
ENDBRANCH   4   6
ENDBRANCH   1   4
BRANCH   1  23
ATOM     23  C   UNL     1     -45.851  36.649  29.082  1.00  0.00     0.030 A 
ATOM     24  C   UNL     1     -47.188  36.521  28.767  1.00  0.00    -0.032 A 
ATOM     25  N   UNL     1     -45.158  35.799  28.253  1.00  0.00    -0.357 N 
ATOM     26  C   UNL     1     -47.305  35.567  27.717  1.00  0.00    -0.000 A 
ATOM     27  H   UNL     1     -48.003  37.053  29.242  1.00  0.00     0.065 H 
ATOM     28  C   UNL     1     -46.016  35.132  27.412  1.00  0.00     0.046 A 
ATOM     29  H   UNL     1     -44.150  35.715  28.254  1.00  0.00     0.166 HD
ATOM     30  C   UNL     1     -48.388  35.035  26.994  1.00  0.00    -0.052 A 
ATOM     31  C   UNL     1     -45.753  34.187  26.413  1.00  0.00    -0.033 A 
ATOM     32  C   UNL     1     -48.145  34.088  25.993  1.00  0.00    -0.057 A 
ATOM     33  H   UNL     1     -49.404  35.358  27.204  1.00  0.00     0.063 H 
ATOM     34  C   UNL     1     -46.843  33.656  25.703  1.00  0.00    -0.027 A 
ATOM     35  H   UNL     1     -44.735  33.875  26.197  1.00  0.00     0.065 H 
ATOM     36  H   UNL     1     -48.987  33.686  25.430  1.00  0.00     0.063 H 
BRANCH  34  37
ATOM     37  C   UNL     1     -46.614  32.651  24.601  1.00  0.00     0.043 C 
ATOM     38  H   UNL     1     -45.540  32.472  24.469  1.00  0.00     0.054 H 
ATOM     39  H   UNL     1     -46.999  33.032  23.649  1.00  0.00     0.054 H 
BRANCH  37  40
ATOM     40  N   UNL     1     -47.307  31.419  24.881  1.00  0.00    -0.347 N 
ATOM     41  C   UNL     1     -48.018  30.734  23.928  1.00  0.00     0.270 C 
ATOM     42  H   UNL     1     -47.083  30.905  25.727  1.00  0.00     0.164 HD
ATOM     43  O   UNL     1     -48.262  31.156  22.804  1.00  0.00    -0.268 OA
BRANCH  41  44
ATOM     44  C   UNL     1     -48.468  29.376  24.415  1.00  0.00     0.136 A 
ATOM     45  C   UNL     1     -49.780  29.135  24.373  1.00  0.00     0.035 A 
ATOM     46  N   UNL     1     -47.518  28.483  24.856  1.00  0.00    -0.225 NA
ATOM     47  C   UNL     1     -50.261  27.825  24.829  1.00  0.00     0.258 A 
ATOM     48  H   UNL     1     -50.517  29.845  24.021  1.00  0.00     0.071 H 
ATOM     49  C   UNL     1     -47.948  27.324  25.255  1.00  0.00     0.140 A 
ATOM     50  O   UNL     1     -51.469  27.596  24.799  1.00  0.00    -0.269 OA
ATOM     51  N   UNL     1     -49.284  26.942  25.266  1.00  0.00    -0.268 N 
ATOM     52  C   UNL     1     -46.955  26.323  25.738  1.00  0.00    -0.019 A 
ATOM     53  C   UNL     1     -49.664  25.680  25.710  1.00  0.00     0.014 A 
ATOM     54  C   UNL     1     -47.368  25.120  26.156  1.00  0.00    -0.057 A 
ATOM     55  H   UNL     1     -45.912  26.611  25.732  1.00  0.00     0.066 H 
ATOM     56  C   UNL     1     -48.767  24.785  26.144  1.00  0.00    -0.045 A 
ATOM     57  H   UNL     1     -50.726  25.447  25.691  1.00  0.00     0.082 H 
ATOM     58  H   UNL     1     -46.661  24.378  26.510  1.00  0.00     0.062 H 
ATOM     59  H   UNL     1     -49.074  23.803  26.489  1.00  0.00     0.064 H 
ENDBRANCH  41  44
ENDBRANCH  37  40
ENDBRANCH  34  37
ENDBRANCH   1  23
TORSDOF 8
ENDMDL
MODEL 5
REMARK VINA RESULT:      -9.4      2.481      4.393
REMARK SMILES CC1(CNCc2cc3ccc(CNC(=O)c4cc(=O)n5ccccc5n4)cc3[nH]2)CCC1
REMARK SMILES IDX 5 1 4 4 3 6 2 9 30 10 32 11 31 12 1 19 6 23 7 24 29 25 8 26
REMARK SMILES IDX 28 28 9 30 27 31 10 32 11 34 12 37 13 40 14 41 15 43 16 44
REMARK SMILES IDX 17 45 26 46 18 47 25 49 19 50 20 51 24 52 21 53 23 54 22 56
REMARK H PARENT 5 2 5 3 4 5 3 7 3 8 30 13 30 14 32 15 32 16 31 17 31 18 1 20
REMARK H PARENT 1 21 1 22 7 27 29 29 9 33 27 35 10 36 12 38 12 39 13 42 17 48
REMARK H PARENT 24 55 21 57 23 58 22 59
REMARK Flexibility Score: inf
ROOT
ATOM      1  C   UNL     1     -47.018  32.168  26.455  1.00  0.00     0.036 C 
ATOM      2  H   UNL     1     -46.043  31.718  26.243  1.00  0.00     0.049 H 
ATOM      3  H   UNL     1     -47.422  31.703  27.363  1.00  0.00     0.049 H 
ENDROOT
BRANCH   1   4
ATOM      4  N   UNL     1     -47.928  31.988  25.332  1.00  0.00    -0.311 NA
ATOM      5  H   UNL     1     -48.286  32.898  25.046  1.00  0.00     0.123 HD
BRANCH   4   6
ATOM      6  C   UNL     1     -47.332  31.287  24.192  1.00  0.00     0.001 C 
ATOM      7  H   UNL     1     -46.592  31.937  23.709  1.00  0.00     0.043 H 
ATOM      8  H   UNL     1     -46.759  30.446  24.604  1.00  0.00     0.043 H 
BRANCH   6   9
ATOM      9  C   UNL     1     -48.331  30.732  23.161  1.00  0.00    -0.020 C 
ATOM     10  C   UNL     1     -48.368  29.169  23.197  1.00  0.00    -0.047 C 
ATOM     11  C   UNL     1     -47.804  30.585  21.696  1.00  0.00    -0.047 C 
ATOM     12  C   UNL     1     -48.415  29.174  21.659  1.00  0.00    -0.052 C 
ATOM     13  H   UNL     1     -47.460  28.699  23.593  1.00  0.00     0.027 H 
ATOM     14  H   UNL     1     -49.232  28.715  23.690  1.00  0.00     0.027 H 
ATOM     15  H   UNL     1     -48.212  31.285  20.962  1.00  0.00     0.027 H 
ATOM     16  H   UNL     1     -46.712  30.580  21.606  1.00  0.00     0.027 H 
ATOM     17  H   UNL     1     -49.429  29.141  21.245  1.00  0.00     0.027 H 
ATOM     18  H   UNL     1     -47.809  28.410  21.165  1.00  0.00     0.027 H 
BRANCH   9  19
ATOM     19  C   UNL     1     -49.728  31.350  23.276  1.00  0.00    -0.058 C 
ATOM     20  H   UNL     1     -50.249  31.019  24.181  1.00  0.00     0.024 H 
ATOM     21  H   UNL     1     -50.357  31.069  22.425  1.00  0.00     0.024 H 
ATOM     22  H   UNL     1     -49.669  32.444  23.311  1.00  0.00     0.024 H 
ENDBRANCH   9  19
ENDBRANCH   6   9
ENDBRANCH   4   6
ENDBRANCH   1   4
BRANCH   1  23
ATOM     23  C   UNL     1     -46.836  33.623  26.707  1.00  0.00     0.030 A 
ATOM     24  C   UNL     1     -47.456  34.728  26.160  1.00  0.00    -0.032 A 
ATOM     25  N   UNL     1     -45.907  34.087  27.608  1.00  0.00    -0.357 N 
ATOM     26  C   UNL     1     -46.886  35.891  26.751  1.00  0.00    -0.000 A 
ATOM     27  H   UNL     1     -48.238  34.708  25.412  1.00  0.00     0.065 H 
ATOM     28  C   UNL     1     -45.918  35.460  27.657  1.00  0.00     0.046 A 
ATOM     29  H   UNL     1     -45.326  33.483  28.175  1.00  0.00     0.166 HD
ATOM     30  C   UNL     1     -47.106  37.272  26.601  1.00  0.00    -0.052 A 
ATOM     31  C   UNL     1     -45.156  36.346  28.428  1.00  0.00    -0.033 A 
ATOM     32  C   UNL     1     -46.352  38.174  27.362  1.00  0.00    -0.057 A 
ATOM     33  H   UNL     1     -47.857  37.640  25.907  1.00  0.00     0.063 H 
ATOM     34  C   UNL     1     -45.378  37.724  28.264  1.00  0.00    -0.027 A 
ATOM     35  H   UNL     1     -44.414  35.975  29.129  1.00  0.00     0.065 H 
ATOM     36  H   UNL     1     -46.533  39.242  27.248  1.00  0.00     0.063 H 
BRANCH  34  37
ATOM     37  C   UNL     1     -44.598  38.721  29.085  1.00  0.00     0.043 C 
ATOM     38  H   UNL     1     -43.624  38.302  29.365  1.00  0.00     0.054 H 
ATOM     39  H   UNL     1     -45.131  38.951  30.014  1.00  0.00     0.054 H 
BRANCH  37  40
ATOM     40  N   UNL     1     -44.435  39.959  28.366  1.00  0.00    -0.347 N 
ATOM     41  C   UNL     1     -43.310  40.737  28.474  1.00  0.00     0.270 C 
ATOM     42  H   UNL     1     -45.043  40.159  27.579  1.00  0.00     0.164 HD
ATOM     43  O   UNL     1     -42.409  40.550  29.283  1.00  0.00    -0.268 OA
BRANCH  41  44
ATOM     44  C   UNL     1     -43.293  41.862  27.466  1.00  0.00     0.136 A 
ATOM     45  C   UNL     1     -42.150  42.046  26.800  1.00  0.00     0.035 A 
ATOM     46  N   UNL     1     -44.434  42.611  27.290  1.00  0.00    -0.225 NA
ATOM     47  C   UNL     1     -42.091  43.123  25.805  1.00  0.00     0.258 A 
ATOM     48  H   UNL     1     -41.260  41.448  26.946  1.00  0.00     0.071 H 
ATOM     49  C   UNL     1     -44.378  43.560  26.404  1.00  0.00     0.140 A 
ATOM     50  O   UNL     1     -41.041  43.303  25.190  1.00  0.00    -0.269 OA
ATOM     51  N   UNL     1     -43.255  43.861  25.644  1.00  0.00    -0.268 N 
ATOM     52  C   UNL     1     -45.592  44.395  26.177  1.00  0.00    -0.019 A 
ATOM     53  C   UNL     1     -43.275  44.897  24.716  1.00  0.00     0.014 A 
ATOM     54  C   UNL     1     -45.564  45.382  25.273  1.00  0.00    -0.057 A 
ATOM     55  H   UNL     1     -46.472  44.168  26.764  1.00  0.00     0.066 H 
ATOM     56  C   UNL     1     -44.369  45.644  24.517  1.00  0.00    -0.045 A 
ATOM     57  H   UNL     1     -42.362  45.077  24.154  1.00  0.00     0.082 H 
ATOM     58  H   UNL     1     -46.437  46.000  25.092  1.00  0.00     0.062 H 
ATOM     59  H   UNL     1     -44.374  46.450  23.790  1.00  0.00     0.064 H 
ENDBRANCH  41  44
ENDBRANCH  37  40
ENDBRANCH  34  37
ENDBRANCH   1  23
TORSDOF 8
ENDMDL
MODEL 6
REMARK VINA RESULT:      -9.2      2.416      3.845
REMARK SMILES CC1(CNCc2cc3ccc(CNC(=O)c4cc(=O)n5ccccc5n4)cc3[nH]2)CCC1
REMARK SMILES IDX 5 1 4 4 3 6 2 9 30 10 32 11 31 12 1 19 6 23 7 24 29 25 8 26
REMARK SMILES IDX 28 28 9 30 27 31 10 32 11 34 12 37 13 40 14 41 15 43 16 44
REMARK SMILES IDX 17 45 26 46 18 47 25 49 19 50 20 51 24 52 21 53 23 54 22 56
REMARK H PARENT 5 2 5 3 4 5 3 7 3 8 30 13 30 14 32 15 32 16 31 17 31 18 1 20
REMARK H PARENT 1 21 1 22 7 27 29 29 9 33 27 35 10 36 12 38 12 39 13 42 17 48
REMARK H PARENT 24 55 21 57 23 58 22 59
REMARK Flexibility Score: inf
ROOT
ATOM      1  C   UNL     1     -46.367  32.503  25.025  1.00  0.00     0.036 C 
ATOM      2  H   UNL     1     -45.441  32.827  24.541  1.00  0.00     0.049 H 
ATOM      3  H   UNL     1     -46.121  31.710  25.743  1.00  0.00     0.049 H 
ENDROOT
BRANCH   1   4
ATOM      4  N   UNL     1     -47.330  32.030  24.041  1.00  0.00    -0.311 NA
ATOM      5  H   UNL     1     -46.977  32.231  23.107  1.00  0.00     0.123 HD
BRANCH   4   6
ATOM      6  C   UNL     1     -47.663  30.609  24.172  1.00  0.00     0.001 C 
ATOM      7  H   UNL     1     -46.803  30.069  24.587  1.00  0.00     0.043 H 
ATOM      8  H   UNL     1     -48.448  30.538  24.935  1.00  0.00     0.043 H 
BRANCH   6   9
ATOM      9  C   UNL     1     -48.170  29.927  22.889  1.00  0.00    -0.020 C 
ATOM     10  C   UNL     1     -47.315  30.350  21.650  1.00  0.00    -0.047 C 
ATOM     11  C   UNL     1     -49.373  30.618  22.167  1.00  0.00    -0.047 C 
ATOM     12  C   UNL     1     -48.616  30.458  20.837  1.00  0.00    -0.052 C 
ATOM     13  H   UNL     1     -46.799  31.312  21.757  1.00  0.00     0.027 H 
ATOM     14  H   UNL     1     -46.593  29.613  21.284  1.00  0.00     0.027 H 
ATOM     15  H   UNL     1     -50.333  30.097  22.218  1.00  0.00     0.027 H 
ATOM     16  H   UNL     1     -49.528  31.667  22.447  1.00  0.00     0.027 H 
ATOM     17  H   UNL     1     -48.874  29.546  20.287  1.00  0.00     0.027 H 
ATOM     18  H   UNL     1     -48.678  31.309  20.154  1.00  0.00     0.027 H 
BRANCH   9  19
ATOM     19  C   UNL     1     -48.295  28.406  23.018  1.00  0.00    -0.058 C 
ATOM     20  H   UNL     1     -49.339  28.088  23.121  1.00  0.00     0.024 H 
ATOM     21  H   UNL     1     -47.762  28.038  23.902  1.00  0.00     0.024 H 
ATOM     22  H   UNL     1     -47.883  27.904  22.136  1.00  0.00     0.024 H 
ENDBRANCH   9  19
ENDBRANCH   6   9
ENDBRANCH   4   6
ENDBRANCH   1   4
BRANCH   1  23
ATOM     23  C   UNL     1     -46.953  33.652  25.769  1.00  0.00     0.030 A 
ATOM     24  C   UNL     1     -48.246  33.912  26.173  1.00  0.00    -0.032 A 
ATOM     25  N   UNL     1     -46.183  34.718  26.169  1.00  0.00    -0.357 N 
ATOM     26  C   UNL     1     -48.256  35.170  26.839  1.00  0.00    -0.000 A 
ATOM     27  H   UNL     1     -49.102  33.269  26.008  1.00  0.00     0.065 H 
ATOM     28  C   UNL     1     -46.949  35.653  26.824  1.00  0.00     0.046 A 
ATOM     29  H   UNL     1     -45.183  34.773  26.023  1.00  0.00     0.166 HD
ATOM     30  C   UNL     1     -49.256  35.942  27.456  1.00  0.00    -0.052 A 
ATOM     31  C   UNL     1     -46.587  36.876  27.402  1.00  0.00    -0.033 A 
ATOM     32  C   UNL     1     -48.915  37.169  28.037  1.00  0.00    -0.057 A 
ATOM     33  H   UNL     1     -50.284  35.591  27.489  1.00  0.00     0.063 H 
ATOM     34  C   UNL     1     -47.596  37.644  28.008  1.00  0.00    -0.027 A 
ATOM     35  H   UNL     1     -45.557  37.219  27.378  1.00  0.00     0.065 H 
ATOM     36  H   UNL     1     -49.692  37.759  28.522  1.00  0.00     0.063 H 
BRANCH  34  37
ATOM     37  C   UNL     1     -47.257  38.959  28.664  1.00  0.00     0.043 C 
ATOM     38  H   UNL     1     -46.994  38.802  29.716  1.00  0.00     0.054 H 
ATOM     39  H   UNL     1     -48.121  39.631  28.643  1.00  0.00     0.054 H 
BRANCH  37  40
ATOM     40  N   UNL     1     -46.185  39.619  27.962  1.00  0.00    -0.347 N 
ATOM     41  C   UNL     1     -46.400  40.475  26.911  1.00  0.00     0.270 C 
ATOM     42  H   UNL     1     -45.263  39.654  28.385  1.00  0.00     0.164 HD
ATOM     43  O   UNL     1     -47.485  40.654  26.371  1.00  0.00    -0.268 OA
BRANCH  41  44
ATOM     44  C   UNL     1     -45.140  41.195  26.491  1.00  0.00     0.136 A 
ATOM     45  C   UNL     1     -44.100  41.104  27.323  1.00  0.00     0.035 A 
ATOM     46  N   UNL     1     -45.135  41.879  25.297  1.00  0.00    -0.225 NA
ATOM     47  C   UNL     1     -42.852  41.783  26.951  1.00  0.00     0.258 A 
ATOM     48  H   UNL     1     -44.116  40.560  28.258  1.00  0.00     0.071 H 
ATOM     49  C   UNL     1     -44.027  42.474  24.970  1.00  0.00     0.140 A 
ATOM     50  O   UNL     1     -41.890  41.710  27.714  1.00  0.00    -0.269 OA
ATOM     51  N   UNL     1     -42.871  42.463  25.742  1.00  0.00    -0.268 N 
ATOM     52  C   UNL     1     -43.974  43.225  23.684  1.00  0.00    -0.019 A 
ATOM     53  C   UNL     1     -41.724  43.127  25.322  1.00  0.00     0.014 A 
ATOM     54  C   UNL     1     -42.847  43.849  23.321  1.00  0.00    -0.057 A 
ATOM     55  H   UNL     1     -44.869  43.238  23.076  1.00  0.00     0.066 H 
ATOM     56  C   UNL     1     -41.683  43.800  24.165  1.00  0.00    -0.045 A 
ATOM     57  H   UNL     1     -40.856  43.077  25.974  1.00  0.00     0.082 H 
ATOM     58  H   UNL     1     -42.787  44.399  22.388  1.00  0.00     0.062 H 
ATOM     59  H   UNL     1     -40.782  44.315  23.846  1.00  0.00     0.064 H 
ENDBRANCH  41  44
ENDBRANCH  37  40
ENDBRANCH  34  37
ENDBRANCH   1  23
TORSDOF 8
ENDMDL
MODEL 7
REMARK VINA RESULT:      -9.2      2.898     11.726
REMARK SMILES CC1(CNCc2cc3ccc(CNC(=O)c4cc(=O)n5ccccc5n4)cc3[nH]2)CCC1
REMARK SMILES IDX 5 1 4 4 3 6 2 9 30 10 32 11 31 12 1 19 6 23 7 24 29 25 8 26
REMARK SMILES IDX 28 28 9 30 27 31 10 32 11 34 12 37 13 40 14 41 15 43 16 44
REMARK SMILES IDX 17 45 26 46 18 47 25 49 19 50 20 51 24 52 21 53 23 54 22 56
REMARK H PARENT 5 2 5 3 4 5 3 7 3 8 30 13 30 14 32 15 32 16 31 17 31 18 1 20
REMARK H PARENT 1 21 1 22 7 27 29 29 9 33 27 35 10 36 12 38 12 39 13 42 17 48
REMARK H PARENT 24 55 21 57 23 58 22 59
REMARK Flexibility Score: inf
ROOT
ATOM      1  C   UNL     1     -44.873  39.888  27.985  1.00  0.00     0.036 C 
ATOM      2  H   UNL     1     -45.730  40.569  27.992  1.00  0.00     0.049 H 
ATOM      3  H   UNL     1     -44.358  39.974  28.950  1.00  0.00     0.049 H 
ENDROOT
BRANCH   1   4
ATOM      4  N   UNL     1     -43.970  40.201  26.887  1.00  0.00    -0.311 NA
ATOM      5  H   UNL     1     -44.514  40.544  26.097  1.00  0.00     0.123 HD
BRANCH   4   6
ATOM      6  C   UNL     1     -42.915  41.154  27.239  1.00  0.00     0.001 C 
ATOM      7  H   UNL     1     -42.847  41.238  28.330  1.00  0.00     0.043 H 
ATOM      8  H   UNL     1     -41.965  40.705  26.921  1.00  0.00     0.043 H 
BRANCH   6   9
ATOM      9  C   UNL     1     -43.035  42.545  26.588  1.00  0.00    -0.020 C 
ATOM     10  C   UNL     1     -43.862  42.477  25.263  1.00  0.00    -0.047 C 
ATOM     11  C   UNL     1     -41.833  42.998  25.697  1.00  0.00    -0.047 C 
ATOM     12  C   UNL     1     -42.845  43.439  24.625  1.00  0.00    -0.052 C 
ATOM     13  H   UNL     1     -43.874  41.491  24.781  1.00  0.00     0.027 H 
ATOM     14  H   UNL     1     -44.890  42.847  25.312  1.00  0.00     0.027 H 
ATOM     15  H   UNL     1     -41.207  43.799  26.099  1.00  0.00     0.027 H 
ATOM     16  H   UNL     1     -41.184  42.181  25.361  1.00  0.00     0.027 H 
ATOM     17  H   UNL     1     -43.129  44.495  24.692  1.00  0.00     0.027 H 
ATOM     18  H   UNL     1     -42.566  43.215  23.592  1.00  0.00     0.027 H 
BRANCH   9  19
ATOM     19  C   UNL     1     -43.558  43.620  27.546  1.00  0.00    -0.058 C 
ATOM     20  H   UNL     1     -43.049  44.579  27.401  1.00  0.00     0.024 H 
ATOM     21  H   UNL     1     -43.401  43.330  28.590  1.00  0.00     0.024 H 
ATOM     22  H   UNL     1     -44.630  43.788  27.395  1.00  0.00     0.024 H 
ENDBRANCH   9  19
ENDBRANCH   6   9
ENDBRANCH   4   6
ENDBRANCH   1   4
BRANCH   1  23
ATOM     23  C   UNL     1     -45.364  38.491  27.832  1.00  0.00     0.030 A 
ATOM     24  C   UNL     1     -44.795  37.282  28.176  1.00  0.00    -0.032 A 
ATOM     25  N   UNL     1     -46.575  38.215  27.244  1.00  0.00    -0.357 N 
ATOM     26  C   UNL     1     -45.691  36.247  27.786  1.00  0.00    -0.000 A 
ATOM     27  H   UNL     1     -43.833  37.149  28.655  1.00  0.00     0.065 H 
ATOM     28  C   UNL     1     -46.800  36.859  27.207  1.00  0.00     0.046 A 
ATOM     29  H   UNL     1     -47.216  38.927  26.921  1.00  0.00     0.166 HD
ATOM     30  C   UNL     1     -45.662  34.843  27.877  1.00  0.00    -0.052 A 
ATOM     31  C   UNL     1     -47.892  36.136  26.712  1.00  0.00    -0.033 A 
ATOM     32  C   UNL     1     -46.743  34.102  27.385  1.00  0.00    -0.057 A 
ATOM     33  H   UNL     1     -44.814  34.336  28.328  1.00  0.00     0.063 H 
ATOM     34  C   UNL     1     -47.849  34.734  26.799  1.00  0.00    -0.027 A 
ATOM     35  H   UNL     1     -48.744  36.647  26.272  1.00  0.00     0.065 H 
ATOM     36  H   UNL     1     -46.720  33.017  27.466  1.00  0.00     0.063 H 
BRANCH  34  37
ATOM     37  C   UNL     1     -49.008  33.907  26.300  1.00  0.00     0.043 C 
ATOM     38  H   UNL     1     -49.445  34.368  25.406  1.00  0.00     0.054 H 
ATOM     39  H   UNL     1     -49.797  33.858  27.058  1.00  0.00     0.054 H 
BRANCH  37  40
ATOM     40  N   UNL     1     -48.591  32.555  26.026  1.00  0.00    -0.347 N 
ATOM     41  C   UNL     1     -49.194  31.770  25.077  1.00  0.00     0.270 C 
ATOM     42  H   UNL     1     -47.687  32.238  26.360  1.00  0.00     0.164 HD
ATOM     43  O   UNL     1     -50.220  32.067  24.476  1.00  0.00    -0.268 OA
BRANCH  41  44
ATOM     44  C   UNL     1     -48.442  30.482  24.836  1.00  0.00     0.136 A 
ATOM     45  C   UNL     1     -47.549  30.493  23.844  1.00  0.00     0.035 A 
ATOM     46  N   UNL     1     -48.708  29.399  25.642  1.00  0.00    -0.225 NA
ATOM     47  C   UNL     1     -46.789  29.265  23.580  1.00  0.00     0.258 A 
ATOM     48  H   UNL     1     -47.347  31.353  23.218  1.00  0.00     0.071 H 
ATOM     49  C   UNL     1     -48.030  28.316  25.407  1.00  0.00     0.140 A 
ATOM     50  O   UNL     1     -45.968  29.264  22.663  1.00  0.00    -0.269 OA
ATOM     51  N   UNL     1     -47.073  28.189  24.407  1.00  0.00    -0.268 N 
ATOM     52  C   UNL     1     -48.282  27.118  26.258  1.00  0.00    -0.019 A 
ATOM     53  C   UNL     1     -46.390  26.992  24.219  1.00  0.00     0.014 A 
ATOM     54  C   UNL     1     -47.600  25.988  26.039  1.00  0.00    -0.057 A 
ATOM     55  H   UNL     1     -49.024  27.208  27.040  1.00  0.00     0.066 H 
ATOM     56  C   UNL     1     -46.622  25.919  24.986  1.00  0.00    -0.045 A 
ATOM     57  H   UNL     1     -45.655  26.963  23.418  1.00  0.00     0.082 H 
ATOM     58  H   UNL     1     -47.768  25.106  26.647  1.00  0.00     0.062 H 
ATOM     59  H   UNL     1     -46.083  24.990  24.830  1.00  0.00     0.064 H 
ENDBRANCH  41  44
ENDBRANCH  37  40
ENDBRANCH  34  37
ENDBRANCH   1  23
TORSDOF 8
ENDMDL
