MODEL 1
REMARK VINA RESULT:     -10.8      0.000      0.000
REMARK SMILES Nc1ncnc2c1ccn2-c1cncc(COc2ccc3c(=O)cc[nH]c3c2)c1
REMARK SMILES IDX 11 1 12 2 13 3 14 4 15 5 29 6 10 10 2 11 3 12 7 13 4 14 6 15
REMARK SMILES IDX 8 16 5 17 9 19 1 22 16 25 17 28 18 29 19 30 28 31 20 32
REMARK SMILES IDX 27 34 21 36 26 38 22 39 25 40 23 42 24 43
REMARK H PARENT 12 7 14 8 29 9 4 18 8 20 9 21 1 23 1 24 16 26 16 27 19 33
REMARK H PARENT 28 35 20 37 26 41 25 44 24 45
REMARK Flexibility Score: inf
ROOT
ATOM      1  C   UNL     1     -45.506  38.261  28.254  1.00  0.00     0.066 A 
ATOM      2  C   UNL     1     -45.322  37.938  29.597  1.00  0.00     0.051 A 
ATOM      3  N   UNL     1     -45.843  36.843  30.202  1.00  0.00    -0.262 NA
ATOM      4  C   UNL     1     -46.584  36.015  29.435  1.00  0.00     0.034 A 
ATOM      5  C   UNL     1     -46.833  36.226  28.087  1.00  0.00     0.010 A 
ATOM      6  C   UNL     1     -46.285  37.377  27.499  1.00  0.00    -0.028 A 
ATOM      7  H   UNL     1     -44.751  38.552  30.284  1.00  0.00     0.086 H 
ATOM      8  H   UNL     1     -46.986  35.148  29.956  1.00  0.00     0.084 H 
ATOM      9  H   UNL     1     -46.474  37.543  26.444  1.00  0.00     0.065 H 
ENDROOT
BRANCH   1  10
ATOM     10  N   UNL     1     -44.919  39.442  27.694  1.00  0.00    -0.300 N 
ATOM     11  C   UNL     1     -42.622  42.182  27.693  1.00  0.00     0.136 A 
ATOM     12  N   UNL     1     -41.935  41.989  28.831  1.00  0.00    -0.219 NA
ATOM     13  C   UNL     1     -43.637  41.280  27.345  1.00  0.00     0.061 A 
ATOM     14  C   UNL     1     -42.250  40.925  29.584  1.00  0.00     0.120 A 
ATOM     15  C   UNL     1     -43.880  40.220  28.217  1.00  0.00     0.150 A 
ATOM     16  C   UNL     1     -44.536  41.150  26.263  1.00  0.00    -0.031 A 
ATOM     17  N   UNL     1     -43.195  40.001  29.359  1.00  0.00    -0.218 NA
ATOM     18  H   UNL     1     -41.665  40.797  30.491  1.00  0.00     0.106 H 
ATOM     19  C   UNL     1     -45.302  40.031  26.494  1.00  0.00     0.012 A 
ATOM     20  H   UNL     1     -44.616  41.801  25.402  1.00  0.00     0.065 H 
ATOM     21  H   UNL     1     -46.101  39.629  25.888  1.00  0.00     0.082 H 
BRANCH  11  22
ATOM     22  N   UNL     1     -42.284  43.289  26.928  1.00  0.00    -0.383 N 
ATOM     23  H   UNL     1     -42.214  44.158  27.437  1.00  0.00     0.158 HD
ATOM     24  H   UNL     1     -41.515  43.071  26.304  1.00  0.00     0.158 HD
ENDBRANCH  11  22
ENDBRANCH   1  10
BRANCH   5  25
ATOM     25  C   UNL     1     -47.705  35.286  27.300  1.00  0.00     0.115 C 
ATOM     26  H   UNL     1     -47.736  35.601  26.250  1.00  0.00     0.076 H 
ATOM     27  H   UNL     1     -48.715  35.319  27.727  1.00  0.00     0.076 H 
BRANCH  25  28
ATOM     28  O   UNL     1     -47.167  33.967  27.381  1.00  0.00    -0.489 OA
BRANCH  28  29
ATOM     29  C   UNL     1     -47.331  33.151  26.295  1.00  0.00     0.121 A 
ATOM     30  C   UNL     1     -48.660  32.796  26.038  1.00  0.00    -0.019 A 
ATOM     31  C   UNL     1     -46.312  32.669  25.466  1.00  0.00     0.004 A 
ATOM     32  C   UNL     1     -48.979  31.961  24.966  1.00  0.00    -0.045 A 
ATOM     33  H   UNL     1     -49.453  33.167  26.682  1.00  0.00     0.066 H 
ATOM     34  C   UNL     1     -46.618  31.844  24.376  1.00  0.00     0.053 A 
ATOM     35  H   UNL     1     -45.273  32.919  25.648  1.00  0.00     0.068 H 
ATOM     36  C   UNL     1     -47.959  31.485  24.144  1.00  0.00     0.046 A 
ATOM     37  H   UNL     1     -50.013  31.685  24.778  1.00  0.00     0.063 H 
ATOM     38  N   UNL     1     -45.603  31.323  23.558  1.00  0.00    -0.361 N 
ATOM     39  C   UNL     1     -48.271  30.591  22.998  1.00  0.00     0.189 A 
ATOM     40  C   UNL     1     -45.905  30.532  22.482  1.00  0.00     0.005 A 
ATOM     41  H   UNL     1     -44.663  31.692  23.640  1.00  0.00     0.166 HD
ATOM     42  O   UNL     1     -49.417  30.240  22.742  1.00  0.00    -0.289 OA
ATOM     43  C   UNL     1     -47.139  30.136  22.154  1.00  0.00     0.002 A 
ATOM     44  H   UNL     1     -45.044  30.234  21.889  1.00  0.00     0.082 H 
ATOM     45  H   UNL     1     -47.363  29.506  21.305  1.00  0.00     0.068 H 
ENDBRANCH  28  29
ENDBRANCH  25  28
ENDBRANCH   5  25
TORSDOF 5
ENDMDL
MODEL 2
REMARK VINA RESULT:     -10.5      2.375      9.949
REMARK SMILES Nc1ncnc2c1ccn2-c1cncc(COc2ccc3c(=O)cc[nH]c3c2)c1
REMARK SMILES IDX 11 1 12 2 13 3 14 4 15 5 29 6 10 10 2 11 3 12 7 13 4 14 6 15
REMARK SMILES IDX 8 16 5 17 9 19 1 22 16 25 17 28 18 29 19 30 28 31 20 32
REMARK SMILES IDX 27 34 21 36 26 38 22 39 25 40 23 42 24 43
REMARK H PARENT 12 7 14 8 29 9 4 18 8 20 9 21 1 23 1 24 16 26 16 27 19 33
REMARK H PARENT 28 35 20 37 26 41 25 44 24 45
REMARK Flexibility Score: inf
ROOT
ATOM      1  C   UNL     1     -47.545  32.921  25.883  1.00  0.00     0.066 A 
ATOM      2  C   UNL     1     -46.697  32.416  26.867  1.00  0.00     0.051 A 
ATOM      3  N   UNL     1     -46.154  33.154  27.866  1.00  0.00    -0.262 NA
ATOM      4  C   UNL     1     -46.471  34.465  27.898  1.00  0.00     0.034 A 
ATOM      5  C   UNL     1     -47.307  35.082  26.978  1.00  0.00     0.010 A 
ATOM      6  C   UNL     1     -47.841  34.286  25.953  1.00  0.00    -0.028 A 
ATOM      7  H   UNL     1     -46.385  31.379  26.908  1.00  0.00     0.086 H 
ATOM      8  H   UNL     1     -46.016  35.025  28.713  1.00  0.00     0.084 H 
ATOM      9  H   UNL     1     -48.499  34.764  25.235  1.00  0.00     0.065 H 
ENDROOT
BRANCH   1  10
ATOM     10  N   UNL     1     -48.074  32.069  24.859  1.00  0.00    -0.300 N 
ATOM     11  C   UNL     1     -47.786  29.951  21.992  1.00  0.00     0.136 A 
ATOM     12  N   UNL     1     -46.464  29.955  21.757  1.00  0.00    -0.219 NA
ATOM     13  C   UNL     1     -48.291  30.693  23.069  1.00  0.00     0.061 A 
ATOM     14  C   UNL     1     -45.679  30.666  22.581  1.00  0.00     0.120 A 
ATOM     15  C   UNL     1     -47.377  31.403  23.845  1.00  0.00     0.150 A 
ATOM     16  C   UNL     1     -49.574  30.918  23.619  1.00  0.00    -0.031 A 
ATOM     17  N   UNL     1     -46.043  31.411  23.634  1.00  0.00    -0.218 NA
ATOM     18  H   UNL     1     -44.615  30.634  22.365  1.00  0.00     0.106 H 
ATOM     19  C   UNL     1     -49.419  31.753  24.701  1.00  0.00     0.012 A 
ATOM     20  H   UNL     1     -50.512  30.512  23.266  1.00  0.00     0.065 H 
ATOM     21  H   UNL     1     -50.181  32.149  25.355  1.00  0.00     0.082 H 
BRANCH  11  22
ATOM     22  N   UNL     1     -48.582  29.212  21.129  1.00  0.00    -0.383 N 
ATOM     23  H   UNL     1     -48.648  28.227  21.343  1.00  0.00     0.158 HD
ATOM     24  H   UNL     1     -49.457  29.691  20.950  1.00  0.00     0.158 HD
ENDBRANCH  11  22
ENDBRANCH   1  10
BRANCH   5  25
ATOM     25  C   UNL     1     -47.584  36.559  27.047  1.00  0.00     0.115 C 
ATOM     26  H   UNL     1     -48.667  36.733  27.043  1.00  0.00     0.076 H 
ATOM     27  H   UNL     1     -47.129  37.033  26.168  1.00  0.00     0.076 H 
BRANCH  25  28
ATOM     28  O   UNL     1     -47.025  37.087  28.249  1.00  0.00    -0.489 OA
BRANCH  28  29
ATOM     29  C   UNL     1     -46.102  38.089  28.128  1.00  0.00     0.121 A 
ATOM     30  C   UNL     1     -46.196  38.818  26.937  1.00  0.00    -0.019 A 
ATOM     31  C   UNL     1     -45.116  38.419  29.065  1.00  0.00     0.004 A 
ATOM     32  C   UNL     1     -45.315  39.866  26.671  1.00  0.00    -0.045 A 
ATOM     33  H   UNL     1     -46.960  38.562  26.206  1.00  0.00     0.066 H 
ATOM     34  C   UNL     1     -44.233  39.479  28.820  1.00  0.00     0.053 A 
ATOM     35  H   UNL     1     -45.013  37.865  29.990  1.00  0.00     0.068 H 
ATOM     36  C   UNL     1     -44.335  40.189  27.609  1.00  0.00     0.046 A 
ATOM     37  H   UNL     1     -45.391  40.422  25.740  1.00  0.00     0.063 H 
ATOM     38  N   UNL     1     -43.217  39.797  29.734  1.00  0.00    -0.361 N 
ATOM     39  C   UNL     1     -43.380  41.298  27.350  1.00  0.00     0.189 A 
ATOM     40  C   UNL     1     -42.367  40.846  29.503  1.00  0.00     0.005 A 
ATOM     41  H   UNL     1     -43.234  39.383  30.658  1.00  0.00     0.166 HD
ATOM     42  O   UNL     1     -43.413  41.955  26.315  1.00  0.00    -0.289 OA
ATOM     43  C   UNL     1     -42.376  41.599  28.399  1.00  0.00     0.002 A 
ATOM     44  H   UNL     1     -41.658  41.033  30.305  1.00  0.00     0.082 H 
ATOM     45  H   UNL     1     -41.694  42.420  28.225  1.00  0.00     0.068 H 
ENDBRANCH  28  29
ENDBRANCH  25  28
ENDBRANCH   5  25
TORSDOF 5
ENDMDL
MODEL 3
REMARK VINA RESULT:      -9.9      2.531      4.749
REMARK SMILES Nc1ncnc2c1ccn2-c1cncc(COc2ccc3c(=O)cc[nH]c3c2)c1
REMARK SMILES IDX 11 1 12 2 13 3 14 4 15 5 29 6 10 10 2 11 3 12 7 13 4 14 6 15
REMARK SMILES IDX 8 16 5 17 9 19 1 22 16 25 17 28 18 29 19 30 28 31 20 32
REMARK SMILES IDX 27 34 21 36 26 38 22 39 25 40 23 42 24 43
REMARK H PARENT 12 7 14 8 29 9 4 18 8 20 9 21 1 23 1 24 16 26 16 27 19 33
REMARK H PARENT 28 35 20 37 26 41 25 44 24 45
REMARK Flexibility Score: inf
ROOT
ATOM      1  C   UNL     1     -43.054  41.587  27.844  1.00  0.00     0.066 A 
ATOM      2  C   UNL     1     -42.131  41.812  28.863  1.00  0.00     0.051 A 
ATOM      3  N   UNL     1     -41.991  41.028  29.961  1.00  0.00    -0.262 NA
ATOM      4  C   UNL     1     -42.805  39.955  30.053  1.00  0.00     0.034 A 
ATOM      5  C   UNL     1     -43.758  39.624  29.100  1.00  0.00     0.010 A 
ATOM      6  C   UNL     1     -43.880  40.466  27.984  1.00  0.00    -0.028 A 
ATOM      7  H   UNL     1     -41.449  42.655  28.873  1.00  0.00     0.086 H 
ATOM      8  H   UNL     1     -42.664  39.351  30.946  1.00  0.00     0.084 H 
ATOM      9  H   UNL     1     -44.620  40.207  27.236  1.00  0.00     0.065 H 
ENDROOT
BRANCH   1  10
ATOM     10  N   UNL     1     -43.136  42.469  26.718  1.00  0.00    -0.300 N 
ATOM     11  C   UNL     1     -44.908  44.494  24.362  1.00  0.00     0.136 A 
ATOM     12  N   UNL     1     -46.184  44.353  24.756  1.00  0.00    -0.219 NA
ATOM     13  C   UNL     1     -43.897  43.826  25.068  1.00  0.00     0.061 A 
ATOM     14  C   UNL     1     -46.433  43.581  25.825  1.00  0.00     0.120 A 
ATOM     15  C   UNL     1     -44.282  43.042  26.153  1.00  0.00     0.150 A 
ATOM     16  C   UNL     1     -42.490  43.742  24.965  1.00  0.00    -0.031 A 
ATOM     17  N   UNL     1     -45.556  42.896  26.573  1.00  0.00    -0.218 NA
ATOM     18  H   UNL     1     -47.475  43.501  26.119  1.00  0.00     0.106 H 
ATOM     19  C   UNL     1     -42.051  42.916  25.973  1.00  0.00     0.012 A 
ATOM     20  H   UNL     1     -41.861  44.235  24.235  1.00  0.00     0.065 H 
ATOM     21  H   UNL     1     -41.039  42.610  26.195  1.00  0.00     0.082 H 
BRANCH  11  22
ATOM     22  N   UNL     1     -44.671  45.294  23.254  1.00  0.00    -0.383 N 
ATOM     23  H   UNL     1     -45.441  45.886  22.979  1.00  0.00     0.158 HD
ATOM     24  H   UNL     1     -43.764  45.741  23.323  1.00  0.00     0.158 HD
ENDBRANCH  11  22
ENDBRANCH   1  10
BRANCH   5  25
ATOM     25  C   UNL     1     -44.664  38.437  29.287  1.00  0.00     0.115 C 
ATOM     26  H   UNL     1     -44.951  38.353  30.343  1.00  0.00     0.076 H 
ATOM     27  H   UNL     1     -44.117  37.538  28.979  1.00  0.00     0.076 H 
BRANCH  25  28
ATOM     28  O   UNL     1     -45.836  38.610  28.491  1.00  0.00    -0.489 OA
BRANCH  28  29
ATOM     29  C   UNL     1     -46.426  37.485  27.985  1.00  0.00     0.121 A 
ATOM     30  C   UNL     1     -47.824  37.490  28.047  1.00  0.00    -0.019 A 
ATOM     31  C   UNL     1     -45.761  36.382  27.436  1.00  0.00     0.004 A 
ATOM     32  C   UNL     1     -48.562  36.404  27.574  1.00  0.00    -0.045 A 
ATOM     33  H   UNL     1     -48.343  38.345  28.474  1.00  0.00     0.066 H 
ATOM     34  C   UNL     1     -46.488  35.291  26.942  1.00  0.00     0.053 A 
ATOM     35  H   UNL     1     -44.679  36.347  27.385  1.00  0.00     0.068 H 
ATOM     36  C   UNL     1     -47.893  35.309  27.029  1.00  0.00     0.046 A 
ATOM     37  H   UNL     1     -49.647  36.414  27.633  1.00  0.00     0.063 H 
ATOM     38  N   UNL     1     -45.834  34.163  26.425  1.00  0.00    -0.361 N 
ATOM     39  C   UNL     1     -48.654  34.138  26.522  1.00  0.00     0.189 A 
ATOM     40  C   UNL     1     -46.546  33.106  25.924  1.00  0.00     0.005 A 
ATOM     41  H   UNL     1     -44.840  34.211  26.234  1.00  0.00     0.166 HD
ATOM     42  O   UNL     1     -49.878  34.089  26.569  1.00  0.00    -0.289 OA
ATOM     43  C   UNL     1     -47.879  33.015  25.939  1.00  0.00     0.002 A 
ATOM     44  H   UNL     1     -45.934  32.315  25.499  1.00  0.00     0.082 H 
ATOM     45  H   UNL     1     -48.430  32.171  25.547  1.00  0.00     0.068 H 
ENDBRANCH  28  29
ENDBRANCH  25  28
ENDBRANCH   5  25
TORSDOF 5
ENDMDL
MODEL 4
REMARK VINA RESULT:      -9.9      2.980     10.805
REMARK SMILES Nc1ncnc2c1ccn2-c1cncc(COc2ccc3c(=O)cc[nH]c3c2)c1
REMARK SMILES IDX 11 1 12 2 13 3 14 4 15 5 29 6 10 10 2 11 3 12 7 13 4 14 6 15
REMARK SMILES IDX 8 16 5 17 9 19 1 22 16 25 17 28 18 29 19 30 28 31 20 32
REMARK SMILES IDX 27 34 21 36 26 38 22 39 25 40 23 42 24 43
REMARK H PARENT 12 7 14 8 29 9 4 18 8 20 9 21 1 23 1 24 16 26 16 27 19 33
REMARK H PARENT 28 35 20 37 26 41 25 44 24 45
REMARK Flexibility Score: inf
ROOT
ATOM      1  C   UNL     1     -48.106  31.233  24.154  1.00  0.00     0.066 A 
ATOM      2  C   UNL     1     -46.716  31.269  24.057  1.00  0.00     0.051 A 
ATOM      3  N   UNL     1     -45.923  32.158  24.704  1.00  0.00    -0.262 NA
ATOM      4  C   UNL     1     -46.538  33.060  25.499  1.00  0.00     0.034 A 
ATOM      5  C   UNL     1     -47.913  33.120  25.681  1.00  0.00     0.010 A 
ATOM      6  C   UNL     1     -48.700  32.189  24.985  1.00  0.00    -0.028 A 
ATOM      7  H   UNL     1     -46.145  30.590  23.434  1.00  0.00     0.086 H 
ATOM      8  H   UNL     1     -45.870  33.756  26.001  1.00  0.00     0.084 H 
ATOM      9  H   UNL     1     -49.774  32.230  25.128  1.00  0.00     0.065 H 
ENDROOT
BRANCH   1  10
ATOM     10  N   UNL     1     -48.869  30.258  23.432  1.00  0.00    -0.300 N 
ATOM     11  C   UNL     1     -50.596  27.144  23.109  1.00  0.00     0.136 A 
ATOM     12  N   UNL     1     -50.457  26.604  24.331  1.00  0.00    -0.219 NA
ATOM     13  C   UNL     1     -50.032  28.401  22.849  1.00  0.00     0.061 A 
ATOM     14  C   UNL     1     -49.789  27.306  25.259  1.00  0.00     0.120 A 
ATOM     15  C   UNL     1     -49.349  29.026  23.890  1.00  0.00     0.150 A 
ATOM     16  C   UNL     1     -49.980  29.265  21.732  1.00  0.00    -0.031 A 
ATOM     17  N   UNL     1     -49.208  28.507  25.128  1.00  0.00    -0.218 NA
ATOM     18  H   UNL     1     -49.708  26.842  26.237  1.00  0.00     0.106 H 
ATOM     19  C   UNL     1     -49.271  30.383  22.107  1.00  0.00     0.012 A 
ATOM     20  H   UNL     1     -50.415  29.093  20.756  1.00  0.00     0.065 H 
ATOM     21  H   UNL     1     -49.019  31.247  21.510  1.00  0.00     0.082 H 
BRANCH  11  22
ATOM     22  N   UNL     1     -51.288  26.403  22.163  1.00  0.00    -0.383 N 
ATOM     23  H   UNL     1     -51.247  25.401  22.287  1.00  0.00     0.158 HD
ATOM     24  H   UNL     1     -52.208  26.797  22.003  1.00  0.00     0.158 HD
ENDBRANCH  11  22
ENDBRANCH   1  10
BRANCH   5  25
ATOM     25  C   UNL     1     -48.537  34.179  26.547  1.00  0.00     0.115 C 
ATOM     26  H   UNL     1     -49.531  33.851  26.875  1.00  0.00     0.076 H 
ATOM     27  H   UNL     1     -48.627  35.097  25.953  1.00  0.00     0.076 H 
BRANCH  25  28
ATOM     28  O   UNL     1     -47.712  34.399  27.690  1.00  0.00    -0.489 OA
BRANCH  28  29
ATOM     29  C   UNL     1     -47.045  35.591  27.767  1.00  0.00     0.121 A 
ATOM     30  C   UNL     1     -46.164  35.689  28.850  1.00  0.00    -0.019 A 
ATOM     31  C   UNL     1     -47.179  36.667  26.883  1.00  0.00     0.004 A 
ATOM     32  C   UNL     1     -45.421  36.851  29.061  1.00  0.00    -0.045 A 
ATOM     33  H   UNL     1     -46.061  34.854  29.540  1.00  0.00     0.066 H 
ATOM     34  C   UNL     1     -46.427  37.835  27.072  1.00  0.00     0.053 A 
ATOM     35  H   UNL     1     -47.861  36.623  26.042  1.00  0.00     0.068 H 
ATOM     36  C   UNL     1     -45.559  37.920  28.176  1.00  0.00     0.046 A 
ATOM     37  H   UNL     1     -44.745  36.921  29.909  1.00  0.00     0.063 H 
ATOM     38  N   UNL     1     -46.578  38.936  26.214  1.00  0.00    -0.361 N 
ATOM     39  C   UNL     1     -44.783  39.170  28.379  1.00  0.00     0.189 A 
ATOM     40  C   UNL     1     -45.829  40.069  26.388  1.00  0.00     0.005 A 
ATOM     41  H   UNL     1     -47.091  38.823  25.349  1.00  0.00     0.166 HD
ATOM     42  O   UNL     1     -44.011  39.310  29.321  1.00  0.00    -0.289 OA
ATOM     43  C   UNL     1     -44.965  40.260  27.390  1.00  0.00     0.002 A 
ATOM     44  H   UNL     1     -45.990  40.833  25.632  1.00  0.00     0.082 H 
ATOM     45  H   UNL     1     -44.384  41.163  27.520  1.00  0.00     0.068 H 
ENDBRANCH  28  29
ENDBRANCH  25  28
ENDBRANCH   5  25
TORSDOF 5
ENDMDL
MODEL 5
REMARK VINA RESULT:      -9.8      1.572      2.365
REMARK SMILES Nc1ncnc2c1ccn2-c1cncc(COc2ccc3c(=O)cc[nH]c3c2)c1
REMARK SMILES IDX 11 1 12 2 13 3 14 4 15 5 29 6 10 10 2 11 3 12 7 13 4 14 6 15
REMARK SMILES IDX 8 16 5 17 9 19 1 22 16 25 17 28 18 29 19 30 28 31 20 32
REMARK SMILES IDX 27 34 21 36 26 38 22 39 25 40 23 42 24 43
REMARK H PARENT 12 7 14 8 29 9 4 18 8 20 9 21 1 23 1 24 16 26 16 27 19 33
REMARK H PARENT 28 35 20 37 26 41 25 44 24 45
REMARK Flexibility Score: inf
ROOT
ATOM      1  C   UNL     1     -45.884  38.381  28.103  1.00  0.00     0.066 A 
ATOM      2  C   UNL     1     -47.222  38.772  28.107  1.00  0.00     0.051 A 
ATOM      3  N   UNL     1     -48.272  37.919  28.027  1.00  0.00    -0.262 NA
ATOM      4  C   UNL     1     -47.985  36.603  27.944  1.00  0.00     0.034 A 
ATOM      5  C   UNL     1     -46.695  36.092  27.935  1.00  0.00     0.010 A 
ATOM      6  C   UNL     1     -45.634  37.008  28.009  1.00  0.00    -0.028 A 
ATOM      7  H   UNL     1     -47.538  39.808  28.161  1.00  0.00     0.086 H 
ATOM      8  H   UNL     1     -48.853  35.949  27.880  1.00  0.00     0.084 H 
ATOM      9  H   UNL     1     -44.625  36.611  28.007  1.00  0.00     0.065 H 
ENDROOT
BRANCH   1  10
ATOM     10  N   UNL     1     -44.833  39.352  28.189  1.00  0.00    -0.300 N 
ATOM     11  C   UNL     1     -42.923  42.117  26.969  1.00  0.00     0.136 A 
ATOM     12  N   UNL     1     -43.527  42.399  25.803  1.00  0.00    -0.219 NA
ATOM     13  C   UNL     1     -43.409  41.061  27.753  1.00  0.00     0.061 A 
ATOM     14  C   UNL     1     -44.585  41.655  25.445  1.00  0.00     0.120 A 
ATOM     15  C   UNL     1     -44.506  40.353  27.268  1.00  0.00     0.150 A 
ATOM     16  C   UNL     1     -43.058  40.493  28.999  1.00  0.00    -0.031 A 
ATOM     17  N   UNL     1     -45.135  40.626  26.105  1.00  0.00    -0.218 NA
ATOM     18  H   UNL     1     -45.052  41.920  24.501  1.00  0.00     0.106 H 
ATOM     19  C   UNL     1     -43.933  39.460  29.243  1.00  0.00     0.012 A 
ATOM     20  H   UNL     1     -42.253  40.805  29.652  1.00  0.00     0.065 H 
ATOM     21  H   UNL     1     -43.960  38.792  30.091  1.00  0.00     0.082 H 
BRANCH  11  22
ATOM     22  N   UNL     1     -41.830  42.896  27.321  1.00  0.00    -0.383 N 
ATOM     23  H   UNL     1     -41.082  42.401  27.785  1.00  0.00     0.158 HD
ATOM     24  H   UNL     1     -41.561  43.502  26.555  1.00  0.00     0.158 HD
ENDBRANCH  11  22
ENDBRANCH   1  10
BRANCH   5  25
ATOM     25  C   UNL     1     -46.445  34.615  27.795  1.00  0.00     0.115 C 
ATOM     26  H   UNL     1     -46.232  34.180  28.779  1.00  0.00     0.076 H 
ATOM     27  H   UNL     1     -45.580  34.476  27.134  1.00  0.00     0.076 H 
BRANCH  25  28
ATOM     28  O   UNL     1     -47.604  33.991  27.244  1.00  0.00    -0.489 OA
BRANCH  28  29
ATOM     29  C   UNL     1     -47.413  33.061  26.260  1.00  0.00     0.121 A 
ATOM     30  C   UNL     1     -46.508  33.452  25.267  1.00  0.00    -0.019 A 
ATOM     31  C   UNL     1     -48.030  31.807  26.180  1.00  0.00     0.004 A 
ATOM     32  C   UNL     1     -46.218  32.608  24.194  1.00  0.00    -0.045 A 
ATOM     33  H   UNL     1     -46.028  34.427  25.326  1.00  0.00     0.066 H 
ATOM     34  C   UNL     1     -47.738  30.942  25.117  1.00  0.00     0.053 A 
ATOM     35  H   UNL     1     -48.743  31.483  26.929  1.00  0.00     0.068 H 
ATOM     36  C   UNL     1     -46.837  31.361  24.120  1.00  0.00     0.046 A 
ATOM     37  H   UNL     1     -45.520  32.923  23.423  1.00  0.00     0.063 H 
ATOM     38  N   UNL     1     -48.378  29.698  25.004  1.00  0.00    -0.361 N 
ATOM     39  C   UNL     1     -46.551  30.444  22.987  1.00  0.00     0.189 A 
ATOM     40  C   UNL     1     -48.077  28.844  23.976  1.00  0.00     0.005 A 
ATOM     41  H   UNL     1     -48.912  29.343  25.788  1.00  0.00     0.166 HD
ATOM     42  O   UNL     1     -45.778  30.748  22.085  1.00  0.00    -0.289 OA
ATOM     43  C   UNL     1     -47.230  29.126  22.981  1.00  0.00     0.002 A 
ATOM     44  H   UNL     1     -48.591  27.889  24.023  1.00  0.00     0.082 H 
ATOM     45  H   UNL     1     -47.007  28.445  22.171  1.00  0.00     0.068 H 
ENDBRANCH  28  29
ENDBRANCH  25  28
ENDBRANCH   5  25
TORSDOF 5
ENDMDL
MODEL 6
REMARK VINA RESULT:      -9.6      2.635      9.890
REMARK SMILES Nc1ncnc2c1ccn2-c1cncc(COc2ccc3c(=O)cc[nH]c3c2)c1
REMARK SMILES IDX 11 1 12 2 13 3 14 4 15 5 29 6 10 10 2 11 3 12 7 13 4 14 6 15
REMARK SMILES IDX 8 16 5 17 9 19 1 22 16 25 17 28 18 29 19 30 28 31 20 32
REMARK SMILES IDX 27 34 21 36 26 38 22 39 25 40 23 42 24 43
REMARK H PARENT 12 7 14 8 29 9 4 18 8 20 9 21 1 23 1 24 16 26 16 27 19 33
REMARK H PARENT 28 35 20 37 26 41 25 44 24 45
REMARK Flexibility Score: inf
ROOT
ATOM      1  C   UNL     1     -46.951  33.032  25.847  1.00  0.00     0.066 A 
ATOM      2  C   UNL     1     -46.336  32.604  27.022  1.00  0.00     0.051 A 
ATOM      3  N   UNL     1     -46.209  33.357  28.142  1.00  0.00    -0.262 NA
ATOM      4  C   UNL     1     -46.725  34.604  28.101  1.00  0.00     0.034 A 
ATOM      5  C   UNL     1     -47.365  35.140  26.992  1.00  0.00     0.010 A 
ATOM      6  C   UNL     1     -47.467  34.332  25.849  1.00  0.00    -0.028 A 
ATOM      7  H   UNL     1     -45.888  31.623  27.136  1.00  0.00     0.086 H 
ATOM      8  H   UNL     1     -46.604  35.178  29.017  1.00  0.00     0.084 H 
ATOM      9  H   UNL     1     -47.970  34.747  24.983  1.00  0.00     0.065 H 
ENDROOT
BRANCH   1  10
ATOM     10  N   UNL     1     -47.040  32.169  24.707  1.00  0.00    -0.300 N 
ATOM     11  C   UNL     1     -48.822  30.162  22.344  1.00  0.00     0.136 A 
ATOM     12  N   UNL     1     -50.097  30.304  22.741  1.00  0.00    -0.219 NA
ATOM     13  C   UNL     1     -47.808  30.822  23.051  1.00  0.00     0.061 A 
ATOM     14  C   UNL     1     -50.344  31.089  23.801  1.00  0.00     0.120 A 
ATOM     15  C   UNL     1     -48.188  31.599  24.144  1.00  0.00     0.150 A 
ATOM     16  C   UNL     1     -46.403  30.921  22.933  1.00  0.00    -0.031 A 
ATOM     17  N   UNL     1     -49.463  31.765  24.553  1.00  0.00    -0.218 NA
ATOM     18  H   UNL     1     -51.387  31.188  24.084  1.00  0.00     0.106 H 
ATOM     19  C   UNL     1     -45.959  31.741  23.944  1.00  0.00     0.012 A 
ATOM     20  H   UNL     1     -45.779  30.447  22.186  1.00  0.00     0.065 H 
ATOM     21  H   UNL     1     -44.945  32.032  24.174  1.00  0.00     0.082 H 
BRANCH  11  22
ATOM     22  N   UNL     1     -48.587  29.345  21.247  1.00  0.00    -0.383 N 
ATOM     23  H   UNL     1     -48.746  28.360  21.403  1.00  0.00     0.158 HD
ATOM     24  H   UNL     1     -49.002  29.740  20.411  1.00  0.00     0.158 HD
ENDBRANCH  11  22
ENDBRANCH   1  10
BRANCH   5  25
ATOM     25  C   UNL     1     -47.879  36.554  26.999  1.00  0.00     0.115 C 
ATOM     26  H   UNL     1     -48.976  36.549  27.027  1.00  0.00     0.076 H 
ATOM     27  H   UNL     1     -47.533  37.047  26.083  1.00  0.00     0.076 H 
BRANCH  25  28
ATOM     28  O   UNL     1     -47.381  37.230  28.153  1.00  0.00    -0.489 OA
BRANCH  28  29
ATOM     29  C   UNL     1     -46.427  38.191  27.958  1.00  0.00     0.121 A 
ATOM     30  C   UNL     1     -45.457  38.252  28.965  1.00  0.00    -0.019 A 
ATOM     31  C   UNL     1     -46.358  39.075  26.875  1.00  0.00     0.004 A 
ATOM     32  C   UNL     1     -44.426  39.190  28.905  1.00  0.00    -0.045 A 
ATOM     33  H   UNL     1     -45.511  37.568  29.809  1.00  0.00     0.066 H 
ATOM     34  C   UNL     1     -45.319  40.011  26.792  1.00  0.00     0.053 A 
ATOM     35  H   UNL     1     -47.101  39.057  26.087  1.00  0.00     0.068 H 
ATOM     36  C   UNL     1     -44.363  40.068  27.823  1.00  0.00     0.046 A 
ATOM     37  H   UNL     1     -43.681  39.235  29.696  1.00  0.00     0.063 H 
ATOM     38  N   UNL     1     -45.258  40.929  25.732  1.00  0.00    -0.361 N 
ATOM     39  C   UNL     1     -43.277  41.078  27.737  1.00  0.00     0.189 A 
ATOM     40  C   UNL     1     -44.231  41.830  25.641  1.00  0.00     0.005 A 
ATOM     41  H   UNL     1     -45.858  40.795  24.927  1.00  0.00     0.166 HD
ATOM     42  O   UNL     1     -42.415  41.181  28.601  1.00  0.00    -0.289 OA
ATOM     43  C   UNL     1     -43.261  41.968  26.550  1.00  0.00     0.002 A 
ATOM     44  H   UNL     1     -44.258  42.451  24.749  1.00  0.00     0.082 H 
ATOM     45  H   UNL     1     -42.459  42.689  26.470  1.00  0.00     0.068 H 
ENDBRANCH  28  29
ENDBRANCH  25  28
ENDBRANCH   5  25
TORSDOF 5
ENDMDL
