MODEL 1
REMARK VINA RESULT:     -10.4      0.000      0.000
REMARK SMILES Nc1nc2ccc(OC[C@H]3O[C@@H](n4cc(Br)c5c(N)ncnc54)[C@@H](F)[C@@H]3O)cc2[nH]1
REMARK SMILES IDX 9 1 8 4 7 5 2 6 3 7 30 8 4 9 29 10 5 12 28 13 6 14 1 18
REMARK SMILES IDX 10 21 11 22 26 23 12 25 24 26 25 29 27 31 13 33 14 34 23 35
REMARK SMILES IDX 15 36 17 38 22 39 16 40 18 41 21 42 20 43 19 45
REMARK H PARENT 9 2 9 3 30 11 5 15 28 16 6 17 1 19 1 20 10 24 26 27 12 28
REMARK H PARENT 24 30 27 32 14 37 21 44 19 46 19 47
REMARK Flexibility Score: inf
ROOT
ATOM      1  C   UNL     1     -46.592  35.902  27.017  1.00  0.00     0.117 C 
ATOM      2  H   UNL     1     -47.634  35.634  27.228  1.00  0.00     0.073 H 
ATOM      3  H   UNL     1     -46.668  36.872  26.511  1.00  0.00     0.073 H 
ENDROOT
BRANCH   1   4
ATOM      4  O   UNL     1     -46.072  34.884  26.163  1.00  0.00    -0.491 OA
BRANCH   4   5
ATOM      5  C   UNL     1     -46.858  33.806  25.857  1.00  0.00     0.121 A 
ATOM      6  C   UNL     1     -47.723  29.786  23.937  1.00  0.00     0.198 A 
ATOM      7  N   UNL     1     -48.733  30.319  24.576  1.00  0.00    -0.213 NA
ATOM      8  N   UNL     1     -46.612  30.583  23.995  1.00  0.00    -0.324 N 
ATOM      9  C   UNL     1     -48.259  31.507  25.076  1.00  0.00     0.091 A 
ATOM     10  C   UNL     1     -46.930  31.701  24.722  1.00  0.00     0.071 A 
ATOM     11  H   UNL     1     -45.729  30.385  23.554  1.00  0.00     0.170 HD
ATOM     12  C   UNL     1     -48.907  32.482  25.845  1.00  0.00    -0.030 A 
ATOM     13  C   UNL     1     -46.199  32.832  25.091  1.00  0.00     0.006 A 
ATOM     14  C   UNL     1     -48.193  33.628  26.232  1.00  0.00    -0.018 A 
ATOM     15  H   UNL     1     -49.943  32.343  26.134  1.00  0.00     0.065 H 
ATOM     16  H   UNL     1     -45.160  32.959  24.801  1.00  0.00     0.068 H 
ATOM     17  H   UNL     1     -48.725  34.358  26.833  1.00  0.00     0.066 H 
BRANCH   6  18
ATOM     18  N   UNL     1     -47.702  28.617  23.281  1.00  0.00    -0.369 N 
ATOM     19  H   UNL     1     -48.441  27.976  23.560  1.00  0.00     0.159 HD
ATOM     20  H   UNL     1     -46.822  28.137  23.137  1.00  0.00     0.159 HD
ENDBRANCH   6  18
ENDBRANCH   4   5
ENDBRANCH   1   4
BRANCH   1  21
ATOM     21  C   UNL     1     -45.808  35.997  28.332  1.00  0.00     0.123 C 
ATOM     22  O   UNL     1     -44.716  36.925  28.153  1.00  0.00    -0.345 OA
ATOM     23  C   UNL     1     -46.653  36.505  29.506  1.00  0.00     0.119 C 
ATOM     24  H   UNL     1     -45.370  35.025  28.579  1.00  0.00     0.067 H 
ATOM     25  C   UNL     1     -44.957  38.059  29.022  1.00  0.00     0.169 C 
ATOM     26  C   UNL     1     -46.414  37.996  29.457  1.00  0.00     0.173 C 
ATOM     27  H   UNL     1     -47.712  36.242  29.431  1.00  0.00     0.066 H 
ATOM     28  H   UNL     1     -44.279  37.941  29.877  1.00  0.00     0.088 H 
ATOM     29  F   UNL     1     -47.231  38.528  28.505  1.00  0.00    -0.239 F 
ATOM     30  H   UNL     1     -46.598  38.517  30.401  1.00  0.00     0.074 H 
BRANCH  23  31
ATOM     31  O   UNL     1     -46.156  35.992  30.748  1.00  0.00    -0.387 OA
ATOM     32  H   UNL     1     -46.239  35.021  30.717  1.00  0.00     0.211 HD
ENDBRANCH  23  31
BRANCH  25  33
ATOM     33  N   UNL     1     -44.598  39.294  28.347  1.00  0.00    -0.302 N 
ATOM     34  C   UNL     1     -45.189  39.836  27.231  1.00  0.00     0.023 A 
ATOM     35  C   UNL     1     -43.576  40.113  28.766  1.00  0.00     0.148 A 
ATOM     36  C   UNL     1     -44.530  41.009  26.952  1.00  0.00     0.049 A 
ATOM     37  H   UNL     1     -46.018  39.346  26.737  1.00  0.00     0.083 H 
ATOM     38  C   UNL     1     -43.505  41.206  27.910  1.00  0.00     0.075 A 
ATOM     39  N   UNL     1     -42.790  39.877  29.832  1.00  0.00    -0.218 NA
ATOM     40  Br  UNL     1     -44.925  42.160  25.523  1.00  0.00    -0.048 Br
ATOM     41  C   UNL     1     -42.512  42.156  28.192  1.00  0.00     0.137 A 
ATOM     42  C   UNL     1     -41.878  40.849  29.995  1.00  0.00     0.120 A 
ATOM     43  N   UNL     1     -41.694  41.950  29.244  1.00  0.00    -0.219 NA
ATOM     44  H   UNL     1     -41.202  40.732  30.837  1.00  0.00     0.106 H 
BRANCH  41  45
ATOM     45  N   UNL     1     -42.295  43.304  27.446  1.00  0.00    -0.383 N 
ATOM     46  H   UNL     1     -42.281  43.175  26.443  1.00  0.00     0.158 HD
ATOM     47  H   UNL     1     -41.566  43.877  27.851  1.00  0.00     0.158 HD
ENDBRANCH  41  45
ENDBRANCH  25  33
ENDBRANCH   1  21
TORSDOF 7
ENDMDL
MODEL 2
REMARK VINA RESULT:      -9.6      3.133      9.640
REMARK SMILES Nc1nc2ccc(OC[C@H]3O[C@@H](n4cc(Br)c5c(N)ncnc54)[C@@H](F)[C@@H]3O)cc2[nH]1
REMARK SMILES IDX 9 1 8 4 7 5 2 6 3 7 30 8 4 9 29 10 5 12 28 13 6 14 1 18
REMARK SMILES IDX 10 21 11 22 26 23 12 25 24 26 25 29 27 31 13 33 14 34 23 35
REMARK SMILES IDX 15 36 17 38 22 39 16 40 18 41 21 42 20 43 19 45
REMARK H PARENT 9 2 9 3 30 11 5 15 28 16 6 17 1 19 1 20 10 24 26 27 12 28
REMARK H PARENT 24 30 27 32 14 37 21 44 19 46 19 47
REMARK Flexibility Score: inf
ROOT
ATOM      1  C   UNL     1     -48.163  35.804  26.793  1.00  0.00     0.117 C 
ATOM      2  H   UNL     1     -47.587  36.099  25.908  1.00  0.00     0.073 H 
ATOM      3  H   UNL     1     -49.166  35.602  26.397  1.00  0.00     0.073 H 
ENDROOT
BRANCH   1   4
ATOM      4  O   UNL     1     -48.146  36.917  27.684  1.00  0.00    -0.491 OA
BRANCH   4   5
ATOM      5  C   UNL     1     -47.117  37.816  27.608  1.00  0.00     0.121 A 
ATOM      6  C   UNL     1     -43.450  39.981  29.176  1.00  0.00     0.198 A 
ATOM      7  N   UNL     1     -43.848  40.363  27.989  1.00  0.00    -0.213 NA
ATOM      8  N   UNL     1     -44.250  38.995  29.684  1.00  0.00    -0.324 N 
ATOM      9  C   UNL     1     -44.947  39.589  27.711  1.00  0.00     0.091 A 
ATOM     10  C   UNL     1     -45.226  38.723  28.760  1.00  0.00     0.071 A 
ATOM     11  H   UNL     1     -44.147  38.569  30.590  1.00  0.00     0.170 HD
ATOM     12  C   UNL     1     -45.768  39.567  26.575  1.00  0.00    -0.030 A 
ATOM     13  C   UNL     1     -46.296  37.827  28.747  1.00  0.00     0.006 A 
ATOM     14  C   UNL     1     -46.850  38.672  26.535  1.00  0.00    -0.018 A 
ATOM     15  H   UNL     1     -45.561  40.234  25.745  1.00  0.00     0.065 H 
ATOM     16  H   UNL     1     -46.492  37.160  29.581  1.00  0.00     0.068 H 
ATOM     17  H   UNL     1     -47.460  38.680  25.638  1.00  0.00     0.066 H 
BRANCH   6  18
ATOM     18  N   UNL     1     -42.406  40.452  29.872  1.00  0.00    -0.369 N 
ATOM     19  H   UNL     1     -41.796  41.065  29.336  1.00  0.00     0.159 HD
ATOM     20  H   UNL     1     -41.878  39.828  30.472  1.00  0.00     0.159 HD
ENDBRANCH   6  18
ENDBRANCH   4   5
ENDBRANCH   1   4
BRANCH   1  21
ATOM     21  C   UNL     1     -47.531  34.557  27.426  1.00  0.00     0.123 C 
ATOM     22  O   UNL     1     -48.255  33.392  26.974  1.00  0.00    -0.345 OA
ATOM     23  C   UNL     1     -46.060  34.361  27.039  1.00  0.00     0.119 C 
ATOM     24  H   UNL     1     -47.630  34.598  28.515  1.00  0.00     0.067 H 
ATOM     25  C   UNL     1     -47.348  32.593  26.175  1.00  0.00     0.169 C 
ATOM     26  C   UNL     1     -46.161  33.477  25.818  1.00  0.00     0.173 C 
ATOM     27  H   UNL     1     -45.530  35.296  26.844  1.00  0.00     0.066 H 
ATOM     28  H   UNL     1     -47.043  31.750  26.807  1.00  0.00     0.088 H 
ATOM     29  F   UNL     1     -46.445  34.265  24.743  1.00  0.00    -0.239 F 
ATOM     30  H   UNL     1     -45.257  32.903  25.598  1.00  0.00     0.074 H 
BRANCH  23  31
ATOM     31  O   UNL     1     -45.356  33.658  28.070  1.00  0.00    -0.387 OA
ATOM     32  H   UNL     1     -44.403  33.807  27.927  1.00  0.00     0.211 HD
ENDBRANCH  23  31
BRANCH  25  33
ATOM     33  N   UNL     1     -48.042  32.048  25.022  1.00  0.00    -0.302 N 
ATOM     34  C   UNL     1     -49.392  32.084  24.768  1.00  0.00     0.023 A 
ATOM     35  C   UNL     1     -47.399  31.403  23.991  1.00  0.00     0.148 A 
ATOM     36  C   UNL     1     -49.595  31.455  23.563  1.00  0.00     0.049 A 
ATOM     37  H   UNL     1     -50.084  32.546  25.458  1.00  0.00     0.083 H 
ATOM     38  C   UNL     1     -48.349  31.017  23.051  1.00  0.00     0.075 A 
ATOM     39  N   UNL     1     -46.073  31.194  23.924  1.00  0.00    -0.218 NA
ATOM     40  Br  UNL     1     -51.261  31.215  22.733  1.00  0.00    -0.048 Br
ATOM     41  C   UNL     1     -47.867  30.341  21.920  1.00  0.00     0.137 A 
ATOM     42  C   UNL     1     -45.735  30.536  22.803  1.00  0.00     0.120 A 
ATOM     43  N   UNL     1     -46.543  30.100  21.819  1.00  0.00    -0.219 NA
ATOM     44  H   UNL     1     -44.677  30.328  22.672  1.00  0.00     0.106 H 
BRANCH  41  45
ATOM     45  N   UNL     1     -48.666  29.882  20.885  1.00  0.00    -0.383 N 
ATOM     46  H   UNL     1     -48.596  28.893  20.687  1.00  0.00     0.158 HD
ATOM     47  H   UNL     1     -48.653  30.515  20.096  1.00  0.00     0.158 HD
ENDBRANCH  41  45
ENDBRANCH  25  33
ENDBRANCH   1  21
TORSDOF 7
ENDMDL
MODEL 3
REMARK VINA RESULT:      -9.2      1.467      2.146
REMARK SMILES Nc1nc2ccc(OC[C@H]3O[C@@H](n4cc(Br)c5c(N)ncnc54)[C@@H](F)[C@@H]3O)cc2[nH]1
REMARK SMILES IDX 9 1 8 4 7 5 2 6 3 7 30 8 4 9 29 10 5 12 28 13 6 14 1 18
REMARK SMILES IDX 10 21 11 22 26 23 12 25 24 26 25 29 27 31 13 33 14 34 23 35
REMARK SMILES IDX 15 36 17 38 22 39 16 40 18 41 21 42 20 43 19 45
REMARK H PARENT 9 2 9 3 30 11 5 15 28 16 6 17 1 19 1 20 10 24 26 27 12 28
REMARK H PARENT 24 30 27 32 14 37 21 44 19 46 19 47
REMARK Flexibility Score: inf
ROOT
ATOM      1  C   UNL     1     -47.150  36.416  27.420  1.00  0.00     0.117 C 
ATOM      2  H   UNL     1     -48.161  36.074  27.670  1.00  0.00     0.073 H 
ATOM      3  H   UNL     1     -47.252  37.506  27.347  1.00  0.00     0.073 H 
ENDROOT
BRANCH   1   4
ATOM      4  O   UNL     1     -46.811  35.819  26.169  1.00  0.00    -0.491 OA
BRANCH   4   5
ATOM      5  C   UNL     1     -47.233  34.544  25.905  1.00  0.00     0.121 A 
ATOM      6  C   UNL     1     -46.838  30.390  24.120  1.00  0.00     0.198 A 
ATOM      7  N   UNL     1     -47.962  30.612  24.753  1.00  0.00    -0.213 NA
ATOM      8  N   UNL     1     -46.022  31.488  24.142  1.00  0.00    -0.324 N 
ATOM      9  C   UNL     1     -47.871  31.903  25.211  1.00  0.00     0.091 A 
ATOM     10  C   UNL     1     -46.664  32.479  24.837  1.00  0.00     0.071 A 
ATOM     11  H   UNL     1     -45.121  31.552  23.698  1.00  0.00     0.170 HD
ATOM     12  C   UNL     1     -48.784  32.660  25.957  1.00  0.00    -0.030 A 
ATOM     13  C   UNL     1     -46.310  33.790  25.163  1.00  0.00     0.006 A 
ATOM     14  C   UNL     1     -48.451  33.982  26.300  1.00  0.00    -0.018 A 
ATOM     15  H   UNL     1     -49.729  32.223  26.261  1.00  0.00     0.065 H 
ATOM     16  H   UNL     1     -45.359  34.217  24.859  1.00  0.00     0.068 H 
ATOM     17  H   UNL     1     -49.180  34.535  26.883  1.00  0.00     0.066 H 
BRANCH   6  18
ATOM     18  N   UNL     1     -46.464  29.262  23.502  1.00  0.00    -0.369 N 
ATOM     19  H   UNL     1     -47.136  28.926  22.815  1.00  0.00     0.159 HD
ATOM     20  H   UNL     1     -46.065  28.501  24.039  1.00  0.00     0.159 HD
ENDBRANCH   6  18
ENDBRANCH   4   5
ENDBRANCH   1   4
BRANCH   1  21
ATOM     21  C   UNL     1     -46.176  36.001  28.531  1.00  0.00     0.123 C 
ATOM     22  O   UNL     1     -44.936  36.719  28.350  1.00  0.00    -0.345 OA
ATOM     23  C   UNL     1     -46.691  36.324  29.939  1.00  0.00     0.119 C 
ATOM     24  H   UNL     1     -45.948  34.934  28.451  1.00  0.00     0.067 H 
ATOM     25  C   UNL     1     -44.768  37.600  29.488  1.00  0.00     0.169 C 
ATOM     26  C   UNL     1     -46.116  37.699  30.188  1.00  0.00     0.173 C 
ATOM     27  H   UNL     1     -47.780  36.297  30.025  1.00  0.00     0.066 H 
ATOM     28  H   UNL     1     -44.017  37.128  30.134  1.00  0.00     0.088 H 
ATOM     29  F   UNL     1     -46.918  38.614  29.574  1.00  0.00    -0.239 F 
ATOM     30  H   UNL     1     -46.027  37.970  31.243  1.00  0.00     0.074 H 
BRANCH  23  31
ATOM     31  O   UNL     1     -46.147  35.409  30.899  1.00  0.00    -0.387 OA
ATOM     32  H   UNL     1     -45.286  35.105  30.557  1.00  0.00     0.211 HD
ENDBRANCH  23  31
BRANCH  25  33
ATOM     33  N   UNL     1     -44.234  38.880  29.057  1.00  0.00    -0.302 N 
ATOM     34  C   UNL     1     -43.231  39.607  29.650  1.00  0.00     0.023 A 
ATOM     35  C   UNL     1     -44.689  39.550  27.945  1.00  0.00     0.148 A 
ATOM     36  C   UNL     1     -43.054  40.744  28.898  1.00  0.00     0.049 A 
ATOM     37  H   UNL     1     -42.735  39.258  30.546  1.00  0.00     0.083 H 
ATOM     38  C   UNL     1     -43.965  40.729  27.813  1.00  0.00     0.075 A 
ATOM     39  N   UNL     1     -45.669  39.116  27.134  1.00  0.00    -0.218 NA
ATOM     40  Br  UNL     1     -41.806  42.098  29.259  1.00  0.00    -0.048 Br
ATOM     41  C   UNL     1     -44.295  41.545  26.720  1.00  0.00     0.137 A 
ATOM     42  C   UNL     1     -45.898  39.981  26.133  1.00  0.00     0.120 A 
ATOM     43  N   UNL     1     -45.282  41.152  25.889  1.00  0.00    -0.219 NA
ATOM     44  H   UNL     1     -46.678  39.702  25.430  1.00  0.00     0.106 H 
BRANCH  41  45
ATOM     45  N   UNL     1     -43.681  42.754  26.434  1.00  0.00    -0.383 N 
ATOM     46  H   UNL     1     -42.672  42.725  26.371  1.00  0.00     0.158 HD
ATOM     47  H   UNL     1     -44.091  43.513  26.962  1.00  0.00     0.158 HD
ENDBRANCH  41  45
ENDBRANCH  25  33
ENDBRANCH   1  21
TORSDOF 7
ENDMDL
MODEL 4
REMARK VINA RESULT:      -9.2      1.998      2.507
REMARK SMILES Nc1nc2ccc(OC[C@H]3O[C@@H](n4cc(Br)c5c(N)ncnc54)[C@@H](F)[C@@H]3O)cc2[nH]1
REMARK SMILES IDX 9 1 8 4 7 5 2 6 3 7 30 8 4 9 29 10 5 12 28 13 6 14 1 18
REMARK SMILES IDX 10 21 11 22 26 23 12 25 24 26 25 29 27 31 13 33 14 34 23 35
REMARK SMILES IDX 15 36 17 38 22 39 16 40 18 41 21 42 20 43 19 45
REMARK H PARENT 9 2 9 3 30 11 5 15 28 16 6 17 1 19 1 20 10 24 26 27 12 28
REMARK H PARENT 24 30 27 32 14 37 21 44 19 46 19 47
REMARK Flexibility Score: inf
ROOT
ATOM      1  C   UNL     1     -46.519  35.290  26.378  1.00  0.00     0.117 C 
ATOM      2  H   UNL     1     -46.904  36.157  25.827  1.00  0.00     0.073 H 
ATOM      3  H   UNL     1     -45.755  34.874  25.710  1.00  0.00     0.073 H 
ENDROOT
BRANCH   1   4
ATOM      4  O   UNL     1     -47.619  34.400  26.564  1.00  0.00    -0.491 OA
BRANCH   4   5
ATOM      5  C   UNL     1     -47.684  33.257  25.814  1.00  0.00     0.121 A 
ATOM      6  C   UNL     1     -46.080  30.193  22.877  1.00  0.00     0.198 A 
ATOM      7  N   UNL     1     -47.293  29.958  23.308  1.00  0.00    -0.213 NA
ATOM      8  N   UNL     1     -45.562  31.335  23.423  1.00  0.00    -0.324 N 
ATOM      9  C   UNL     1     -47.573  30.986  24.174  1.00  0.00     0.091 A 
ATOM     10  C   UNL     1     -46.505  31.868  24.262  1.00  0.00     0.071 A 
ATOM     11  H   UNL     1     -44.655  31.721  23.216  1.00  0.00     0.170 HD
ATOM     12  C   UNL     1     -48.727  31.237  24.929  1.00  0.00    -0.030 A 
ATOM     13  C   UNL     1     -46.522  33.010  25.067  1.00  0.00     0.006 A 
ATOM     14  C   UNL     1     -48.769  32.377  25.748  1.00  0.00    -0.018 A 
ATOM     15  H   UNL     1     -49.568  30.554  24.875  1.00  0.00     0.065 H 
ATOM     16  H   UNL     1     -45.672  33.684  25.118  1.00  0.00     0.068 H 
ATOM     17  H   UNL     1     -49.676  32.536  26.322  1.00  0.00     0.066 H 
BRANCH   6  18
ATOM     18  N   UNL     1     -45.370  29.458  22.009  1.00  0.00    -0.369 N 
ATOM     19  H   UNL     1     -45.684  29.543  21.045  1.00  0.00     0.159 HD
ATOM     20  H   UNL     1     -45.125  28.502  22.241  1.00  0.00     0.159 HD
ENDBRANCH   6  18
ENDBRANCH   4   5
ENDBRANCH   1   4
BRANCH   1  21
ATOM     21  C   UNL     1     -45.927  35.751  27.716  1.00  0.00     0.123 C 
ATOM     22  O   UNL     1     -45.546  37.140  27.599  1.00  0.00    -0.345 OA
ATOM     23  C   UNL     1     -46.914  35.645  28.884  1.00  0.00     0.119 C 
ATOM     24  H   UNL     1     -45.018  35.184  27.940  1.00  0.00     0.067 H 
ATOM     25  C   UNL     1     -46.384  37.903  28.501  1.00  0.00     0.169 C 
ATOM     26  C   UNL     1     -47.555  37.013  28.894  1.00  0.00     0.173 C 
ATOM     27  H   UNL     1     -47.641  34.836  28.771  1.00  0.00     0.066 H 
ATOM     28  H   UNL     1     -45.759  38.148  29.368  1.00  0.00     0.088 H 
ATOM     29  F   UNL     1     -48.527  37.036  27.940  1.00  0.00    -0.239 F 
ATOM     30  H   UNL     1     -48.001  37.298  29.850  1.00  0.00     0.074 H 
BRANCH  23  31
ATOM     31  O   UNL     1     -46.216  35.445  30.120  1.00  0.00    -0.387 OA
ATOM     32  H   UNL     1     -45.472  36.074  30.140  1.00  0.00     0.211 HD
ENDBRANCH  23  31
BRANCH  25  33
ATOM     33  N   UNL     1     -46.781  39.155  27.879  1.00  0.00    -0.302 N 
ATOM     34  C   UNL     1     -48.042  39.693  27.822  1.00  0.00     0.023 A 
ATOM     35  C   UNL     1     -45.895  39.994  27.245  1.00  0.00     0.148 A 
ATOM     36  C   UNL     1     -47.944  40.887  27.146  1.00  0.00     0.049 A 
ATOM     37  H   UNL     1     -48.892  39.189  28.260  1.00  0.00     0.083 H 
ATOM     38  C   UNL     1     -46.594  41.099  26.772  1.00  0.00     0.075 A 
ATOM     39  N   UNL     1     -44.576  39.766  27.118  1.00  0.00    -0.218 NA
ATOM     40  Br  UNL     1     -49.375  42.044  26.776  1.00  0.00    -0.048 Br
ATOM     41  C   UNL     1     -45.842  42.070  26.095  1.00  0.00     0.137 A 
ATOM     42  C   UNL     1     -43.967  40.759  26.450  1.00  0.00     0.120 A 
ATOM     43  N   UNL     1     -44.517  41.874  25.935  1.00  0.00    -0.219 NA
ATOM     44  H   UNL     1     -42.896  40.650  26.305  1.00  0.00     0.106 H 
BRANCH  41  45
ATOM     45  N   UNL     1     -46.371  43.232  25.556  1.00  0.00    -0.383 N 
ATOM     46  H   UNL     1     -46.817  43.855  26.216  1.00  0.00     0.158 HD
ATOM     47  H   UNL     1     -46.859  43.051  24.688  1.00  0.00     0.158 HD
ENDBRANCH  41  45
ENDBRANCH  25  33
ENDBRANCH   1  21
TORSDOF 7
ENDMDL
MODEL 5
REMARK VINA RESULT:      -9.1      2.000      2.621
REMARK SMILES Nc1nc2ccc(OC[C@H]3O[C@@H](n4cc(Br)c5c(N)ncnc54)[C@@H](F)[C@@H]3O)cc2[nH]1
REMARK SMILES IDX 9 1 8 4 7 5 2 6 3 7 30 8 4 9 29 10 5 12 28 13 6 14 1 18
REMARK SMILES IDX 10 21 11 22 26 23 12 25 24 26 25 29 27 31 13 33 14 34 23 35
REMARK SMILES IDX 15 36 17 38 22 39 16 40 18 41 21 42 20 43 19 45
REMARK H PARENT 9 2 9 3 30 11 5 15 28 16 6 17 1 19 1 20 10 24 26 27 12 28
REMARK H PARENT 24 30 27 32 14 37 21 44 19 46 19 47
REMARK Flexibility Score: inf
ROOT
ATOM      1  C   UNL     1     -45.999  36.239  27.662  1.00  0.00     0.117 C 
ATOM      2  H   UNL     1     -44.987  36.639  27.533  1.00  0.00     0.073 H 
ATOM      3  H   UNL     1     -45.847  35.323  28.246  1.00  0.00     0.073 H 
ENDROOT
BRANCH   1   4
ATOM      4  O   UNL     1     -46.503  35.969  26.354  1.00  0.00    -0.491 OA
BRANCH   4   5
ATOM      5  C   UNL     1     -47.029  34.734  26.085  1.00  0.00     0.121 A 
ATOM      6  C   UNL     1     -46.973  30.562  24.301  1.00  0.00     0.198 A 
ATOM      7  N   UNL     1     -48.079  30.879  24.924  1.00  0.00    -0.213 NA
ATOM      8  N   UNL     1     -46.066  31.586  24.331  1.00  0.00    -0.324 N 
ATOM      9  C   UNL     1     -47.882  32.157  25.383  1.00  0.00     0.091 A 
ATOM     10  C   UNL     1     -46.627  32.629  25.021  1.00  0.00     0.071 A 
ATOM     11  H   UNL     1     -45.159  31.574  23.894  1.00  0.00     0.170 HD
ATOM     12  C   UNL     1     -48.734  32.989  26.122  1.00  0.00    -0.030 A 
ATOM     13  C   UNL     1     -46.166  33.905  25.350  1.00  0.00     0.006 A 
ATOM     14  C   UNL     1     -48.293  34.277  26.469  1.00  0.00    -0.018 A 
ATOM     15  H   UNL     1     -49.716  32.634  26.417  1.00  0.00     0.065 H 
ATOM     16  H   UNL     1     -45.180  34.250  25.055  1.00  0.00     0.068 H 
ATOM     17  H   UNL     1     -48.978  34.891  27.046  1.00  0.00     0.066 H 
BRANCH   6  18
ATOM     18  N   UNL     1     -46.690  29.406  23.685  1.00  0.00    -0.369 N 
ATOM     19  H   UNL     1     -45.764  29.042  23.896  1.00  0.00     0.159 HD
ATOM     20  H   UNL     1     -46.927  29.286  22.707  1.00  0.00     0.159 HD
ENDBRANCH   6  18
ENDBRANCH   4   5
ENDBRANCH   1   4
BRANCH   1  21
ATOM     21  C   UNL     1     -46.868  37.261  28.406  1.00  0.00     0.123 C 
ATOM     22  O   UNL     1     -46.015  38.315  28.905  1.00  0.00    -0.345 OA
ATOM     23  C   UNL     1     -47.932  37.914  27.517  1.00  0.00     0.119 C 
ATOM     24  H   UNL     1     -47.341  36.790  29.273  1.00  0.00     0.067 H 
ATOM     25  C   UNL     1     -46.385  39.538  28.222  1.00  0.00     0.169 C 
ATOM     26  C   UNL     1     -47.220  39.147  27.011  1.00  0.00     0.173 C 
ATOM     27  H   UNL     1     -48.286  37.268  26.710  1.00  0.00     0.066 H 
ATOM     28  H   UNL     1     -46.972  40.126  28.939  1.00  0.00     0.088 H 
ATOM     29  F   UNL     1     -46.424  38.782  25.967  1.00  0.00    -0.239 F 
ATOM     30  H   UNL     1     -47.883  39.949  26.676  1.00  0.00     0.074 H 
BRANCH  23  31
ATOM     31  O   UNL     1     -49.066  38.315  28.295  1.00  0.00    -0.387 OA
ATOM     32  H   UNL     1     -48.871  38.102  29.227  1.00  0.00     0.211 HD
ENDBRANCH  23  31
BRANCH  25  33
ATOM     33  N   UNL     1     -45.197  40.308  27.893  1.00  0.00    -0.302 N 
ATOM     34  C   UNL     1     -43.913  40.080  28.321  1.00  0.00     0.023 A 
ATOM     35  C   UNL     1     -45.217  41.409  27.068  1.00  0.00     0.148 A 
ATOM     36  C   UNL     1     -43.119  41.049  27.755  1.00  0.00     0.049 A 
ATOM     37  H   UNL     1     -43.675  39.260  28.984  1.00  0.00     0.083 H 
ATOM     38  C   UNL     1     -43.922  41.901  26.957  1.00  0.00     0.075 A 
ATOM     39  N   UNL     1     -46.318  41.906  26.477  1.00  0.00    -0.218 NA
ATOM     40  Br  UNL     1     -41.266  41.216  28.007  1.00  0.00    -0.048 Br
ATOM     41  C   UNL     1     -43.753  43.031  26.144  1.00  0.00     0.137 A 
ATOM     42  C   UNL     1     -46.030  42.986  25.733  1.00  0.00     0.120 A 
ATOM     43  N   UNL     1     -44.833  43.569  25.542  1.00  0.00    -0.219 NA
ATOM     44  H   UNL     1     -46.869  43.448  25.219  1.00  0.00     0.106 H 
BRANCH  41  45
ATOM     45  N   UNL     1     -42.536  43.656  25.920  1.00  0.00    -0.383 N 
ATOM     46  H   UNL     1     -42.493  44.632  26.183  1.00  0.00     0.158 HD
ATOM     47  H   UNL     1     -42.147  43.401  25.021  1.00  0.00     0.158 HD
ENDBRANCH  41  45
ENDBRANCH  25  33
ENDBRANCH   1  21
TORSDOF 7
ENDMDL
MODEL 6
REMARK VINA RESULT:      -9.1      1.866      2.340
REMARK SMILES Nc1nc2ccc(OC[C@H]3O[C@@H](n4cc(Br)c5c(N)ncnc54)[C@@H](F)[C@@H]3O)cc2[nH]1
REMARK SMILES IDX 9 1 8 4 7 5 2 6 3 7 30 8 4 9 29 10 5 12 28 13 6 14 1 18
REMARK SMILES IDX 10 21 11 22 26 23 12 25 24 26 25 29 27 31 13 33 14 34 23 35
REMARK SMILES IDX 15 36 17 38 22 39 16 40 18 41 21 42 20 43 19 45
REMARK H PARENT 9 2 9 3 30 11 5 15 28 16 6 17 1 19 1 20 10 24 26 27 12 28
REMARK H PARENT 24 30 27 32 14 37 21 44 19 46 19 47
REMARK Flexibility Score: inf
ROOT
ATOM      1  C   UNL     1     -45.619  37.069  28.259  1.00  0.00     0.117 C 
ATOM      2  H   UNL     1     -45.541  37.066  27.166  1.00  0.00     0.073 H 
ATOM      3  H   UNL     1     -44.587  37.228  28.595  1.00  0.00     0.073 H 
ENDROOT
BRANCH   1   4
ATOM      4  O   UNL     1     -46.119  35.787  28.639  1.00  0.00    -0.491 OA
BRANCH   4   5
ATOM      5  C   UNL     1     -46.674  34.980  27.683  1.00  0.00     0.121 A 
ATOM      6  C   UNL     1     -46.585  31.735  24.513  1.00  0.00     0.198 A 
ATOM      7  N   UNL     1     -47.752  32.301  24.687  1.00  0.00    -0.213 NA
ATOM      8  N   UNL     1     -45.638  32.264  25.345  1.00  0.00    -0.324 N 
ATOM      9  C   UNL     1     -47.558  33.232  25.677  1.00  0.00     0.091 A 
ATOM     10  C   UNL     1     -46.237  33.234  26.106  1.00  0.00     0.071 A 
ATOM     11  H   UNL     1     -44.667  31.998  25.367  1.00  0.00     0.170 HD
ATOM     12  C   UNL     1     -48.466  34.121  26.267  1.00  0.00    -0.030 A 
ATOM     13  C   UNL     1     -45.759  34.089  27.102  1.00  0.00     0.006 A 
ATOM     14  C   UNL     1     -48.011  34.990  27.273  1.00  0.00    -0.018 A 
ATOM     15  H   UNL     1     -49.502  34.128  25.946  1.00  0.00     0.065 H 
ATOM     16  H   UNL     1     -44.721  34.070  27.420  1.00  0.00     0.068 H 
ATOM     17  H   UNL     1     -48.744  35.659  27.711  1.00  0.00     0.066 H 
BRANCH   6  18
ATOM     18  N   UNL     1     -46.278  30.759  23.647  1.00  0.00    -0.369 N 
ATOM     19  H   UNL     1     -45.278  30.635  23.504  1.00  0.00     0.159 HD
ATOM     20  H   UNL     1     -46.795  30.674  22.779  1.00  0.00     0.159 HD
ENDBRANCH   6  18
ENDBRANCH   4   5
ENDBRANCH   1   4
BRANCH   1  21
ATOM     21  C   UNL     1     -46.552  38.200  28.707  1.00  0.00     0.123 C 
ATOM     22  O   UNL     1     -45.816  39.443  28.687  1.00  0.00    -0.345 OA
ATOM     23  C   UNL     1     -47.772  38.376  27.795  1.00  0.00     0.119 C 
ATOM     24  H   UNL     1     -46.877  38.033  29.739  1.00  0.00     0.067 H 
ATOM     25  C   UNL     1     -46.412  40.290  27.674  1.00  0.00     0.169 C 
ATOM     26  C   UNL     1     -47.287  39.404  26.799  1.00  0.00     0.173 C 
ATOM     27  H   UNL     1     -48.102  37.449  27.321  1.00  0.00     0.066 H 
ATOM     28  H   UNL     1     -47.010  41.037  28.211  1.00  0.00     0.088 H 
ATOM     29  F   UNL     1     -46.544  38.764  25.853  1.00  0.00    -0.239 F 
ATOM     30  H   UNL     1     -48.083  39.959  26.296  1.00  0.00     0.074 H 
BRANCH  23  31
ATOM     31  O   UNL     1     -48.878  38.918  28.527  1.00  0.00    -0.387 OA
ATOM     32  H   UNL     1     -49.243  38.202  29.078  1.00  0.00     0.211 HD
ENDBRANCH  23  31
BRANCH  25  33
ATOM     33  N   UNL     1     -45.377  41.000  26.942  1.00  0.00    -0.302 N 
ATOM     34  C   UNL     1     -45.489  41.596  25.709  1.00  0.00     0.023 A 
ATOM     35  C   UNL     1     -44.100  41.174  27.421  1.00  0.00     0.148 A 
ATOM     36  C   UNL     1     -44.266  42.152  25.415  1.00  0.00     0.049 A 
ATOM     37  H   UNL     1     -46.416  41.574  25.153  1.00  0.00     0.083 H 
ATOM     38  C   UNL     1     -43.371  41.898  26.484  1.00  0.00     0.075 A 
ATOM     39  N   UNL     1     -43.653  40.713  28.602  1.00  0.00    -0.218 NA
ATOM     40  Br  UNL     1     -43.853  43.091  23.844  1.00  0.00    -0.048 Br
ATOM     41  C   UNL     1     -42.035  42.174  26.811  1.00  0.00     0.137 A 
ATOM     42  C   UNL     1     -42.363  41.034  28.799  1.00  0.00     0.120 A 
ATOM     43  N   UNL     1     -41.543  41.719  27.982  1.00  0.00    -0.219 NA
ATOM     44  H   UNL     1     -41.925  40.697  29.735  1.00  0.00     0.106 H 
BRANCH  41  45
ATOM     45  N   UNL     1     -41.162  42.880  25.998  1.00  0.00    -0.383 N 
ATOM     46  H   UNL     1     -41.548  43.705  25.558  1.00  0.00     0.158 HD
ATOM     47  H   UNL     1     -40.610  42.261  25.419  1.00  0.00     0.158 HD
ENDBRANCH  41  45
ENDBRANCH  25  33
ENDBRANCH   1  21
TORSDOF 7
ENDMDL
MODEL 7
REMARK VINA RESULT:      -8.8      5.284     11.243
REMARK SMILES Nc1nc2ccc(OC[C@H]3O[C@@H](n4cc(Br)c5c(N)ncnc54)[C@@H](F)[C@@H]3O)cc2[nH]1
REMARK SMILES IDX 9 1 8 4 7 5 2 6 3 7 30 8 4 9 29 10 5 12 28 13 6 14 1 18
REMARK SMILES IDX 10 21 11 22 26 23 12 25 24 26 25 29 27 31 13 33 14 34 23 35
REMARK SMILES IDX 15 36 17 38 22 39 16 40 18 41 21 42 20 43 19 45
REMARK H PARENT 9 2 9 3 30 11 5 15 28 16 6 17 1 19 1 20 10 24 26 27 12 28
REMARK H PARENT 24 30 27 32 14 37 21 44 19 46 19 47
REMARK Flexibility Score: inf
ROOT
ATOM      1  C   UNL     1     -46.789  32.240  23.995  1.00  0.00     0.117 C 
ATOM      2  H   UNL     1     -46.378  33.183  23.615  1.00  0.00     0.073 H 
ATOM      3  H   UNL     1     -47.861  32.313  23.774  1.00  0.00     0.073 H 
ENDROOT
BRANCH   1   4
ATOM      4  O   UNL     1     -46.526  32.212  25.397  1.00  0.00    -0.491 OA
BRANCH   4   5
ATOM      5  C   UNL     1     -46.922  33.269  26.170  1.00  0.00     0.121 A 
ATOM      6  C   UNL     1     -46.466  36.273  29.541  1.00  0.00     0.198 A 
ATOM      7  N   UNL     1     -47.581  36.372  28.863  1.00  0.00    -0.213 NA
ATOM      8  N   UNL     1     -45.675  35.263  29.066  1.00  0.00    -0.324 N 
ATOM      9  C   UNL     1     -47.511  35.391  27.906  1.00  0.00     0.091 A 
ATOM     10  C   UNL     1     -46.326  34.675  28.012  1.00  0.00     0.071 A 
ATOM     11  H   UNL     1     -44.785  34.990  29.449  1.00  0.00     0.170 HD
ATOM     12  C   UNL     1     -48.426  35.045  26.903  1.00  0.00    -0.030 A 
ATOM     13  C   UNL     1     -45.997  33.612  27.168  1.00  0.00     0.006 A 
ATOM     14  C   UNL     1     -48.118  33.982  26.038  1.00  0.00    -0.018 A 
ATOM     15  H   UNL     1     -49.354  35.598  26.803  1.00  0.00     0.065 H 
ATOM     16  H   UNL     1     -45.063  33.068  27.272  1.00  0.00     0.068 H 
ATOM     17  H   UNL     1     -48.847  33.747  25.270  1.00  0.00     0.066 H 
BRANCH   6  18
ATOM     18  N   UNL     1     -46.078  37.025  30.580  1.00  0.00    -0.369 N 
ATOM     19  H   UNL     1     -45.179  36.753  30.973  1.00  0.00     0.159 HD
ATOM     20  H   UNL     1     -46.745  37.268  31.303  1.00  0.00     0.159 HD
ENDBRANCH   6  18
ENDBRANCH   4   5
ENDBRANCH   1   4
BRANCH   1  21
ATOM     21  C   UNL     1     -46.129  31.061  23.268  1.00  0.00     0.123 C 
ATOM     22  O   UNL     1     -46.567  29.832  23.888  1.00  0.00    -0.345 OA
ATOM     23  C   UNL     1     -46.500  30.981  21.782  1.00  0.00     0.119 C 
ATOM     24  H   UNL     1     -45.042  31.111  23.381  1.00  0.00     0.067 H 
ATOM     25  C   UNL     1     -47.344  29.099  22.910  1.00  0.00     0.169 C 
ATOM     26  C   UNL     1     -47.706  30.072  21.797  1.00  0.00     0.173 C 
ATOM     27  H   UNL     1     -46.707  31.954  21.329  1.00  0.00     0.066 H 
ATOM     28  H   UNL     1     -46.695  28.294  22.542  1.00  0.00     0.088 H 
ATOM     29  F   UNL     1     -48.797  30.816  22.135  1.00  0.00    -0.239 F 
ATOM     30  H   UNL     1     -47.909  29.572  20.846  1.00  0.00     0.074 H 
BRANCH  23  31
ATOM     31  O   UNL     1     -45.451  30.356  21.032  1.00  0.00    -0.387 OA
ATOM     32  H   UNL     1     -45.109  29.616  21.567  1.00  0.00     0.211 HD
ENDBRANCH  23  31
BRANCH  25  33
ATOM     33  N   UNL     1     -48.494  28.479  23.546  1.00  0.00    -0.302 N 
ATOM     34  C   UNL     1     -49.818  28.661  23.232  1.00  0.00     0.023 A 
ATOM     35  C   UNL     1     -48.389  27.586  24.587  1.00  0.00     0.148 A 
ATOM     36  C   UNL     1     -50.551  27.871  24.086  1.00  0.00     0.049 A 
ATOM     37  H   UNL     1     -50.124  29.330  22.438  1.00  0.00     0.083 H 
ATOM     38  C   UNL     1     -49.667  27.181  24.952  1.00  0.00     0.075 A 
ATOM     39  N   UNL     1     -47.231  27.186  25.142  1.00  0.00    -0.218 NA
ATOM     40  Br  UNL     1     -52.423  27.736  24.101  1.00  0.00    -0.048 Br
ATOM     41  C   UNL     1     -49.752  26.259  26.007  1.00  0.00     0.137 A 
ATOM     42  C   UNL     1     -47.441  26.312  26.140  1.00  0.00     0.120 A 
ATOM     43  N   UNL     1     -48.615  25.841  26.599  1.00  0.00    -0.219 NA
ATOM     44  H   UNL     1     -46.553  25.939  26.642  1.00  0.00     0.106 H 
BRANCH  41  45
ATOM     45  N   UNL     1     -50.940  25.748  26.503  1.00  0.00    -0.383 N 
ATOM     46  H   UNL     1     -51.438  26.349  27.147  1.00  0.00     0.158 HD
ATOM     47  H   UNL     1     -50.848  24.773  26.757  1.00  0.00     0.158 HD
ENDBRANCH  41  45
ENDBRANCH  25  33
ENDBRANCH   1  21
TORSDOF 7
ENDMDL
