MODEL 1
REMARK VINA RESULT:      -7.1      0.000      0.000
REMARK SMILES CN(C)c1cc(N2CCC3(CC2)CN(c2ccc(CN4CCC(C)(C)CC4)cc2)CC(=O)N3)ncn1
REMARK SMILES IDX 7 1 8 2 9 3 10 4 11 5 12 6 13 7 14 8 30 9 31 10 32 11 33 12
REMARK SMILES IDX 6 26 4 27 5 28 36 29 35 31 34 32 2 34 1 35 3 39 15 43 16 44
REMARK SMILES IDX 29 45 17 46 28 48 18 50 19 53 20 56 21 57 27 58 22 59 26 62
REMARK SMILES IDX 23 65 24 70 25 74
REMARK H PARENT 8 13 8 14 9 15 9 16 11 17 11 18 12 19 12 20 13 21 13 22 30 23
REMARK H PARENT 30 24 33 25 5 30 35 33 1 36 1 37 1 38 3 40 3 41 3 42 16 47
REMARK H PARENT 29 49 17 51 28 52 19 54 19 55 21 60 21 61 27 63 27 64 22 66
REMARK H PARENT 22 67 26 68 26 69 24 71 24 72 24 73 25 75 25 76 25 77
REMARK Flexibility Score: inf
ROOT
ATOM      1  N   UNL     1     -44.108  40.837  26.891  1.00  0.00    -0.356 N 
ATOM      2  C   UNL     1     -43.850  39.507  26.342  1.00  0.00     0.021 C 
ATOM      3  C   UNL     1     -44.778  38.490  27.014  1.00  0.00    -0.010 C 
ATOM      4  C   UNL     1     -45.186  38.875  28.462  1.00  0.00     0.061 C 
ATOM      5  C   UNL     1     -44.063  39.718  29.099  1.00  0.00    -0.010 C 
ATOM      6  C   UNL     1     -43.735  40.990  28.305  1.00  0.00     0.021 C 
ATOM      7  C   UNL     1     -45.396  37.595  29.335  1.00  0.00     0.042 C 
ATOM      8  N   UNL     1     -46.647  36.890  28.984  1.00  0.00    -0.360 N 
ATOM      9  C   UNL     1     -47.842  37.755  29.109  1.00  0.00     0.097 C 
ATOM     10  C   UNL     1     -47.681  39.114  28.415  1.00  0.00     0.240 C 
ATOM     11  O   UNL     1     -48.635  39.738  27.955  1.00  0.00    -0.273 OA
ATOM     12  N   UNL     1     -46.427  39.680  28.426  1.00  0.00    -0.347 N 
ATOM     13  H   UNL     1     -42.802  39.234  26.523  1.00  0.00     0.049 H 
ATOM     14  H   UNL     1     -44.001  39.441  25.259  1.00  0.00     0.049 H 
ATOM     15  H   UNL     1     -45.674  38.375  26.390  1.00  0.00     0.031 H 
ATOM     16  H   UNL     1     -44.260  37.523  26.995  1.00  0.00     0.031 H 
ATOM     17  H   UNL     1     -44.315  40.001  30.128  1.00  0.00     0.031 H 
ATOM     18  H   UNL     1     -43.153  39.106  29.166  1.00  0.00     0.031 H 
ATOM     19  H   UNL     1     -42.665  41.201  28.427  1.00  0.00     0.049 H 
ATOM     20  H   UNL     1     -44.296  41.829  28.735  1.00  0.00     0.049 H 
ATOM     21  H   UNL     1     -45.485  37.893  30.389  1.00  0.00     0.052 H 
ATOM     22  H   UNL     1     -44.514  36.945  29.288  1.00  0.00     0.052 H 
ATOM     23  H   UNL     1     -48.750  37.258  28.750  1.00  0.00     0.060 H 
ATOM     24  H   UNL     1     -48.004  37.965  30.174  1.00  0.00     0.060 H 
ATOM     25  H   UNL     1     -46.382  40.539  27.885  1.00  0.00     0.164 HD
ENDROOT
BRANCH   1  26
ATOM     26  C   UNL     1     -43.726  41.918  26.077  1.00  0.00     0.134 A 
ATOM     27  C   UNL     1     -44.195  43.466  24.313  1.00  0.00     0.133 A 
ATOM     28  C   UNL     1     -44.588  42.390  25.096  1.00  0.00     0.023 A 
ATOM     29  N   UNL     1     -43.014  44.065  24.526  1.00  0.00    -0.219 NA
ATOM     30  H   UNL     1     -45.573  41.962  24.981  1.00  0.00     0.070 H 
ATOM     31  C   UNL     1     -42.256  43.567  25.509  1.00  0.00     0.120 A 
ATOM     32  N   UNL     1     -42.549  42.524  26.294  1.00  0.00    -0.219 NA
ATOM     33  H   UNL     1     -41.306  44.059  25.688  1.00  0.00     0.106 H 
BRANCH  27  34
ATOM     34  N   UNL     1     -45.061  43.964  23.313  1.00  0.00    -0.363 N 
BRANCH  34  35
ATOM     35  C   UNL     1     -46.169  44.753  23.851  1.00  0.00     0.008 C 
ATOM     36  H   UNL     1     -46.214  45.724  23.344  1.00  0.00     0.046 H 
ATOM     37  H   UNL     1     -47.132  44.263  23.671  1.00  0.00     0.046 H 
ATOM     38  H   UNL     1     -46.050  44.943  24.924  1.00  0.00     0.046 H 
ENDBRANCH  34  35
BRANCH  34  39
ATOM     39  C   UNL     1     -44.359  44.594  22.196  1.00  0.00     0.008 C 
ATOM     40  H   UNL     1     -45.029  45.244  21.620  1.00  0.00     0.046 H 
ATOM     41  H   UNL     1     -43.968  43.829  21.516  1.00  0.00     0.046 H 
ATOM     42  H   UNL     1     -43.495  45.179  22.528  1.00  0.00     0.046 H 
ENDBRANCH  34  39
ENDBRANCH  27  34
ENDBRANCH   1  26
BRANCH   8  43
ATOM     43  C   UNL     1     -46.573  35.954  27.949  1.00  0.00     0.037 A 
ATOM     44  C   UNL     1     -45.609  34.935  28.003  1.00  0.00    -0.038 A 
ATOM     45  C   UNL     1     -47.426  35.961  26.837  1.00  0.00    -0.038 A 
ATOM     46  C   UNL     1     -45.477  33.983  26.983  1.00  0.00    -0.056 A 
ATOM     47  H   UNL     1     -44.956  34.852  28.869  1.00  0.00     0.064 H 
ATOM     48  C   UNL     1     -47.298  35.017  25.810  1.00  0.00    -0.056 A 
ATOM     49  H   UNL     1     -48.194  36.720  26.718  1.00  0.00     0.064 H 
ATOM     50  C   UNL     1     -46.316  34.022  25.868  1.00  0.00    -0.034 A 
ATOM     51  H   UNL     1     -44.716  33.213  27.074  1.00  0.00     0.063 H 
ATOM     52  H   UNL     1     -47.965  35.070  24.952  1.00  0.00     0.063 H 
BRANCH  50  53
ATOM     53  C   UNL     1     -46.187  33.003  24.758  1.00  0.00     0.023 C 
ATOM     54  H   UNL     1     -45.423  32.285  25.086  1.00  0.00     0.048 H 
ATOM     55  H   UNL     1     -45.795  33.473  23.846  1.00  0.00     0.048 H 
BRANCH  53  56
ATOM     56  N   UNL     1     -47.445  32.299  24.470  1.00  0.00    -0.299 NA
ATOM     57  C   UNL     1     -48.001  31.705  25.695  1.00  0.00    -0.001 C 
ATOM     58  C   UNL     1     -47.317  31.311  23.402  1.00  0.00    -0.001 C 
ATOM     59  C   UNL     1     -48.948  30.522  25.440  1.00  0.00    -0.035 C 
ATOM     60  H   UNL     1     -47.205  31.350  26.363  1.00  0.00     0.043 H 
ATOM     61  H   UNL     1     -48.542  32.489  26.239  1.00  0.00     0.043 H 
ATOM     62  C   UNL     1     -48.705  30.830  22.948  1.00  0.00    -0.035 C 
ATOM     63  H   UNL     1     -46.814  31.727  22.521  1.00  0.00     0.043 H 
ATOM     64  H   UNL     1     -46.710  30.457  23.733  1.00  0.00     0.043 H 
ATOM     65  C   UNL     1     -49.716  30.638  24.109  1.00  0.00    -0.033 C 
ATOM     66  H   UNL     1     -48.354  29.599  25.430  1.00  0.00     0.029 H 
ATOM     67  H   UNL     1     -49.644  30.428  26.283  1.00  0.00     0.029 H 
ATOM     68  H   UNL     1     -49.111  31.543  22.216  1.00  0.00     0.029 H 
ATOM     69  H   UNL     1     -48.563  29.890  22.399  1.00  0.00     0.029 H 
BRANCH  65  70
ATOM     70  C   UNL     1     -50.533  29.354  23.877  1.00  0.00    -0.060 C 
ATOM     71  H   UNL     1     -50.036  28.484  24.321  1.00  0.00     0.024 H 
ATOM     72  H   UNL     1     -50.663  29.153  22.808  1.00  0.00     0.024 H 
ATOM     73  H   UNL     1     -51.530  29.435  24.325  1.00  0.00     0.024 H 
ENDBRANCH  65  70
BRANCH  65  74
ATOM     74  C   UNL     1     -50.700  31.824  24.159  1.00  0.00    -0.060 C 
ATOM     75  H   UNL     1     -50.164  32.774  24.266  1.00  0.00     0.024 H 
ATOM     76  H   UNL     1     -51.316  31.890  23.257  1.00  0.00     0.024 H 
ATOM     77  H   UNL     1     -51.382  31.731  25.013  1.00  0.00     0.024 H 
ENDBRANCH  65  74
ENDBRANCH  53  56
ENDBRANCH  50  53
ENDBRANCH   8  43
TORSDOF 9
ENDMDL
MODEL 2
REMARK VINA RESULT:      -6.9      1.760     10.295
REMARK SMILES CN(C)c1cc(N2CCC3(CC2)CN(c2ccc(CN4CCC(C)(C)CC4)cc2)CC(=O)N3)ncn1
REMARK SMILES IDX 7 1 8 2 9 3 10 4 11 5 12 6 13 7 14 8 30 9 31 10 32 11 33 12
REMARK SMILES IDX 6 26 4 27 5 28 36 29 35 31 34 32 2 34 1 35 3 39 15 43 16 44
REMARK SMILES IDX 29 45 17 46 28 48 18 50 19 53 20 56 21 57 27 58 22 59 26 62
REMARK SMILES IDX 23 65 24 70 25 74
REMARK H PARENT 8 13 8 14 9 15 9 16 11 17 11 18 12 19 12 20 13 21 13 22 30 23
REMARK H PARENT 30 24 33 25 5 30 35 33 1 36 1 37 1 38 3 40 3 41 3 42 16 47
REMARK H PARENT 29 49 17 51 28 52 19 54 19 55 21 60 21 61 27 63 27 64 22 66
REMARK H PARENT 22 67 26 68 26 69 24 71 24 72 24 73 25 75 25 76 25 77
REMARK Flexibility Score: inf
ROOT
ATOM      1  N   UNL     1     -47.626  34.527  26.312  1.00  0.00    -0.356 N 
ATOM      2  C   UNL     1     -47.117  35.699  25.603  1.00  0.00     0.021 C 
ATOM      3  C   UNL     1     -46.916  36.848  26.596  1.00  0.00    -0.010 C 
ATOM      4  C   UNL     1     -47.877  36.798  27.816  1.00  0.00     0.061 C 
ATOM      5  C   UNL     1     -49.191  36.108  27.398  1.00  0.00    -0.010 C 
ATOM      6  C   UNL     1     -48.983  34.689  26.851  1.00  0.00     0.021 C 
ATOM      7  C   UNL     1     -48.215  38.241  28.312  1.00  0.00     0.042 C 
ATOM      8  N   UNL     1     -47.073  38.861  29.017  1.00  0.00    -0.360 N 
ATOM      9  C   UNL     1     -46.611  38.055  30.169  1.00  0.00     0.097 C 
ATOM     10  C   UNL     1     -46.397  36.575  29.827  1.00  0.00     0.240 C 
ATOM     11  O   UNL     1     -45.578  35.872  30.414  1.00  0.00    -0.273 OA
ATOM     12  N   UNL     1     -47.251  36.015  28.904  1.00  0.00    -0.347 N 
ATOM     13  H   UNL     1     -47.835  35.998  24.827  1.00  0.00     0.049 H 
ATOM     14  H   UNL     1     -46.166  35.525  25.089  1.00  0.00     0.049 H 
ATOM     15  H   UNL     1     -45.874  36.830  26.940  1.00  0.00     0.031 H 
ATOM     16  H   UNL     1     -47.041  37.783  26.035  1.00  0.00     0.031 H 
ATOM     17  H   UNL     1     -49.898  36.062  28.236  1.00  0.00     0.031 H 
ATOM     18  H   UNL     1     -49.679  36.712  26.620  1.00  0.00     0.031 H 
ATOM     19  H   UNL     1     -49.752  34.501  26.091  1.00  0.00     0.049 H 
ATOM     20  H   UNL     1     -49.133  33.970  27.667  1.00  0.00     0.049 H 
ATOM     21  H   UNL     1     -49.042  38.186  29.035  1.00  0.00     0.052 H 
ATOM     22  H   UNL     1     -48.591  38.857  27.486  1.00  0.00     0.052 H 
ATOM     23  H   UNL     1     -45.703  38.468  30.623  1.00  0.00     0.060 H 
ATOM     24  H   UNL     1     -47.387  38.089  30.945  1.00  0.00     0.060 H 
ATOM     25  H   UNL     1     -47.001  35.057  28.674  1.00  0.00     0.164 HD
ENDROOT
BRANCH   1  26
ATOM     26  C   UNL     1     -47.401  33.289  25.684  1.00  0.00     0.134 A 
ATOM     27  C   UNL     1     -48.141  31.096  25.076  1.00  0.00     0.133 A 
ATOM     28  C   UNL     1     -48.379  32.305  25.714  1.00  0.00     0.023 A 
ATOM     29  N   UNL     1     -46.995  30.896  24.408  1.00  0.00    -0.219 NA
ATOM     30  H   UNL     1     -49.335  32.498  26.180  1.00  0.00     0.070 H 
ATOM     31  C   UNL     1     -46.117  31.905  24.403  1.00  0.00     0.120 A 
ATOM     32  N   UNL     1     -46.260  33.090  25.007  1.00  0.00    -0.219 NA
ATOM     33  H   UNL     1     -45.196  31.746  23.853  1.00  0.00     0.106 H 
BRANCH  27  34
ATOM     34  N   UNL     1     -49.127  30.084  25.091  1.00  0.00    -0.363 N 
BRANCH  34  35
ATOM     35  C   UNL     1     -50.118  30.229  24.026  1.00  0.00     0.008 C 
ATOM     36  H   UNL     1     -50.282  31.292  23.813  1.00  0.00     0.046 H 
ATOM     37  H   UNL     1     -49.769  29.775  23.091  1.00  0.00     0.046 H 
ATOM     38  H   UNL     1     -51.084  29.792  24.306  1.00  0.00     0.046 H 
ENDBRANCH  34  35
BRANCH  34  39
ATOM     39  C   UNL     1     -48.576  28.736  25.222  1.00  0.00     0.008 C 
ATOM     40  H   UNL     1     -49.300  27.976  24.899  1.00  0.00     0.046 H 
ATOM     41  H   UNL     1     -48.321  28.533  26.268  1.00  0.00     0.046 H 
ATOM     42  H   UNL     1     -47.651  28.611  24.651  1.00  0.00     0.046 H 
ENDBRANCH  34  39
ENDBRANCH  27  34
ENDBRANCH   1  26
BRANCH   8  43
ATOM     43  C   UNL     1     -46.143  39.543  28.229  1.00  0.00     0.037 A 
ATOM     44  C   UNL     1     -46.590  40.374  27.189  1.00  0.00    -0.038 A 
ATOM     45  C   UNL     1     -44.757  39.458  28.420  1.00  0.00    -0.038 A 
ATOM     46  C   UNL     1     -45.700  41.064  26.355  1.00  0.00    -0.056 A 
ATOM     47  H   UNL     1     -47.656  40.516  27.030  1.00  0.00     0.064 H 
ATOM     48  C   UNL     1     -43.860  40.141  27.589  1.00  0.00    -0.056 A 
ATOM     49  H   UNL     1     -44.331  38.833  29.199  1.00  0.00     0.064 H 
ATOM     50  C   UNL     1     -44.322  40.945  26.541  1.00  0.00    -0.034 A 
ATOM     51  H   UNL     1     -46.098  41.697  25.566  1.00  0.00     0.063 H 
ATOM     52  H   UNL     1     -42.790  40.031  27.756  1.00  0.00     0.063 H 
BRANCH  50  53
ATOM     53  C   UNL     1     -43.347  41.684  25.651  1.00  0.00     0.023 C 
ATOM     54  H   UNL     1     -43.112  41.003  24.820  1.00  0.00     0.048 H 
ATOM     55  H   UNL     1     -42.401  41.862  26.179  1.00  0.00     0.048 H 
BRANCH  53  56
ATOM     56  N   UNL     1     -43.886  42.946  25.125  1.00  0.00    -0.299 NA
ATOM     57  C   UNL     1     -43.909  42.930  23.655  1.00  0.00    -0.001 C 
ATOM     58  C   UNL     1     -43.193  44.123  25.641  1.00  0.00    -0.001 C 
ATOM     59  C   UNL     1     -43.904  44.328  23.016  1.00  0.00    -0.035 C 
ATOM     60  H   UNL     1     -43.050  42.381  23.248  1.00  0.00     0.043 H 
ATOM     61  H   UNL     1     -44.808  42.391  23.333  1.00  0.00     0.043 H 
ATOM     62  C   UNL     1     -43.978  45.400  25.299  1.00  0.00    -0.035 C 
ATOM     63  H   UNL     1     -43.090  44.089  26.732  1.00  0.00     0.043 H 
ATOM     64  H   UNL     1     -42.175  44.185  25.234  1.00  0.00     0.043 H 
ATOM     65  C   UNL     1     -44.609  45.391  23.882  1.00  0.00    -0.033 C 
ATOM     66  H   UNL     1     -42.861  44.633  22.858  1.00  0.00     0.029 H 
ATOM     67  H   UNL     1     -44.362  44.272  22.020  1.00  0.00     0.029 H 
ATOM     68  H   UNL     1     -44.764  45.552  26.054  1.00  0.00     0.029 H 
ATOM     69  H   UNL     1     -43.291  46.248  25.411  1.00  0.00     0.029 H 
BRANCH  65  70
ATOM     70  C   UNL     1     -44.440  46.775  23.230  1.00  0.00    -0.060 C 
ATOM     71  H   UNL     1     -44.451  46.701  22.136  1.00  0.00     0.024 H 
ATOM     72  H   UNL     1     -43.491  47.237  23.521  1.00  0.00     0.024 H 
ATOM     73  H   UNL     1     -45.248  47.453  23.528  1.00  0.00     0.024 H 
ENDBRANCH  65  70
BRANCH  65  74
ATOM     74  C   UNL     1     -46.119  45.092  23.973  1.00  0.00    -0.060 C 
ATOM     75  H   UNL     1     -46.673  45.968  24.327  1.00  0.00     0.024 H 
ATOM     76  H   UNL     1     -46.542  44.799  23.007  1.00  0.00     0.024 H 
ATOM     77  H   UNL     1     -46.314  44.272  24.675  1.00  0.00     0.024 H 
ENDBRANCH  65  74
ENDBRANCH  53  56
ENDBRANCH  50  53
ENDBRANCH   8  43
TORSDOF 9
ENDMDL
MODEL 3
REMARK VINA RESULT:      -6.8      2.644      5.582
REMARK SMILES CN(C)c1cc(N2CCC3(CC2)CN(c2ccc(CN4CCC(C)(C)CC4)cc2)CC(=O)N3)ncn1
REMARK SMILES IDX 7 1 8 2 9 3 10 4 11 5 12 6 13 7 14 8 30 9 31 10 32 11 33 12
REMARK SMILES IDX 6 26 4 27 5 28 36 29 35 31 34 32 2 34 1 35 3 39 15 43 16 44
REMARK SMILES IDX 29 45 17 46 28 48 18 50 19 53 20 56 21 57 27 58 22 59 26 62
REMARK SMILES IDX 23 65 24 70 25 74
REMARK H PARENT 8 13 8 14 9 15 9 16 11 17 11 18 12 19 12 20 13 21 13 22 30 23
REMARK H PARENT 30 24 33 25 5 30 35 33 1 36 1 37 1 38 3 40 3 41 3 42 16 47
REMARK H PARENT 29 49 17 51 28 52 19 54 19 55 21 60 21 61 27 63 27 64 22 66
REMARK H PARENT 22 67 26 68 26 69 24 71 24 72 24 73 25 75 25 76 25 77
REMARK Flexibility Score: inf
ROOT
ATOM      1  N   UNL     1     -45.079  44.214  24.907  1.00  0.00    -0.356 N 
ATOM      2  C   UNL     1     -45.514  42.839  25.146  1.00  0.00     0.021 C 
ATOM      3  C   UNL     1     -44.641  42.211  26.238  1.00  0.00    -0.010 C 
ATOM      4  C   UNL     1     -43.203  42.796  26.304  1.00  0.00     0.061 C 
ATOM      5  C   UNL     1     -42.786  43.279  24.900  1.00  0.00    -0.010 C 
ATOM      6  C   UNL     1     -43.740  44.329  24.313  1.00  0.00     0.021 C 
ATOM      7  C   UNL     1     -42.185  41.705  26.770  1.00  0.00     0.042 C 
ATOM      8  N   UNL     1     -42.318  41.411  28.213  1.00  0.00    -0.360 N 
ATOM      9  C   UNL     1     -42.150  42.615  29.057  1.00  0.00     0.097 C 
ATOM     10  C   UNL     1     -42.994  43.807  28.588  1.00  0.00     0.240 C 
ATOM     11  O   UNL     1     -43.406  44.671  29.359  1.00  0.00    -0.273 OA
ATOM     12  N   UNL     1     -43.182  43.947  27.232  1.00  0.00    -0.347 N 
ATOM     13  H   UNL     1     -45.424  42.260  24.217  1.00  0.00     0.049 H 
ATOM     14  H   UNL     1     -46.560  42.756  25.460  1.00  0.00     0.049 H 
ATOM     15  H   UNL     1     -45.144  42.346  27.204  1.00  0.00     0.031 H 
ATOM     16  H   UNL     1     -44.617  41.131  26.048  1.00  0.00     0.031 H 
ATOM     17  H   UNL     1     -41.770  43.691  24.908  1.00  0.00     0.031 H 
ATOM     18  H   UNL     1     -42.759  42.416  24.220  1.00  0.00     0.031 H 
ATOM     19  H   UNL     1     -43.761  44.199  23.224  1.00  0.00     0.049 H 
ATOM     20  H   UNL     1     -43.338  45.328  24.525  1.00  0.00     0.049 H 
ATOM     21  H   UNL     1     -41.163  42.081  26.617  1.00  0.00     0.052 H 
ATOM     22  H   UNL     1     -42.263  40.808  26.144  1.00  0.00     0.052 H 
ATOM     23  H   UNL     1     -42.351  42.409  30.114  1.00  0.00     0.060 H 
ATOM     24  H   UNL     1     -41.101  42.932  28.998  1.00  0.00     0.060 H 
ATOM     25  H   UNL     1     -43.811  44.713  27.003  1.00  0.00     0.164 HD
ENDROOT
BRANCH   1  26
ATOM     26  C   UNL     1     -46.038  45.065  24.331  1.00  0.00     0.134 A 
ATOM     27  C   UNL     1     -48.318  45.710  23.994  1.00  0.00     0.133 A 
ATOM     28  C   UNL     1     -47.390  44.850  24.563  1.00  0.00     0.023 A 
ATOM     29  N   UNL     1     -47.912  46.758  23.261  1.00  0.00    -0.219 NA
ATOM     30  H   UNL     1     -47.713  44.057  25.223  1.00  0.00     0.070 H 
ATOM     31  C   UNL     1     -46.592  46.911  23.110  1.00  0.00     0.120 A 
ATOM     32  N   UNL     1     -45.634  46.118  23.605  1.00  0.00    -0.219 NA
ATOM     33  H   UNL     1     -46.264  47.764  22.526  1.00  0.00     0.106 H 
BRANCH  27  34
ATOM     34  N   UNL     1     -49.698  45.511  24.223  1.00  0.00    -0.363 N 
BRANCH  34  35
ATOM     35  C   UNL     1     -50.531  46.595  23.704  1.00  0.00     0.008 C 
ATOM     36  H   UNL     1     -51.583  46.403  23.944  1.00  0.00     0.046 H 
ATOM     37  H   UNL     1     -50.277  47.553  24.172  1.00  0.00     0.046 H 
ATOM     38  H   UNL     1     -50.448  46.687  22.615  1.00  0.00     0.046 H 
ENDBRANCH  34  35
BRANCH  34  39
ATOM     39  C   UNL     1     -50.161  44.171  23.865  1.00  0.00     0.008 C 
ATOM     40  H   UNL     1     -49.743  43.849  22.903  1.00  0.00     0.046 H 
ATOM     41  H   UNL     1     -51.253  44.161  23.776  1.00  0.00     0.046 H 
ATOM     42  H   UNL     1     -49.908  43.429  24.629  1.00  0.00     0.046 H 
ENDBRANCH  34  39
ENDBRANCH  27  34
ENDBRANCH   1  26
BRANCH   8  43
ATOM     43  C   UNL     1     -43.253  40.436  28.572  1.00  0.00     0.037 A 
ATOM     44  C   UNL     1     -43.102  39.742  29.784  1.00  0.00    -0.038 A 
ATOM     45  C   UNL     1     -44.365  40.105  27.787  1.00  0.00    -0.038 A 
ATOM     46  C   UNL     1     -43.998  38.742  30.183  1.00  0.00    -0.056 A 
ATOM     47  H   UNL     1     -42.286  39.997  30.455  1.00  0.00     0.064 H 
ATOM     48  C   UNL     1     -45.263  39.103  28.175  1.00  0.00    -0.056 A 
ATOM     49  H   UNL     1     -44.549  40.591  26.833  1.00  0.00     0.064 H 
ATOM     50  C   UNL     1     -45.085  38.404  29.374  1.00  0.00    -0.034 A 
ATOM     51  H   UNL     1     -43.838  38.237  31.131  1.00  0.00     0.063 H 
ATOM     52  H   UNL     1     -46.102  38.859  27.526  1.00  0.00     0.063 H 
BRANCH  50  53
ATOM     53  C   UNL     1     -46.062  37.326  29.789  1.00  0.00     0.023 C 
ATOM     54  H   UNL     1     -46.968  37.846  30.131  1.00  0.00     0.048 H 
ATOM     55  H   UNL     1     -45.679  36.773  30.658  1.00  0.00     0.048 H 
BRANCH  53  56
ATOM     56  N   UNL     1     -46.398  36.399  28.699  1.00  0.00    -0.299 NA
ATOM     57  C   UNL     1     -47.721  36.712  28.139  1.00  0.00    -0.001 C 
ATOM     58  C   UNL     1     -46.296  34.995  29.089  1.00  0.00    -0.001 C 
ATOM     59  C   UNL     1     -48.395  35.526  27.431  1.00  0.00    -0.035 C 
ATOM     60  H   UNL     1     -48.410  37.064  28.918  1.00  0.00     0.043 H 
ATOM     61  H   UNL     1     -47.604  37.537  27.427  1.00  0.00     0.043 H 
ATOM     62  C   UNL     1     -46.364  34.089  27.849  1.00  0.00    -0.035 C 
ATOM     63  H   UNL     1     -45.346  34.782  29.594  1.00  0.00     0.043 H 
ATOM     64  H   UNL     1     -47.092  34.729  29.797  1.00  0.00     0.043 H 
ATOM     65  C   UNL     1     -47.387  34.558  26.781  1.00  0.00    -0.033 C 
ATOM     66  H   UNL     1     -48.992  34.976  28.170  1.00  0.00     0.029 H 
ATOM     67  H   UNL     1     -49.105  35.906  26.685  1.00  0.00     0.029 H 
ATOM     68  H   UNL     1     -45.363  34.019  27.399  1.00  0.00     0.029 H 
ATOM     69  H   UNL     1     -46.605  33.076  28.196  1.00  0.00     0.029 H 
BRANCH  65  70
ATOM     70  C   UNL     1     -48.140  33.341  26.215  1.00  0.00    -0.060 C 
ATOM     71  H   UNL     1     -47.550  32.424  26.326  1.00  0.00     0.024 H 
ATOM     72  H   UNL     1     -48.356  33.469  25.149  1.00  0.00     0.024 H 
ATOM     73  H   UNL     1     -49.094  33.191  26.734  1.00  0.00     0.024 H 
ENDBRANCH  65  70
BRANCH  65  74
ATOM     74  C   UNL     1     -46.657  35.249  25.613  1.00  0.00    -0.060 C 
ATOM     75  H   UNL     1     -46.398  34.528  24.830  1.00  0.00     0.024 H 
ATOM     76  H   UNL     1     -47.264  36.035  25.153  1.00  0.00     0.024 H 
ATOM     77  H   UNL     1     -45.725  35.716  25.953  1.00  0.00     0.024 H 
ENDBRANCH  65  74
ENDBRANCH  53  56
ENDBRANCH  50  53
ENDBRANCH   8  43
TORSDOF 9
ENDMDL
MODEL 4
REMARK VINA RESULT:      -6.7      3.531      5.635
REMARK SMILES CN(C)c1cc(N2CCC3(CC2)CN(c2ccc(CN4CCC(C)(C)CC4)cc2)CC(=O)N3)ncn1
REMARK SMILES IDX 7 1 8 2 9 3 10 4 11 5 12 6 13 7 14 8 30 9 31 10 32 11 33 12
REMARK SMILES IDX 6 26 4 27 5 28 36 29 35 31 34 32 2 34 1 35 3 39 15 43 16 44
REMARK SMILES IDX 29 45 17 46 28 48 18 50 19 53 20 56 21 57 27 58 22 59 26 62
REMARK SMILES IDX 23 65 24 70 25 74
REMARK H PARENT 8 13 8 14 9 15 9 16 11 17 11 18 12 19 12 20 13 21 13 22 30 23
REMARK H PARENT 30 24 33 25 5 30 35 33 1 36 1 37 1 38 3 40 3 41 3 42 16 47
REMARK H PARENT 29 49 17 51 28 52 19 54 19 55 21 60 21 61 27 63 27 64 22 66
REMARK H PARENT 22 67 26 68 26 69 24 71 24 72 24 73 25 75 25 76 25 77
REMARK Flexibility Score: inf
ROOT
ATOM      1  N   UNL     1     -49.505  40.547  28.888  1.00  0.00    -0.356 N 
ATOM      2  C   UNL     1     -50.034  39.445  28.088  1.00  0.00     0.021 C 
ATOM      3  C   UNL     1     -48.898  38.479  27.738  1.00  0.00    -0.010 C 
ATOM      4  C   UNL     1     -47.504  39.157  27.647  1.00  0.00     0.061 C 
ATOM      5  C   UNL     1     -47.682  40.627  27.216  1.00  0.00    -0.010 C 
ATOM      6  C   UNL     1     -48.582  41.432  28.164  1.00  0.00     0.021 C 
ATOM      7  C   UNL     1     -46.609  38.439  26.585  1.00  0.00     0.042 C 
ATOM      8  N   UNL     1     -46.131  37.126  27.069  1.00  0.00    -0.360 N 
ATOM      9  C   UNL     1     -45.378  37.227  28.339  1.00  0.00     0.097 C 
ATOM     10  C   UNL     1     -46.104  38.054  29.409  1.00  0.00     0.240 C 
ATOM     11  O   UNL     1     -45.954  37.855  30.613  1.00  0.00    -0.273 OA
ATOM     12  N   UNL     1     -46.852  39.124  28.974  1.00  0.00    -0.347 N 
ATOM     13  H   UNL     1     -50.483  39.843  27.168  1.00  0.00     0.049 H 
ATOM     14  H   UNL     1     -50.823  38.874  28.591  1.00  0.00     0.049 H 
ATOM     15  H   UNL     1     -48.878  37.681  28.492  1.00  0.00     0.031 H 
ATOM     16  H   UNL     1     -49.165  38.000  26.787  1.00  0.00     0.031 H 
ATOM     17  H   UNL     1     -46.714  41.136  27.133  1.00  0.00     0.031 H 
ATOM     18  H   UNL     1     -48.126  40.652  26.210  1.00  0.00     0.031 H 
ATOM     19  H   UNL     1     -49.115  42.185  27.570  1.00  0.00     0.049 H 
ATOM     20  H   UNL     1     -47.949  41.960  28.888  1.00  0.00     0.049 H 
ATOM     21  H   UNL     1     -45.716  39.052  26.397  1.00  0.00     0.052 H 
ATOM     22  H   UNL     1     -47.127  38.374  25.621  1.00  0.00     0.052 H 
ATOM     23  H   UNL     1     -45.117  36.243  28.743  1.00  0.00     0.060 H 
ATOM     24  H   UNL     1     -44.430  37.740  28.136  1.00  0.00     0.060 H 
ATOM     25  H   UNL     1     -47.361  39.576  29.729  1.00  0.00     0.164 HD
ENDROOT
BRANCH   1  26
ATOM     26  C   UNL     1     -50.443  41.226  29.686  1.00  0.00     0.134 A 
ATOM     27  C   UNL     1     -51.202  43.221  30.769  1.00  0.00     0.133 A 
ATOM     28  C   UNL     1     -50.257  42.568  29.991  1.00  0.00     0.023 A 
ATOM     29  N   UNL     1     -52.299  42.573  31.190  1.00  0.00    -0.219 NA
ATOM     30  H   UNL     1     -49.417  43.111  29.581  1.00  0.00     0.070 H 
ATOM     31  C   UNL     1     -52.417  41.291  30.829  1.00  0.00     0.120 A 
ATOM     32  N   UNL     1     -51.545  40.583  30.101  1.00  0.00    -0.219 NA
ATOM     33  H   UNL     1     -53.309  40.772  31.160  1.00  0.00     0.106 H 
BRANCH  27  34
ATOM     34  N   UNL     1     -51.033  44.588  31.085  1.00  0.00    -0.363 N 
BRANCH  34  35
ATOM     35  C   UNL     1     -51.091  44.859  32.521  1.00  0.00     0.008 C 
ATOM     36  H   UNL     1     -50.133  45.268  32.861  1.00  0.00     0.046 H 
ATOM     37  H   UNL     1     -51.851  45.613  32.755  1.00  0.00     0.046 H 
ATOM     38  H   UNL     1     -51.289  43.949  33.100  1.00  0.00     0.046 H 
ENDBRANCH  34  35
BRANCH  34  39
ATOM     39  C   UNL     1     -49.900  45.209  30.400  1.00  0.00     0.008 C 
ATOM     40  H   UNL     1     -49.969  45.074  29.313  1.00  0.00     0.046 H 
ATOM     41  H   UNL     1     -48.961  44.754  30.735  1.00  0.00     0.046 H 
ATOM     42  H   UNL     1     -49.820  46.278  30.622  1.00  0.00     0.046 H 
ENDBRANCH  34  39
ENDBRANCH  27  34
ENDBRANCH   1  26
BRANCH   8  43
ATOM     43  C   UNL     1     -46.967  36.030  26.842  1.00  0.00     0.037 A 
ATOM     44  C   UNL     1     -46.498  34.941  26.090  1.00  0.00    -0.038 A 
ATOM     45  C   UNL     1     -48.275  35.940  27.339  1.00  0.00    -0.038 A 
ATOM     46  C   UNL     1     -47.301  33.826  25.816  1.00  0.00    -0.056 A 
ATOM     47  H   UNL     1     -45.473  34.937  25.726  1.00  0.00     0.064 H 
ATOM     48  C   UNL     1     -49.087  34.832  27.066  1.00  0.00    -0.056 A 
ATOM     49  H   UNL     1     -48.714  36.742  27.924  1.00  0.00     0.064 H 
ATOM     50  C   UNL     1     -48.612  33.766  26.294  1.00  0.00    -0.034 A 
ATOM     51  H   UNL     1     -46.888  33.009  25.232  1.00  0.00     0.063 H 
ATOM     52  H   UNL     1     -50.105  34.810  27.450  1.00  0.00     0.063 H 
BRANCH  50  53
ATOM     53  C   UNL     1     -49.493  32.570  26.007  1.00  0.00     0.023 C 
ATOM     54  H   UNL     1     -50.480  32.972  25.737  1.00  0.00     0.048 H 
ATOM     55  H   UNL     1     -49.642  31.974  26.917  1.00  0.00     0.048 H 
BRANCH  53  56
ATOM     56  N   UNL     1     -48.983  31.724  24.919  1.00  0.00    -0.299 NA
ATOM     57  C   UNL     1     -49.901  31.744  23.770  1.00  0.00    -0.001 C 
ATOM     58  C   UNL     1     -48.684  30.360  25.346  1.00  0.00    -0.001 C 
ATOM     59  C   UNL     1     -49.780  30.516  22.854  1.00  0.00    -0.035 C 
ATOM     60  H   UNL     1     -50.947  31.808  24.096  1.00  0.00     0.043 H 
ATOM     61  H   UNL     1     -49.697  32.650  23.187  1.00  0.00     0.043 H 
ATOM     62  C   UNL     1     -47.885  29.621  24.260  1.00  0.00    -0.035 C 
ATOM     63  H   UNL     1     -48.078  30.344  26.260  1.00  0.00     0.043 H 
ATOM     64  H   UNL     1     -49.608  29.813  25.575  1.00  0.00     0.043 H 
ATOM     65  C   UNL     1     -48.355  29.929  22.814  1.00  0.00    -0.033 C 
ATOM     66  H   UNL     1     -50.473  29.745  23.216  1.00  0.00     0.029 H 
ATOM     67  H   UNL     1     -50.119  30.783  21.845  1.00  0.00     0.029 H 
ATOM     68  H   UNL     1     -46.820  29.870  24.365  1.00  0.00     0.029 H 
ATOM     69  H   UNL     1     -47.962  28.547  24.470  1.00  0.00     0.029 H 
BRANCH  65  70
ATOM     70  C   UNL     1     -48.359  28.634  21.982  1.00  0.00    -0.060 C 
ATOM     71  H   UNL     1     -48.946  28.755  21.065  1.00  0.00     0.024 H 
ATOM     72  H   UNL     1     -48.795  27.802  22.547  1.00  0.00     0.024 H 
ATOM     73  H   UNL     1     -47.342  28.346  21.695  1.00  0.00     0.024 H 
ENDBRANCH  65  70
BRANCH  65  74
ATOM     74  C   UNL     1     -47.386  30.922  22.140  1.00  0.00    -0.060 C 
ATOM     75  H   UNL     1     -46.351  30.727  22.442  1.00  0.00     0.024 H 
ATOM     76  H   UNL     1     -47.430  30.866  21.048  1.00  0.00     0.024 H 
ATOM     77  H   UNL     1     -47.624  31.954  22.422  1.00  0.00     0.024 H 
ENDBRANCH  65  74
ENDBRANCH  53  56
ENDBRANCH  50  53
ENDBRANCH   8  43
TORSDOF 9
ENDMDL
MODEL 5
REMARK VINA RESULT:      -6.5      1.378      2.176
REMARK SMILES CN(C)c1cc(N2CCC3(CC2)CN(c2ccc(CN4CCC(C)(C)CC4)cc2)CC(=O)N3)ncn1
REMARK SMILES IDX 7 1 8 2 9 3 10 4 11 5 12 6 13 7 14 8 30 9 31 10 32 11 33 12
REMARK SMILES IDX 6 26 4 27 5 28 36 29 35 31 34 32 2 34 1 35 3 39 15 43 16 44
REMARK SMILES IDX 29 45 17 46 28 48 18 50 19 53 20 56 21 57 27 58 22 59 26 62
REMARK SMILES IDX 23 65 24 70 25 74
REMARK H PARENT 8 13 8 14 9 15 9 16 11 17 11 18 12 19 12 20 13 21 13 22 30 23
REMARK H PARENT 30 24 33 25 5 30 35 33 1 36 1 37 1 38 3 40 3 41 3 42 16 47
REMARK H PARENT 29 49 17 51 28 52 19 54 19 55 21 60 21 61 27 63 27 64 22 66
REMARK H PARENT 22 67 26 68 26 69 24 71 24 72 24 73 25 75 25 76 25 77
REMARK Flexibility Score: inf
ROOT
ATOM      1  N   UNL     1     -44.427  39.668  28.199  1.00  0.00    -0.356 N 
ATOM      2  C   UNL     1     -44.033  38.426  27.537  1.00  0.00     0.021 C 
ATOM      3  C   UNL     1     -45.119  37.367  27.751  1.00  0.00    -0.010 C 
ATOM      4  C   UNL     1     -45.918  37.547  29.071  1.00  0.00     0.061 C 
ATOM      5  C   UNL     1     -45.016  38.224  30.123  1.00  0.00    -0.010 C 
ATOM      6  C   UNL     1     -44.469  39.583  29.666  1.00  0.00     0.021 C 
ATOM      7  C   UNL     1     -46.374  36.161  29.634  1.00  0.00     0.042 C 
ATOM      8  N   UNL     1     -47.479  35.583  28.840  1.00  0.00    -0.360 N 
ATOM      9  C   UNL     1     -48.655  36.479  28.766  1.00  0.00     0.097 C 
ATOM     10  C   UNL     1     -48.296  37.918  28.372  1.00  0.00     0.240 C 
ATOM     11  O   UNL     1     -49.077  38.654  27.772  1.00  0.00    -0.273 OA
ATOM     12  N   UNL     1     -47.093  38.411  28.822  1.00  0.00    -0.347 N 
ATOM     13  H   UNL     1     -43.080  38.074  27.956  1.00  0.00     0.049 H 
ATOM     14  H   UNL     1     -43.872  38.534  26.459  1.00  0.00     0.049 H 
ATOM     15  H   UNL     1     -45.803  37.395  26.893  1.00  0.00     0.031 H 
ATOM     16  H   UNL     1     -44.624  36.389  27.722  1.00  0.00     0.031 H 
ATOM     17  H   UNL     1     -45.547  38.359  31.073  1.00  0.00     0.031 H 
ATOM     18  H   UNL     1     -44.165  37.563  30.341  1.00  0.00     0.031 H 
ATOM     19  H   UNL     1     -43.475  39.718  30.114  1.00  0.00     0.049 H 
ATOM     20  H   UNL     1     -45.123  40.375  30.053  1.00  0.00     0.049 H 
ATOM     21  H   UNL     1     -46.755  36.298  30.656  1.00  0.00     0.052 H 
ATOM     22  H   UNL     1     -45.519  35.481  29.730  1.00  0.00     0.052 H 
ATOM     23  H   UNL     1     -49.428  36.090  28.093  1.00  0.00     0.060 H 
ATOM     24  H   UNL     1     -49.110  36.532  29.763  1.00  0.00     0.060 H 
ATOM     25  H   UNL     1     -46.892  39.339  28.461  1.00  0.00     0.164 HD
ENDROOT
BRANCH   1  26
ATOM     26  C   UNL     1     -43.824  40.839  27.709  1.00  0.00     0.134 A 
ATOM     27  C   UNL     1     -43.451  42.407  25.939  1.00  0.00     0.133 A 
ATOM     28  C   UNL     1     -44.046  41.240  26.399  1.00  0.00     0.023 A 
ATOM     29  N   UNL     1     -42.701  43.155  26.763  1.00  0.00    -0.219 NA
ATOM     30  H   UNL     1     -44.717  40.683  25.761  1.00  0.00     0.070 H 
ATOM     31  C   UNL     1     -42.562  42.714  28.018  1.00  0.00     0.120 A 
ATOM     32  N   UNL     1     -43.082  41.594  28.533  1.00  0.00    -0.219 NA
ATOM     33  H   UNL     1     -41.965  43.326  28.685  1.00  0.00     0.106 H 
BRANCH  27  34
ATOM     34  N   UNL     1     -43.669  42.835  24.611  1.00  0.00    -0.363 N 
BRANCH  34  35
ATOM     35  C   UNL     1     -44.982  43.445  24.410  1.00  0.00     0.008 C 
ATOM     36  H   UNL     1     -45.330  43.249  23.389  1.00  0.00     0.046 H 
ATOM     37  H   UNL     1     -45.731  43.011  25.082  1.00  0.00     0.046 H 
ATOM     38  H   UNL     1     -44.952  44.532  24.550  1.00  0.00     0.046 H 
ENDBRANCH  34  35
BRANCH  34  39
ATOM     39  C   UNL     1     -42.555  43.604  24.056  1.00  0.00     0.008 C 
ATOM     40  H   UNL     1     -41.972  44.089  24.849  1.00  0.00     0.046 H 
ATOM     41  H   UNL     1     -42.934  44.388  23.391  1.00  0.00     0.046 H 
ATOM     42  H   UNL     1     -41.887  42.984  23.450  1.00  0.00     0.046 H 
ENDBRANCH  34  39
ENDBRANCH  27  34
ENDBRANCH   1  26
BRANCH   8  43
ATOM     43  C   UNL     1     -47.121  34.814  27.730  1.00  0.00     0.037 A 
ATOM     44  C   UNL     1     -47.484  35.241  26.443  1.00  0.00    -0.038 A 
ATOM     45  C   UNL     1     -46.396  33.618  27.820  1.00  0.00    -0.038 A 
ATOM     46  C   UNL     1     -47.168  34.498  25.297  1.00  0.00    -0.056 A 
ATOM     47  H   UNL     1     -48.003  36.188  26.313  1.00  0.00     0.064 H 
ATOM     48  C   UNL     1     -46.080  32.866  26.681  1.00  0.00    -0.056 A 
ATOM     49  H   UNL     1     -46.083  33.217  28.779  1.00  0.00     0.064 H 
ATOM     50  C   UNL     1     -46.471  33.294  25.407  1.00  0.00    -0.034 A 
ATOM     51  H   UNL     1     -47.470  34.874  24.324  1.00  0.00     0.063 H 
ATOM     52  H   UNL     1     -45.535  31.931  26.794  1.00  0.00     0.063 H 
BRANCH  50  53
ATOM     53  C   UNL     1     -46.122  32.479  24.181  1.00  0.00     0.023 C 
ATOM     54  H   UNL     1     -45.050  32.250  24.257  1.00  0.00     0.048 H 
ATOM     55  H   UNL     1     -46.244  33.081  23.271  1.00  0.00     0.048 H 
BRANCH  53  56
ATOM     56  N   UNL     1     -46.893  31.232  24.077  1.00  0.00    -0.299 NA
ATOM     57  C   UNL     1     -46.494  30.472  22.884  1.00  0.00    -0.001 C 
ATOM     58  C   UNL     1     -48.337  31.446  24.122  1.00  0.00    -0.001 C 
ATOM     59  C   UNL     1     -47.568  29.495  22.378  1.00  0.00    -0.035 C 
ATOM     60  H   UNL     1     -46.240  31.140  22.051  1.00  0.00     0.043 H 
ATOM     61  H   UNL     1     -45.583  29.910  23.126  1.00  0.00     0.043 H 
ATOM     62  C   UNL     1     -49.072  30.109  24.310  1.00  0.00    -0.035 C 
ATOM     63  H   UNL     1     -48.626  32.094  24.958  1.00  0.00     0.043 H 
ATOM     64  H   UNL     1     -48.685  31.944  23.207  1.00  0.00     0.043 H 
ATOM     65  C   UNL     1     -48.454  28.933  23.507  1.00  0.00    -0.033 C 
ATOM     66  H   UNL     1     -48.204  30.025  21.656  1.00  0.00     0.029 H 
ATOM     67  H   UNL     1     -47.085  28.682  21.822  1.00  0.00     0.029 H 
ATOM     68  H   UNL     1     -49.092  29.857  25.380  1.00  0.00     0.029 H 
ATOM     69  H   UNL     1     -50.118  30.265  24.021  1.00  0.00     0.029 H 
BRANCH  65  70
ATOM     70  C   UNL     1     -49.577  28.075  22.896  1.00  0.00    -0.060 C 
ATOM     71  H   UNL     1     -49.403  27.900  21.829  1.00  0.00     0.024 H 
ATOM     72  H   UNL     1     -50.551  28.567  22.998  1.00  0.00     0.024 H 
ATOM     73  H   UNL     1     -49.642  27.100  23.391  1.00  0.00     0.024 H 
ENDBRANCH  65  70
BRANCH  65  74
ATOM     74  C   UNL     1     -47.623  28.030  24.441  1.00  0.00    -0.060 C 
ATOM     75  H   UNL     1     -46.560  28.296  24.400  1.00  0.00     0.024 H 
ATOM     76  H   UNL     1     -47.944  28.105  25.484  1.00  0.00     0.024 H 
ATOM     77  H   UNL     1     -47.711  26.977  24.148  1.00  0.00     0.024 H 
ENDBRANCH  65  74
ENDBRANCH  53  56
ENDBRANCH  50  53
ENDBRANCH   8  43
TORSDOF 9
ENDMDL
