MODEL 1
REMARK VINA RESULT:      -9.6      0.000      0.000
REMARK SMILES Nc1ccc2ccc(CC[C@H]3C[C@@H](n4cc([C@H]5CCOC5)c5c(N)ncnc54)[C@H](O)[C@@H]3O)cc2n1
REMARK SMILES IDX 10 1 9 4 8 7 2 8 3 9 35 10 4 11 34 13 5 14 33 16 6 17 7 19
REMARK SMILES IDX 1 22 11 25 12 26 31 27 13 29 29 32 32 36 14 38 15 39 28 40
REMARK SMILES IDX 16 41 22 43 27 44 23 45 26 46 25 47 17 49 18 50 21 51 19 53
REMARK SMILES IDX 20 56 24 61 30 64
REMARK H PARENT 10 2 10 3 9 5 9 6 3 12 4 15 33 18 6 20 7 21 1 23 1 24 11 28
REMARK H PARENT 12 30 12 31 31 33 13 34 29 35 32 37 15 42 26 48 17 52 18 54
REMARK H PARENT 18 55 21 57 21 58 19 59 19 60 24 62 24 63 30 65
REMARK Flexibility Score: inf
ROOT
ATOM      1  C   UNL     1     -45.938  35.071  26.652  1.00  0.00    -0.044 C 
ATOM      2  H   UNL     1     -45.507  35.592  25.788  1.00  0.00     0.027 H 
ATOM      3  H   UNL     1     -45.422  34.102  26.701  1.00  0.00     0.027 H 
ENDROOT
BRANCH   1   4
ATOM      4  C   UNL     1     -47.432  34.793  26.431  1.00  0.00    -0.027 C 
ATOM      5  H   UNL     1     -47.908  35.610  25.877  1.00  0.00     0.032 H 
ATOM      6  H   UNL     1     -47.934  34.772  27.407  1.00  0.00     0.032 H 
BRANCH   4   7
ATOM      7  C   UNL     1     -47.697  33.459  25.772  1.00  0.00    -0.046 A 
ATOM      8  C   UNL     1     -46.203  29.912  22.972  1.00  0.00     0.124 A 
ATOM      9  C   UNL     1     -47.369  29.189  23.154  1.00  0.00    -0.019 A 
ATOM     10  N   UNL     1     -45.984  31.107  23.544  1.00  0.00    -0.231 NA
ATOM     11  C   UNL     1     -48.368  29.728  23.955  1.00  0.00    -0.049 A 
ATOM     12  H   UNL     1     -47.495  28.217  22.693  1.00  0.00     0.066 H 
ATOM     13  C   UNL     1     -46.947  31.631  24.326  1.00  0.00     0.073 A 
ATOM     14  C   UNL     1     -48.171  30.974  24.559  1.00  0.00     0.000 A 
ATOM     15  H   UNL     1     -49.287  29.171  24.110  1.00  0.00     0.063 H 
ATOM     16  C   UNL     1     -46.740  32.864  24.935  1.00  0.00    -0.033 A 
ATOM     17  C   UNL     1     -49.149  31.562  25.377  1.00  0.00    -0.053 A 
ATOM     18  H   UNL     1     -45.791  33.367  24.755  1.00  0.00     0.065 H 
ATOM     19  C   UNL     1     -48.912  32.797  25.979  1.00  0.00    -0.058 A 
ATOM     20  H   UNL     1     -50.097  31.060  25.551  1.00  0.00     0.063 H 
ATOM     21  H   UNL     1     -49.681  33.240  26.608  1.00  0.00     0.063 H 
BRANCH   8  22
ATOM     22  N   UNL     1     -45.170  29.404  22.187  1.00  0.00    -0.384 N 
ATOM     23  H   UNL     1     -45.150  29.965  21.339  1.00  0.00     0.158 HD
ATOM     24  H   UNL     1     -45.308  28.422  21.986  1.00  0.00     0.158 HD
ENDBRANCH   8  22
ENDBRANCH   4   7
ENDBRANCH   1   4
BRANCH   1  25
ATOM     25  C   UNL     1     -45.585  35.827  27.947  1.00  0.00    -0.010 C 
ATOM     26  C   UNL     1     -45.423  37.339  27.684  1.00  0.00    -0.024 C 
ATOM     27  C   UNL     1     -46.609  35.722  29.083  1.00  0.00     0.085 C 
ATOM     28  H   UNL     1     -44.621  35.430  28.296  1.00  0.00     0.033 H 
ATOM     29  C   UNL     1     -46.184  38.077  28.801  1.00  0.00     0.064 C 
ATOM     30  H   UNL     1     -44.356  37.587  27.746  1.00  0.00     0.029 H 
ATOM     31  H   UNL     1     -45.750  37.640  26.682  1.00  0.00     0.029 H 
ATOM     32  C   UNL     1     -46.439  37.020  29.879  1.00  0.00     0.101 C 
ATOM     33  H   UNL     1     -47.631  35.637  28.699  1.00  0.00     0.063 H 
ATOM     34  H   UNL     1     -45.530  38.869  29.185  1.00  0.00     0.056 H 
ATOM     35  H   UNL     1     -47.305  37.238  30.513  1.00  0.00     0.065 H 
BRANCH  27  36
ATOM     36  O   UNL     1     -46.334  34.597  29.912  1.00  0.00    -0.390 OA
ATOM     37  H   UNL     1     -46.194  33.844  29.307  1.00  0.00     0.211 HD
ENDBRANCH  27  36
BRANCH  29  38
ATOM     38  N   UNL     1     -47.419  38.723  28.368  1.00  0.00    -0.326 N 
ATOM     39  C   UNL     1     -48.700  38.278  28.578  1.00  0.00     0.010 A 
ATOM     40  C   UNL     1     -47.464  39.917  27.690  1.00  0.00     0.146 A 
ATOM     41  C   UNL     1     -49.594  39.183  28.027  1.00  0.00    -0.012 A 
ATOM     42  H   UNL     1     -48.886  37.347  29.094  1.00  0.00     0.082 H 
ATOM     43  C   UNL     1     -48.796  40.239  27.459  1.00  0.00     0.065 A 
ATOM     44  N   UNL     1     -46.392  40.637  27.323  1.00  0.00    -0.218 NA
ATOM     45  C   UNL     1     -49.029  41.440  26.762  1.00  0.00     0.136 A 
ATOM     46  C   UNL     1     -46.740  41.748  26.659  1.00  0.00     0.120 A 
ATOM     47  N   UNL     1     -47.977  42.183  26.365  1.00  0.00    -0.219 NA
ATOM     48  H   UNL     1     -45.922  42.376  26.318  1.00  0.00     0.106 H 
BRANCH  41  49
ATOM     49  C   UNL     1     -51.103  39.091  27.999  1.00  0.00     0.012 C 
ATOM     50  C   UNL     1     -51.667  37.682  27.933  1.00  0.00    -0.020 C 
ATOM     51  C   UNL     1     -51.754  39.628  29.273  1.00  0.00     0.054 C 
ATOM     52  H   UNL     1     -51.442  39.662  27.127  1.00  0.00     0.038 H 
ATOM     53  C   UNL     1     -51.835  37.308  29.389  1.00  0.00     0.047 C 
ATOM     54  H   UNL     1     -52.658  37.720  27.464  1.00  0.00     0.030 H 
ATOM     55  H   UNL     1     -51.066  36.959  27.372  1.00  0.00     0.030 H 
ATOM     56  O   UNL     1     -52.178  38.515  30.076  1.00  0.00    -0.381 OA
ATOM     57  H   UNL     1     -51.099  40.267  29.874  1.00  0.00     0.057 H 
ATOM     58  H   UNL     1     -52.655  40.202  29.029  1.00  0.00     0.057 H 
ATOM     59  H   UNL     1     -52.623  36.565  29.541  1.00  0.00     0.057 H 
ATOM     60  H   UNL     1     -50.908  36.922  29.824  1.00  0.00     0.057 H 
ENDBRANCH  41  49
BRANCH  45  61
ATOM     61  N   UNL     1     -50.286  41.949  26.458  1.00  0.00    -0.383 N 
ATOM     62  H   UNL     1     -51.042  41.303  26.632  1.00  0.00     0.158 HD
ATOM     63  H   UNL     1     -50.391  42.852  26.910  1.00  0.00     0.158 HD
ENDBRANCH  45  61
ENDBRANCH  29  38
BRANCH  32  64
ATOM     64  O   UNL     1     -45.286  36.899  30.731  1.00  0.00    -0.388 OA
ATOM     65  H   UNL     1     -44.998  35.969  30.663  1.00  0.00     0.211 HD
ENDBRANCH  32  64
ENDBRANCH   1  25
TORSDOF 9
ENDMDL
MODEL 2
REMARK VINA RESULT:      -9.3      1.582      2.123
REMARK SMILES Nc1ccc2ccc(CC[C@H]3C[C@@H](n4cc([C@H]5CCOC5)c5c(N)ncnc54)[C@H](O)[C@@H]3O)cc2n1
REMARK SMILES IDX 10 1 9 4 8 7 2 8 3 9 35 10 4 11 34 13 5 14 33 16 6 17 7 19
REMARK SMILES IDX 1 22 11 25 12 26 31 27 13 29 29 32 32 36 14 38 15 39 28 40
REMARK SMILES IDX 16 41 22 43 27 44 23 45 26 46 25 47 17 49 18 50 21 51 19 53
REMARK SMILES IDX 20 56 24 61 30 64
REMARK H PARENT 10 2 10 3 9 5 9 6 3 12 4 15 33 18 6 20 7 21 1 23 1 24 11 28
REMARK H PARENT 12 30 12 31 31 33 13 34 29 35 32 37 15 42 26 48 17 52 18 54
REMARK H PARENT 18 55 21 57 21 58 19 59 19 60 24 62 24 63 30 65
REMARK Flexibility Score: inf
ROOT
ATOM      1  C   UNL     1     -46.625  35.020  28.113  1.00  0.00    -0.044 C 
ATOM      2  H   UNL     1     -45.870  34.240  27.957  1.00  0.00     0.027 H 
ATOM      3  H   UNL     1     -47.111  34.775  29.068  1.00  0.00     0.027 H 
ENDROOT
BRANCH   1   4
ATOM      4  C   UNL     1     -47.700  34.963  27.017  1.00  0.00    -0.027 C 
ATOM      5  H   UNL     1     -47.748  35.906  26.462  1.00  0.00     0.032 H 
ATOM      6  H   UNL     1     -48.683  34.857  27.494  1.00  0.00     0.032 H 
BRANCH   4   7
ATOM      7  C   UNL     1     -47.535  33.787  26.082  1.00  0.00    -0.046 A 
ATOM      8  C   UNL     1     -49.342  29.854  24.104  1.00  0.00     0.124 A 
ATOM      9  C   UNL     1     -48.210  29.638  23.339  1.00  0.00    -0.019 A 
ATOM     10  N   UNL     1     -49.471  30.889  24.949  1.00  0.00    -0.231 NA
ATOM     11  C   UNL     1     -47.147  30.526  23.458  1.00  0.00    -0.049 A 
ATOM     12  H   UNL     1     -48.156  28.803  22.651  1.00  0.00     0.066 H 
ATOM     13  C   UNL     1     -48.448  31.756  25.064  1.00  0.00     0.073 A 
ATOM     14  C   UNL     1     -47.251  31.611  24.335  1.00  0.00     0.000 A 
ATOM     15  H   UNL     1     -46.253  30.372  22.862  1.00  0.00     0.063 H 
ATOM     16  C   UNL     1     -48.560  32.841  25.927  1.00  0.00    -0.033 A 
ATOM     17  C   UNL     1     -46.206  32.536  24.492  1.00  0.00    -0.053 A 
ATOM     18  H   UNL     1     -49.488  32.951  26.485  1.00  0.00     0.065 H 
ATOM     19  C   UNL     1     -46.350  33.617  25.360  1.00  0.00    -0.058 A 
ATOM     20  H   UNL     1     -45.279  32.421  23.936  1.00  0.00     0.063 H 
ATOM     21  H   UNL     1     -45.530  34.324  25.472  1.00  0.00     0.063 H 
BRANCH   8  22
ATOM     22  N   UNL     1     -50.436  28.995  24.007  1.00  0.00    -0.384 N 
ATOM     23  H   UNL     1     -50.789  29.087  23.057  1.00  0.00     0.158 HD
ATOM     24  H   UNL     1     -51.143  29.219  24.695  1.00  0.00     0.158 HD
ENDBRANCH   8  22
ENDBRANCH   4   7
ENDBRANCH   1   4
BRANCH   1  25
ATOM     25  C   UNL     1     -45.938  36.384  28.302  1.00  0.00    -0.010 C 
ATOM     26  C   UNL     1     -46.344  37.373  27.189  1.00  0.00    -0.024 C 
ATOM     27  C   UNL     1     -46.241  37.111  29.618  1.00  0.00     0.085 C 
ATOM     28  H   UNL     1     -44.855  36.208  28.232  1.00  0.00     0.033 H 
ATOM     29  C   UNL     1     -46.670  38.715  27.873  1.00  0.00     0.064 C 
ATOM     30  H   UNL     1     -45.487  37.506  26.517  1.00  0.00     0.029 H 
ATOM     31  H   UNL     1     -47.168  37.006  26.567  1.00  0.00     0.029 H 
ATOM     32  C   UNL     1     -46.089  38.598  29.284  1.00  0.00     0.101 C 
ATOM     33  H   UNL     1     -47.254  36.897  29.973  1.00  0.00     0.063 H 
ATOM     34  H   UNL     1     -46.163  39.508  27.311  1.00  0.00     0.056 H 
ATOM     35  H   UNL     1     -46.583  39.243  30.018  1.00  0.00     0.065 H 
BRANCH  27  36
ATOM     36  O   UNL     1     -45.311  36.736  30.630  1.00  0.00    -0.390 OA
ATOM     37  H   UNL     1     -45.217  35.767  30.565  1.00  0.00     0.211 HD
ENDBRANCH  27  36
BRANCH  29  38
ATOM     38  N   UNL     1     -48.089  39.055  27.893  1.00  0.00    -0.326 N 
ATOM     39  C   UNL     1     -49.134  38.216  28.189  1.00  0.00     0.010 A 
ATOM     40  C   UNL     1     -48.582  40.311  27.634  1.00  0.00     0.146 A 
ATOM     41  C   UNL     1     -50.323  38.923  28.116  1.00  0.00    -0.012 A 
ATOM     42  H   UNL     1     -48.960  37.174  28.420  1.00  0.00     0.082 H 
ATOM     43  C   UNL     1     -49.966  40.273  27.762  1.00  0.00     0.065 A 
ATOM     44  N   UNL     1     -47.837  41.381  27.315  1.00  0.00    -0.218 NA
ATOM     45  C   UNL     1     -50.640  41.485  27.522  1.00  0.00     0.136 A 
ATOM     46  C   UNL     1     -48.591  42.468  27.099  1.00  0.00     0.120 A 
ATOM     47  N   UNL     1     -49.928  42.578  27.186  1.00  0.00    -0.219 NA
ATOM     48  H   UNL     1     -48.058  43.372  26.822  1.00  0.00     0.106 H 
BRANCH  41  49
ATOM     49  C   UNL     1     -51.724  38.401  28.339  1.00  0.00     0.012 C 
ATOM     50  C   UNL     1     -52.425  37.869  27.101  1.00  0.00    -0.020 C 
ATOM     51  C   UNL     1     -51.765  37.186  29.267  1.00  0.00     0.054 C 
ATOM     52  H   UNL     1     -52.309  39.226  28.764  1.00  0.00     0.038 H 
ATOM     53  C   UNL     1     -52.055  36.402  27.098  1.00  0.00     0.047 C 
ATOM     54  H   UNL     1     -53.509  37.957  27.244  1.00  0.00     0.030 H 
ATOM     55  H   UNL     1     -52.175  38.375  26.164  1.00  0.00     0.030 H 
ATOM     56  O   UNL     1     -51.965  36.008  28.470  1.00  0.00    -0.381 OA
ATOM     57  H   UNL     1     -50.860  37.055  29.869  1.00  0.00     0.057 H 
ATOM     58  H   UNL     1     -52.619  37.255  29.950  1.00  0.00     0.057 H 
ATOM     59  H   UNL     1     -52.801  35.784  26.589  1.00  0.00     0.057 H 
ATOM     60  H   UNL     1     -51.082  36.224  26.630  1.00  0.00     0.057 H 
ENDBRANCH  41  49
BRANCH  45  61
ATOM     61  N   UNL     1     -52.016  41.660  27.626  1.00  0.00    -0.383 N 
ATOM     62  H   UNL     1     -52.534  41.311  26.834  1.00  0.00     0.158 HD
ATOM     63  H   UNL     1     -52.324  41.300  28.524  1.00  0.00     0.158 HD
ENDBRANCH  45  61
ENDBRANCH  29  38
BRANCH  32  64
ATOM     64  O   UNL     1     -44.690  38.934  29.269  1.00  0.00    -0.388 OA
ATOM     65  H   UNL     1     -44.356  38.735  30.164  1.00  0.00     0.211 HD
ENDBRANCH  32  64
ENDBRANCH   1  25
TORSDOF 9
ENDMDL
MODEL 3
REMARK VINA RESULT:      -9.3      3.025      4.806
REMARK SMILES Nc1ccc2ccc(CC[C@H]3C[C@@H](n4cc([C@H]5CCOC5)c5c(N)ncnc54)[C@H](O)[C@@H]3O)cc2n1
REMARK SMILES IDX 10 1 9 4 8 7 2 8 3 9 35 10 4 11 34 13 5 14 33 16 6 17 7 19
REMARK SMILES IDX 1 22 11 25 12 26 31 27 13 29 29 32 32 36 14 38 15 39 28 40
REMARK SMILES IDX 16 41 22 43 27 44 23 45 26 46 25 47 17 49 18 50 21 51 19 53
REMARK SMILES IDX 20 56 24 61 30 64
REMARK H PARENT 10 2 10 3 9 5 9 6 3 12 4 15 33 18 6 20 7 21 1 23 1 24 11 28
REMARK H PARENT 12 30 12 31 31 33 13 34 29 35 32 37 15 42 26 48 17 52 18 54
REMARK H PARENT 18 55 21 57 21 58 19 59 19 60 24 62 24 63 30 65
REMARK Flexibility Score: inf
ROOT
ATOM      1  C   UNL     1     -46.639  35.854  26.705  1.00  0.00    -0.044 C 
ATOM      2  H   UNL     1     -46.647  36.743  26.063  1.00  0.00     0.027 H 
ATOM      3  H   UNL     1     -45.771  35.263  26.381  1.00  0.00     0.027 H 
ENDROOT
BRANCH   1   4
ATOM      4  C   UNL     1     -47.895  35.003  26.470  1.00  0.00    -0.027 C 
ATOM      5  H   UNL     1     -48.677  35.582  25.966  1.00  0.00     0.032 H 
ATOM      6  H   UNL     1     -48.321  34.728  27.444  1.00  0.00     0.032 H 
BRANCH   4   7
ATOM      7  C   UNL     1     -47.612  33.713  25.735  1.00  0.00    -0.046 A 
ATOM      8  C   UNL     1     -49.061  29.399  24.341  1.00  0.00     0.124 A 
ATOM      9  C   UNL     1     -47.886  29.154  23.653  1.00  0.00    -0.019 A 
ATOM     10  N   UNL     1     -49.295  30.540  25.010  1.00  0.00    -0.231 NA
ATOM     11  C   UNL     1     -46.893  30.126  23.664  1.00  0.00    -0.049 A 
ATOM     12  H   UNL     1     -47.747  28.230  23.105  1.00  0.00     0.066 H 
ATOM     13  C   UNL     1     -48.339  31.488  25.019  1.00  0.00     0.073 A 
ATOM     14  C   UNL     1     -47.107  31.322  24.357  1.00  0.00     0.000 A 
ATOM     15  H   UNL     1     -45.967  29.950  23.125  1.00  0.00     0.063 H 
ATOM     16  C   UNL     1     -48.562  32.680  25.698  1.00  0.00    -0.033 A 
ATOM     17  C   UNL     1     -46.136  32.336  24.398  1.00  0.00    -0.053 A 
ATOM     18  H   UNL     1     -49.517  32.805  26.205  1.00  0.00     0.065 H 
ATOM     19  C   UNL     1     -46.389  33.523  25.083  1.00  0.00    -0.058 A 
ATOM     20  H   UNL     1     -45.181  32.206  23.896  1.00  0.00     0.063 H 
ATOM     21  H   UNL     1     -45.626  34.298  25.108  1.00  0.00     0.063 H 
BRANCH   8  22
ATOM     22  N   UNL     1     -50.088  28.457  24.347  1.00  0.00    -0.384 N 
ATOM     23  H   UNL     1     -50.926  28.947  24.649  1.00  0.00     0.158 HD
ATOM     24  H   UNL     1     -49.869  27.676  24.952  1.00  0.00     0.158 HD
ENDBRANCH   8  22
ENDBRANCH   4   7
ENDBRANCH   1   4
BRANCH   1  25
ATOM     25  C   UNL     1     -46.375  36.265  28.165  1.00  0.00    -0.010 C 
ATOM     26  C   UNL     1     -44.902  36.678  28.372  1.00  0.00    -0.024 C 
ATOM     27  C   UNL     1     -47.203  37.444  28.689  1.00  0.00     0.085 C 
ATOM     28  H   UNL     1     -46.578  35.381  28.787  1.00  0.00     0.033 H 
ATOM     29  C   UNL     1     -44.909  37.980  29.195  1.00  0.00     0.064 C 
ATOM     30  H   UNL     1     -44.400  35.888  28.944  1.00  0.00     0.029 H 
ATOM     31  H   UNL     1     -44.347  36.777  27.432  1.00  0.00     0.029 H 
ATOM     32  C   UNL     1     -46.325  38.084  29.768  1.00  0.00     0.101 C 
ATOM     33  H   UNL     1     -47.425  38.165  27.896  1.00  0.00     0.063 H 
ATOM     34  H   UNL     1     -44.174  37.869  30.001  1.00  0.00     0.056 H 
ATOM     35  H   UNL     1     -46.630  39.110  30.001  1.00  0.00     0.065 H 
BRANCH  27  36
ATOM     36  O   UNL     1     -48.428  36.991  29.257  1.00  0.00    -0.390 OA
ATOM     37  H   UNL     1     -49.113  37.145  28.578  1.00  0.00     0.211 HD
ENDBRANCH  27  36
BRANCH  29  38
ATOM     38  N   UNL     1     -44.534  39.174  28.444  1.00  0.00    -0.326 N 
ATOM     39  C   UNL     1     -45.119  39.642  27.294  1.00  0.00     0.010 A 
ATOM     40  C   UNL     1     -43.526  40.030  28.816  1.00  0.00     0.146 A 
ATOM     41  C   UNL     1     -44.486  40.811  26.903  1.00  0.00    -0.012 A 
ATOM     42  H   UNL     1     -45.936  39.107  26.830  1.00  0.00     0.082 H 
ATOM     43  C   UNL     1     -43.463  41.061  27.886  1.00  0.00     0.065 A 
ATOM     44  N   UNL     1     -42.747  39.880  29.899  1.00  0.00    -0.218 NA
ATOM     45  C   UNL     1     -42.472  42.035  28.111  1.00  0.00     0.136 A 
ATOM     46  C   UNL     1     -41.837  40.860  29.998  1.00  0.00     0.120 A 
ATOM     47  N   UNL     1     -41.661  41.912  29.180  1.00  0.00    -0.219 NA
ATOM     48  H   UNL     1     -41.160  40.798  30.845  1.00  0.00     0.106 H 
BRANCH  41  49
ATOM     49  C   UNL     1     -44.780  41.657  25.685  1.00  0.00     0.012 C 
ATOM     50  C   UNL     1     -46.141  42.330  25.674  1.00  0.00    -0.020 C 
ATOM     51  C   UNL     1     -43.839  42.856  25.555  1.00  0.00     0.054 C 
ATOM     52  H   UNL     1     -44.687  41.002  24.811  1.00  0.00     0.038 H 
ATOM     53  C   UNL     1     -45.874  43.664  26.334  1.00  0.00     0.047 C 
ATOM     54  H   UNL     1     -46.439  42.507  24.632  1.00  0.00     0.030 H 
ATOM     55  H   UNL     1     -46.948  41.769  26.154  1.00  0.00     0.030 H 
ATOM     56  O   UNL     1     -44.546  44.039  25.958  1.00  0.00    -0.381 OA
ATOM     57  H   UNL     1     -42.924  42.771  26.150  1.00  0.00     0.057 H 
ATOM     58  H   UNL     1     -43.549  43.002  24.509  1.00  0.00     0.057 H 
ATOM     59  H   UNL     1     -46.577  44.438  26.012  1.00  0.00     0.057 H 
ATOM     60  H   UNL     1     -45.911  43.597  27.426  1.00  0.00     0.057 H 
ENDBRANCH  41  49
BRANCH  45  61
ATOM     61  N   UNL     1     -42.266  43.155  27.314  1.00  0.00    -0.383 N 
ATOM     62  H   UNL     1     -41.669  43.852  27.734  1.00  0.00     0.158 HD
ATOM     63  H   UNL     1     -41.974  42.851  26.391  1.00  0.00     0.158 HD
ENDBRANCH  45  61
ENDBRANCH  29  38
BRANCH  32  64
ATOM     64  O   UNL     1     -46.425  37.308  30.976  1.00  0.00    -0.388 OA
ATOM     65  H   UNL     1     -47.083  37.764  31.534  1.00  0.00     0.211 HD
ENDBRANCH  32  64
ENDBRANCH   1  25
TORSDOF 9
ENDMDL
MODEL 4
REMARK VINA RESULT:      -9.3      1.953      2.602
REMARK SMILES Nc1ccc2ccc(CC[C@H]3C[C@@H](n4cc([C@H]5CCOC5)c5c(N)ncnc54)[C@H](O)[C@@H]3O)cc2n1
REMARK SMILES IDX 10 1 9 4 8 7 2 8 3 9 35 10 4 11 34 13 5 14 33 16 6 17 7 19
REMARK SMILES IDX 1 22 11 25 12 26 31 27 13 29 29 32 32 36 14 38 15 39 28 40
REMARK SMILES IDX 16 41 22 43 27 44 23 45 26 46 25 47 17 49 18 50 21 51 19 53
REMARK SMILES IDX 20 56 24 61 30 64
REMARK H PARENT 10 2 10 3 9 5 9 6 3 12 4 15 33 18 6 20 7 21 1 23 1 24 11 28
REMARK H PARENT 12 30 12 31 31 33 13 34 29 35 32 37 15 42 26 48 17 52 18 54
REMARK H PARENT 18 55 21 57 21 58 19 59 19 60 24 62 24 63 30 65
REMARK Flexibility Score: inf
ROOT
ATOM      1  C   UNL     1     -47.261  35.911  28.527  1.00  0.00    -0.044 C 
ATOM      2  H   UNL     1     -47.190  34.861  28.835  1.00  0.00     0.027 H 
ATOM      3  H   UNL     1     -48.082  36.339  29.118  1.00  0.00     0.027 H 
ENDROOT
BRANCH   1   4
ATOM      4  C   UNL     1     -47.648  36.019  27.045  1.00  0.00    -0.027 C 
ATOM      5  H   UNL     1     -46.912  36.607  26.486  1.00  0.00     0.032 H 
ATOM      6  H   UNL     1     -48.587  36.581  26.967  1.00  0.00     0.032 H 
BRANCH   4   7
ATOM      7  C   UNL     1     -47.884  34.676  26.392  1.00  0.00    -0.046 A 
ATOM      8  C   UNL     1     -46.299  31.136  23.634  1.00  0.00     0.124 A 
ATOM      9  C   UNL     1     -47.455  30.395  23.807  1.00  0.00    -0.019 A 
ATOM     10  N   UNL     1     -46.106  32.338  24.201  1.00  0.00    -0.231 NA
ATOM     11  C   UNL     1     -48.473  30.923  24.592  1.00  0.00    -0.049 A 
ATOM     12  H   UNL     1     -47.560  29.418  23.352  1.00  0.00     0.066 H 
ATOM     13  C   UNL     1     -47.086  32.852  24.968  1.00  0.00     0.073 A 
ATOM     14  C   UNL     1     -48.302  32.176  25.190  1.00  0.00     0.000 A 
ATOM     15  H   UNL     1     -49.384  30.352  24.740  1.00  0.00     0.063 H 
ATOM     16  C   UNL     1     -46.907  34.092  25.570  1.00  0.00    -0.033 A 
ATOM     17  C   UNL     1     -49.300  32.753  25.993  1.00  0.00    -0.053 A 
ATOM     18  H   UNL     1     -45.965  34.609  25.399  1.00  0.00     0.065 H 
ATOM     19  C   UNL     1     -49.090  33.995  26.589  1.00  0.00    -0.058 A 
ATOM     20  H   UNL     1     -50.242  32.237  26.158  1.00  0.00     0.063 H 
ATOM     21  H   UNL     1     -49.874  34.430  27.206  1.00  0.00     0.063 H 
BRANCH   8  22
ATOM     22  N   UNL     1     -45.248  30.639  22.865  1.00  0.00    -0.384 N 
ATOM     23  H   UNL     1     -45.643  30.401  21.959  1.00  0.00     0.158 HD
ATOM     24  H   UNL     1     -44.813  29.840  23.308  1.00  0.00     0.158 HD
ENDBRANCH   8  22
ENDBRANCH   4   7
ENDBRANCH   1   4
BRANCH   1  25
ATOM     25  C   UNL     1     -45.981  36.663  28.938  1.00  0.00    -0.010 C 
ATOM     26  C   UNL     1     -45.327  37.356  27.723  1.00  0.00    -0.024 C 
ATOM     27  C   UNL     1     -46.161  37.768  29.985  1.00  0.00     0.085 C 
ATOM     28  H   UNL     1     -45.280  35.911  29.327  1.00  0.00     0.033 H 
ATOM     29  C   UNL     1     -44.951  38.783  28.165  1.00  0.00     0.064 C 
ATOM     30  H   UNL     1     -44.415  36.804  27.462  1.00  0.00     0.029 H 
ATOM     31  H   UNL     1     -45.960  37.345  26.829  1.00  0.00     0.029 H 
ATOM     32  C   UNL     1     -45.034  38.764  29.694  1.00  0.00     0.101 C 
ATOM     33  H   UNL     1     -47.138  38.254  29.896  1.00  0.00     0.063 H 
ATOM     34  H   UNL     1     -43.922  38.974  27.838  1.00  0.00     0.056 H 
ATOM     35  H   UNL     1     -45.223  39.748  30.136  1.00  0.00     0.065 H 
BRANCH  27  36
ATOM     36  O   UNL     1     -46.026  37.244  31.303  1.00  0.00    -0.390 OA
ATOM     37  H   UNL     1     -45.964  38.017  31.896  1.00  0.00     0.211 HD
ENDBRANCH  27  36
BRANCH  29  38
ATOM     38  N   UNL     1     -45.780  39.835  27.586  1.00  0.00    -0.326 N 
ATOM     39  C   UNL     1     -47.138  39.980  27.717  1.00  0.00     0.010 A 
ATOM     40  C   UNL     1     -45.289  40.868  26.826  1.00  0.00     0.146 A 
ATOM     41  C   UNL     1     -47.545  41.114  27.032  1.00  0.00    -0.012 A 
ATOM     42  H   UNL     1     -47.721  39.264  28.279  1.00  0.00     0.082 H 
ATOM     43  C   UNL     1     -46.352  41.687  26.461  1.00  0.00     0.065 A 
ATOM     44  N   UNL     1     -43.998  41.042  26.501  1.00  0.00    -0.218 NA
ATOM     45  C   UNL     1     -46.028  42.802  25.666  1.00  0.00     0.136 A 
ATOM     46  C   UNL     1     -43.818  42.127  25.735  1.00  0.00     0.120 A 
ATOM     47  N   UNL     1     -44.744  43.003  25.309  1.00  0.00    -0.219 NA
ATOM     48  H   UNL     1     -42.797  42.326  25.421  1.00  0.00     0.106 H 
BRANCH  41  49
ATOM     49  C   UNL     1     -48.951  41.650  26.883  1.00  0.00     0.012 C 
ATOM     50  C   UNL     1     -50.044  40.783  27.485  1.00  0.00    -0.020 C 
ATOM     51  C   UNL     1     -49.163  42.974  27.618  1.00  0.00     0.054 C 
ATOM     52  H   UNL     1     -49.133  41.776  25.810  1.00  0.00     0.038 H 
ATOM     53  C   UNL     1     -50.167  41.312  28.897  1.00  0.00     0.047 C 
ATOM     54  H   UNL     1     -50.983  40.980  26.953  1.00  0.00     0.030 H 
ATOM     55  H   UNL     1     -49.865  39.705  27.446  1.00  0.00     0.030 H 
ATOM     56  O   UNL     1     -49.899  42.716  28.824  1.00  0.00    -0.381 OA
ATOM     57  H   UNL     1     -48.234  43.493  27.877  1.00  0.00     0.057 H 
ATOM     58  H   UNL     1     -49.774  43.653  27.014  1.00  0.00     0.057 H 
ATOM     59  H   UNL     1     -51.164  41.153  29.317  1.00  0.00     0.057 H 
ATOM     60  H   UNL     1     -49.432  40.862  29.570  1.00  0.00     0.057 H 
ENDBRANCH  41  49
BRANCH  45  61
ATOM     61  N   UNL     1     -46.941  43.752  25.223  1.00  0.00    -0.383 N 
ATOM     62  H   UNL     1     -47.871  43.630  25.596  1.00  0.00     0.158 HD
ATOM     63  H   UNL     1     -46.547  44.676  25.366  1.00  0.00     0.158 HD
ENDBRANCH  45  61
ENDBRANCH  29  38
BRANCH  32  64
ATOM     64  O   UNL     1     -43.807  38.258  30.248  1.00  0.00    -0.388 OA
ATOM     65  H   UNL     1     -43.210  38.113  29.490  1.00  0.00     0.211 HD
ENDBRANCH  32  64
ENDBRANCH   1  25
TORSDOF 9
ENDMDL
MODEL 5
REMARK VINA RESULT:      -9.1      3.179      5.131
REMARK SMILES Nc1ccc2ccc(CC[C@H]3C[C@@H](n4cc([C@H]5CCOC5)c5c(N)ncnc54)[C@H](O)[C@@H]3O)cc2n1
REMARK SMILES IDX 10 1 9 4 8 7 2 8 3 9 35 10 4 11 34 13 5 14 33 16 6 17 7 19
REMARK SMILES IDX 1 22 11 25 12 26 31 27 13 29 29 32 32 36 14 38 15 39 28 40
REMARK SMILES IDX 16 41 22 43 27 44 23 45 26 46 25 47 17 49 18 50 21 51 19 53
REMARK SMILES IDX 20 56 24 61 30 64
REMARK H PARENT 10 2 10 3 9 5 9 6 3 12 4 15 33 18 6 20 7 21 1 23 1 24 11 28
REMARK H PARENT 12 30 12 31 31 33 13 34 29 35 32 37 15 42 26 48 17 52 18 54
REMARK H PARENT 18 55 21 57 21 58 19 59 19 60 24 62 24 63 30 65
REMARK Flexibility Score: inf
ROOT
ATOM      1  C   UNL     1     -45.121  39.002  28.343  1.00  0.00    -0.044 C 
ATOM      2  H   UNL     1     -44.817  37.953  28.435  1.00  0.00     0.027 H 
ATOM      3  H   UNL     1     -45.130  39.400  29.367  1.00  0.00     0.027 H 
ENDROOT
BRANCH   1   4
ATOM      4  C   UNL     1     -46.550  39.108  27.790  1.00  0.00    -0.027 C 
ATOM      5  H   UNL     1     -46.593  39.785  26.930  1.00  0.00     0.032 H 
ATOM      6  H   UNL     1     -47.189  39.569  28.555  1.00  0.00     0.032 H 
BRANCH   4   7
ATOM      7  C   UNL     1     -47.162  37.766  27.459  1.00  0.00    -0.046 A 
ATOM      8  C   UNL     1     -46.693  33.405  25.612  1.00  0.00     0.124 A 
ATOM      9  C   UNL     1     -47.994  33.057  25.931  1.00  0.00    -0.019 A 
ATOM     10  N   UNL     1     -46.165  34.607  25.891  1.00  0.00    -0.231 NA
ATOM     11  C   UNL     1     -48.799  34.001  26.559  1.00  0.00    -0.049 A 
ATOM     12  H   UNL     1     -48.374  32.067  25.711  1.00  0.00     0.066 H 
ATOM     13  C   UNL     1     -46.939  35.523  26.504  1.00  0.00     0.073 A 
ATOM     14  C   UNL     1     -48.278  35.264  26.856  1.00  0.00     0.000 A 
ATOM     15  H   UNL     1     -49.821  33.741  26.819  1.00  0.00     0.063 H 
ATOM     16  C   UNL     1     -46.412  36.773  26.809  1.00  0.00    -0.033 A 
ATOM     17  C   UNL     1     -49.050  36.251  27.489  1.00  0.00    -0.053 A 
ATOM     18  H   UNL     1     -45.376  36.967  26.538  1.00  0.00     0.065 H 
ATOM     19  C   UNL     1     -48.494  37.494  27.788  1.00  0.00    -0.058 A 
ATOM     20  H   UNL     1     -50.086  36.056  27.754  1.00  0.00     0.063 H 
ATOM     21  H   UNL     1     -49.106  38.249  28.276  1.00  0.00     0.063 H 
BRANCH   8  22
ATOM     22  N   UNL     1     -45.847  32.486  24.993  1.00  0.00    -0.384 N 
ATOM     23  H   UNL     1     -44.989  32.474  25.539  1.00  0.00     0.158 HD
ATOM     24  H   UNL     1     -45.677  32.734  24.027  1.00  0.00     0.158 HD
ENDBRANCH   8  22
ENDBRANCH   4   7
ENDBRANCH   1   4
BRANCH   1  25
ATOM     25  C   UNL     1     -44.048  39.791  27.570  1.00  0.00    -0.010 C 
ATOM     26  C   UNL     1     -44.505  40.087  26.125  1.00  0.00    -0.024 C 
ATOM     27  C   UNL     1     -43.665  41.154  28.159  1.00  0.00     0.085 C 
ATOM     28  H   UNL     1     -43.153  39.155  27.528  1.00  0.00     0.033 H 
ATOM     29  C   UNL     1     -44.179  41.566  25.841  1.00  0.00     0.064 C 
ATOM     30  H   UNL     1     -43.926  39.450  25.445  1.00  0.00     0.029 H 
ATOM     31  H   UNL     1     -45.560  39.846  25.950  1.00  0.00     0.029 H 
ATOM     32  C   UNL     1     -43.214  41.984  26.953  1.00  0.00     0.101 C 
ATOM     33  H   UNL     1     -44.514  41.631  28.659  1.00  0.00     0.063 H 
ATOM     34  H   UNL     1     -43.686  41.617  24.863  1.00  0.00     0.056 H 
ATOM     35  H   UNL     1     -43.222  43.059  27.161  1.00  0.00     0.065 H 
BRANCH  27  36
ATOM     36  O   UNL     1     -42.597  41.021  29.092  1.00  0.00    -0.390 OA
ATOM     37  H   UNL     1     -42.912  40.399  29.776  1.00  0.00     0.211 HD
ENDBRANCH  27  36
BRANCH  29  38
ATOM     38  N   UNL     1     -45.345  42.440  25.772  1.00  0.00    -0.326 N 
ATOM     39  C   UNL     1     -46.573  42.224  26.347  1.00  0.00     0.010 A 
ATOM     40  C   UNL     1     -45.361  43.650  25.122  1.00  0.00     0.146 A 
ATOM     41  C   UNL     1     -47.404  43.296  26.065  1.00  0.00    -0.012 A 
ATOM     42  H   UNL     1     -46.773  41.320  26.906  1.00  0.00     0.082 H 
ATOM     43  C   UNL     1     -46.622  44.215  25.279  1.00  0.00     0.065 A 
ATOM     44  N   UNL     1     -44.324  44.180  24.454  1.00  0.00    -0.218 NA
ATOM     45  C   UNL     1     -46.817  45.465  24.664  1.00  0.00     0.136 A 
ATOM     46  C   UNL     1     -44.636  45.362  23.904  1.00  0.00     0.120 A 
ATOM     47  N   UNL     1     -45.804  46.024  23.973  1.00  0.00    -0.219 NA
ATOM     48  H   UNL     1     -43.849  45.847  23.336  1.00  0.00     0.106 H 
BRANCH  41  49
ATOM     49  C   UNL     1     -48.849  43.477  26.472  1.00  0.00     0.012 C 
ATOM     50  C   UNL     1     -49.606  42.194  26.770  1.00  0.00    -0.020 C 
ATOM     51  C   UNL     1     -49.005  44.243  27.785  1.00  0.00     0.054 C 
ATOM     52  H   UNL     1     -49.346  44.014  25.655  1.00  0.00     0.038 H 
ATOM     53  C   UNL     1     -49.384  41.998  28.254  1.00  0.00     0.047 C 
ATOM     54  H   UNL     1     -50.676  42.367  26.595  1.00  0.00     0.030 H 
ATOM     55  H   UNL     1     -49.313  41.324  26.175  1.00  0.00     0.030 H 
ATOM     56  O   UNL     1     -49.326  43.308  28.827  1.00  0.00    -0.381 OA
ATOM     57  H   UNL     1     -48.114  44.807  28.080  1.00  0.00     0.057 H 
ATOM     58  H   UNL     1     -49.843  44.945  27.722  1.00  0.00     0.057 H 
ATOM     59  H   UNL     1     -50.191  41.429  28.725  1.00  0.00     0.057 H 
ATOM     60  H   UNL     1     -48.437  41.494  28.464  1.00  0.00     0.057 H 
ENDBRANCH  41  49
BRANCH  45  61
ATOM     61  N   UNL     1     -47.994  46.204  24.727  1.00  0.00    -0.383 N 
ATOM     62  H   UNL     1     -48.673  45.954  24.024  1.00  0.00     0.158 HD
ATOM     63  H   UNL     1     -48.344  46.180  25.679  1.00  0.00     0.158 HD
ENDBRANCH  45  61
ENDBRANCH  29  38
BRANCH  32  64
ATOM     64  O   UNL     1     -41.869  41.610  26.604  1.00  0.00    -0.388 OA
ATOM     65  H   UNL     1     -41.538  41.073  27.348  1.00  0.00     0.211 HD
ENDBRANCH  32  64
ENDBRANCH   1  25
TORSDOF 9
ENDMDL
MODEL 6
REMARK VINA RESULT:      -9.0      4.456      6.855
REMARK SMILES Nc1ccc2ccc(CC[C@H]3C[C@@H](n4cc([C@H]5CCOC5)c5c(N)ncnc54)[C@H](O)[C@@H]3O)cc2n1
REMARK SMILES IDX 10 1 9 4 8 7 2 8 3 9 35 10 4 11 34 13 5 14 33 16 6 17 7 19
REMARK SMILES IDX 1 22 11 25 12 26 31 27 13 29 29 32 32 36 14 38 15 39 28 40
REMARK SMILES IDX 16 41 22 43 27 44 23 45 26 46 25 47 17 49 18 50 21 51 19 53
REMARK SMILES IDX 20 56 24 61 30 64
REMARK H PARENT 10 2 10 3 9 5 9 6 3 12 4 15 33 18 6 20 7 21 1 23 1 24 11 28
REMARK H PARENT 12 30 12 31 31 33 13 34 29 35 32 37 15 42 26 48 17 52 18 54
REMARK H PARENT 18 55 21 57 21 58 19 59 19 60 24 62 24 63 30 65
REMARK Flexibility Score: inf
ROOT
ATOM      1  C   UNL     1     -44.659  40.071  28.420  1.00  0.00    -0.044 C 
ATOM      2  H   UNL     1     -45.170  40.860  28.985  1.00  0.00     0.027 H 
ATOM      3  H   UNL     1     -45.187  40.007  27.458  1.00  0.00     0.027 H 
ENDROOT
BRANCH   1   4
ATOM      4  C   UNL     1     -44.808  38.714  29.123  1.00  0.00    -0.027 C 
ATOM      5  H   UNL     1     -45.289  38.827  30.101  1.00  0.00     0.032 H 
ATOM      6  H   UNL     1     -43.807  38.318  29.337  1.00  0.00     0.032 H 
BRANCH   4   7
ATOM      7  C   UNL     1     -45.520  37.681  28.281  1.00  0.00    -0.046 A 
ATOM      8  C   UNL     1     -46.521  33.114  27.395  1.00  0.00     0.124 A 
ATOM      9  C   UNL     1     -47.352  33.432  26.335  1.00  0.00    -0.019 A 
ATOM     10  N   UNL     1     -45.875  34.037  28.125  1.00  0.00    -0.231 NA
ATOM     11  C   UNL     1     -47.516  34.771  25.998  1.00  0.00    -0.049 A 
ATOM     12  H   UNL     1     -47.874  32.657  25.788  1.00  0.00     0.066 H 
ATOM     13  C   UNL     1     -46.036  35.335  27.807  1.00  0.00     0.073 A 
ATOM     14  C   UNL     1     -46.851  35.755  26.737  1.00  0.00     0.000 A 
ATOM     15  H   UNL     1     -48.168  35.036  25.171  1.00  0.00     0.063 H 
ATOM     16  C   UNL     1     -45.383  36.311  28.552  1.00  0.00    -0.033 A 
ATOM     17  C   UNL     1     -46.985  37.120  26.437  1.00  0.00    -0.053 A 
ATOM     18  H   UNL     1     -44.757  35.983  29.380  1.00  0.00     0.065 H 
ATOM     19  C   UNL     1     -46.323  38.076  27.205  1.00  0.00    -0.058 A 
ATOM     20  H   UNL     1     -47.607  37.444  25.607  1.00  0.00     0.063 H 
ATOM     21  H   UNL     1     -46.434  39.129  26.959  1.00  0.00     0.063 H 
BRANCH   8  22
ATOM     22  N   UNL     1     -46.337  31.786  27.775  1.00  0.00    -0.384 N 
ATOM     23  H   UNL     1     -45.952  31.807  28.717  1.00  0.00     0.158 HD
ATOM     24  H   UNL     1     -45.728  31.298  27.130  1.00  0.00     0.158 HD
ENDBRANCH   8  22
ENDBRANCH   4   7
ENDBRANCH   1   4
BRANCH   1  25
ATOM     25  C   UNL     1     -43.216  40.505  28.106  1.00  0.00    -0.010 C 
ATOM     26  C   UNL     1     -43.078  40.966  26.639  1.00  0.00    -0.024 C 
ATOM     27  C   UNL     1     -42.666  41.663  28.947  1.00  0.00     0.085 C 
ATOM     28  H   UNL     1     -42.578  39.622  28.253  1.00  0.00     0.033 H 
ATOM     29  C   UNL     1     -42.266  42.276  26.651  1.00  0.00     0.064 C 
ATOM     30  H   UNL     1     -42.521  40.198  26.088  1.00  0.00     0.029 H 
ATOM     31  H   UNL     1     -44.042  41.073  26.129  1.00  0.00     0.029 H 
ATOM     32  C   UNL     1     -41.632  42.342  28.043  1.00  0.00     0.101 C 
ATOM     33  H   UNL     1     -43.455  42.369  29.226  1.00  0.00     0.063 H 
ATOM     34  H   UNL     1     -41.493  42.196  25.878  1.00  0.00     0.056 H 
ATOM     35  H   UNL     1     -41.396  43.360  28.370  1.00  0.00     0.065 H 
BRANCH  27  36
ATOM     36  O   UNL     1     -42.041  41.178  30.131  1.00  0.00    -0.390 OA
ATOM     37  H   UNL     1     -42.262  41.818  30.834  1.00  0.00     0.211 HD
ENDBRANCH  27  36
BRANCH  29  38
ATOM     38  N   UNL     1     -43.044  43.473  26.347  1.00  0.00    -0.326 N 
ATOM     39  C   UNL     1     -43.795  44.213  27.226  1.00  0.00     0.010 A 
ATOM     40  C   UNL     1     -43.109  44.052  25.103  1.00  0.00     0.146 A 
ATOM     41  C   UNL     1     -44.364  45.282  26.553  1.00  0.00    -0.012 A 
ATOM     42  H   UNL     1     -43.880  43.923  28.264  1.00  0.00     0.082 H 
ATOM     43  C   UNL     1     -43.918  45.179  25.187  1.00  0.00     0.065 A 
ATOM     44  N   UNL     1     -42.487  43.592  24.005  1.00  0.00    -0.218 NA
ATOM     45  C   UNL     1     -44.102  45.896  23.990  1.00  0.00     0.136 A 
ATOM     46  C   UNL     1     -42.747  44.350  22.931  1.00  0.00     0.120 A 
ATOM     47  N   UNL     1     -43.505  45.458  22.863  1.00  0.00    -0.219 NA
ATOM     48  H   UNL     1     -42.288  44.032  22.000  1.00  0.00     0.106 H 
BRANCH  41  49
ATOM     49  C   UNL     1     -45.284  46.343  27.112  1.00  0.00     0.012 C 
ATOM     50  C   UNL     1     -46.727  46.264  26.644  1.00  0.00    -0.020 C 
ATOM     51  C   UNL     1     -45.444  46.250  28.630  1.00  0.00     0.054 C 
ATOM     52  H   UNL     1     -44.861  47.314  26.832  1.00  0.00     0.038 H 
ATOM     53  C   UNL     1     -47.381  45.381  27.684  1.00  0.00     0.047 C 
ATOM     54  H   UNL     1     -47.173  47.265  26.704  1.00  0.00     0.030 H 
ATOM     55  H   UNL     1     -46.872  45.901  25.622  1.00  0.00     0.030 H 
ATOM     56  O   UNL     1     -46.722  45.663  28.922  1.00  0.00    -0.381 OA
ATOM     57  H   UNL     1     -44.664  45.661  29.125  1.00  0.00     0.057 H 
ATOM     58  H   UNL     1     -45.446  47.250  29.076  1.00  0.00     0.057 H 
ATOM     59  H   UNL     1     -48.452  45.579  27.787  1.00  0.00     0.057 H 
ATOM     60  H   UNL     1     -47.246  44.317  27.463  1.00  0.00     0.057 H 
ENDBRANCH  41  49
BRANCH  45  61
ATOM     61  N   UNL     1     -44.850  47.062  23.871  1.00  0.00    -0.383 N 
ATOM     62  H   UNL     1     -44.292  47.898  23.776  1.00  0.00     0.158 HD
ATOM     63  H   UNL     1     -45.543  46.932  23.141  1.00  0.00     0.158 HD
ENDBRANCH  45  61
ENDBRANCH  29  38
BRANCH  32  64
ATOM     64  O   UNL     1     -40.415  41.575  28.066  1.00  0.00    -0.388 OA
ATOM     65  H   UNL     1     -40.104  41.537  27.142  1.00  0.00     0.211 HD
ENDBRANCH  32  64
ENDBRANCH   1  25
TORSDOF 9
ENDMDL
MODEL 7
REMARK VINA RESULT:      -8.8      1.521      2.143
REMARK SMILES Nc1ccc2ccc(CC[C@H]3C[C@@H](n4cc([C@H]5CCOC5)c5c(N)ncnc54)[C@H](O)[C@@H]3O)cc2n1
REMARK SMILES IDX 10 1 9 4 8 7 2 8 3 9 35 10 4 11 34 13 5 14 33 16 6 17 7 19
REMARK SMILES IDX 1 22 11 25 12 26 31 27 13 29 29 32 32 36 14 38 15 39 28 40
REMARK SMILES IDX 16 41 22 43 27 44 23 45 26 46 25 47 17 49 18 50 21 51 19 53
REMARK SMILES IDX 20 56 24 61 30 64
REMARK H PARENT 10 2 10 3 9 5 9 6 3 12 4 15 33 18 6 20 7 21 1 23 1 24 11 28
REMARK H PARENT 12 30 12 31 31 33 13 34 29 35 32 37 15 42 26 48 17 52 18 54
REMARK H PARENT 18 55 21 57 21 58 19 59 19 60 24 62 24 63 30 65
REMARK Flexibility Score: inf
ROOT
ATOM      1  C   UNL     1     -46.848  36.154  28.146  1.00  0.00    -0.044 C 
ATOM      2  H   UNL     1     -46.280  35.218  28.093  1.00  0.00     0.027 H 
ATOM      3  H   UNL     1     -47.096  36.290  29.208  1.00  0.00     0.027 H 
ENDROOT
BRANCH   1   4
ATOM      4  C   UNL     1     -48.169  36.034  27.371  1.00  0.00    -0.027 C 
ATOM      5  H   UNL     1     -48.317  36.893  26.708  1.00  0.00     0.032 H 
ATOM      6  H   UNL     1     -49.000  36.073  28.087  1.00  0.00     0.032 H 
BRANCH   4   7
ATOM      7  C   UNL     1     -48.300  34.732  26.616  1.00  0.00    -0.046 A 
ATOM      8  C   UNL     1     -46.322  31.371  23.888  1.00  0.00     0.124 A 
ATOM      9  C   UNL     1     -47.480  30.614  23.864  1.00  0.00    -0.019 A 
ATOM     10  N   UNL     1     -46.220  32.538  24.544  1.00  0.00    -0.231 NA
ATOM     11  C   UNL     1     -48.598  31.089  24.539  1.00  0.00    -0.049 A 
ATOM     12  H   UNL     1     -47.512  29.665  23.343  1.00  0.00     0.066 H 
ATOM     13  C   UNL     1     -47.299  32.999  25.205  1.00  0.00     0.073 A 
ATOM     14  C   UNL     1     -48.524  32.305  25.226  1.00  0.00     0.000 A 
ATOM     15  H   UNL     1     -49.513  30.505  24.533  1.00  0.00     0.063 H 
ATOM     16  C   UNL     1     -47.217  34.202  25.897  1.00  0.00    -0.033 A 
ATOM     17  C   UNL     1     -49.625  32.828  25.923  1.00  0.00    -0.053 A 
ATOM     18  H   UNL     1     -46.267  34.734  25.881  1.00  0.00     0.065 H 
ATOM     19  C   UNL     1     -49.512  34.033  26.613  1.00  0.00    -0.058 A 
ATOM     20  H   UNL     1     -50.574  32.297  25.934  1.00  0.00     0.063 H 
ATOM     21  H   UNL     1     -50.375  34.426  27.147  1.00  0.00     0.063 H 
BRANCH   8  22
ATOM     22  N   UNL     1     -45.173  30.927  23.236  1.00  0.00    -0.384 N 
ATOM     23  H   UNL     1     -45.101  29.930  23.427  1.00  0.00     0.158 HD
ATOM     24  H   UNL     1     -44.353  31.431  23.548  1.00  0.00     0.158 HD
ENDBRANCH   8  22
ENDBRANCH   4   7
ENDBRANCH   1   4
BRANCH   1  25
ATOM     25  C   UNL     1     -45.946  37.336  27.746  1.00  0.00    -0.010 C 
ATOM     26  C   UNL     1     -46.518  38.086  26.524  1.00  0.00    -0.024 C 
ATOM     27  C   UNL     1     -45.737  38.412  28.818  1.00  0.00     0.085 C 
ATOM     28  H   UNL     1     -44.970  36.913  27.468  1.00  0.00     0.033 H 
ATOM     29  C   UNL     1     -46.430  39.593  26.835  1.00  0.00     0.064 C 
ATOM     30  H   UNL     1     -45.889  37.857  25.654  1.00  0.00     0.029 H 
ATOM     31  H   UNL     1     -47.533  37.769  26.261  1.00  0.00     0.029 H 
ATOM     32  C   UNL     1     -45.479  39.700  28.030  1.00  0.00     0.101 C 
ATOM     33  H   UNL     1     -46.619  38.522  29.457  1.00  0.00     0.063 H 
ATOM     34  H   UNL     1     -46.003  40.090  25.956  1.00  0.00     0.056 H 
ATOM     35  H   UNL     1     -45.634  40.598  28.636  1.00  0.00     0.065 H 
BRANCH  27  36
ATOM     36  O   UNL     1     -44.612  38.102  29.636  1.00  0.00    -0.390 OA
ATOM     37  H   UNL     1     -44.968  37.643  30.421  1.00  0.00     0.211 HD
ENDBRANCH  27  36
BRANCH  29  38
ATOM     38  N   UNL     1     -47.714  40.232  27.100  1.00  0.00    -0.326 N 
ATOM     39  C   UNL     1     -48.803  39.671  27.719  1.00  0.00     0.010 A 
ATOM     40  C   UNL     1     -48.005  41.535  26.775  1.00  0.00     0.146 A 
ATOM     41  C   UNL     1     -49.819  40.609  27.796  1.00  0.00    -0.012 A 
ATOM     42  H   UNL     1     -48.782  38.643  28.053  1.00  0.00     0.082 H 
ATOM     43  C   UNL     1     -49.303  41.810  27.190  1.00  0.00     0.065 A 
ATOM     44  N   UNL     1     -47.164  42.383  26.162  1.00  0.00    -0.218 NA
ATOM     45  C   UNL     1     -49.771  43.111  26.928  1.00  0.00     0.136 A 
ATOM     46  C   UNL     1     -47.726  43.582  25.957  1.00  0.00     0.120 A 
ATOM     47  N   UNL     1     -48.961  43.988  26.302  1.00  0.00    -0.219 NA
ATOM     48  H   UNL     1     -47.109  44.319  25.453  1.00  0.00     0.106 H 
BRANCH  41  49
ATOM     49  C   UNL     1     -51.204  40.427  28.374  1.00  0.00     0.012 C 
ATOM     50  C   UNL     1     -52.327  40.335  27.355  1.00  0.00    -0.020 C 
ATOM     51  C   UNL     1     -51.363  39.108  29.131  1.00  0.00     0.054 C 
ATOM     52  H   UNL     1     -51.386  41.275  29.043  1.00  0.00     0.038 H 
ATOM     53  C   UNL     1     -52.425  38.851  27.079  1.00  0.00     0.047 C 
ATOM     54  H   UNL     1     -53.261  40.667  27.828  1.00  0.00     0.030 H 
ATOM     55  H   UNL     1     -52.190  40.931  26.447  1.00  0.00     0.030 H 
ATOM     56  O   UNL     1     -52.104  38.193  28.308  1.00  0.00    -0.381 OA
ATOM     57  H   UNL     1     -50.414  38.639  29.413  1.00  0.00     0.057 H 
ATOM     58  H   UNL     1     -51.950  39.259  30.043  1.00  0.00     0.057 H 
ATOM     59  H   UNL     1     -53.426  38.552  26.755  1.00  0.00     0.057 H 
ATOM     60  H   UNL     1     -51.705  38.526  26.322  1.00  0.00     0.057 H 
ENDBRANCH  41  49
BRANCH  45  61
ATOM     61  N   UNL     1     -51.026  43.589  27.288  1.00  0.00    -0.383 N 
ATOM     62  H   UNL     1     -51.730  42.871  27.367  1.00  0.00     0.158 HD
ATOM     63  H   UNL     1     -50.929  44.177  28.109  1.00  0.00     0.158 HD
ENDBRANCH  45  61
ENDBRANCH  29  38
BRANCH  32  64
ATOM     64  O   UNL     1     -44.114  39.704  27.574  1.00  0.00    -0.388 OA
ATOM     65  H   UNL     1     -44.156  39.737  26.600  1.00  0.00     0.211 HD
ENDBRANCH  32  64
ENDBRANCH   1  25
TORSDOF 9
ENDMDL
