MODEL 1
REMARK VINA RESULT:      -9.7      0.000      0.000
REMARK SMILES CNc1ccc2cc(OC[C@H]3O[C@@H](n4cc(C)c5c(N)ncnc54)[C@H](O)[C@@H]3O)ccc2n1
REMARK SMILES IDX 10 1 9 4 8 5 3 6 4 7 32 8 5 9 31 11 6 12 30 14 7 15 29 16
REMARK SMILES IDX 2 20 1 22 11 26 12 27 27 28 13 30 25 31 28 35 14 37 15 38
REMARK SMILES IDX 24 39 16 40 18 42 23 43 19 44 22 45 21 46 17 48 20 52 26 55
REMARK H PARENT 10 2 10 3 4 10 5 13 30 17 7 18 29 19 2 21 1 23 1 24 1 25 11 29
REMARK H PARENT 27 32 13 33 25 34 28 36 15 41 22 47 17 49 17 50 17 51 20 53
REMARK H PARENT 20 54 26 56
REMARK Flexibility Score: inf
ROOT
ATOM      1  C   UNL     1     -45.758  35.906  27.038  1.00  0.00     0.117 C 
ATOM      2  H   UNL     1     -45.298  34.922  26.899  1.00  0.00     0.073 H 
ATOM      3  H   UNL     1     -45.170  36.670  26.511  1.00  0.00     0.073 H 
ENDROOT
BRANCH   1   4
ATOM      4  O   UNL     1     -47.099  35.879  26.533  1.00  0.00    -0.491 OA
BRANCH   4   5
ATOM      5  C   UNL     1     -47.543  34.638  26.173  1.00  0.00     0.120 A 
ATOM      6  C   UNL     1     -47.907  30.130  24.096  1.00  0.00     0.126 A 
ATOM      7  C   UNL     1     -46.674  30.598  23.668  1.00  0.00    -0.019 A 
ATOM      8  N   UNL     1     -48.725  30.858  24.880  1.00  0.00    -0.231 NA
ATOM      9  C   UNL     1     -46.252  31.859  24.077  1.00  0.00    -0.049 A 
ATOM     10  H   UNL     1     -46.050  30.004  23.009  1.00  0.00     0.066 H 
ATOM     11  C   UNL     1     -48.322  32.078  25.279  1.00  0.00     0.073 A 
ATOM     12  C   UNL     1     -47.081  32.625  24.899  1.00  0.00     0.004 A 
ATOM     13  H   UNL     1     -45.286  32.235  23.750  1.00  0.00     0.063 H 
ATOM     14  C   UNL     1     -49.149  32.841  26.095  1.00  0.00    -0.032 A 
ATOM     15  C   UNL     1     -46.704  33.904  25.340  1.00  0.00    -0.011 A 
ATOM     16  C   UNL     1     -48.776  34.115  26.542  1.00  0.00    -0.018 A 
ATOM     17  H   UNL     1     -50.115  32.435  26.385  1.00  0.00     0.065 H 
ATOM     18  H   UNL     1     -45.746  34.323  25.047  1.00  0.00     0.067 H 
ATOM     19  H   UNL     1     -49.469  34.679  27.158  1.00  0.00     0.066 H 
BRANCH   6  20
ATOM     20  N   UNL     1     -48.400  28.879  23.715  1.00  0.00    -0.373 N 
ATOM     21  H   UNL     1     -49.171  29.107  23.086  1.00  0.00     0.161 HD
BRANCH  20  22
ATOM     22  C   UNL     1     -48.850  28.059  24.827  1.00  0.00     0.005 C 
ATOM     23  H   UNL     1     -49.881  27.717  24.684  1.00  0.00     0.045 H 
ATOM     24  H   UNL     1     -48.773  28.592  25.780  1.00  0.00     0.045 H 
ATOM     25  H   UNL     1     -48.211  27.173  24.898  1.00  0.00     0.045 H 
ENDBRANCH  20  22
ENDBRANCH   6  20
ENDBRANCH   4   5
ENDBRANCH   1   4
BRANCH   1  26
ATOM     26  C   UNL     1     -45.791  36.259  28.529  1.00  0.00     0.123 C 
ATOM     27  O   UNL     1     -44.558  36.911  28.905  1.00  0.00    -0.345 OA
ATOM     28  C   UNL     1     -46.939  37.191  28.911  1.00  0.00     0.114 C 
ATOM     29  H   UNL     1     -45.846  35.325  29.101  1.00  0.00     0.067 H 
ATOM     30  C   UNL     1     -44.862  38.163  29.566  1.00  0.00     0.164 C 
ATOM     31  C   UNL     1     -46.322  38.045  30.009  1.00  0.00     0.128 C 
ATOM     32  H   UNL     1     -47.260  37.809  28.069  1.00  0.00     0.066 H 
ATOM     33  H   UNL     1     -44.209  38.241  30.443  1.00  0.00     0.088 H 
ATOM     34  H   UNL     1     -46.835  38.999  30.152  1.00  0.00     0.068 H 
BRANCH  28  35
ATOM     35  O   UNL     1     -48.075  36.466  29.378  1.00  0.00    -0.387 OA
ATOM     36  H   UNL     1     -48.684  37.130  29.764  1.00  0.00     0.211 HD
ENDBRANCH  28  35
BRANCH  30  37
ATOM     37  N   UNL     1     -44.512  39.263  28.679  1.00  0.00    -0.303 N 
ATOM     38  C   UNL     1     -45.138  39.645  27.518  1.00  0.00     0.012 A 
ATOM     39  C   UNL     1     -43.462  40.120  28.922  1.00  0.00     0.147 A 
ATOM     40  C   UNL     1     -44.456  40.720  26.975  1.00  0.00    -0.020 A 
ATOM     41  H   UNL     1     -46.003  39.122  27.131  1.00  0.00     0.082 H 
ATOM     42  C   UNL     1     -43.385  41.028  27.874  1.00  0.00     0.064 A 
ATOM     43  N   UNL     1     -42.650  40.070  29.993  1.00  0.00    -0.218 NA
ATOM     44  C   UNL     1     -42.338  41.964  27.933  1.00  0.00     0.136 A 
ATOM     45  C   UNL     1     -41.690  41.005  29.933  1.00  0.00     0.120 A 
ATOM     46  N   UNL     1     -41.494  41.936  28.981  1.00  0.00    -0.219 NA
ATOM     47  H   UNL     1     -40.983  41.014  30.757  1.00  0.00     0.106 H 
BRANCH  40  48
ATOM     48  C   UNL     1     -44.775  41.398  25.692  1.00  0.00    -0.037 C 
ATOM     49  H   UNL     1     -44.949  42.469  25.842  1.00  0.00     0.028 H 
ATOM     50  H   UNL     1     -43.947  41.287  24.985  1.00  0.00     0.028 H 
ATOM     51  H   UNL     1     -45.679  40.973  25.245  1.00  0.00     0.028 H 
ENDBRANCH  40  48
BRANCH  44  52
ATOM     52  N   UNL     1     -42.114  42.946  26.977  1.00  0.00    -0.383 N 
ATOM     53  H   UNL     1     -41.912  43.857  27.362  1.00  0.00     0.158 HD
ATOM     54  H   UNL     1     -41.450  42.605  26.289  1.00  0.00     0.158 HD
ENDBRANCH  44  52
ENDBRANCH  30  37
BRANCH  31  55
ATOM     55  O   UNL     1     -46.446  37.325  31.259  1.00  0.00    -0.386 OA
ATOM     56  H   UNL     1     -45.625  36.810  31.394  1.00  0.00     0.211 HD
ENDBRANCH  31  55
ENDBRANCH   1  26
TORSDOF 10
ENDMDL
MODEL 2
REMARK VINA RESULT:      -8.8      2.867     11.202
REMARK SMILES CNc1ccc2cc(OC[C@H]3O[C@@H](n4cc(C)c5c(N)ncnc54)[C@H](O)[C@@H]3O)ccc2n1
REMARK SMILES IDX 10 1 9 4 8 5 3 6 4 7 32 8 5 9 31 11 6 12 30 14 7 15 29 16
REMARK SMILES IDX 2 20 1 22 11 26 12 27 27 28 13 30 25 31 28 35 14 37 15 38
REMARK SMILES IDX 24 39 16 40 18 42 23 43 19 44 22 45 21 46 17 48 20 52 26 55
REMARK H PARENT 10 2 10 3 4 10 5 13 30 17 7 18 29 19 2 21 1 23 1 24 1 25 11 29
REMARK H PARENT 27 32 13 33 25 34 28 36 15 41 22 47 17 49 17 50 17 51 20 53
REMARK H PARENT 20 54 26 56
REMARK Flexibility Score: inf
ROOT
ATOM      1  C   UNL     1     -48.679  31.989  25.823  1.00  0.00     0.117 C 
ATOM      2  H   UNL     1     -47.601  31.952  26.015  1.00  0.00     0.073 H 
ATOM      3  H   UNL     1     -49.190  31.216  26.412  1.00  0.00     0.073 H 
ENDROOT
BRANCH   1   4
ATOM      4  O   UNL     1     -49.178  33.287  26.171  1.00  0.00    -0.491 OA
BRANCH   4   5
ATOM      5  C   UNL     1     -48.224  34.161  26.607  1.00  0.00     0.120 A 
ATOM      6  C   UNL     1     -45.915  38.225  28.319  1.00  0.00     0.126 A 
ATOM      7  C   UNL     1     -47.257  38.577  28.319  1.00  0.00    -0.019 A 
ATOM      8  N   UNL     1     -45.482  37.020  27.900  1.00  0.00    -0.231 NA
ATOM      9  C   UNL     1     -48.197  37.647  27.886  1.00  0.00    -0.049 A 
ATOM     10  H   UNL     1     -47.574  39.565  28.630  1.00  0.00     0.066 H 
ATOM     11  C   UNL     1     -46.388  36.117  27.482  1.00  0.00     0.073 A 
ATOM     12  C   UNL     1     -47.769  36.388  27.458  1.00  0.00     0.004 A 
ATOM     13  H   UNL     1     -49.251  37.910  27.884  1.00  0.00     0.063 H 
ATOM     14  C   UNL     1     -45.961  34.866  27.053  1.00  0.00    -0.032 A 
ATOM     15  C   UNL     1     -48.676  35.413  27.012  1.00  0.00    -0.011 A 
ATOM     16  C   UNL     1     -46.861  33.888  26.612  1.00  0.00    -0.018 A 
ATOM     17  H   UNL     1     -44.895  34.649  27.055  1.00  0.00     0.065 H 
ATOM     18  H   UNL     1     -49.741  35.624  26.996  1.00  0.00     0.067 H 
ATOM     19  H   UNL     1     -46.474  32.935  26.265  1.00  0.00     0.066 H 
BRANCH   6  20
ATOM     20  N   UNL     1     -44.915  39.111  28.728  1.00  0.00    -0.373 N 
ATOM     21  H   UNL     1     -45.356  39.636  29.485  1.00  0.00     0.161 HD
BRANCH  20  22
ATOM     22  C   UNL     1     -44.446  39.996  27.675  1.00  0.00     0.005 C 
ATOM     23  H   UNL     1     -44.205  39.442  26.761  1.00  0.00     0.045 H 
ATOM     24  H   UNL     1     -43.572  40.574  27.991  1.00  0.00     0.045 H 
ATOM     25  H   UNL     1     -45.238  40.712  27.433  1.00  0.00     0.045 H 
ENDBRANCH  20  22
ENDBRANCH   6  20
ENDBRANCH   4   5
ENDBRANCH   1   4
BRANCH   1  26
ATOM     26  C   UNL     1     -48.951  31.729  24.337  1.00  0.00     0.123 C 
ATOM     27  O   UNL     1     -48.124  30.641  23.871  1.00  0.00    -0.345 OA
ATOM     28  C   UNL     1     -50.404  31.362  24.038  1.00  0.00     0.114 C 
ATOM     29  H   UNL     1     -48.656  32.621  23.773  1.00  0.00     0.067 H 
ATOM     30  C   UNL     1     -48.957  29.645  23.232  1.00  0.00     0.164 C 
ATOM     31  C   UNL     1     -50.265  30.366  22.897  1.00  0.00     0.128 C 
ATOM     32  H   UNL     1     -50.894  30.903  24.900  1.00  0.00     0.066 H 
ATOM     33  H   UNL     1     -48.453  29.335  22.308  1.00  0.00     0.088 H 
ATOM     34  H   UNL     1     -51.134  29.711  22.789  1.00  0.00     0.068 H 
BRANCH  28  35
ATOM     35  O   UNL     1     -51.170  32.503  23.656  1.00  0.00    -0.387 OA
ATOM     36  H   UNL     1     -51.126  33.127  24.411  1.00  0.00     0.211 HD
ENDBRANCH  28  35
BRANCH  30  37
ATOM     37  N   UNL     1     -49.033  28.471  24.089  1.00  0.00    -0.303 N 
ATOM     38  C   UNL     1     -50.133  27.969  24.740  1.00  0.00     0.012 A 
ATOM     39  C   UNL     1     -47.952  27.658  24.346  1.00  0.00     0.147 A 
ATOM     40  C   UNL     1     -49.750  26.858  25.471  1.00  0.00    -0.020 A 
ATOM     41  H   UNL     1     -51.105  28.439  24.674  1.00  0.00     0.082 H 
ATOM     42  C   UNL     1     -48.356  26.655  25.218  1.00  0.00     0.064 A 
ATOM     43  N   UNL     1     -46.717  27.824  23.841  1.00  0.00    -0.218 NA
ATOM     44  C   UNL     1     -47.365  25.745  25.626  1.00  0.00     0.136 A 
ATOM     45  C   UNL     1     -45.861  26.903  24.309  1.00  0.00     0.120 A 
ATOM     46  N   UNL     1     -46.112  25.887  25.156  1.00  0.00    -0.219 NA
ATOM     47  H   UNL     1     -44.836  26.984  23.958  1.00  0.00     0.106 H 
BRANCH  40  48
ATOM     48  C   UNL     1     -50.628  26.054  26.361  1.00  0.00    -0.037 C 
ATOM     49  H   UNL     1     -51.407  26.675  26.815  1.00  0.00     0.028 H 
ATOM     50  H   UNL     1     -51.120  25.257  25.793  1.00  0.00     0.028 H 
ATOM     51  H   UNL     1     -50.046  25.602  27.170  1.00  0.00     0.028 H 
ENDBRANCH  40  48
BRANCH  44  52
ATOM     52  N   UNL     1     -47.591  24.679  26.488  1.00  0.00    -0.383 N 
ATOM     53  H   UNL     1     -48.375  24.812  27.111  1.00  0.00     0.158 HD
ATOM     54  H   UNL     1     -47.595  23.812  25.961  1.00  0.00     0.158 HD
ENDBRANCH  44  52
ENDBRANCH  30  37
BRANCH  31  55
ATOM     55  O   UNL     1     -50.164  31.112  21.660  1.00  0.00    -0.386 OA
ATOM     56  H   UNL     1     -49.475  31.796  21.776  1.00  0.00     0.211 HD
ENDBRANCH  31  55
ENDBRANCH   1  26
TORSDOF 10
ENDMDL
MODEL 3
REMARK VINA RESULT:      -8.7      3.085      5.245
REMARK SMILES CNc1ccc2cc(OC[C@H]3O[C@@H](n4cc(C)c5c(N)ncnc54)[C@H](O)[C@@H]3O)ccc2n1
REMARK SMILES IDX 10 1 9 4 8 5 3 6 4 7 32 8 5 9 31 11 6 12 30 14 7 15 29 16
REMARK SMILES IDX 2 20 1 22 11 26 12 27 27 28 13 30 25 31 28 35 14 37 15 38
REMARK SMILES IDX 24 39 16 40 18 42 23 43 19 44 22 45 21 46 17 48 20 52 26 55
REMARK H PARENT 10 2 10 3 4 10 5 13 30 17 7 18 29 19 2 21 1 23 1 24 1 25 11 29
REMARK H PARENT 27 32 13 33 25 34 28 36 15 41 22 47 17 49 17 50 17 51 20 53
REMARK H PARENT 20 54 26 56
REMARK Flexibility Score: inf
ROOT
ATOM      1  C   UNL     1     -45.025  40.063  27.335  1.00  0.00     0.117 C 
ATOM      2  H   UNL     1     -45.139  39.375  26.490  1.00  0.00     0.073 H 
ATOM      3  H   UNL     1     -45.496  41.026  27.098  1.00  0.00     0.073 H 
ENDROOT
BRANCH   1   4
ATOM      4  O   UNL     1     -45.630  39.488  28.500  1.00  0.00    -0.491 OA
BRANCH   4   5
ATOM      5  C   UNL     1     -45.771  38.130  28.451  1.00  0.00     0.120 A 
ATOM      6  C   UNL     1     -46.726  33.494  26.911  1.00  0.00     0.126 A 
ATOM      7  C   UNL     1     -46.962  34.276  25.790  1.00  0.00    -0.019 A 
ATOM      8  N   UNL     1     -46.348  34.019  28.093  1.00  0.00    -0.231 NA
ATOM      9  C   UNL     1     -46.784  35.652  25.878  1.00  0.00    -0.049 A 
ATOM     10  H   UNL     1     -47.298  33.830  24.861  1.00  0.00     0.066 H 
ATOM     11  C   UNL     1     -46.175  35.350  28.183  1.00  0.00     0.073 A 
ATOM     12  C   UNL     1     -46.382  36.215  27.092  1.00  0.00     0.004 A 
ATOM     13  H   UNL     1     -46.964  36.275  25.005  1.00  0.00     0.063 H 
ATOM     14  C   UNL     1     -45.777  35.910  29.392  1.00  0.00    -0.032 A 
ATOM     15  C   UNL     1     -46.189  37.598  27.235  1.00  0.00    -0.011 A 
ATOM     16  C   UNL     1     -45.577  37.288  29.540  1.00  0.00    -0.018 A 
ATOM     17  H   UNL     1     -45.626  35.253  30.246  1.00  0.00     0.065 H 
ATOM     18  H   UNL     1     -46.348  38.263  26.392  1.00  0.00     0.067 H 
ATOM     19  H   UNL     1     -45.291  37.676  30.512  1.00  0.00     0.066 H 
BRANCH   6  20
ATOM     20  N   UNL     1     -46.895  32.107  26.899  1.00  0.00    -0.373 N 
ATOM     21  H   UNL     1     -46.012  31.762  26.521  1.00  0.00     0.161 HD
BRANCH  20  22
ATOM     22  C   UNL     1     -48.023  31.658  26.100  1.00  0.00     0.005 C 
ATOM     23  H   UNL     1     -48.371  32.443  25.418  1.00  0.00     0.045 H 
ATOM     24  H   UNL     1     -48.856  31.325  26.726  1.00  0.00     0.045 H 
ATOM     25  H   UNL     1     -47.710  30.803  25.492  1.00  0.00     0.045 H 
ENDBRANCH  20  22
ENDBRANCH   6  20
ENDBRANCH   4   5
ENDBRANCH   1   4
BRANCH   1  26
ATOM     26  C   UNL     1     -43.536  40.304  27.611  1.00  0.00     0.123 C 
ATOM     27  O   UNL     1     -42.958  41.076  26.536  1.00  0.00    -0.345 OA
ATOM     28  C   UNL     1     -43.271  41.059  28.912  1.00  0.00     0.114 C 
ATOM     29  H   UNL     1     -43.027  39.333  27.618  1.00  0.00     0.067 H 
ATOM     30  C   UNL     1     -42.282  42.232  27.087  1.00  0.00     0.164 C 
ATOM     31  C   UNL     1     -42.055  41.903  28.564  1.00  0.00     0.128 C 
ATOM     32  H   UNL     1     -44.117  41.689  29.197  1.00  0.00     0.066 H 
ATOM     33  H   UNL     1     -41.318  42.328  26.572  1.00  0.00     0.088 H 
ATOM     34  H   UNL     1     -41.936  42.775  29.213  1.00  0.00     0.068 H 
BRANCH  28  35
ATOM     35  O   UNL     1     -43.006  40.168  29.995  1.00  0.00    -0.387 OA
ATOM     36  H   UNL     1     -43.417  40.571  30.788  1.00  0.00     0.211 HD
ENDBRANCH  28  35
BRANCH  30  37
ATOM     37  N   UNL     1     -43.053  43.425  26.770  1.00  0.00    -0.303 N 
ATOM     38  C   UNL     1     -43.804  44.197  27.622  1.00  0.00     0.012 A 
ATOM     39  C   UNL     1     -43.106  43.973  25.508  1.00  0.00     0.147 A 
ATOM     40  C   UNL     1     -44.395  45.217  26.897  1.00  0.00    -0.020 A 
ATOM     41  H   UNL     1     -43.901  43.965  28.674  1.00  0.00     0.082 H 
ATOM     42  C   UNL     1     -43.947  45.078  25.545  1.00  0.00     0.064 A 
ATOM     43  N   UNL     1     -42.457  43.503  24.428  1.00  0.00    -0.218 NA
ATOM     44  C   UNL     1     -44.154  45.746  24.326  1.00  0.00     0.136 A 
ATOM     45  C   UNL     1     -42.739  44.216  23.328  1.00  0.00     0.120 A 
ATOM     46  N   UNL     1     -43.535  45.296  23.218  1.00  0.00    -0.219 NA
ATOM     47  H   UNL     1     -42.263  43.883  22.410  1.00  0.00     0.106 H 
BRANCH  40  48
ATOM     48  C   UNL     1     -45.331  46.240  27.432  1.00  0.00    -0.037 C 
ATOM     49  H   UNL     1     -46.059  46.547  26.674  1.00  0.00     0.028 H 
ATOM     50  H   UNL     1     -45.885  45.840  28.288  1.00  0.00     0.028 H 
ATOM     51  H   UNL     1     -44.785  47.133  27.752  1.00  0.00     0.028 H 
ENDBRANCH  40  48
BRANCH  44  52
ATOM     52  N   UNL     1     -44.957  46.870  24.178  1.00  0.00    -0.383 N 
ATOM     53  H   UNL     1     -44.455  47.745  24.228  1.00  0.00     0.158 HD
ATOM     54  H   UNL     1     -45.555  46.756  23.366  1.00  0.00     0.158 HD
ENDBRANCH  44  52
ENDBRANCH  30  37
BRANCH  31  55
ATOM     55  O   UNL     1     -40.874  41.089  28.756  1.00  0.00    -0.386 OA
ATOM     56  H   UNL     1     -40.279  41.560  29.373  1.00  0.00     0.211 HD
ENDBRANCH  31  55
ENDBRANCH   1  26
TORSDOF 10
ENDMDL
MODEL 4
REMARK VINA RESULT:      -8.5      3.734     11.555
REMARK SMILES CNc1ccc2cc(OC[C@H]3O[C@@H](n4cc(C)c5c(N)ncnc54)[C@H](O)[C@@H]3O)ccc2n1
REMARK SMILES IDX 10 1 9 4 8 5 3 6 4 7 32 8 5 9 31 11 6 12 30 14 7 15 29 16
REMARK SMILES IDX 2 20 1 22 11 26 12 27 27 28 13 30 25 31 28 35 14 37 15 38
REMARK SMILES IDX 24 39 16 40 18 42 23 43 19 44 22 45 21 46 17 48 20 52 26 55
REMARK H PARENT 10 2 10 3 4 10 5 13 30 17 7 18 29 19 2 21 1 23 1 24 1 25 11 29
REMARK H PARENT 27 32 13 33 25 34 28 36 15 41 22 47 17 49 17 50 17 51 20 53
REMARK H PARENT 20 54 26 56
REMARK Flexibility Score: inf
ROOT
ATOM      1  C   UNL     1     -47.832  31.740  24.615  1.00  0.00     0.117 C 
ATOM      2  H   UNL     1     -48.186  31.044  25.383  1.00  0.00     0.073 H 
ATOM      3  H   UNL     1     -48.512  32.600  24.549  1.00  0.00     0.073 H 
ENDROOT
BRANCH   1   4
ATOM      4  O   UNL     1     -46.508  32.179  24.947  1.00  0.00    -0.491 OA
BRANCH   4   5
ATOM      5  C   UNL     1     -46.449  33.049  25.998  1.00  0.00     0.120 A 
ATOM      6  C   UNL     1     -46.515  37.186  28.765  1.00  0.00     0.126 A 
ATOM      7  C   UNL     1     -46.844  37.628  27.492  1.00  0.00    -0.019 A 
ATOM      8  N   UNL     1     -46.243  35.895  29.034  1.00  0.00    -0.231 NA
ATOM      9  C   UNL     1     -46.915  36.704  26.455  1.00  0.00    -0.049 A 
ATOM     10  H   UNL     1     -47.026  38.679  27.297  1.00  0.00     0.066 H 
ATOM     11  C   UNL     1     -46.310  34.997  28.035  1.00  0.00     0.073 A 
ATOM     12  C   UNL     1     -46.647  35.359  26.717  1.00  0.00     0.004 A 
ATOM     13  H   UNL     1     -47.175  37.038  25.454  1.00  0.00     0.063 H 
ATOM     14  C   UNL     1     -46.040  33.658  28.295  1.00  0.00    -0.032 A 
ATOM     15  C   UNL     1     -46.704  34.385  25.706  1.00  0.00    -0.011 A 
ATOM     16  C   UNL     1     -46.101  32.682  27.293  1.00  0.00    -0.018 A 
ATOM     17  H   UNL     1     -45.767  33.369  29.308  1.00  0.00     0.065 H 
ATOM     18  H   UNL     1     -46.965  34.666  24.690  1.00  0.00     0.067 H 
ATOM     19  H   UNL     1     -45.857  31.655  27.544  1.00  0.00     0.066 H 
BRANCH   6  20
ATOM     20  N   UNL     1     -46.414  38.059  29.851  1.00  0.00    -0.373 N 
ATOM     21  H   UNL     1     -46.502  38.983  29.425  1.00  0.00     0.161 HD
BRANCH  20  22
ATOM     22  C   UNL     1     -45.169  37.937  30.591  1.00  0.00     0.005 C 
ATOM     23  H   UNL     1     -44.896  38.879  31.079  1.00  0.00     0.045 H 
ATOM     24  H   UNL     1     -44.346  37.609  29.949  1.00  0.00     0.045 H 
ATOM     25  H   UNL     1     -45.293  37.180  31.373  1.00  0.00     0.045 H 
ENDBRANCH  20  22
ENDBRANCH   6  20
ENDBRANCH   4   5
ENDBRANCH   1   4
BRANCH   1  26
ATOM     26  C   UNL     1     -47.800  31.039  23.252  1.00  0.00     0.123 C 
ATOM     27  O   UNL     1     -47.093  29.784  23.364  1.00  0.00    -0.345 OA
ATOM     28  C   UNL     1     -49.187  30.736  22.689  1.00  0.00     0.114 C 
ATOM     29  H   UNL     1     -47.230  31.666  22.557  1.00  0.00     0.067 H 
ATOM     30  C   UNL     1     -47.922  28.720  22.838  1.00  0.00     0.164 C 
ATOM     31  C   UNL     1     -48.971  29.414  21.967  1.00  0.00     0.128 C 
ATOM     32  H   UNL     1     -49.934  30.632  23.480  1.00  0.00     0.066 H 
ATOM     33  H   UNL     1     -47.284  28.079  22.218  1.00  0.00     0.088 H 
ATOM     34  H   UNL     1     -49.894  28.847  21.822  1.00  0.00     0.068 H 
BRANCH  28  35
ATOM     35  O   UNL     1     -49.632  31.759  21.800  1.00  0.00    -0.387 OA
ATOM     36  H   UNL     1     -50.587  31.883  21.980  1.00  0.00     0.211 HD
ENDBRANCH  28  35
BRANCH  30  37
ATOM     37  N   UNL     1     -48.397  27.901  23.944  1.00  0.00    -0.303 N 
ATOM     38  C   UNL     1     -47.651  27.247  24.893  1.00  0.00     0.012 A 
ATOM     39  C   UNL     1     -49.733  27.690  24.204  1.00  0.00     0.147 A 
ATOM     40  C   UNL     1     -48.505  26.560  25.738  1.00  0.00    -0.020 A 
ATOM     41  H   UNL     1     -46.569  27.279  24.898  1.00  0.00     0.082 H 
ATOM     42  C   UNL     1     -49.838  26.845  25.301  1.00  0.00     0.064 A 
ATOM     43  N   UNL     1     -50.753  28.211  23.500  1.00  0.00    -0.218 NA
ATOM     44  C   UNL     1     -51.140  26.485  25.690  1.00  0.00     0.136 A 
ATOM     45  C   UNL     1     -51.941  27.790  23.960  1.00  0.00     0.120 A 
ATOM     46  N   UNL     1     -52.188  26.973  25.000  1.00  0.00    -0.219 NA
ATOM     47  H   UNL     1     -52.814  28.157  23.429  1.00  0.00     0.106 H 
BRANCH  40  48
ATOM     48  C   UNL     1     -48.098  25.681  26.865  1.00  0.00    -0.037 C 
ATOM     49  H   UNL     1     -48.800  24.850  26.993  1.00  0.00     0.028 H 
ATOM     50  H   UNL     1     -47.105  25.258  26.681  1.00  0.00     0.028 H 
ATOM     51  H   UNL     1     -48.072  26.244  27.803  1.00  0.00     0.028 H 
ENDBRANCH  40  48
BRANCH  44  52
ATOM     52  N   UNL     1     -51.432  25.655  26.765  1.00  0.00    -0.383 N 
ATOM     53  H   UNL     1     -51.269  24.675  26.585  1.00  0.00     0.158 HD
ATOM     54  H   UNL     1     -50.998  26.023  27.605  1.00  0.00     0.158 HD
ENDBRANCH  44  52
ENDBRANCH  30  37
BRANCH  31  55
ATOM     55  O   UNL     1     -48.460  29.705  20.644  1.00  0.00    -0.386 OA
ATOM     56  H   UNL     1     -49.127  30.244  20.175  1.00  0.00     0.211 HD
ENDBRANCH  31  55
ENDBRANCH   1  26
TORSDOF 10
ENDMDL
MODEL 5
REMARK VINA RESULT:      -8.3      2.289      3.010
REMARK SMILES CNc1ccc2cc(OC[C@H]3O[C@@H](n4cc(C)c5c(N)ncnc54)[C@H](O)[C@@H]3O)ccc2n1
REMARK SMILES IDX 10 1 9 4 8 5 3 6 4 7 32 8 5 9 31 11 6 12 30 14 7 15 29 16
REMARK SMILES IDX 2 20 1 22 11 26 12 27 27 28 13 30 25 31 28 35 14 37 15 38
REMARK SMILES IDX 24 39 16 40 18 42 23 43 19 44 22 45 21 46 17 48 20 52 26 55
REMARK H PARENT 10 2 10 3 4 10 5 13 30 17 7 18 29 19 2 21 1 23 1 24 1 25 11 29
REMARK H PARENT 27 32 13 33 25 34 28 36 15 41 22 47 17 49 17 50 17 51 20 53
REMARK H PARENT 20 54 26 56
REMARK Flexibility Score: inf
ROOT
ATOM      1  C   UNL     1     -46.460  35.811  26.714  1.00  0.00     0.117 C 
ATOM      2  H   UNL     1     -45.798  35.195  26.097  1.00  0.00     0.073 H 
ATOM      3  H   UNL     1     -46.815  36.673  26.133  1.00  0.00     0.073 H 
ENDROOT
BRANCH   1   4
ATOM      4  O   UNL     1     -47.571  35.019  27.153  1.00  0.00    -0.491 OA
BRANCH   4   5
ATOM      5  C   UNL     1     -47.858  33.953  26.350  1.00  0.00     0.120 A 
ATOM      6  C   UNL     1     -47.510  30.274  23.015  1.00  0.00     0.126 A 
ATOM      7  C   UNL     1     -46.233  30.814  23.053  1.00  0.00    -0.019 A 
ATOM      8  N   UNL     1     -48.523  30.758  23.758  1.00  0.00    -0.231 NA
ATOM      9  C   UNL     1     -45.980  31.886  23.903  1.00  0.00    -0.049 A 
ATOM     10  H   UNL     1     -45.445  30.426  22.419  1.00  0.00     0.066 H 
ATOM     11  C   UNL     1     -48.283  31.794  24.583  1.00  0.00     0.073 A 
ATOM     12  C   UNL     1     -47.015  32.396  24.690  1.00  0.00     0.004 A 
ATOM     13  H   UNL     1     -44.982  32.316  23.943  1.00  0.00     0.063 H 
ATOM     14  C   UNL     1     -49.314  32.303  25.363  1.00  0.00    -0.032 A 
ATOM     15  C   UNL     1     -46.813  33.476  25.564  1.00  0.00    -0.011 A 
ATOM     16  C   UNL     1     -49.118  33.376  26.241  1.00  0.00    -0.018 A 
ATOM     17  H   UNL     1     -50.302  31.855  25.280  1.00  0.00     0.065 H 
ATOM     18  H   UNL     1     -45.834  33.937  25.646  1.00  0.00     0.067 H 
ATOM     19  H   UNL     1     -49.963  33.751  26.810  1.00  0.00     0.066 H 
BRANCH   6  20
ATOM     20  N   UNL     1     -47.839  29.205  22.177  1.00  0.00    -0.373 N 
ATOM     21  H   UNL     1     -46.985  29.050  21.640  1.00  0.00     0.161 HD
BRANCH  20  22
ATOM     22  C   UNL     1     -48.971  29.468  21.304  1.00  0.00     0.005 C 
ATOM     23  H   UNL     1     -49.722  28.673  21.367  1.00  0.00     0.045 H 
ATOM     24  H   UNL     1     -48.659  29.591  20.263  1.00  0.00     0.045 H 
ATOM     25  H   UNL     1     -49.449  30.404  21.613  1.00  0.00     0.045 H 
ENDBRANCH  20  22
ENDBRANCH   6  20
ENDBRANCH   4   5
ENDBRANCH   1   4
BRANCH   1  26
ATOM     26  C   UNL     1     -45.698  36.329  27.938  1.00  0.00     0.123 C 
ATOM     27  O   UNL     1     -45.235  37.675  27.694  1.00  0.00    -0.345 OA
ATOM     28  C   UNL     1     -46.538  36.358  29.214  1.00  0.00     0.114 C 
ATOM     29  H   UNL     1     -44.808  35.704  28.078  1.00  0.00     0.067 H 
ATOM     30  C   UNL     1     -45.670  38.534  28.774  1.00  0.00     0.164 C 
ATOM     31  C   UNL     1     -46.012  37.592  29.930  1.00  0.00     0.128 C 
ATOM     32  H   UNL     1     -47.605  36.456  28.997  1.00  0.00     0.066 H 
ATOM     33  H   UNL     1     -44.822  39.174  29.050  1.00  0.00     0.088 H 
ATOM     34  H   UNL     1     -46.717  38.000  30.659  1.00  0.00     0.068 H 
BRANCH  28  35
ATOM     35  O   UNL     1     -46.358  35.175  29.992  1.00  0.00    -0.387 OA
ATOM     36  H   UNL     1     -46.199  35.474  30.911  1.00  0.00     0.211 HD
ENDBRANCH  28  35
BRANCH  30  37
ATOM     37  N   UNL     1     -46.721  39.414  28.284  1.00  0.00    -0.303 N 
ATOM     38  C   UNL     1     -48.073  39.321  28.508  1.00  0.00     0.012 A 
ATOM     39  C   UNL     1     -46.473  40.525  27.510  1.00  0.00     0.147 A 
ATOM     40  C   UNL     1     -48.710  40.345  27.828  1.00  0.00    -0.020 A 
ATOM     41  H   UNL     1     -48.505  38.528  29.104  1.00  0.00     0.082 H 
ATOM     42  C   UNL     1     -47.687  41.118  27.192  1.00  0.00     0.064 A 
ATOM     43  N   UNL     1     -45.255  40.948  27.126  1.00  0.00    -0.218 NA
ATOM     44  C   UNL     1     -47.630  42.255  26.366  1.00  0.00     0.136 A 
ATOM     45  C   UNL     1     -45.331  42.032  26.339  1.00  0.00     0.120 A 
ATOM     46  N   UNL     1     -46.431  42.700  25.947  1.00  0.00    -0.219 NA
ATOM     47  H   UNL     1     -44.385  42.422  25.975  1.00  0.00     0.106 H 
BRANCH  40  48
ATOM     48  C   UNL     1     -50.177  40.569  27.764  1.00  0.00    -0.037 C 
ATOM     49  H   UNL     1     -50.408  41.610  27.511  1.00  0.00     0.028 H 
ATOM     50  H   UNL     1     -50.629  39.929  26.999  1.00  0.00     0.028 H 
ATOM     51  H   UNL     1     -50.644  40.348  28.729  1.00  0.00     0.028 H 
ENDBRANCH  40  48
BRANCH  44  52
ATOM     52  N   UNL     1     -48.743  42.976  25.953  1.00  0.00    -0.383 N 
ATOM     53  H   UNL     1     -49.625  42.542  26.186  1.00  0.00     0.158 HD
ATOM     54  H   UNL     1     -48.644  43.945  26.238  1.00  0.00     0.158 HD
ENDBRANCH  44  52
ENDBRANCH  30  37
BRANCH  31  55
ATOM     55  O   UNL     1     -44.832  37.208  30.676  1.00  0.00    -0.386 OA
ATOM     56  H   UNL     1     -44.800  37.749  31.489  1.00  0.00     0.211 HD
ENDBRANCH  31  55
ENDBRANCH   1  26
TORSDOF 10
ENDMDL
MODEL 6
REMARK VINA RESULT:      -8.3      2.208      9.905
REMARK SMILES CNc1ccc2cc(OC[C@H]3O[C@@H](n4cc(C)c5c(N)ncnc54)[C@H](O)[C@@H]3O)ccc2n1
REMARK SMILES IDX 10 1 9 4 8 5 3 6 4 7 32 8 5 9 31 11 6 12 30 14 7 15 29 16
REMARK SMILES IDX 2 20 1 22 11 26 12 27 27 28 13 30 25 31 28 35 14 37 15 38
REMARK SMILES IDX 24 39 16 40 18 42 23 43 19 44 22 45 21 46 17 48 20 52 26 55
REMARK H PARENT 10 2 10 3 4 10 5 13 30 17 7 18 29 19 2 21 1 23 1 24 1 25 11 29
REMARK H PARENT 27 32 13 33 25 34 28 36 15 41 22 47 17 49 17 50 17 51 20 53
REMARK H PARENT 20 54 26 56
REMARK Flexibility Score: inf
ROOT
ATOM      1  C   UNL     1     -49.190  35.089  26.674  1.00  0.00     0.117 C 
ATOM      2  H   UNL     1     -50.178  34.665  26.468  1.00  0.00     0.073 H 
ATOM      3  H   UNL     1     -48.885  35.745  25.847  1.00  0.00     0.073 H 
ENDROOT
BRANCH   1   4
ATOM      4  O   UNL     1     -49.238  35.829  27.901  1.00  0.00    -0.491 OA
BRANCH   4   5
ATOM      5  C   UNL     1     -48.124  36.577  28.154  1.00  0.00     0.120 A 
ATOM      6  C   UNL     1     -44.502  39.977  27.850  1.00  0.00     0.126 A 
ATOM      7  C   UNL     1     -45.339  40.283  26.788  1.00  0.00    -0.019 A 
ATOM      8  N   UNL     1     -44.736  38.944  28.682  1.00  0.00    -0.231 NA
ATOM      9  C   UNL     1     -46.475  39.508  26.580  1.00  0.00    -0.049 A 
ATOM     10  H   UNL     1     -45.107  41.100  26.114  1.00  0.00     0.066 H 
ATOM     11  C   UNL     1     -45.834  38.192  28.486  1.00  0.00     0.073 A 
ATOM     12  C   UNL     1     -46.741  38.439  27.439  1.00  0.00     0.004 A 
ATOM     13  H   UNL     1     -47.140  39.739  25.752  1.00  0.00     0.063 H 
ATOM     14  C   UNL     1     -46.097  37.126  29.339  1.00  0.00    -0.032 A 
ATOM     15  C   UNL     1     -47.874  37.625  27.273  1.00  0.00    -0.011 A 
ATOM     16  C   UNL     1     -47.228  36.315  29.183  1.00  0.00    -0.018 A 
ATOM     17  H   UNL     1     -45.397  36.918  30.145  1.00  0.00     0.065 H 
ATOM     18  H   UNL     1     -48.573  37.818  26.465  1.00  0.00     0.067 H 
ATOM     19  H   UNL     1     -47.374  35.480  29.862  1.00  0.00     0.066 H 
BRANCH   6  20
ATOM     20  N   UNL     1     -43.338  40.704  28.112  1.00  0.00    -0.373 N 
ATOM     21  H   UNL     1     -42.695  40.398  27.381  1.00  0.00     0.161 HD
BRANCH  20  22
ATOM     22  C   UNL     1     -42.782  40.472  29.435  1.00  0.00     0.005 C 
ATOM     23  H   UNL     1     -41.928  41.129  29.634  1.00  0.00     0.045 H 
ATOM     24  H   UNL     1     -42.477  39.430  29.568  1.00  0.00     0.045 H 
ATOM     25  H   UNL     1     -43.550  40.685  30.186  1.00  0.00     0.045 H 
ENDBRANCH  20  22
ENDBRANCH   6  20
ENDBRANCH   4   5
ENDBRANCH   1   4
BRANCH   1  26
ATOM     26  C   UNL     1     -48.158  33.964  26.808  1.00  0.00     0.123 C 
ATOM     27  O   UNL     1     -48.820  32.682  26.735  1.00  0.00    -0.345 OA
ATOM     28  C   UNL     1     -47.084  33.988  25.722  1.00  0.00     0.114 C 
ATOM     29  H   UNL     1     -47.702  34.033  27.802  1.00  0.00     0.067 H 
ATOM     30  C   UNL     1     -48.181  31.870  25.721  1.00  0.00     0.164 C 
ATOM     31  C   UNL     1     -46.809  32.509  25.495  1.00  0.00     0.128 C 
ATOM     32  H   UNL     1     -47.441  34.465  24.806  1.00  0.00     0.066 H 
ATOM     33  H   UNL     1     -48.062  30.860  26.132  1.00  0.00     0.088 H 
ATOM     34  H   UNL     1     -46.362  32.299  24.519  1.00  0.00     0.068 H 
BRANCH  28  35
ATOM     35  O   UNL     1     -45.915  34.685  26.150  1.00  0.00    -0.387 OA
ATOM     36  H   UNL     1     -45.391  34.864  25.342  1.00  0.00     0.211 HD
ENDBRANCH  28  35
BRANCH  30  37
ATOM     37  N   UNL     1     -49.072  31.759  24.575  1.00  0.00    -0.303 N 
ATOM     38  C   UNL     1     -50.359  32.223  24.457  1.00  0.00     0.012 A 
ATOM     39  C   UNL     1     -48.703  31.162  23.391  1.00  0.00     0.147 A 
ATOM     40  C   UNL     1     -50.848  31.872  23.210  1.00  0.00    -0.020 A 
ATOM     41  H   UNL     1     -50.861  32.741  25.263  1.00  0.00     0.082 H 
ATOM     42  C   UNL     1     -49.788  31.197  22.525  1.00  0.00     0.064 A 
ATOM     43  N   UNL     1     -47.495  30.629  23.132  1.00  0.00    -0.218 NA
ATOM     44  C   UNL     1     -49.605  30.591  21.269  1.00  0.00     0.136 A 
ATOM     45  C   UNL     1     -47.446  30.077  21.911  1.00  0.00     0.120 A 
ATOM     46  N   UNL     1     -48.416  30.032  20.979  1.00  0.00    -0.219 NA
ATOM     47  H   UNL     1     -46.504  29.610  21.637  1.00  0.00     0.106 H 
BRANCH  40  48
ATOM     48  C   UNL     1     -52.220  32.136  22.704  1.00  0.00    -0.037 C 
ATOM     49  H   UNL     1     -52.785  32.764  23.401  1.00  0.00     0.028 H 
ATOM     50  H   UNL     1     -52.179  32.655  21.741  1.00  0.00     0.028 H 
ATOM     51  H   UNL     1     -52.770  31.199  22.576  1.00  0.00     0.028 H 
ENDBRANCH  40  48
BRANCH  44  52
ATOM     52  N   UNL     1     -50.579  30.538  20.279  1.00  0.00    -0.383 N 
ATOM     53  H   UNL     1     -51.345  31.180  20.421  1.00  0.00     0.158 HD
ATOM     54  H   UNL     1     -50.137  30.579  19.367  1.00  0.00     0.158 HD
ENDBRANCH  44  52
ENDBRANCH  30  37
BRANCH  31  55
ATOM     55  O   UNL     1     -45.847  32.074  26.485  1.00  0.00    -0.386 OA
ATOM     56  H   UNL     1     -44.965  32.062  26.063  1.00  0.00     0.211 HD
ENDBRANCH  31  55
ENDBRANCH   1  26
TORSDOF 10
ENDMDL
MODEL 7
REMARK VINA RESULT:      -8.0      2.366     10.494
REMARK SMILES CNc1ccc2cc(OC[C@H]3O[C@@H](n4cc(C)c5c(N)ncnc54)[C@H](O)[C@@H]3O)ccc2n1
REMARK SMILES IDX 10 1 9 4 8 5 3 6 4 7 32 8 5 9 31 11 6 12 30 14 7 15 29 16
REMARK SMILES IDX 2 20 1 22 11 26 12 27 27 28 13 30 25 31 28 35 14 37 15 38
REMARK SMILES IDX 24 39 16 40 18 42 23 43 19 44 22 45 21 46 17 48 20 52 26 55
REMARK H PARENT 10 2 10 3 4 10 5 13 30 17 7 18 29 19 2 21 1 23 1 24 1 25 11 29
REMARK H PARENT 27 32 13 33 25 34 28 36 15 41 22 47 17 49 17 50 17 51 20 53
REMARK H PARENT 20 54 26 56
REMARK Flexibility Score: inf
ROOT
ATOM      1  C   UNL     1     -46.606  32.493  26.162  1.00  0.00     0.117 C 
ATOM      2  H   UNL     1     -45.710  32.912  25.691  1.00  0.00     0.073 H 
ATOM      3  H   UNL     1     -46.440  31.435  26.403  1.00  0.00     0.073 H 
ENDROOT
BRANCH   1   4
ATOM      4  O   UNL     1     -46.904  33.232  27.354  1.00  0.00    -0.491 OA
BRANCH   4   5
ATOM      5  C   UNL     1     -46.659  34.573  27.263  1.00  0.00     0.120 A 
ATOM      6  C   UNL     1     -45.153  39.214  28.244  1.00  0.00     0.126 A 
ATOM      7  C   UNL     1     -44.681  38.475  29.318  1.00  0.00    -0.019 A 
ATOM      8  N   UNL     1     -45.865  38.663  27.243  1.00  0.00    -0.231 NA
ATOM      9  C   UNL     1     -44.934  37.107  29.358  1.00  0.00    -0.049 A 
ATOM     10  H   UNL     1     -44.138  38.951  30.127  1.00  0.00     0.066 H 
ATOM     11  C   UNL     1     -46.113  37.341  27.276  1.00  0.00     0.073 A 
ATOM     12  C   UNL     1     -45.662  36.515  28.323  1.00  0.00     0.004 A 
ATOM     13  H   UNL     1     -44.567  36.517  30.193  1.00  0.00     0.063 H 
ATOM     14  C   UNL     1     -46.840  36.753  26.248  1.00  0.00    -0.032 A 
ATOM     15  C   UNL     1     -45.946  35.140  28.315  1.00  0.00    -0.011 A 
ATOM     16  C   UNL     1     -47.122  35.381  26.231  1.00  0.00    -0.018 A 
ATOM     17  H   UNL     1     -47.204  37.383  25.440  1.00  0.00     0.065 H 
ATOM     18  H   UNL     1     -45.597  34.504  29.123  1.00  0.00     0.067 H 
ATOM     19  H   UNL     1     -47.714  34.976  25.417  1.00  0.00     0.066 H 
BRANCH   6  20
ATOM     20  N   UNL     1     -44.946  40.593  28.143  1.00  0.00    -0.373 N 
ATOM     21  H   UNL     1     -45.835  40.991  28.448  1.00  0.00     0.161 HD
BRANCH  20  22
ATOM     22  C   UNL     1     -44.598  41.040  26.805  1.00  0.00     0.005 C 
ATOM     23  H   UNL     1     -43.712  41.685  26.814  1.00  0.00     0.045 H 
ATOM     24  H   UNL     1     -45.427  41.570  26.327  1.00  0.00     0.045 H 
ATOM     25  H   UNL     1     -44.369  40.167  26.186  1.00  0.00     0.045 H 
ENDBRANCH  20  22
ENDBRANCH   6  20
ENDBRANCH   4   5
ENDBRANCH   1   4
BRANCH   1  26
ATOM     26  C   UNL     1     -47.794  32.594  25.199  1.00  0.00     0.123 C 
ATOM     27  O   UNL     1     -47.514  31.846  23.996  1.00  0.00    -0.345 OA
ATOM     28  C   UNL     1     -49.099  32.053  25.782  1.00  0.00     0.114 C 
ATOM     29  H   UNL     1     -47.910  33.643  24.905  1.00  0.00     0.067 H 
ATOM     30  C   UNL     1     -48.597  30.920  23.744  1.00  0.00     0.164 C 
ATOM     31  C   UNL     1     -49.778  31.443  24.564  1.00  0.00     0.128 C 
ATOM     32  H   UNL     1     -48.920  31.296  26.550  1.00  0.00     0.066 H 
ATOM     33  H   UNL     1     -48.832  30.968  22.674  1.00  0.00     0.088 H 
ATOM     34  H   UNL     1     -50.526  30.690  24.822  1.00  0.00     0.068 H 
BRANCH  28  35
ATOM     35  O   UNL     1     -49.887  33.089  26.365  1.00  0.00    -0.387 OA
ATOM     36  H   UNL     1     -49.335  33.491  27.068  1.00  0.00     0.211 HD
ENDBRANCH  28  35
BRANCH  30  37
ATOM     37  N   UNL     1     -48.133  29.566  24.015  1.00  0.00    -0.303 N 
ATOM     38  C   UNL     1     -48.756  28.592  24.755  1.00  0.00     0.012 A 
ATOM     39  C   UNL     1     -46.956  29.060  23.512  1.00  0.00     0.147 A 
ATOM     40  C   UNL     1     -47.951  27.467  24.780  1.00  0.00    -0.020 A 
ATOM     41  H   UNL     1     -49.709  28.758  25.240  1.00  0.00     0.082 H 
ATOM     42  C   UNL     1     -46.800  27.763  23.982  1.00  0.00     0.064 A 
ATOM     43  N   UNL     1     -46.104  29.724  22.709  1.00  0.00    -0.218 NA
ATOM     44  C   UNL     1     -45.623  27.097  23.599  1.00  0.00     0.136 A 
ATOM     45  C   UNL     1     -45.020  28.990  22.420  1.00  0.00     0.120 A 
ATOM     46  N   UNL     1     -44.737  27.733  22.810  1.00  0.00    -0.219 NA
ATOM     47  H   UNL     1     -44.277  29.468  21.788  1.00  0.00     0.106 H 
BRANCH  40  48
ATOM     48  C   UNL     1     -48.232  26.208  25.518  1.00  0.00    -0.037 C 
ATOM     49  H   UNL     1     -48.605  26.414  26.527  1.00  0.00     0.028 H 
ATOM     50  H   UNL     1     -48.991  25.618  24.993  1.00  0.00     0.028 H 
ATOM     51  H   UNL     1     -47.323  25.605  25.614  1.00  0.00     0.028 H 
ENDBRANCH  40  48
BRANCH  44  52
ATOM     52  N   UNL     1     -45.305  25.797  23.972  1.00  0.00    -0.383 N 
ATOM     53  H   UNL     1     -44.660  25.737  24.747  1.00  0.00     0.158 HD
ATOM     54  H   UNL     1     -46.157  25.254  24.070  1.00  0.00     0.158 HD
ENDBRANCH  44  52
ENDBRANCH  30  37
BRANCH  31  55
ATOM     55  O   UNL     1     -50.485  32.499  23.871  1.00  0.00    -0.386 OA
ATOM     56  H   UNL     1     -51.098  32.083  23.233  1.00  0.00     0.211 HD
ENDBRANCH  31  55
ENDBRANCH   1  26
TORSDOF 10
ENDMDL
