MODEL 1
REMARK VINA RESULT:      -9.3      0.000      0.000
REMARK SMILES CCc1cc(NCCOC)c2ccc(OCc3cncc(-n4ccc5c(N)ncnc54)c3)cc2n1
REMARK SMILES IDX 3 1 4 2 5 3 11 4 12 5 13 6 14 7 33 8 34 9 35 10 2 15 1 18
REMARK SMILES IDX 6 22 7 24 8 27 9 30 10 31 15 35 16 36 17 39 18 40 32 41
REMARK SMILES IDX 19 42 21 44 20 46 22 48 23 49 31 50 24 51 25 53 30 54 26 56
REMARK SMILES IDX 29 57 28 58 27 60
REMARK H PARENT 4 11 12 12 13 13 33 14 2 16 2 17 1 19 1 20 1 21 6 23 7 25 7 26
REMARK H PARENT 8 28 8 29 10 32 10 33 10 34 16 37 16 38 18 43 32 45 20 47
REMARK H PARENT 23 52 24 55 29 59 27 61 27 62
REMARK Flexibility Score: inf
ROOT
ATOM      1  C   UNL     1     -46.504  30.247  22.865  1.00  0.00     0.043 A 
ATOM      2  C   UNL     1     -47.702  29.626  23.196  1.00  0.00    -0.017 A 
ATOM      3  C   UNL     1     -48.519  30.175  24.189  1.00  0.00     0.045 A 
ATOM      4  C   UNL     1     -48.133  31.427  24.748  1.00  0.00     0.024 A 
ATOM      5  C   UNL     1     -48.913  32.162  25.672  1.00  0.00    -0.047 A 
ATOM      6  C   UNL     1     -48.448  33.354  26.226  1.00  0.00    -0.019 A 
ATOM      7  C   UNL     1     -47.196  33.844  25.878  1.00  0.00     0.122 A 
ATOM      8  C   UNL     1     -46.437  33.150  24.938  1.00  0.00     0.007 A 
ATOM      9  C   UNL     1     -46.883  31.965  24.364  1.00  0.00     0.076 A 
ATOM     10  N   UNL     1     -46.086  31.383  23.458  1.00  0.00    -0.253 NA
ATOM     11  H   UNL     1     -47.978  28.721  22.671  1.00  0.00     0.066 H 
ATOM     12  H   UNL     1     -49.900  31.819  25.967  1.00  0.00     0.063 H 
ATOM     13  H   UNL     1     -49.061  33.890  26.948  1.00  0.00     0.066 H 
ATOM     14  H   UNL     1     -45.458  33.501  24.629  1.00  0.00     0.069 H 
ENDROOT
BRANCH   1  15
ATOM     15  C   UNL     1     -45.590  29.642  21.833  1.00  0.00    -0.013 C 
ATOM     16  H   UNL     1     -46.176  29.079  21.097  1.00  0.00     0.033 H 
ATOM     17  H   UNL     1     -45.087  30.446  21.282  1.00  0.00     0.033 H 
BRANCH  15  18
ATOM     18  C   UNL     1     -44.547  28.739  22.472  1.00  0.00    -0.060 C 
ATOM     19  H   UNL     1     -44.374  27.843  21.865  1.00  0.00     0.023 H 
ATOM     20  H   UNL     1     -43.588  29.256  22.587  1.00  0.00     0.023 H 
ATOM     21  H   UNL     1     -44.880  28.416  23.464  1.00  0.00     0.023 H 
ENDBRANCH  15  18
ENDBRANCH   1  15
BRANCH   3  22
ATOM     22  N   UNL     1     -49.751  29.582  24.542  1.00  0.00    -0.382 N 
ATOM     23  H   UNL     1     -50.104  29.992  25.407  1.00  0.00     0.160 HD
BRANCH  22  24
ATOM     24  C   UNL     1     -49.868  28.121  24.669  1.00  0.00     0.038 C 
ATOM     25  H   UNL     1     -49.559  27.599  23.759  1.00  0.00     0.051 H 
ATOM     26  H   UNL     1     -50.934  27.905  24.803  1.00  0.00     0.051 H 
BRANCH  24  27
ATOM     27  C   UNL     1     -49.111  27.602  25.899  1.00  0.00     0.063 C 
ATOM     28  H   UNL     1     -49.791  27.085  26.586  1.00  0.00     0.059 H 
ATOM     29  H   UNL     1     -48.650  28.447  26.424  1.00  0.00     0.059 H 
BRANCH  27  30
ATOM     30  O   UNL     1     -48.084  26.696  25.472  1.00  0.00    -0.383 OA
BRANCH  30  31
ATOM     31  C   UNL     1     -47.377  26.158  26.585  1.00  0.00     0.036 C 
ATOM     32  H   UNL     1     -48.017  25.419  27.074  1.00  0.00     0.053 H 
ATOM     33  H   UNL     1     -46.463  25.658  26.248  1.00  0.00     0.053 H 
ATOM     34  H   UNL     1     -47.132  26.946  27.302  1.00  0.00     0.053 H 
ENDBRANCH  30  31
ENDBRANCH  27  30
ENDBRANCH  24  27
ENDBRANCH  22  24
ENDBRANCH   3  22
BRANCH   7  35
ATOM     35  O   UNL     1     -46.825  34.977  26.548  1.00  0.00    -0.489 OA
BRANCH  35  36
ATOM     36  C   UNL     1     -46.914  35.002  27.977  1.00  0.00     0.115 C 
ATOM     37  H   UNL     1     -46.362  34.118  28.318  1.00  0.00     0.076 H 
ATOM     38  H   UNL     1     -47.950  34.858  28.306  1.00  0.00     0.076 H 
BRANCH  36  39
ATOM     39  C   UNL     1     -46.285  36.204  28.642  1.00  0.00     0.010 A 
ATOM     40  C   UNL     1     -46.223  36.259  30.029  1.00  0.00     0.034 A 
ATOM     41  C   UNL     1     -45.742  37.286  27.936  1.00  0.00    -0.028 A 
ATOM     42  N   UNL     1     -45.685  37.285  30.724  1.00  0.00    -0.262 NA
ATOM     43  H   UNL     1     -46.616  35.454  30.646  1.00  0.00     0.084 H 
ATOM     44  C   UNL     1     -45.208  38.386  28.615  1.00  0.00     0.066 A 
ATOM     45  H   UNL     1     -45.735  37.244  26.853  1.00  0.00     0.065 H 
ATOM     46  C   UNL     1     -45.198  38.324  30.004  1.00  0.00     0.051 A 
ATOM     47  H   UNL     1     -44.821  39.127  30.628  1.00  0.00     0.086 H 
BRANCH  44  48
ATOM     48  N   UNL     1     -44.708  39.533  27.923  1.00  0.00    -0.300 N 
ATOM     49  C   UNL     1     -45.167  39.990  26.695  1.00  0.00     0.012 A 
ATOM     50  C   UNL     1     -43.677  40.388  28.321  1.00  0.00     0.150 A 
ATOM     51  C   UNL     1     -44.460  41.112  26.329  1.00  0.00    -0.031 A 
ATOM     52  H   UNL     1     -45.982  39.503  26.177  1.00  0.00     0.082 H 
ATOM     53  C   UNL     1     -43.512  41.368  27.348  1.00  0.00     0.061 A 
ATOM     54  N   UNL     1     -42.923  40.281  29.434  1.00  0.00    -0.218 NA
ATOM     55  H   UNL     1     -44.604  41.680  25.419  1.00  0.00     0.065 H 
ATOM     56  C   UNL     1     -42.508  42.324  27.562  1.00  0.00     0.136 A 
ATOM     57  C   UNL     1     -41.988  41.234  29.526  1.00  0.00     0.120 A 
ATOM     58  N   UNL     1     -41.750  42.243  28.670  1.00  0.00    -0.219 NA
ATOM     59  H   UNL     1     -41.344  41.188  30.400  1.00  0.00     0.106 H 
BRANCH  56  60
ATOM     60  N   UNL     1     -42.246  43.374  26.692  1.00  0.00    -0.383 N 
ATOM     61  H   UNL     1     -41.986  44.205  27.209  1.00  0.00     0.158 HD
ATOM     62  H   UNL     1     -42.937  43.501  25.965  1.00  0.00     0.158 HD
ENDBRANCH  56  60
ENDBRANCH  44  48
ENDBRANCH  36  39
ENDBRANCH  35  36
ENDBRANCH   7  35
TORSDOF 12
ENDMDL
MODEL 2
REMARK VINA RESULT:      -8.8      2.086      2.662
REMARK SMILES CCc1cc(NCCOC)c2ccc(OCc3cncc(-n4ccc5c(N)ncnc54)c3)cc2n1
REMARK SMILES IDX 3 1 4 2 5 3 11 4 12 5 13 6 14 7 33 8 34 9 35 10 2 15 1 18
REMARK SMILES IDX 6 22 7 24 8 27 9 30 10 31 15 35 16 36 17 39 18 40 32 41
REMARK SMILES IDX 19 42 21 44 20 46 22 48 23 49 31 50 24 51 25 53 30 54 26 56
REMARK SMILES IDX 29 57 28 58 27 60
REMARK H PARENT 4 11 12 12 13 13 33 14 2 16 2 17 1 19 1 20 1 21 6 23 7 25 7 26
REMARK H PARENT 8 28 8 29 10 32 10 33 10 34 16 37 16 38 18 43 32 45 20 47
REMARK H PARENT 23 52 24 55 29 59 27 61 27 62
REMARK Flexibility Score: inf
ROOT
ATOM      1  C   UNL     1     -46.364  31.014  21.776  1.00  0.00     0.043 A 
ATOM      2  C   UNL     1     -47.024  29.801  21.918  1.00  0.00    -0.017 A 
ATOM      3  C   UNL     1     -47.692  29.507  23.111  1.00  0.00     0.045 A 
ATOM      4  C   UNL     1     -47.759  30.528  24.102  1.00  0.00     0.024 A 
ATOM      5  C   UNL     1     -48.496  30.424  25.305  1.00  0.00    -0.047 A 
ATOM      6  C   UNL     1     -48.471  31.439  26.260  1.00  0.00    -0.019 A 
ATOM      7  C   UNL     1     -47.710  32.581  26.046  1.00  0.00     0.122 A 
ATOM      8  C   UNL     1     -47.014  32.713  24.846  1.00  0.00     0.007 A 
ATOM      9  C   UNL     1     -47.032  31.719  23.874  1.00  0.00     0.076 A 
ATOM     10  N   UNL     1     -46.343  31.949  22.748  1.00  0.00    -0.253 NA
ATOM     11  H   UNL     1     -47.007  29.103  21.092  1.00  0.00     0.066 H 
ATOM     12  H   UNL     1     -49.108  29.551  25.512  1.00  0.00     0.063 H 
ATOM     13  H   UNL     1     -49.032  31.325  27.185  1.00  0.00     0.066 H 
ATOM     14  H   UNL     1     -46.415  33.592  24.631  1.00  0.00     0.069 H 
ENDROOT
BRANCH   1  15
ATOM     15  C   UNL     1     -45.598  31.326  20.518  1.00  0.00    -0.013 C 
ATOM     16  H   UNL     1     -44.741  31.969  20.750  1.00  0.00     0.033 H 
ATOM     17  H   UNL     1     -45.188  30.395  20.107  1.00  0.00     0.033 H 
BRANCH  15  18
ATOM     18  C   UNL     1     -46.484  31.991  19.475  1.00  0.00    -0.060 C 
ATOM     19  H   UNL     1     -47.322  31.342  19.195  1.00  0.00     0.023 H 
ATOM     20  H   UNL     1     -46.898  32.933  19.848  1.00  0.00     0.023 H 
ATOM     21  H   UNL     1     -45.907  32.208  18.571  1.00  0.00     0.023 H 
ENDBRANCH  15  18
ENDBRANCH   1  15
BRANCH   3  22
ATOM     22  N   UNL     1     -48.388  28.292  23.287  1.00  0.00    -0.382 N 
ATOM     23  H   UNL     1     -47.843  27.515  22.909  1.00  0.00     0.160 HD
BRANCH  22  24
ATOM     24  C   UNL     1     -49.765  28.141  22.793  1.00  0.00     0.038 C 
ATOM     25  H   UNL     1     -50.345  29.063  22.892  1.00  0.00     0.051 H 
ATOM     26  H   UNL     1     -50.249  27.400  23.441  1.00  0.00     0.051 H 
BRANCH  24  27
ATOM     27  C   UNL     1     -49.791  27.613  21.352  1.00  0.00     0.063 C 
ATOM     28  H   UNL     1     -50.361  26.679  21.288  1.00  0.00     0.059 H 
ATOM     29  H   UNL     1     -48.765  27.428  21.016  1.00  0.00     0.059 H 
BRANCH  27  30
ATOM     30  O   UNL     1     -50.396  28.598  20.501  1.00  0.00    -0.383 OA
BRANCH  30  31
ATOM     31  C   UNL     1     -51.352  28.007  19.627  1.00  0.00     0.036 C 
ATOM     32  H   UNL     1     -51.713  27.084  20.088  1.00  0.00     0.053 H 
ATOM     33  H   UNL     1     -52.201  28.681  19.483  1.00  0.00     0.053 H 
ATOM     34  H   UNL     1     -50.894  27.765  18.663  1.00  0.00     0.053 H 
ENDBRANCH  30  31
ENDBRANCH  27  30
ENDBRANCH  24  27
ENDBRANCH  22  24
ENDBRANCH   3  22
BRANCH   7  35
ATOM     35  O   UNL     1     -47.708  33.465  27.090  1.00  0.00    -0.489 OA
BRANCH  35  36
ATOM     36  C   UNL     1     -46.590  34.343  27.256  1.00  0.00     0.115 C 
ATOM     37  H   UNL     1     -46.017  34.265  26.324  1.00  0.00     0.076 H 
ATOM     38  H   UNL     1     -45.925  33.984  28.051  1.00  0.00     0.076 H 
BRANCH  36  39
ATOM     39  C   UNL     1     -46.937  35.801  27.443  1.00  0.00     0.010 A 
ATOM     40  C   UNL     1     -48.262  36.164  27.655  1.00  0.00     0.034 A 
ATOM     41  C   UNL     1     -45.990  36.834  27.423  1.00  0.00    -0.028 A 
ATOM     42  N   UNL     1     -48.682  37.436  27.832  1.00  0.00    -0.262 NA
ATOM     43  H   UNL     1     -49.054  35.419  27.691  1.00  0.00     0.084 H 
ATOM     44  C   UNL     1     -46.384  38.168  27.565  1.00  0.00     0.066 A 
ATOM     45  H   UNL     1     -44.945  36.572  27.309  1.00  0.00     0.065 H 
ATOM     46  C   UNL     1     -47.737  38.406  27.776  1.00  0.00     0.051 A 
ATOM     47  H   UNL     1     -48.152  39.402  27.884  1.00  0.00     0.086 H 
BRANCH  44  48
ATOM     48  N   UNL     1     -45.449  39.246  27.483  1.00  0.00    -0.300 N 
ATOM     49  C   UNL     1     -45.380  40.168  26.446  1.00  0.00     0.012 A 
ATOM     50  C   UNL     1     -44.436  39.570  28.389  1.00  0.00     0.150 A 
ATOM     51  C   UNL     1     -44.363  41.061  26.694  1.00  0.00    -0.031 A 
ATOM     52  H   UNL     1     -46.073  40.143  25.617  1.00  0.00     0.082 H 
ATOM     53  C   UNL     1     -43.757  40.688  27.918  1.00  0.00     0.061 A 
ATOM     54  N   UNL     1     -44.120  38.904  29.518  1.00  0.00    -0.218 NA
ATOM     55  H   UNL     1     -44.080  41.888  26.055  1.00  0.00     0.065 H 
ATOM     56  C   UNL     1     -42.689  41.166  28.691  1.00  0.00     0.136 A 
ATOM     57  C   UNL     1     -43.076  39.437  30.166  1.00  0.00     0.120 A 
ATOM     58  N   UNL     1     -42.361  40.524  29.826  1.00  0.00    -0.219 NA
ATOM     59  H   UNL     1     -42.772  38.932  31.078  1.00  0.00     0.106 H 
BRANCH  56  60
ATOM     60  N   UNL     1     -41.938  42.285  28.358  1.00  0.00    -0.383 N 
ATOM     61  H   UNL     1     -41.677  42.258  27.380  1.00  0.00     0.158 HD
ATOM     62  H   UNL     1     -41.197  42.506  29.010  1.00  0.00     0.158 HD
ENDBRANCH  56  60
ENDBRANCH  44  48
ENDBRANCH  36  39
ENDBRANCH  35  36
ENDBRANCH   7  35
TORSDOF 12
ENDMDL
MODEL 3
REMARK VINA RESULT:      -8.6      1.464      2.090
REMARK SMILES CCc1cc(NCCOC)c2ccc(OCc3cncc(-n4ccc5c(N)ncnc54)c3)cc2n1
REMARK SMILES IDX 3 1 4 2 5 3 11 4 12 5 13 6 14 7 33 8 34 9 35 10 2 15 1 18
REMARK SMILES IDX 6 22 7 24 8 27 9 30 10 31 15 35 16 36 17 39 18 40 32 41
REMARK SMILES IDX 19 42 21 44 20 46 22 48 23 49 31 50 24 51 25 53 30 54 26 56
REMARK SMILES IDX 29 57 28 58 27 60
REMARK H PARENT 4 11 12 12 13 13 33 14 2 16 2 17 1 19 1 20 1 21 6 23 7 25 7 26
REMARK H PARENT 8 28 8 29 10 32 10 33 10 34 16 37 16 38 18 43 32 45 20 47
REMARK H PARENT 23 52 24 55 29 59 27 61 27 62
REMARK Flexibility Score: inf
ROOT
ATOM      1  C   UNL     1     -46.684  31.003  22.630  1.00  0.00     0.043 A 
ATOM      2  C   UNL     1     -47.831  30.302  22.981  1.00  0.00    -0.017 A 
ATOM      3  C   UNL     1     -48.579  30.701  24.092  1.00  0.00     0.045 A 
ATOM      4  C   UNL     1     -48.186  31.895  24.762  1.00  0.00     0.024 A 
ATOM      5  C   UNL     1     -48.909  32.489  25.823  1.00  0.00    -0.047 A 
ATOM      6  C   UNL     1     -48.436  33.627  26.474  1.00  0.00    -0.019 A 
ATOM      7  C   UNL     1     -47.232  34.203  26.089  1.00  0.00     0.122 A 
ATOM      8  C   UNL     1     -46.533  33.652  25.017  1.00  0.00     0.007 A 
ATOM      9  C   UNL     1     -46.989  32.523  24.345  1.00  0.00     0.076 A 
ATOM     10  N   UNL     1     -46.253  32.080  23.317  1.00  0.00    -0.253 NA
ATOM     11  H   UNL     1     -48.122  29.453  22.376  1.00  0.00     0.066 H 
ATOM     12  H   UNL     1     -49.857  32.075  26.154  1.00  0.00     0.063 H 
ATOM     13  H   UNL     1     -49.002  34.052  27.300  1.00  0.00     0.066 H 
ATOM     14  H   UNL     1     -45.594  34.074  24.674  1.00  0.00     0.069 H 
ENDROOT
BRANCH   1  15
ATOM     15  C   UNL     1     -45.841  30.557  21.466  1.00  0.00    -0.013 C 
ATOM     16  H   UNL     1     -44.801  30.421  21.788  1.00  0.00     0.033 H 
ATOM     17  H   UNL     1     -46.192  29.577  21.122  1.00  0.00     0.033 H 
BRANCH  15  18
ATOM     18  C   UNL     1     -45.906  31.549  20.315  1.00  0.00    -0.060 C 
ATOM     19  H   UNL     1     -46.703  32.285  20.472  1.00  0.00     0.023 H 
ATOM     20  H   UNL     1     -44.963  32.095  20.206  1.00  0.00     0.023 H 
ATOM     21  H   UNL     1     -46.108  31.027  19.375  1.00  0.00     0.023 H 
ENDBRANCH  15  18
ENDBRANCH   1  15
BRANCH   3  22
ATOM     22  N   UNL     1     -49.758  30.023  24.469  1.00  0.00    -0.382 N 
ATOM     23  H   UNL     1     -49.620  29.543  25.360  1.00  0.00     0.160 HD
BRANCH  22  24
ATOM     24  C   UNL     1     -50.398  29.069  23.551  1.00  0.00     0.038 C 
ATOM     25  H   UNL     1     -49.881  28.105  23.528  1.00  0.00     0.051 H 
ATOM     26  H   UNL     1     -50.305  29.494  22.545  1.00  0.00     0.051 H 
BRANCH  24  27
ATOM     27  C   UNL     1     -51.890  28.898  23.868  1.00  0.00     0.063 C 
ATOM     28  H   UNL     1     -52.510  29.291  23.054  1.00  0.00     0.059 H 
ATOM     29  H   UNL     1     -52.129  29.440  24.790  1.00  0.00     0.059 H 
BRANCH  27  30
ATOM     30  O   UNL     1     -52.175  27.504  24.054  1.00  0.00    -0.383 OA
BRANCH  30  31
ATOM     31  C   UNL     1     -51.351  26.940  25.068  1.00  0.00     0.036 C 
ATOM     32  H   UNL     1     -50.659  26.236  24.597  1.00  0.00     0.053 H 
ATOM     33  H   UNL     1     -50.768  27.724  25.562  1.00  0.00     0.053 H 
ATOM     34  H   UNL     1     -51.957  26.403  25.803  1.00  0.00     0.053 H 
ENDBRANCH  30  31
ENDBRANCH  27  30
ENDBRANCH  24  27
ENDBRANCH  22  24
ENDBRANCH   3  22
BRANCH   7  35
ATOM     35  O   UNL     1     -46.841  35.267  26.855  1.00  0.00    -0.489 OA
BRANCH  35  36
ATOM     36  C   UNL     1     -45.935  35.046  27.941  1.00  0.00     0.115 C 
ATOM     37  H   UNL     1     -44.978  34.784  27.473  1.00  0.00     0.076 H 
ATOM     38  H   UNL     1     -46.235  34.171  28.529  1.00  0.00     0.076 H 
BRANCH  36  39
ATOM     39  C   UNL     1     -45.683  36.246  28.825  1.00  0.00     0.010 A 
ATOM     40  C   UNL     1     -46.269  36.298  30.084  1.00  0.00     0.034 A 
ATOM     41  C   UNL     1     -44.875  37.328  28.453  1.00  0.00    -0.028 A 
ATOM     42  N   UNL     1     -46.112  37.322  30.952  1.00  0.00    -0.262 NA
ATOM     43  H   UNL     1     -46.903  35.493  30.448  1.00  0.00     0.084 H 
ATOM     44  C   UNL     1     -44.714  38.426  29.304  1.00  0.00     0.066 A 
ATOM     45  H   UNL     1     -44.368  37.288  27.495  1.00  0.00     0.065 H 
ATOM     46  C   UNL     1     -45.346  38.362  30.540  1.00  0.00     0.051 A 
ATOM     47  H   UNL     1     -45.300  39.163  31.270  1.00  0.00     0.086 H 
BRANCH  44  48
ATOM     48  N   UNL     1     -43.951  39.573  28.924  1.00  0.00    -0.300 N 
ATOM     49  C   UNL     1     -42.871  40.086  29.631  1.00  0.00     0.012 A 
ATOM     50  C   UNL     1     -44.141  40.396  27.811  1.00  0.00     0.150 A 
ATOM     51  C   UNL     1     -42.379  41.193  28.978  1.00  0.00    -0.031 A 
ATOM     52  H   UNL     1     -42.509  39.616  30.535  1.00  0.00     0.082 H 
ATOM     53  C   UNL     1     -43.179  41.400  27.829  1.00  0.00     0.061 A 
ATOM     54  N   UNL     1     -45.112  40.284  26.881  1.00  0.00    -0.218 NA
ATOM     55  H   UNL     1     -41.540  41.795  29.302  1.00  0.00     0.065 H 
ATOM     56  C   UNL     1     -43.211  42.341  26.789  1.00  0.00     0.136 A 
ATOM     57  C   UNL     1     -45.056  41.243  25.948  1.00  0.00     0.120 A 
ATOM     58  N   UNL     1     -44.164  42.244  25.846  1.00  0.00    -0.219 NA
ATOM     59  H   UNL     1     -45.822  41.206  25.180  1.00  0.00     0.106 H 
BRANCH  56  60
ATOM     60  N   UNL     1     -42.300  43.381  26.664  1.00  0.00    -0.383 N 
ATOM     61  H   UNL     1     -41.490  43.212  27.248  1.00  0.00     0.158 HD
ATOM     62  H   UNL     1     -42.704  44.306  26.722  1.00  0.00     0.158 HD
ENDBRANCH  56  60
ENDBRANCH  44  48
ENDBRANCH  36  39
ENDBRANCH  35  36
ENDBRANCH   7  35
TORSDOF 12
ENDMDL
MODEL 4
REMARK VINA RESULT:      -8.5      1.947      3.574
REMARK SMILES CCc1cc(NCCOC)c2ccc(OCc3cncc(-n4ccc5c(N)ncnc54)c3)cc2n1
REMARK SMILES IDX 3 1 4 2 5 3 11 4 12 5 13 6 14 7 33 8 34 9 35 10 2 15 1 18
REMARK SMILES IDX 6 22 7 24 8 27 9 30 10 31 15 35 16 36 17 39 18 40 32 41
REMARK SMILES IDX 19 42 21 44 20 46 22 48 23 49 31 50 24 51 25 53 30 54 26 56
REMARK SMILES IDX 29 57 28 58 27 60
REMARK H PARENT 4 11 12 12 13 13 33 14 2 16 2 17 1 19 1 20 1 21 6 23 7 25 7 26
REMARK H PARENT 8 28 8 29 10 32 10 33 10 34 16 37 16 38 18 43 32 45 20 47
REMARK H PARENT 23 52 24 55 29 59 27 61 27 62
REMARK Flexibility Score: inf
ROOT
ATOM      1  C   UNL     1     -48.651  27.368  25.009  1.00  0.00     0.043 A 
ATOM      2  C   UNL     1     -49.259  27.520  23.769  1.00  0.00    -0.017 A 
ATOM      3  C   UNL     1     -49.665  28.787  23.343  1.00  0.00     0.045 A 
ATOM      4  C   UNL     1     -49.332  29.902  24.166  1.00  0.00     0.024 A 
ATOM      5  C   UNL     1     -49.569  31.252  23.814  1.00  0.00    -0.047 A 
ATOM      6  C   UNL     1     -49.272  32.292  24.693  1.00  0.00    -0.019 A 
ATOM      7  C   UNL     1     -48.735  32.018  25.944  1.00  0.00     0.122 A 
ATOM      8  C   UNL     1     -48.458  30.695  26.285  1.00  0.00     0.007 A 
ATOM      9  C   UNL     1     -48.736  29.641  25.422  1.00  0.00     0.076 A 
ATOM     10  N   UNL     1     -48.418  28.407  25.836  1.00  0.00    -0.253 NA
ATOM     11  H   UNL     1     -49.405  26.641  23.155  1.00  0.00     0.066 H 
ATOM     12  H   UNL     1     -49.982  31.512  22.844  1.00  0.00     0.063 H 
ATOM     13  H   UNL     1     -49.481  33.320  24.404  1.00  0.00     0.066 H 
ATOM     14  H   UNL     1     -48.030  30.435  27.247  1.00  0.00     0.069 H 
ENDROOT
BRANCH   1  15
ATOM     15  C   UNL     1     -48.253  26.004  25.504  1.00  0.00    -0.013 C 
ATOM     16  H   UNL     1     -48.961  25.662  26.269  1.00  0.00     0.033 H 
ATOM     17  H   UNL     1     -48.318  25.287  24.676  1.00  0.00     0.033 H 
BRANCH  15  18
ATOM     18  C   UNL     1     -46.838  26.002  26.062  1.00  0.00    -0.060 C 
ATOM     19  H   UNL     1     -46.802  25.523  27.047  1.00  0.00     0.023 H 
ATOM     20  H   UNL     1     -46.150  25.465  25.401  1.00  0.00     0.023 H 
ATOM     21  H   UNL     1     -46.473  27.028  26.172  1.00  0.00     0.023 H 
ENDBRANCH  15  18
ENDBRANCH   1  15
BRANCH   3  22
ATOM     22  N   UNL     1     -50.271  28.983  22.083  1.00  0.00    -0.382 N 
ATOM     23  H   UNL     1     -51.061  28.346  21.969  1.00  0.00     0.160 HD
BRANCH  22  24
ATOM     24  C   UNL     1     -49.471  28.916  20.851  1.00  0.00     0.038 C 
ATOM     25  H   UNL     1     -50.089  28.751  19.963  1.00  0.00     0.051 H 
ATOM     26  H   UNL     1     -48.826  28.035  20.947  1.00  0.00     0.051 H 
BRANCH  24  27
ATOM     27  C   UNL     1     -48.578  30.154  20.692  1.00  0.00     0.063 C 
ATOM     28  H   UNL     1     -49.024  31.023  21.190  1.00  0.00     0.059 H 
ATOM     29  H   UNL     1     -48.457  30.379  19.626  1.00  0.00     0.059 H 
BRANCH  27  30
ATOM     30  O   UNL     1     -47.291  29.884  21.267  1.00  0.00    -0.383 OA
BRANCH  30  31
ATOM     31  C   UNL     1     -46.457  31.037  21.227  1.00  0.00     0.036 C 
ATOM     32  H   UNL     1     -45.642  30.847  20.523  1.00  0.00     0.053 H 
ATOM     33  H   UNL     1     -47.025  31.904  20.876  1.00  0.00     0.053 H 
ATOM     34  H   UNL     1     -46.033  31.239  22.214  1.00  0.00     0.053 H 
ENDBRANCH  30  31
ENDBRANCH  27  30
ENDBRANCH  24  27
ENDBRANCH  22  24
ENDBRANCH   3  22
BRANCH   7  35
ATOM     35  O   UNL     1     -48.562  33.117  26.740  1.00  0.00    -0.489 OA
BRANCH  35  36
ATOM     36  C   UNL     1     -47.530  34.054  26.417  1.00  0.00     0.115 C 
ATOM     37  H   UNL     1     -47.635  34.245  25.342  1.00  0.00     0.076 H 
ATOM     38  H   UNL     1     -46.539  33.604  26.550  1.00  0.00     0.076 H 
BRANCH  36  39
ATOM     39  C   UNL     1     -47.629  35.390  27.117  1.00  0.00     0.010 A 
ATOM     40  C   UNL     1     -48.873  35.990  27.263  1.00  0.00     0.034 A 
ATOM     41  C   UNL     1     -46.526  36.073  27.645  1.00  0.00    -0.028 A 
ATOM     42  N   UNL     1     -49.075  37.181  27.869  1.00  0.00    -0.262 NA
ATOM     43  H   UNL     1     -49.778  35.518  26.887  1.00  0.00     0.084 H 
ATOM     44  C   UNL     1     -46.682  37.325  28.248  1.00  0.00     0.066 A 
ATOM     45  H   UNL     1     -45.551  35.602  27.586  1.00  0.00     0.065 H 
ATOM     46  C   UNL     1     -47.977  37.822  28.339  1.00  0.00     0.051 A 
ATOM     47  H   UNL     1     -48.210  38.788  28.774  1.00  0.00     0.086 H 
BRANCH  44  48
ATOM     48  N   UNL     1     -45.567  38.075  28.735  1.00  0.00    -0.300 N 
ATOM     49  C   UNL     1     -44.915  37.849  29.940  1.00  0.00     0.012 A 
ATOM     50  C   UNL     1     -44.940  39.166  28.127  1.00  0.00     0.150 A 
ATOM     51  C   UNL     1     -43.893  38.758  30.087  1.00  0.00    -0.031 A 
ATOM     52  H   UNL     1     -45.204  37.042  30.599  1.00  0.00     0.082 H 
ATOM     53  C   UNL     1     -43.904  39.598  28.948  1.00  0.00     0.061 A 
ATOM     54  N   UNL     1     -45.285  39.749  26.961  1.00  0.00    -0.218 NA
ATOM     55  H   UNL     1     -43.217  38.817  30.930  1.00  0.00     0.065 H 
ATOM     56  C   UNL     1     -43.154  40.701  28.511  1.00  0.00     0.136 A 
ATOM     57  C   UNL     1     -44.514  40.799  26.652  1.00  0.00     0.120 A 
ATOM     58  N   UNL     1     -43.474  41.292  27.347  1.00  0.00    -0.219 NA
ATOM     59  H   UNL     1     -44.756  41.313  25.726  1.00  0.00     0.106 H 
BRANCH  56  60
ATOM     60  N   UNL     1     -42.077  41.225  29.212  1.00  0.00    -0.383 N 
ATOM     61  H   UNL     1     -42.316  42.128  29.603  1.00  0.00     0.158 HD
ATOM     62  H   UNL     1     -41.191  41.171  28.728  1.00  0.00     0.158 HD
ENDBRANCH  56  60
ENDBRANCH  44  48
ENDBRANCH  36  39
ENDBRANCH  35  36
ENDBRANCH   7  35
TORSDOF 12
ENDMDL
MODEL 5
REMARK VINA RESULT:      -8.2      2.492     11.664
REMARK SMILES CCc1cc(NCCOC)c2ccc(OCc3cncc(-n4ccc5c(N)ncnc54)c3)cc2n1
REMARK SMILES IDX 3 1 4 2 5 3 11 4 12 5 13 6 14 7 33 8 34 9 35 10 2 15 1 18
REMARK SMILES IDX 6 22 7 24 8 27 9 30 10 31 15 35 16 36 17 39 18 40 32 41
REMARK SMILES IDX 19 42 21 44 20 46 22 48 23 49 31 50 24 51 25 53 30 54 26 56
REMARK SMILES IDX 29 57 28 58 27 60
REMARK H PARENT 4 11 12 12 13 13 33 14 2 16 2 17 1 19 1 20 1 21 6 23 7 25 7 26
REMARK H PARENT 8 28 8 29 10 32 10 33 10 34 16 37 16 38 18 43 32 45 20 47
REMARK H PARENT 23 52 24 55 29 59 27 61 27 62
REMARK Flexibility Score: inf
ROOT
ATOM      1  C   UNL     1     -44.668  40.605  26.564  1.00  0.00     0.043 A 
ATOM      2  C   UNL     1     -43.899  40.819  27.701  1.00  0.00    -0.017 A 
ATOM      3  C   UNL     1     -43.992  39.936  28.780  1.00  0.00     0.045 A 
ATOM      4  C   UNL     1     -44.804  38.776  28.620  1.00  0.00     0.024 A 
ATOM      5  C   UNL     1     -44.904  37.735  29.573  1.00  0.00    -0.047 A 
ATOM      6  C   UNL     1     -45.763  36.656  29.378  1.00  0.00    -0.019 A 
ATOM      7  C   UNL     1     -46.547  36.583  28.234  1.00  0.00     0.122 A 
ATOM      8  C   UNL     1     -46.425  37.581  27.268  1.00  0.00     0.007 A 
ATOM      9  C   UNL     1     -45.567  38.662  27.435  1.00  0.00     0.076 A 
ATOM     10  N   UNL     1     -45.510  39.560  26.442  1.00  0.00    -0.253 NA
ATOM     11  H   UNL     1     -43.237  41.675  27.724  1.00  0.00     0.066 H 
ATOM     12  H   UNL     1     -44.306  37.749  30.480  1.00  0.00     0.063 H 
ATOM     13  H   UNL     1     -45.835  35.878  30.136  1.00  0.00     0.066 H 
ATOM     14  H   UNL     1     -47.009  37.561  26.354  1.00  0.00     0.069 H 
ENDROOT
BRANCH   1  15
ATOM     15  C   UNL     1     -44.615  41.574  25.412  1.00  0.00    -0.013 C 
ATOM     16  H   UNL     1     -44.327  41.048  24.494  1.00  0.00     0.033 H 
ATOM     17  H   UNL     1     -45.619  41.980  25.237  1.00  0.00     0.033 H 
BRANCH  15  18
ATOM     18  C   UNL     1     -43.650  42.717  25.686  1.00  0.00    -0.060 C 
ATOM     19  H   UNL     1     -44.166  43.572  26.137  1.00  0.00     0.023 H 
ATOM     20  H   UNL     1     -42.852  42.408  26.370  1.00  0.00     0.023 H 
ATOM     21  H   UNL     1     -43.187  43.053  24.753  1.00  0.00     0.023 H 
ENDBRANCH  15  18
ENDBRANCH   1  15
BRANCH   3  22
ATOM     22  N   UNL     1     -43.215  40.111  29.946  1.00  0.00    -0.382 N 
ATOM     23  H   UNL     1     -43.666  40.778  30.574  1.00  0.00     0.160 HD
BRANCH  22  24
ATOM     24  C   UNL     1     -41.797  40.490  29.849  1.00  0.00     0.038 C 
ATOM     25  H   UNL     1     -41.148  39.627  29.674  1.00  0.00     0.051 H 
ATOM     26  H   UNL     1     -41.516  40.896  30.828  1.00  0.00     0.051 H 
BRANCH  24  27
ATOM     27  C   UNL     1     -41.578  41.581  28.792  1.00  0.00     0.063 C 
ATOM     28  H   UNL     1     -41.562  42.575  29.254  1.00  0.00     0.059 H 
ATOM     29  H   UNL     1     -42.392  41.543  28.058  1.00  0.00     0.059 H 
BRANCH  27  30
ATOM     30  O   UNL     1     -40.330  41.345  28.123  1.00  0.00    -0.383 OA
BRANCH  30  31
ATOM     31  C   UNL     1     -40.404  41.713  26.750  1.00  0.00     0.036 C 
ATOM     32  H   UNL     1     -40.746  40.844  26.180  1.00  0.00     0.053 H 
ATOM     33  H   UNL     1     -41.125  42.524  26.613  1.00  0.00     0.053 H 
ATOM     34  H   UNL     1     -39.421  42.016  26.379  1.00  0.00     0.053 H 
ENDBRANCH  30  31
ENDBRANCH  27  30
ENDBRANCH  24  27
ENDBRANCH  22  24
ENDBRANCH   3  22
BRANCH   7  35
ATOM     35  O   UNL     1     -47.403  35.517  28.199  1.00  0.00    -0.489 OA
BRANCH  35  36
ATOM     36  C   UNL     1     -48.233  35.329  27.048  1.00  0.00     0.115 C 
ATOM     37  H   UNL     1     -48.096  36.230  26.439  1.00  0.00     0.076 H 
ATOM     38  H   UNL     1     -49.293  35.311  27.330  1.00  0.00     0.076 H 
BRANCH  36  39
ATOM     39  C   UNL     1     -47.873  34.147  26.179  1.00  0.00     0.010 A 
ATOM     40  C   UNL     1     -46.569  34.014  25.716  1.00  0.00     0.034 A 
ATOM     41  C   UNL     1     -48.785  33.151  25.806  1.00  0.00    -0.028 A 
ATOM     42  N   UNL     1     -46.141  33.000  24.933  1.00  0.00    -0.262 NA
ATOM     43  H   UNL     1     -45.802  34.743  25.969  1.00  0.00     0.084 H 
ATOM     44  C   UNL     1     -48.396  32.102  24.967  1.00  0.00     0.066 A 
ATOM     45  H   UNL     1     -49.795  33.206  26.194  1.00  0.00     0.065 H 
ATOM     46  C   UNL     1     -47.062  32.074  24.572  1.00  0.00     0.051 A 
ATOM     47  H   UNL     1     -46.658  31.315  23.911  1.00  0.00     0.086 H 
BRANCH  44  48
ATOM     48  N   UNL     1     -49.319  31.109  24.516  1.00  0.00    -0.300 N 
ATOM     49  C   UNL     1     -50.362  31.331  23.626  1.00  0.00     0.012 A 
ATOM     50  C   UNL     1     -49.372  29.762  24.883  1.00  0.00     0.150 A 
ATOM     51  C   UNL     1     -51.047  30.156  23.420  1.00  0.00    -0.031 A 
ATOM     52  H   UNL     1     -50.530  32.301  23.180  1.00  0.00     0.082 H 
ATOM     53  C   UNL     1     -50.432  29.159  24.214  1.00  0.00     0.061 A 
ATOM     54  N   UNL     1     -48.569  29.134  25.766  1.00  0.00    -0.218 NA
ATOM     55  H   UNL     1     -51.907  30.032  22.773  1.00  0.00     0.065 H 
ATOM     56  C   UNL     1     -50.656  27.796  24.460  1.00  0.00     0.136 A 
ATOM     57  C   UNL     1     -48.884  27.843  25.934  1.00  0.00     0.120 A 
ATOM     58  N   UNL     1     -49.862  27.147  25.329  1.00  0.00    -0.219 NA
ATOM     59  H   UNL     1     -48.275  27.292  26.644  1.00  0.00     0.106 H 
BRANCH  56  60
ATOM     60  N   UNL     1     -51.659  27.059  23.846  1.00  0.00    -0.383 N 
ATOM     61  H   UNL     1     -52.569  27.355  24.178  1.00  0.00     0.158 HD
ATOM     62  H   UNL     1     -51.497  26.061  23.825  1.00  0.00     0.158 HD
ENDBRANCH  56  60
ENDBRANCH  44  48
ENDBRANCH  36  39
ENDBRANCH  35  36
ENDBRANCH   7  35
TORSDOF 12
ENDMDL
MODEL 6
REMARK VINA RESULT:      -8.2      1.942      2.924
REMARK SMILES CCc1cc(NCCOC)c2ccc(OCc3cncc(-n4ccc5c(N)ncnc54)c3)cc2n1
REMARK SMILES IDX 3 1 4 2 5 3 11 4 12 5 13 6 14 7 33 8 34 9 35 10 2 15 1 18
REMARK SMILES IDX 6 22 7 24 8 27 9 30 10 31 15 35 16 36 17 39 18 40 32 41
REMARK SMILES IDX 19 42 21 44 20 46 22 48 23 49 31 50 24 51 25 53 30 54 26 56
REMARK SMILES IDX 29 57 28 58 27 60
REMARK H PARENT 4 11 12 12 13 13 33 14 2 16 2 17 1 19 1 20 1 21 6 23 7 25 7 26
REMARK H PARENT 8 28 8 29 10 32 10 33 10 34 16 37 16 38 18 43 32 45 20 47
REMARK H PARENT 23 52 24 55 29 59 27 61 27 62
REMARK Flexibility Score: inf
ROOT
ATOM      1  C   UNL     1     -50.825  30.252  22.844  1.00  0.00     0.043 A 
ATOM      2  C   UNL     1     -49.664  29.629  22.404  1.00  0.00    -0.017 A 
ATOM      3  C   UNL     1     -48.427  30.013  22.928  1.00  0.00     0.045 A 
ATOM      4  C   UNL     1     -48.421  30.966  23.988  1.00  0.00     0.024 A 
ATOM      5  C   UNL     1     -47.264  31.363  24.698  1.00  0.00    -0.047 A 
ATOM      6  C   UNL     1     -47.321  32.345  25.685  1.00  0.00    -0.019 A 
ATOM      7  C   UNL     1     -48.528  32.959  25.991  1.00  0.00     0.122 A 
ATOM      8  C   UNL     1     -49.682  32.545  25.328  1.00  0.00     0.007 A 
ATOM      9  C   UNL     1     -49.653  31.561  24.347  1.00  0.00     0.076 A 
ATOM     10  N   UNL     1     -50.819  31.223  23.780  1.00  0.00    -0.253 NA
ATOM     11  H   UNL     1     -49.746  28.851  21.657  1.00  0.00     0.066 H 
ATOM     12  H   UNL     1     -46.299  30.905  24.495  1.00  0.00     0.063 H 
ATOM     13  H   UNL     1     -46.412  32.645  26.202  1.00  0.00     0.066 H 
ATOM     14  H   UNL     1     -50.649  32.989  25.541  1.00  0.00     0.069 H 
ENDROOT
BRANCH   1  15
ATOM     15  C   UNL     1     -52.160  29.885  22.254  1.00  0.00    -0.013 C 
ATOM     16  H   UNL     1     -52.399  28.841  22.490  1.00  0.00     0.033 H 
ATOM     17  H   UNL     1     -52.941  30.497  22.722  1.00  0.00     0.033 H 
BRANCH  15  18
ATOM     18  C   UNL     1     -52.184  30.100  20.749  1.00  0.00    -0.060 C 
ATOM     19  H   UNL     1     -51.339  30.717  20.423  1.00  0.00     0.023 H 
ATOM     20  H   UNL     1     -52.132  29.148  20.210  1.00  0.00     0.023 H 
ATOM     21  H   UNL     1     -53.108  30.608  20.453  1.00  0.00     0.023 H 
ENDBRANCH  15  18
ENDBRANCH   1  15
BRANCH   3  22
ATOM     22  N   UNL     1     -47.227  29.392  22.518  1.00  0.00    -0.382 N 
ATOM     23  H   UNL     1     -47.362  28.919  21.624  1.00  0.00     0.160 HD
BRANCH  22  24
ATOM     24  C   UNL     1     -46.529  28.452  23.410  1.00  0.00     0.038 C 
ATOM     25  H   UNL     1     -45.969  28.965  24.197  1.00  0.00     0.051 H 
ATOM     26  H   UNL     1     -45.789  27.930  22.793  1.00  0.00     0.051 H 
BRANCH  24  27
ATOM     27  C   UNL     1     -47.493  27.411  23.994  1.00  0.00     0.063 C 
ATOM     28  H   UNL     1     -47.034  26.416  24.004  1.00  0.00     0.059 H 
ATOM     29  H   UNL     1     -48.403  27.376  23.383  1.00  0.00     0.059 H 
BRANCH  27  30
ATOM     30  O   UNL     1     -47.840  27.789  25.334  1.00  0.00    -0.383 OA
BRANCH  30  31
ATOM     31  C   UNL     1     -49.191  27.453  25.631  1.00  0.00     0.036 C 
ATOM     32  H   UNL     1     -49.266  26.364  25.703  1.00  0.00     0.053 H 
ATOM     33  H   UNL     1     -49.489  27.888  26.589  1.00  0.00     0.053 H 
ATOM     34  H   UNL     1     -49.858  27.801  24.836  1.00  0.00     0.053 H 
ENDBRANCH  30  31
ENDBRANCH  27  30
ENDBRANCH  24  27
ENDBRANCH  22  24
ENDBRANCH   3  22
BRANCH   7  35
ATOM     35  O   UNL     1     -48.437  33.958  26.920  1.00  0.00    -0.489 OA
BRANCH  35  36
ATOM     36  C   UNL     1     -47.223  34.709  27.018  1.00  0.00     0.115 C 
ATOM     37  H   UNL     1     -46.760  34.646  26.025  1.00  0.00     0.076 H 
ATOM     38  H   UNL     1     -46.521  34.229  27.710  1.00  0.00     0.076 H 
BRANCH  36  39
ATOM     39  C   UNL     1     -47.395  36.176  27.335  1.00  0.00     0.010 A 
ATOM     40  C   UNL     1     -48.656  36.657  27.666  1.00  0.00     0.034 A 
ATOM     41  C   UNL     1     -46.343  37.101  27.323  1.00  0.00    -0.028 A 
ATOM     42  N   UNL     1     -48.921  37.948  27.965  1.00  0.00    -0.262 NA
ATOM     43  H   UNL     1     -49.521  35.999  27.705  1.00  0.00     0.084 H 
ATOM     44  C   UNL     1     -46.577  38.454  27.590  1.00  0.00     0.066 A 
ATOM     45  H   UNL     1     -45.342  36.741  27.116  1.00  0.00     0.065 H 
ATOM     46  C   UNL     1     -47.881  38.815  27.913  1.00  0.00     0.051 A 
ATOM     47  H   UNL     1     -48.176  39.837  28.123  1.00  0.00     0.086 H 
BRANCH  44  48
ATOM     48  N   UNL     1     -45.537  39.431  27.520  1.00  0.00    -0.300 N 
ATOM     49  C   UNL     1     -45.380  40.362  26.501  1.00  0.00     0.012 A 
ATOM     50  C   UNL     1     -44.489  39.630  28.423  1.00  0.00     0.150 A 
ATOM     51  C   UNL     1     -44.274  41.140  26.757  1.00  0.00    -0.031 A 
ATOM     52  H   UNL     1     -46.078  40.425  25.678  1.00  0.00     0.082 H 
ATOM     53  C   UNL     1     -43.701  40.682  27.967  1.00  0.00     0.061 A 
ATOM     54  N   UNL     1     -44.236  38.912  29.536  1.00  0.00    -0.218 NA
ATOM     55  H   UNL     1     -43.912  41.946  26.131  1.00  0.00     0.065 H 
ATOM     56  C   UNL     1     -42.584  41.030  28.740  1.00  0.00     0.136 A 
ATOM     57  C   UNL     1     -43.138  39.321  30.184  1.00  0.00     0.120 A 
ATOM     58  N   UNL     1     -42.316  40.334  29.858  1.00  0.00    -0.219 NA
ATOM     59  H   UNL     1     -42.881  38.768  31.083  1.00  0.00     0.106 H 
BRANCH  56  60
ATOM     60  N   UNL     1     -41.724  42.073  28.422  1.00  0.00    -0.383 N 
ATOM     61  H   UNL     1     -40.771  41.833  28.671  1.00  0.00     0.158 HD
ATOM     62  H   UNL     1     -42.043  42.987  28.714  1.00  0.00     0.158 HD
ENDBRANCH  56  60
ENDBRANCH  44  48
ENDBRANCH  36  39
ENDBRANCH  35  36
ENDBRANCH   7  35
TORSDOF 12
ENDMDL
MODEL 7
REMARK VINA RESULT:      -8.1      1.521      3.138
REMARK SMILES CCc1cc(NCCOC)c2ccc(OCc3cncc(-n4ccc5c(N)ncnc54)c3)cc2n1
REMARK SMILES IDX 3 1 4 2 5 3 11 4 12 5 13 6 14 7 33 8 34 9 35 10 2 15 1 18
REMARK SMILES IDX 6 22 7 24 8 27 9 30 10 31 15 35 16 36 17 39 18 40 32 41
REMARK SMILES IDX 19 42 21 44 20 46 22 48 23 49 31 50 24 51 25 53 30 54 26 56
REMARK SMILES IDX 29 57 28 58 27 60
REMARK H PARENT 4 11 12 12 13 13 33 14 2 16 2 17 1 19 1 20 1 21 6 23 7 25 7 26
REMARK H PARENT 8 28 8 29 10 32 10 33 10 34 16 37 16 38 18 43 32 45 20 47
REMARK H PARENT 23 52 24 55 29 59 27 61 27 62
REMARK Flexibility Score: inf
ROOT
ATOM      1  C   UNL     1     -48.819  29.354  25.219  1.00  0.00     0.043 A 
ATOM      2  C   UNL     1     -48.743  29.692  23.874  1.00  0.00    -0.017 A 
ATOM      3  C   UNL     1     -48.196  30.921  23.495  1.00  0.00     0.045 A 
ATOM      4  C   UNL     1     -47.630  31.739  24.516  1.00  0.00     0.024 A 
ATOM      5  C   UNL     1     -46.937  32.949  24.276  1.00  0.00    -0.047 A 
ATOM      6  C   UNL     1     -46.460  33.730  25.326  1.00  0.00    -0.019 A 
ATOM      7  C   UNL     1     -46.661  33.332  26.642  1.00  0.00     0.122 A 
ATOM      8  C   UNL     1     -47.304  32.121  26.889  1.00  0.00     0.007 A 
ATOM      9  C   UNL     1     -47.781  31.319  25.858  1.00  0.00     0.076 A 
ATOM     10  N   UNL     1     -48.371  30.165  26.199  1.00  0.00    -0.253 NA
ATOM     11  H   UNL     1     -49.114  28.987  23.142  1.00  0.00     0.066 H 
ATOM     12  H   UNL     1     -46.754  33.296  23.263  1.00  0.00     0.063 H 
ATOM     13  H   UNL     1     -45.947  34.666  25.114  1.00  0.00     0.066 H 
ATOM     14  H   UNL     1     -47.474  31.764  27.899  1.00  0.00     0.069 H 
ENDROOT
BRANCH   1  15
ATOM     15  C   UNL     1     -49.450  28.056  25.647  1.00  0.00    -0.013 C 
ATOM     16  H   UNL     1     -50.452  28.243  26.050  1.00  0.00     0.033 H 
ATOM     17  H   UNL     1     -49.582  27.413  24.769  1.00  0.00     0.033 H 
BRANCH  15  18
ATOM     18  C   UNL     1     -48.598  27.333  26.678  1.00  0.00    -0.060 C 
ATOM     19  H   UNL     1     -47.946  26.591  26.204  1.00  0.00     0.023 H 
ATOM     20  H   UNL     1     -47.963  28.033  27.232  1.00  0.00     0.023 H 
ATOM     21  H   UNL     1     -49.236  26.811  27.399  1.00  0.00     0.023 H 
ENDBRANCH  15  18
ENDBRANCH   1  15
BRANCH   3  22
ATOM     22  N   UNL     1     -48.087  31.293  22.138  1.00  0.00    -0.382 N 
ATOM     23  H   UNL     1     -49.011  31.318  21.703  1.00  0.00     0.160 HD
BRANCH  22  24
ATOM     24  C   UNL     1     -47.196  30.555  21.230  1.00  0.00     0.038 C 
ATOM     25  H   UNL     1     -47.582  30.520  20.207  1.00  0.00     0.051 H 
ATOM     26  H   UNL     1     -47.175  29.519  21.588  1.00  0.00     0.051 H 
BRANCH  24  27
ATOM     27  C   UNL     1     -45.766  31.110  21.272  1.00  0.00     0.063 C 
ATOM     28  H   UNL     1     -45.773  32.203  21.363  1.00  0.00     0.059 H 
ATOM     29  H   UNL     1     -45.242  30.834  20.350  1.00  0.00     0.059 H 
BRANCH  27  30
ATOM     30  O   UNL     1     -45.073  30.544  22.394  1.00  0.00    -0.383 OA
BRANCH  30  31
ATOM     31  C   UNL     1     -45.167  29.123  22.393  1.00  0.00     0.036 C 
ATOM     32  H   UNL     1     -44.491  28.734  23.159  1.00  0.00     0.053 H 
ATOM     33  H   UNL     1     -46.187  28.810  22.636  1.00  0.00     0.053 H 
ATOM     34  H   UNL     1     -44.871  28.719  21.420  1.00  0.00     0.053 H 
ENDBRANCH  30  31
ENDBRANCH  27  30
ENDBRANCH  24  27
ENDBRANCH  22  24
ENDBRANCH   3  22
BRANCH   7  35
ATOM     35  O   UNL     1     -46.214  34.222  27.579  1.00  0.00    -0.489 OA
BRANCH  35  36
ATOM     36  C   UNL     1     -46.714  35.563  27.558  1.00  0.00     0.115 C 
ATOM     37  H   UNL     1     -47.775  35.483  27.822  1.00  0.00     0.076 H 
ATOM     38  H   UNL     1     -46.684  35.975  26.543  1.00  0.00     0.076 H 
BRANCH  36  39
ATOM     39  C   UNL     1     -46.078  36.504  28.555  1.00  0.00     0.010 A 
ATOM     40  C   UNL     1     -46.288  36.298  29.914  1.00  0.00     0.034 A 
ATOM     41  C   UNL     1     -45.270  37.589  28.193  1.00  0.00    -0.028 A 
ATOM     42  N   UNL     1     -45.770  37.078  30.888  1.00  0.00    -0.262 NA
ATOM     43  H   UNL     1     -46.897  35.473  30.274  1.00  0.00     0.084 H 
ATOM     44  C   UNL     1     -44.743  38.445  29.165  1.00  0.00     0.066 A 
ATOM     45  H   UNL     1     -45.052  37.741  27.142  1.00  0.00     0.065 H 
ATOM     46  C   UNL     1     -45.018  38.134  30.492  1.00  0.00     0.051 A 
ATOM     47  H   UNL     1     -44.672  38.737  31.324  1.00  0.00     0.086 H 
BRANCH  44  48
ATOM     48  N   UNL     1     -43.970  39.597  28.822  1.00  0.00    -0.300 N 
ATOM     49  C   UNL     1     -42.933  40.122  29.583  1.00  0.00     0.012 A 
ATOM     50  C   UNL     1     -44.110  40.415  27.698  1.00  0.00     0.150 A 
ATOM     51  C   UNL     1     -42.418  41.231  28.953  1.00  0.00    -0.031 A 
ATOM     52  H   UNL     1     -42.615  39.657  30.506  1.00  0.00     0.082 H 
ATOM     53  C   UNL     1     -43.158  41.427  27.763  1.00  0.00     0.061 A 
ATOM     54  N   UNL     1     -45.029  40.292  26.719  1.00  0.00    -0.218 NA
ATOM     55  H   UNL     1     -41.601  41.841  29.318  1.00  0.00     0.065 H 
ATOM     56  C   UNL     1     -43.144  42.365  26.719  1.00  0.00     0.136 A 
ATOM     57  C   UNL     1     -44.933  41.248  25.787  1.00  0.00     0.120 A 
ATOM     58  N   UNL     1     -44.045  42.257  25.727  1.00  0.00    -0.219 NA
ATOM     59  H   UNL     1     -45.658  41.203  24.980  1.00  0.00     0.106 H 
BRANCH  56  60
ATOM     60  N   UNL     1     -42.236  43.412  26.638  1.00  0.00    -0.383 N 
ATOM     61  H   UNL     1     -42.271  43.976  27.479  1.00  0.00     0.158 HD
ATOM     62  H   UNL     1     -42.252  43.918  25.763  1.00  0.00     0.158 HD
ENDBRANCH  56  60
ENDBRANCH  44  48
ENDBRANCH  36  39
ENDBRANCH  35  36
ENDBRANCH   7  35
TORSDOF 12
ENDMDL
