MODEL 1
REMARK VINA RESULT:     -11.7      0.000      0.000
REMARK SMILES Nc1ncnc2c1ccn2[C@@H]1C[C@H](CCc2ccc3c(OCc4ccccc4)ccnc3c2)[C@@H](O)[C@H]1O
REMARK SMILES IDX 15 1 14 4 13 7 11 8 12 9 36 10 34 14 10 18 2 19 3 20 7 21
REMARK SMILES IDX 4 22 6 23 8 24 5 25 9 27 1 30 37 33 35 35 16 37 17 38 33 39
REMARK SMILES IDX 18 40 32 42 19 44 31 46 20 47 30 48 29 49 21 52 22 53 23 56
REMARK SMILES IDX 24 57 28 58 25 59 27 61 26 63
REMARK H PARENT 15 2 15 3 14 5 14 6 11 11 12 12 12 13 36 15 13 16 34 17 4 26
REMARK H PARENT 8 28 9 29 1 31 1 32 37 34 35 36 17 41 33 43 18 45 30 50 29 51
REMARK H PARENT 22 54 22 55 24 60 28 62 25 64 27 65 26 66
REMARK Flexibility Score: inf
ROOT
ATOM      1  C   UNL     1     -46.925  35.107  26.154  1.00  0.00    -0.027 C 
ATOM      2  H   UNL     1     -47.792  35.414  26.749  1.00  0.00     0.032 H 
ATOM      3  H   UNL     1     -46.865  35.819  25.321  1.00  0.00     0.032 H 
ENDROOT
BRANCH   1   4
ATOM      4  C   UNL     1     -45.632  35.154  26.976  1.00  0.00    -0.044 C 
ATOM      5  H   UNL     1     -45.200  34.151  27.065  1.00  0.00     0.027 H 
ATOM      6  H   UNL     1     -44.893  35.750  26.423  1.00  0.00     0.027 H 
BRANCH   4   7
ATOM      7  C   UNL     1     -45.830  35.763  28.373  1.00  0.00    -0.010 C 
ATOM      8  C   UNL     1     -45.664  38.221  28.634  1.00  0.00     0.064 C 
ATOM      9  C   UNL     1     -44.841  36.918  28.662  1.00  0.00    -0.024 C 
ATOM     10  C   UNL     1     -47.008  37.846  27.998  1.00  0.00     0.101 C 
ATOM     11  H   UNL     1     -45.843  38.535  29.673  1.00  0.00     0.056 H 
ATOM     12  H   UNL     1     -43.998  36.933  27.965  1.00  0.00     0.029 H 
ATOM     13  H   UNL     1     -44.410  36.791  29.662  1.00  0.00     0.029 H 
ATOM     14  C   UNL     1     -47.213  36.413  28.500  1.00  0.00     0.085 C 
ATOM     15  H   UNL     1     -46.994  37.869  26.904  1.00  0.00     0.065 H 
ATOM     16  H   UNL     1     -45.703  34.977  29.127  1.00  0.00     0.033 H 
ATOM     17  H   UNL     1     -48.005  35.889  27.957  1.00  0.00     0.063 H 
BRANCH   8  18
ATOM     18  N   UNL     1     -45.003  39.346  27.991  1.00  0.00    -0.327 N 
ATOM     19  C   UNL     1     -42.507  41.852  27.847  1.00  0.00     0.136 A 
ATOM     20  N   UNL     1     -41.844  41.656  29.003  1.00  0.00    -0.219 NA
ATOM     21  C   UNL     1     -43.595  41.024  27.540  1.00  0.00     0.061 A 
ATOM     22  C   UNL     1     -42.268  40.674  29.823  1.00  0.00     0.120 A 
ATOM     23  C   UNL     1     -43.919  40.043  28.470  1.00  0.00     0.145 A 
ATOM     24  C   UNL     1     -44.523  40.904  26.471  1.00  0.00    -0.031 A 
ATOM     25  N   UNL     1     -43.286  39.816  29.632  1.00  0.00    -0.218 NA
ATOM     26  H   UNL     1     -41.716  40.565  30.753  1.00  0.00     0.106 H 
ATOM     27  C   UNL     1     -45.375  39.863  26.771  1.00  0.00     0.007 A 
ATOM     28  H   UNL     1     -44.568  41.520  25.582  1.00  0.00     0.065 H 
ATOM     29  H   UNL     1     -46.215  39.457  26.220  1.00  0.00     0.082 H 
BRANCH  19  30
ATOM     30  N   UNL     1     -42.051  42.865  27.016  1.00  0.00    -0.383 N 
ATOM     31  H   UNL     1     -42.774  43.435  26.602  1.00  0.00     0.158 HD
ATOM     32  H   UNL     1     -41.334  42.515  26.390  1.00  0.00     0.158 HD
ENDBRANCH  19  30
ENDBRANCH   8  18
BRANCH  10  33
ATOM     33  O   UNL     1     -48.078  38.674  28.459  1.00  0.00    -0.388 OA
ATOM     34  H   UNL     1     -47.988  38.731  29.429  1.00  0.00     0.211 HD
ENDBRANCH  10  33
BRANCH  14  35
ATOM     35  O   UNL     1     -47.588  36.446  29.881  1.00  0.00    -0.390 OA
ATOM     36  H   UNL     1     -48.479  36.853  29.887  1.00  0.00     0.211 HD
ENDBRANCH  14  35
ENDBRANCH   4   7
ENDBRANCH   1   4
BRANCH   1  37
ATOM     37  C   UNL     1     -47.173  33.716  25.627  1.00  0.00    -0.046 A 
ATOM     38  C   UNL     1     -48.168  32.904  26.166  1.00  0.00    -0.058 A 
ATOM     39  C   UNL     1     -46.424  33.239  24.539  1.00  0.00    -0.032 A 
ATOM     40  C   UNL     1     -48.398  31.640  25.623  1.00  0.00    -0.049 A 
ATOM     41  H   UNL     1     -48.772  33.245  27.003  1.00  0.00     0.063 H 
ATOM     42  C   UNL     1     -46.645  31.992  23.973  1.00  0.00     0.074 A 
ATOM     43  H   UNL     1     -45.644  33.867  24.113  1.00  0.00     0.065 H 
ATOM     44  C   UNL     1     -47.648  31.167  24.522  1.00  0.00     0.042 A 
ATOM     45  H   UNL     1     -49.178  31.016  26.057  1.00  0.00     0.063 H 
ATOM     46  N   UNL     1     -45.899  31.627  22.918  1.00  0.00    -0.256 NA
ATOM     47  C   UNL     1     -47.849  29.899  23.928  1.00  0.00     0.130 A 
ATOM     48  C   UNL     1     -46.119  30.411  22.379  1.00  0.00     0.031 A 
ATOM     49  C   UNL     1     -47.069  29.520  22.840  1.00  0.00    -0.001 A 
ATOM     50  H   UNL     1     -45.485  30.163  21.532  1.00  0.00     0.084 H 
ATOM     51  H   UNL     1     -47.171  28.567  22.339  1.00  0.00     0.068 H 
BRANCH  47  52
ATOM     52  O   UNL     1     -48.831  29.120  24.487  1.00  0.00    -0.488 OA
BRANCH  52  53
ATOM     53  C   UNL     1     -49.020  27.807  23.969  1.00  0.00     0.113 C 
ATOM     54  H   UNL     1     -50.087  27.599  23.823  1.00  0.00     0.076 H 
ATOM     55  H   UNL     1     -48.500  27.689  23.009  1.00  0.00     0.076 H 
BRANCH  53  56
ATOM     56  C   UNL     1     -48.447  26.828  24.963  1.00  0.00    -0.011 A 
ATOM     57  C   UNL     1     -49.294  26.003  25.716  1.00  0.00    -0.056 A 
ATOM     58  C   UNL     1     -47.059  26.702  25.122  1.00  0.00    -0.056 A 
ATOM     59  C   UNL     1     -48.764  25.086  26.626  1.00  0.00    -0.062 A 
ATOM     60  H   UNL     1     -50.373  26.065  25.591  1.00  0.00     0.063 H 
ATOM     61  C   UNL     1     -46.532  25.785  26.033  1.00  0.00    -0.062 A 
ATOM     62  H   UNL     1     -46.381  27.313  24.531  1.00  0.00     0.063 H 
ATOM     63  C   UNL     1     -47.385  24.980  26.786  1.00  0.00    -0.062 A 
ATOM     64  H   UNL     1     -49.430  24.451  27.205  1.00  0.00     0.062 H 
ATOM     65  H   UNL     1     -45.455  25.694  26.150  1.00  0.00     0.062 H 
ATOM     66  H   UNL     1     -46.973  24.263  27.493  1.00  0.00     0.062 H 
ENDBRANCH  53  56
ENDBRANCH  52  53
ENDBRANCH  47  52
ENDBRANCH   1  37
TORSDOF 10
ENDMDL
MODEL 2
REMARK VINA RESULT:     -10.7      1.832      3.207
REMARK SMILES Nc1ncnc2c1ccn2[C@@H]1C[C@H](CCc2ccc3c(OCc4ccccc4)ccnc3c2)[C@@H](O)[C@H]1O
REMARK SMILES IDX 15 1 14 4 13 7 11 8 12 9 36 10 34 14 10 18 2 19 3 20 7 21
REMARK SMILES IDX 4 22 6 23 8 24 5 25 9 27 1 30 37 33 35 35 16 37 17 38 33 39
REMARK SMILES IDX 18 40 32 42 19 44 31 46 20 47 30 48 29 49 21 52 22 53 23 56
REMARK SMILES IDX 24 57 28 58 25 59 27 61 26 63
REMARK H PARENT 15 2 15 3 14 5 14 6 11 11 12 12 12 13 36 15 13 16 34 17 4 26
REMARK H PARENT 8 28 9 29 1 31 1 32 37 34 35 36 17 41 33 43 18 45 30 50 29 51
REMARK H PARENT 22 54 22 55 24 60 28 62 25 64 27 65 26 66
REMARK Flexibility Score: inf
ROOT
ATOM      1  C   UNL     1     -46.819  35.044  25.964  1.00  0.00    -0.027 C 
ATOM      2  H   UNL     1     -47.698  35.604  26.304  1.00  0.00     0.032 H 
ATOM      3  H   UNL     1     -46.445  35.580  25.083  1.00  0.00     0.032 H 
ENDROOT
BRANCH   1   4
ATOM      4  C   UNL     1     -45.732  34.991  27.043  1.00  0.00    -0.044 C 
ATOM      5  H   UNL     1     -45.450  33.952  27.249  1.00  0.00     0.027 H 
ATOM      6  H   UNL     1     -44.828  35.474  26.648  1.00  0.00     0.027 H 
BRANCH   4   7
ATOM      7  C   UNL     1     -46.147  35.687  28.349  1.00  0.00    -0.010 C 
ATOM      8  C   UNL     1     -45.948  38.152  28.499  1.00  0.00     0.064 C 
ATOM      9  C   UNL     1     -45.186  36.835  28.741  1.00  0.00    -0.024 C 
ATOM     10  C   UNL     1     -47.175  37.769  27.660  1.00  0.00     0.101 C 
ATOM     11  H   UNL     1     -46.293  38.532  29.472  1.00  0.00     0.056 H 
ATOM     12  H   UNL     1     -44.236  36.789  28.201  1.00  0.00     0.029 H 
ATOM     13  H   UNL     1     -44.937  36.759  29.806  1.00  0.00     0.029 H 
ATOM     14  C   UNL     1     -47.509  36.375  28.198  1.00  0.00     0.085 C 
ATOM     15  H   UNL     1     -46.972  37.726  26.586  1.00  0.00     0.065 H 
ATOM     16  H   UNL     1     -46.178  34.945  29.156  1.00  0.00     0.033 H 
ATOM     17  H   UNL     1     -48.213  35.836  27.556  1.00  0.00     0.063 H 
BRANCH   8  18
ATOM     18  N   UNL     1     -45.151  39.221  27.919  1.00  0.00    -0.327 N 
ATOM     19  C   UNL     1     -42.455  41.514  27.989  1.00  0.00     0.136 A 
ATOM     20  N   UNL     1     -41.899  41.259  29.189  1.00  0.00    -0.219 NA
ATOM     21  C   UNL     1     -43.580  40.780  27.592  1.00  0.00     0.061 A 
ATOM     22  C   UNL     1     -42.463  40.313  29.965  1.00  0.00     0.120 A 
ATOM     23  C   UNL     1     -44.053  39.825  28.485  1.00  0.00     0.145 A 
ATOM     24  C   UNL     1     -44.431  40.740  26.455  1.00  0.00    -0.031 A 
ATOM     25  N   UNL     1     -43.531  39.542  29.690  1.00  0.00    -0.218 NA
ATOM     26  H   UNL     1     -41.994  40.154  30.933  1.00  0.00     0.106 H 
ATOM     27  C   UNL     1     -45.386  39.772  26.679  1.00  0.00     0.007 A 
ATOM     28  H   UNL     1     -44.358  41.361  25.571  1.00  0.00     0.065 H 
ATOM     29  H   UNL     1     -46.212  39.439  26.063  1.00  0.00     0.082 H 
BRANCH  19  30
ATOM     30  N   UNL     1     -41.855  42.488  27.204  1.00  0.00    -0.383 N 
ATOM     31  H   UNL     1     -41.609  43.337  27.692  1.00  0.00     0.158 HD
ATOM     32  H   UNL     1     -42.355  42.595  26.329  1.00  0.00     0.158 HD
ENDBRANCH  19  30
ENDBRANCH   8  18
BRANCH  10  33
ATOM     33  O   UNL     1     -48.280  38.648  27.883  1.00  0.00    -0.388 OA
ATOM     34  H   UNL     1     -48.539  38.996  27.009  1.00  0.00     0.211 HD
ENDBRANCH  10  33
BRANCH  14  35
ATOM     35  O   UNL     1     -48.115  36.499  29.489  1.00  0.00    -0.390 OA
ATOM     36  H   UNL     1     -47.609  35.886  30.062  1.00  0.00     0.211 HD
ENDBRANCH  14  35
ENDBRANCH   4   7
ENDBRANCH   1   4
BRANCH   1  37
ATOM     37  C   UNL     1     -47.255  33.654  25.576  1.00  0.00    -0.046 A 
ATOM     38  C   UNL     1     -48.468  33.127  26.015  1.00  0.00    -0.058 A 
ATOM     39  C   UNL     1     -46.454  32.886  24.716  1.00  0.00    -0.032 A 
ATOM     40  C   UNL     1     -48.859  31.854  25.600  1.00  0.00    -0.049 A 
ATOM     41  H   UNL     1     -49.116  33.697  26.675  1.00  0.00     0.063 H 
ATOM     42  C   UNL     1     -46.830  31.625  24.277  1.00  0.00     0.074 A 
ATOM     43  H   UNL     1     -45.505  33.290  24.369  1.00  0.00     0.065 H 
ATOM     44  C   UNL     1     -48.053  31.088  24.726  1.00  0.00     0.042 A 
ATOM     45  H   UNL     1     -49.809  31.455  25.953  1.00  0.00     0.063 H 
ATOM     46  N   UNL     1     -46.013  30.971  23.435  1.00  0.00    -0.256 NA
ATOM     47  C   UNL     1     -48.409  29.798  24.267  1.00  0.00     0.130 A 
ATOM     48  C   UNL     1     -46.386  29.744  23.019  1.00  0.00     0.031 A 
ATOM     49  C   UNL     1     -47.558  29.120  23.400  1.00  0.00    -0.001 A 
ATOM     50  H   UNL     1     -45.687  29.257  22.343  1.00  0.00     0.084 H 
ATOM     51  H   UNL     1     -47.769  28.133  23.011  1.00  0.00     0.068 H 
BRANCH  47  52
ATOM     52  O   UNL     1     -49.606  29.304  24.723  1.00  0.00    -0.488 OA
BRANCH  52  53
ATOM     53  C   UNL     1     -50.584  28.925  23.760  1.00  0.00     0.113 C 
ATOM     54  H   UNL     1     -50.144  28.267  23.001  1.00  0.00     0.076 H 
ATOM     55  H   UNL     1     -51.421  28.403  24.241  1.00  0.00     0.076 H 
BRANCH  53  56
ATOM     56  C   UNL     1     -51.099  30.180  23.101  1.00  0.00    -0.011 A 
ATOM     57  C   UNL     1     -50.820  30.440  21.752  1.00  0.00    -0.056 A 
ATOM     58  C   UNL     1     -51.895  31.086  23.817  1.00  0.00    -0.056 A 
ATOM     59  C   UNL     1     -51.309  31.594  21.137  1.00  0.00    -0.062 A 
ATOM     60  H   UNL     1     -50.227  29.738  21.170  1.00  0.00     0.063 H 
ATOM     61  C   UNL     1     -52.382  32.240  23.200  1.00  0.00    -0.062 A 
ATOM     62  H   UNL     1     -52.146  30.894  24.857  1.00  0.00     0.063 H 
ATOM     63  C   UNL     1     -52.086  32.494  21.861  1.00  0.00    -0.062 A 
ATOM     64  H   UNL     1     -51.087  31.786  20.090  1.00  0.00     0.062 H 
ATOM     65  H   UNL     1     -52.998  32.937  23.762  1.00  0.00     0.062 H 
ATOM     66  H   UNL     1     -52.470  33.391  21.381  1.00  0.00     0.062 H 
ENDBRANCH  53  56
ENDBRANCH  52  53
ENDBRANCH  47  52
ENDBRANCH   1  37
TORSDOF 10
ENDMDL
MODEL 3
REMARK VINA RESULT:     -10.7      2.835     12.035
REMARK SMILES Nc1ncnc2c1ccn2[C@@H]1C[C@H](CCc2ccc3c(OCc4ccccc4)ccnc3c2)[C@@H](O)[C@H]1O
REMARK SMILES IDX 15 1 14 4 13 7 11 8 12 9 36 10 34 14 10 18 2 19 3 20 7 21
REMARK SMILES IDX 4 22 6 23 8 24 5 25 9 27 1 30 37 33 35 35 16 37 17 38 33 39
REMARK SMILES IDX 18 40 32 42 19 44 31 46 20 47 30 48 29 49 21 52 22 53 23 56
REMARK SMILES IDX 24 57 28 58 25 59 27 61 26 63
REMARK H PARENT 15 2 15 3 14 5 14 6 11 11 12 12 12 13 36 15 13 16 34 17 4 26
REMARK H PARENT 8 28 9 29 1 31 1 32 37 34 35 36 17 41 33 43 18 45 30 50 29 51
REMARK H PARENT 22 54 22 55 24 60 28 62 25 64 27 65 26 66
REMARK Flexibility Score: inf
ROOT
ATOM      1  C   UNL     1     -48.956  33.368  26.148  1.00  0.00    -0.027 C 
ATOM      2  H   UNL     1     -49.585  33.612  25.285  1.00  0.00     0.032 H 
ATOM      3  H   UNL     1     -49.636  32.976  26.914  1.00  0.00     0.032 H 
ENDROOT
BRANCH   1   4
ATOM      4  C   UNL     1     -47.902  32.312  25.797  1.00  0.00    -0.044 C 
ATOM      5  H   UNL     1     -46.907  32.648  26.108  1.00  0.00     0.027 H 
ATOM      6  H   UNL     1     -48.110  31.407  26.383  1.00  0.00     0.027 H 
BRANCH   4   7
ATOM      7  C   UNL     1     -47.886  31.952  24.302  1.00  0.00    -0.010 C 
ATOM      8  C   UNL     1     -47.858  29.561  23.653  1.00  0.00     0.064 C 
ATOM      9  C   UNL     1     -46.950  30.761  23.988  1.00  0.00    -0.024 C 
ATOM     10  C   UNL     1     -49.264  29.970  24.111  1.00  0.00     0.101 C 
ATOM     11  H   UNL     1     -47.868  29.434  22.561  1.00  0.00     0.056 H 
ATOM     12  H   UNL     1     -46.252  30.550  24.803  1.00  0.00     0.029 H 
ATOM     13  H   UNL     1     -46.335  30.997  23.111  1.00  0.00     0.029 H 
ATOM     14  C   UNL     1     -49.267  31.476  23.835  1.00  0.00     0.085 C 
ATOM     15  H   UNL     1     -49.451  29.775  25.171  1.00  0.00     0.065 H 
ATOM     16  H   UNL     1     -47.567  32.830  23.727  1.00  0.00     0.033 H 
ATOM     17  H   UNL     1     -50.104  31.989  24.320  1.00  0.00     0.063 H 
BRANCH   8  18
ATOM     18  N   UNL     1     -47.411  28.288  24.194  1.00  0.00    -0.327 N 
ATOM     19  C   UNL     1     -47.860  25.397  26.187  1.00  0.00     0.136 A 
ATOM     20  N   UNL     1     -49.074  25.612  26.727  1.00  0.00    -0.219 NA
ATOM     21  C   UNL     1     -47.326  26.353  25.313  1.00  0.00     0.061 A 
ATOM     22  C   UNL     1     -49.720  26.752  26.411  1.00  0.00     0.120 A 
ATOM     23  C   UNL     1     -48.102  27.479  25.064  1.00  0.00     0.145 A 
ATOM     24  C   UNL     1     -46.128  26.502  24.563  1.00  0.00    -0.031 A 
ATOM     25  N   UNL     1     -49.315  27.732  25.583  1.00  0.00    -0.218 NA
ATOM     26  H   UNL     1     -50.688  26.893  26.885  1.00  0.00     0.106 H 
ATOM     27  C   UNL     1     -46.207  27.698  23.882  1.00  0.00     0.007 A 
ATOM     28  H   UNL     1     -45.294  25.813  24.533  1.00  0.00     0.065 H 
ATOM     29  H   UNL     1     -45.504  28.175  23.210  1.00  0.00     0.082 H 
BRANCH  19  30
ATOM     30  N   UNL     1     -47.214  24.215  26.522  1.00  0.00    -0.383 N 
ATOM     31  H   UNL     1     -46.216  24.219  26.378  1.00  0.00     0.158 HD
ATOM     32  H   UNL     1     -47.724  23.417  26.160  1.00  0.00     0.158 HD
ENDBRANCH  19  30
ENDBRANCH   8  18
BRANCH  10  33
ATOM     33  O   UNL     1     -50.291  29.338  23.341  1.00  0.00    -0.388 OA
ATOM     34  H   UNL     1     -51.140  29.599  23.743  1.00  0.00     0.211 HD
ENDBRANCH  10  33
BRANCH  14  35
ATOM     35  O   UNL     1     -49.386  31.699  22.426  1.00  0.00    -0.390 OA
ATOM     36  H   UNL     1     -48.603  31.258  22.038  1.00  0.00     0.211 HD
ENDBRANCH  14  35
ENDBRANCH   4   7
ENDBRANCH   1   4
BRANCH   1  37
ATOM     37  C   UNL     1     -48.300  34.634  26.639  1.00  0.00    -0.046 A 
ATOM     38  C   UNL     1     -46.918  34.799  26.590  1.00  0.00    -0.058 A 
ATOM     39  C   UNL     1     -49.093  35.692  27.110  1.00  0.00    -0.032 A 
ATOM     40  C   UNL     1     -46.350  36.002  27.011  1.00  0.00    -0.049 A 
ATOM     41  H   UNL     1     -46.275  34.003  26.223  1.00  0.00     0.063 H 
ATOM     42  C   UNL     1     -48.553  36.903  27.519  1.00  0.00     0.074 A 
ATOM     43  H   UNL     1     -50.174  35.571  27.152  1.00  0.00     0.065 H 
ATOM     44  C   UNL     1     -47.154  37.069  27.476  1.00  0.00     0.042 A 
ATOM     45  H   UNL     1     -45.268  36.115  26.968  1.00  0.00     0.063 H 
ATOM     46  N   UNL     1     -49.388  37.870  27.931  1.00  0.00    -0.256 NA
ATOM     47  C   UNL     1     -46.629  38.311  27.903  1.00  0.00     0.130 A 
ATOM     48  C   UNL     1     -48.852  39.040  28.331  1.00  0.00     0.031 A 
ATOM     49  C   UNL     1     -47.497  39.309  28.337  1.00  0.00    -0.001 A 
ATOM     50  H   UNL     1     -49.571  39.786  28.660  1.00  0.00     0.084 H 
ATOM     51  H   UNL     1     -47.163  40.280  28.676  1.00  0.00     0.068 H 
BRANCH  47  52
ATOM     52  O   UNL     1     -45.264  38.440  27.850  1.00  0.00    -0.488 OA
BRANCH  52  53
ATOM     53  C   UNL     1     -44.570  38.715  29.063  1.00  0.00     0.113 C 
ATOM     54  H   UNL     1     -45.277  38.966  29.864  1.00  0.00     0.076 H 
ATOM     55  H   UNL     1     -43.973  37.849  29.376  1.00  0.00     0.076 H 
BRANCH  53  56
ATOM     56  C   UNL     1     -43.651  39.885  28.818  1.00  0.00    -0.011 A 
ATOM     57  C   UNL     1     -43.786  40.664  27.660  1.00  0.00    -0.056 A 
ATOM     58  C   UNL     1     -42.673  40.234  29.760  1.00  0.00    -0.056 A 
ATOM     59  C   UNL     1     -42.945  41.757  27.439  1.00  0.00    -0.062 A 
ATOM     60  H   UNL     1     -44.555  40.428  26.927  1.00  0.00     0.063 H 
ATOM     61  C   UNL     1     -41.833  41.327  29.537  1.00  0.00    -0.062 A 
ATOM     62  H   UNL     1     -42.565  39.661  30.678  1.00  0.00     0.063 H 
ATOM     63  C   UNL     1     -41.968  42.085  28.375  1.00  0.00    -0.062 A 
ATOM     64  H   UNL     1     -43.059  42.354  26.538  1.00  0.00     0.062 H 
ATOM     65  H   UNL     1     -41.077  41.590  30.273  1.00  0.00     0.062 H 
ATOM     66  H   UNL     1     -41.316  42.938  28.204  1.00  0.00     0.062 H 
ENDBRANCH  53  56
ENDBRANCH  52  53
ENDBRANCH  47  52
ENDBRANCH   1  37
TORSDOF 10
ENDMDL
MODEL 4
REMARK VINA RESULT:     -10.1      2.549      3.470
REMARK SMILES Nc1ncnc2c1ccn2[C@@H]1C[C@H](CCc2ccc3c(OCc4ccccc4)ccnc3c2)[C@@H](O)[C@H]1O
REMARK SMILES IDX 15 1 14 4 13 7 11 8 12 9 36 10 34 14 10 18 2 19 3 20 7 21
REMARK SMILES IDX 4 22 6 23 8 24 5 25 9 27 1 30 37 33 35 35 16 37 17 38 33 39
REMARK SMILES IDX 18 40 32 42 19 44 31 46 20 47 30 48 29 49 21 52 22 53 23 56
REMARK SMILES IDX 24 57 28 58 25 59 27 61 26 63
REMARK H PARENT 15 2 15 3 14 5 14 6 11 11 12 12 12 13 36 15 13 16 34 17 4 26
REMARK H PARENT 8 28 9 29 1 31 1 32 37 34 35 36 17 41 33 43 18 45 30 50 29 51
REMARK H PARENT 22 54 22 55 24 60 28 62 25 64 27 65 26 66
REMARK Flexibility Score: inf
ROOT
ATOM      1  C   UNL     1     -47.184  34.386  27.293  1.00  0.00    -0.027 C 
ATOM      2  H   UNL     1     -46.175  34.322  27.717  1.00  0.00     0.032 H 
ATOM      3  H   UNL     1     -47.872  34.288  28.142  1.00  0.00     0.032 H 
ENDROOT
BRANCH   1   4
ATOM      4  C   UNL     1     -47.414  35.727  26.587  1.00  0.00    -0.044 C 
ATOM      5  H   UNL     1     -47.510  35.576  25.506  1.00  0.00     0.027 H 
ATOM      6  H   UNL     1     -48.379  36.132  26.920  1.00  0.00     0.027 H 
BRANCH   4   7
ATOM      7  C   UNL     1     -46.308  36.756  26.873  1.00  0.00    -0.010 C 
ATOM      8  C   UNL     1     -46.955  38.998  27.704  1.00  0.00     0.064 C 
ATOM      9  C   UNL     1     -46.696  38.184  26.421  1.00  0.00    -0.024 C 
ATOM     10  C   UNL     1     -47.058  37.965  28.833  1.00  0.00     0.101 C 
ATOM     11  H   UNL     1     -46.078  39.635  27.889  1.00  0.00     0.056 H 
ATOM     12  H   UNL     1     -47.547  38.191  25.735  1.00  0.00     0.029 H 
ATOM     13  H   UNL     1     -45.859  38.637  25.876  1.00  0.00     0.029 H 
ATOM     14  C   UNL     1     -46.062  36.894  28.380  1.00  0.00     0.085 C 
ATOM     15  H   UNL     1     -48.058  37.535  28.941  1.00  0.00     0.065 H 
ATOM     16  H   UNL     1     -45.390  36.446  26.359  1.00  0.00     0.033 H 
ATOM     17  H   UNL     1     -46.170  35.958  28.939  1.00  0.00     0.063 H 
BRANCH   8  18
ATOM     18  N   UNL     1     -48.091  39.904  27.632  1.00  0.00    -0.327 N 
ATOM     19  C   UNL     1     -49.591  42.988  26.753  1.00  0.00     0.136 A 
ATOM     20  N   UNL     1     -48.554  43.666  26.227  1.00  0.00    -0.219 NA
ATOM     21  C   UNL     1     -49.381  41.685  27.226  1.00  0.00     0.061 A 
ATOM     22  C   UNL     1     -47.350  43.062  26.191  1.00  0.00     0.120 A 
ATOM     23  C   UNL     1     -48.091  41.179  27.118  1.00  0.00     0.145 A 
ATOM     24  C   UNL     1     -50.175  40.672  27.828  1.00  0.00    -0.031 A 
ATOM     25  N   UNL     1     -47.030  41.822  26.602  1.00  0.00    -0.218 NA
ATOM     26  H   UNL     1     -46.537  43.654  25.776  1.00  0.00     0.106 H 
ATOM     27  C   UNL     1     -49.359  39.586  28.065  1.00  0.00     0.007 A 
ATOM     28  H   UNL     1     -51.227  40.734  28.072  1.00  0.00     0.065 H 
ATOM     29  H   UNL     1     -49.576  38.623  28.510  1.00  0.00     0.082 H 
BRANCH  19  30
ATOM     30  N   UNL     1     -50.823  43.626  26.777  1.00  0.00    -0.383 N 
ATOM     31  H   UNL     1     -50.790  44.622  26.621  1.00  0.00     0.158 HD
ATOM     32  H   UNL     1     -51.373  43.306  27.566  1.00  0.00     0.158 HD
ENDBRANCH  19  30
ENDBRANCH   8  18
BRANCH  10  33
ATOM     33  O   UNL     1     -46.650  38.498  30.096  1.00  0.00    -0.388 OA
ATOM     34  H   UNL     1     -47.308  38.198  30.750  1.00  0.00     0.211 HD
ENDBRANCH  10  33
BRANCH  14  35
ATOM     35  O   UNL     1     -44.728  37.368  28.593  1.00  0.00    -0.390 OA
ATOM     36  H   UNL     1     -44.791  37.944  29.383  1.00  0.00     0.211 HD
ENDBRANCH  14  35
ENDBRANCH   4   7
ENDBRANCH   1   4
BRANCH   1  37
ATOM     37  C   UNL     1     -47.377  33.238  26.336  1.00  0.00    -0.046 A 
ATOM     38  C   UNL     1     -48.369  32.282  26.543  1.00  0.00    -0.058 A 
ATOM     39  C   UNL     1     -46.578  33.147  25.185  1.00  0.00    -0.032 A 
ATOM     40  C   UNL     1     -48.548  31.259  25.613  1.00  0.00    -0.049 A 
ATOM     41  H   UNL     1     -49.011  32.326  27.420  1.00  0.00     0.063 H 
ATOM     42  C   UNL     1     -46.748  32.148  24.238  1.00  0.00     0.074 A 
ATOM     43  H   UNL     1     -45.800  33.889  25.017  1.00  0.00     0.065 H 
ATOM     44  C   UNL     1     -47.747  31.177  24.449  1.00  0.00     0.042 A 
ATOM     45  H   UNL     1     -49.327  30.519  25.789  1.00  0.00     0.063 H 
ATOM     46  N   UNL     1     -45.956  32.152  23.154  1.00  0.00    -0.256 NA
ATOM     47  C   UNL     1     -47.896  30.166  23.471  1.00  0.00     0.130 A 
ATOM     48  C   UNL     1     -46.126  31.173  22.243  1.00  0.00     0.031 A 
ATOM     49  C   UNL     1     -47.068  30.170  22.352  1.00  0.00    -0.001 A 
ATOM     50  H   UNL     1     -45.455  31.221  21.388  1.00  0.00     0.084 H 
ATOM     51  H   UNL     1     -47.128  29.428  21.567  1.00  0.00     0.068 H 
BRANCH  47  52
ATOM     52  O   UNL     1     -48.877  29.236  23.707  1.00  0.00    -0.488 OA
BRANCH  52  53
ATOM     53  C   UNL     1     -48.662  27.905  23.247  1.00  0.00     0.113 C 
ATOM     54  H   UNL     1     -49.586  27.488  22.829  1.00  0.00     0.076 H 
ATOM     55  H   UNL     1     -47.882  27.882  22.475  1.00  0.00     0.076 H 
BRANCH  53  56
ATOM     56  C   UNL     1     -48.219  27.072  24.423  1.00  0.00    -0.011 A 
ATOM     57  C   UNL     1     -46.855  26.896  24.694  1.00  0.00    -0.056 A 
ATOM     58  C   UNL     1     -49.163  26.494  25.284  1.00  0.00    -0.056 A 
ATOM     59  C   UNL     1     -46.443  26.137  25.792  1.00  0.00    -0.062 A 
ATOM     60  H   UNL     1     -46.105  27.356  24.055  1.00  0.00     0.063 H 
ATOM     61  C   UNL     1     -48.749  25.736  26.381  1.00  0.00    -0.062 A 
ATOM     62  H   UNL     1     -50.227  26.638  25.109  1.00  0.00     0.063 H 
ATOM     63  C   UNL     1     -47.390  25.555  26.632  1.00  0.00    -0.062 A 
ATOM     64  H   UNL     1     -45.383  26.006  25.993  1.00  0.00     0.062 H 
ATOM     65  H   UNL     1     -49.488  25.291  27.042  1.00  0.00     0.062 H 
ATOM     66  H   UNL     1     -47.069  24.967  27.488  1.00  0.00     0.062 H 
ENDBRANCH  53  56
ENDBRANCH  52  53
ENDBRANCH  47  52
ENDBRANCH   1  37
TORSDOF 10
ENDMDL
MODEL 5
REMARK VINA RESULT:     -10.1      1.553      2.251
REMARK SMILES Nc1ncnc2c1ccn2[C@@H]1C[C@H](CCc2ccc3c(OCc4ccccc4)ccnc3c2)[C@@H](O)[C@H]1O
REMARK SMILES IDX 15 1 14 4 13 7 11 8 12 9 36 10 34 14 10 18 2 19 3 20 7 21
REMARK SMILES IDX 4 22 6 23 8 24 5 25 9 27 1 30 37 33 35 35 16 37 17 38 33 39
REMARK SMILES IDX 18 40 32 42 19 44 31 46 20 47 30 48 29 49 21 52 22 53 23 56
REMARK SMILES IDX 24 57 28 58 25 59 27 61 26 63
REMARK H PARENT 15 2 15 3 14 5 14 6 11 11 12 12 12 13 36 15 13 16 34 17 4 26
REMARK H PARENT 8 28 9 29 1 31 1 32 37 34 35 36 17 41 33 43 18 45 30 50 29 51
REMARK H PARENT 22 54 22 55 24 60 28 62 25 64 27 65 26 66
REMARK Flexibility Score: inf
ROOT
ATOM      1  C   UNL     1     -46.904  35.288  27.769  1.00  0.00    -0.027 C 
ATOM      2  H   UNL     1     -45.923  35.119  28.226  1.00  0.00     0.032 H 
ATOM      3  H   UNL     1     -47.634  35.194  28.582  1.00  0.00     0.032 H 
ENDROOT
BRANCH   1   4
ATOM      4  C   UNL     1     -47.000  36.683  27.140  1.00  0.00    -0.044 C 
ATOM      5  H   UNL     1     -46.098  36.901  26.558  1.00  0.00     0.027 H 
ATOM      6  H   UNL     1     -47.829  36.680  26.419  1.00  0.00     0.027 H 
BRANCH   4   7
ATOM      7  C   UNL     1     -47.234  37.794  28.175  1.00  0.00    -0.010 C 
ATOM      8  C   UNL     1     -46.112  39.979  27.851  1.00  0.00     0.064 C 
ATOM      9  C   UNL     1     -45.945  38.589  28.494  1.00  0.00    -0.024 C 
ATOM     10  C   UNL     1     -47.306  39.850  26.896  1.00  0.00     0.101 C 
ATOM     11  H   UNL     1     -46.373  40.695  28.644  1.00  0.00     0.056 H 
ATOM     12  H   UNL     1     -45.041  38.073  28.161  1.00  0.00     0.029 H 
ATOM     13  H   UNL     1     -45.847  38.709  29.580  1.00  0.00     0.029 H 
ATOM     14  C   UNL     1     -48.203  38.853  27.637  1.00  0.00     0.085 C 
ATOM     15  H   UNL     1     -47.036  39.461  25.910  1.00  0.00     0.065 H 
ATOM     16  H   UNL     1     -47.625  37.347  29.097  1.00  0.00     0.033 H 
ATOM     17  H   UNL     1     -48.997  38.451  27.000  1.00  0.00     0.063 H 
BRANCH   8  18
ATOM     18  N   UNL     1     -44.913  40.508  27.222  1.00  0.00    -0.327 N 
ATOM     19  C   UNL     1     -41.536  41.568  27.304  1.00  0.00     0.136 A 
ATOM     20  N   UNL     1     -41.219  41.400  28.603  1.00  0.00    -0.219 NA
ATOM     21  C   UNL     1     -42.829  41.243  26.873  1.00  0.00     0.061 A 
ATOM     22  C   UNL     1     -42.171  40.937  29.436  1.00  0.00     0.120 A 
ATOM     23  C   UNL     1     -43.710  40.765  27.836  1.00  0.00     0.145 A 
ATOM     24  C   UNL     1     -43.538  41.273  25.642  1.00  0.00    -0.031 A 
ATOM     25  N   UNL     1     -43.435  40.585  29.139  1.00  0.00    -0.218 NA
ATOM     26  H   UNL     1     -41.878  40.837  30.478  1.00  0.00     0.106 H 
ATOM     27  C   UNL     1     -44.814  40.812  25.883  1.00  0.00     0.007 A 
ATOM     28  H   UNL     1     -43.157  41.604  24.684  1.00  0.00     0.065 H 
ATOM     29  H   UNL     1     -45.657  40.686  25.214  1.00  0.00     0.082 H 
BRANCH  19  30
ATOM     30  N   UNL     1     -40.540  42.041  26.462  1.00  0.00    -0.383 N 
ATOM     31  H   UNL     1     -40.044  42.852  26.802  1.00  0.00     0.158 HD
ATOM     32  H   UNL     1     -40.872  42.079  25.505  1.00  0.00     0.158 HD
ENDBRANCH  19  30
ENDBRANCH   8  18
BRANCH  10  33
ATOM     33  O   UNL     1     -48.001  41.087  26.725  1.00  0.00    -0.388 OA
ATOM     34  H   UNL     1     -48.448  41.039  25.860  1.00  0.00     0.211 HD
ENDBRANCH  10  33
BRANCH  14  35
ATOM     35  O   UNL     1     -48.833  39.514  28.740  1.00  0.00    -0.390 OA
ATOM     36  H   UNL     1     -48.485  40.429  28.714  1.00  0.00     0.211 HD
ENDBRANCH  14  35
ENDBRANCH   4   7
ENDBRANCH   1   4
BRANCH   1  37
ATOM     37  C   UNL     1     -47.142  34.218  26.734  1.00  0.00    -0.046 A 
ATOM     38  C   UNL     1     -46.087  33.486  26.193  1.00  0.00    -0.058 A 
ATOM     39  C   UNL     1     -48.453  33.911  26.336  1.00  0.00    -0.032 A 
ATOM     40  C   UNL     1     -46.349  32.473  25.271  1.00  0.00    -0.049 A 
ATOM     41  H   UNL     1     -45.060  33.692  26.484  1.00  0.00     0.063 H 
ATOM     42  C   UNL     1     -48.740  32.898  25.433  1.00  0.00     0.074 A 
ATOM     43  H   UNL     1     -49.283  34.478  26.754  1.00  0.00     0.065 H 
ATOM     44  C   UNL     1     -47.673  32.161  24.880  1.00  0.00     0.042 A 
ATOM     45  H   UNL     1     -45.514  31.912  24.856  1.00  0.00     0.063 H 
ATOM     46  N   UNL     1     -50.025  32.656  25.129  1.00  0.00    -0.256 NA
ATOM     47  C   UNL     1     -47.993  31.137  23.958  1.00  0.00     0.130 A 
ATOM     48  C   UNL     1     -50.291  31.673  24.247  1.00  0.00     0.031 A 
ATOM     49  C   UNL     1     -49.325  30.894  23.640  1.00  0.00    -0.001 A 
ATOM     50  H   UNL     1     -51.347  31.523  24.032  1.00  0.00     0.084 H 
ATOM     51  H   UNL     1     -49.639  30.128  22.944  1.00  0.00     0.068 H 
BRANCH  47  52
ATOM     52  O   UNL     1     -46.931  30.441  23.438  1.00  0.00    -0.488 OA
BRANCH  52  53
ATOM     53  C   UNL     1     -47.202  29.224  22.749  1.00  0.00     0.113 C 
ATOM     54  H   UNL     1     -48.209  29.243  22.314  1.00  0.00     0.076 H 
ATOM     55  H   UNL     1     -46.472  29.059  21.947  1.00  0.00     0.076 H 
BRANCH  53  56
ATOM     56  C   UNL     1     -47.106  28.095  23.744  1.00  0.00    -0.011 A 
ATOM     57  C   UNL     1     -48.217  27.734  24.519  1.00  0.00    -0.056 A 
ATOM     58  C   UNL     1     -45.916  27.365  23.882  1.00  0.00    -0.056 A 
ATOM     59  C   UNL     1     -48.133  26.678  25.430  1.00  0.00    -0.062 A 
ATOM     60  H   UNL     1     -49.158  28.269  24.411  1.00  0.00     0.063 H 
ATOM     61  C   UNL     1     -45.834  26.311  24.794  1.00  0.00    -0.062 A 
ATOM     62  H   UNL     1     -45.048  27.610  23.274  1.00  0.00     0.063 H 
ATOM     63  C   UNL     1     -46.941  25.971  25.569  1.00  0.00    -0.062 A 
ATOM     64  H   UNL     1     -49.000  26.407  26.026  1.00  0.00     0.062 H 
ATOM     65  H   UNL     1     -44.907  25.751  24.894  1.00  0.00     0.062 H 
ATOM     66  H   UNL     1     -46.877  25.147  26.276  1.00  0.00     0.062 H 
ENDBRANCH  53  56
ENDBRANCH  52  53
ENDBRANCH  47  52
ENDBRANCH   1  37
TORSDOF 10
ENDMDL
MODEL 6
REMARK VINA RESULT:      -9.9      3.345     11.692
REMARK SMILES Nc1ncnc2c1ccn2[C@@H]1C[C@H](CCc2ccc3c(OCc4ccccc4)ccnc3c2)[C@@H](O)[C@H]1O
REMARK SMILES IDX 15 1 14 4 13 7 11 8 12 9 36 10 34 14 10 18 2 19 3 20 7 21
REMARK SMILES IDX 4 22 6 23 8 24 5 25 9 27 1 30 37 33 35 35 16 37 17 38 33 39
REMARK SMILES IDX 18 40 32 42 19 44 31 46 20 47 30 48 29 49 21 52 22 53 23 56
REMARK SMILES IDX 24 57 28 58 25 59 27 61 26 63
REMARK H PARENT 15 2 15 3 14 5 14 6 11 11 12 12 12 13 36 15 13 16 34 17 4 26
REMARK H PARENT 8 28 9 29 1 31 1 32 37 34 35 36 17 41 33 43 18 45 30 50 29 51
REMARK H PARENT 22 54 22 55 24 60 28 62 25 64 27 65 26 66
REMARK Flexibility Score: inf
ROOT
ATOM      1  C   UNL     1     -47.723  31.889  24.529  1.00  0.00    -0.027 C 
ATOM      2  H   UNL     1     -48.373  32.191  23.700  1.00  0.00     0.032 H 
ATOM      3  H   UNL     1     -48.285  31.131  25.089  1.00  0.00     0.032 H 
ENDROOT
BRANCH   1   4
ATOM      4  C   UNL     1     -46.405  31.293  24.022  1.00  0.00    -0.044 C 
ATOM      5  H   UNL     1     -45.624  32.061  23.998  1.00  0.00     0.027 H 
ATOM      6  H   UNL     1     -46.064  30.542  24.747  1.00  0.00     0.027 H 
BRANCH   4   7
ATOM      7  C   UNL     1     -46.534  30.637  22.638  1.00  0.00    -0.010 C 
ATOM      8  C   UNL     1     -48.416  29.076  22.232  1.00  0.00     0.064 C 
ATOM      9  C   UNL     1     -46.957  29.150  22.723  1.00  0.00    -0.024 C 
ATOM     10  C   UNL     1     -48.915  30.527  22.207  1.00  0.00     0.101 C 
ATOM     11  H   UNL     1     -48.411  28.689  21.202  1.00  0.00     0.056 H 
ATOM     12  H   UNL     1     -46.825  28.734  23.726  1.00  0.00     0.029 H 
ATOM     13  H   UNL     1     -46.326  28.550  22.056  1.00  0.00     0.029 H 
ATOM     14  C   UNL     1     -47.650  31.296  21.818  1.00  0.00     0.085 C 
ATOM     15  H   UNL     1     -49.292  30.874  23.174  1.00  0.00     0.065 H 
ATOM     16  H   UNL     1     -45.574  30.714  22.114  1.00  0.00     0.033 H 
ATOM     17  H   UNL     1     -47.748  32.374  21.982  1.00  0.00     0.063 H 
BRANCH   8  18
ATOM     18  N   UNL     1     -49.269  28.174  22.988  1.00  0.00    -0.327 N 
ATOM     19  C   UNL     1     -50.287  26.603  25.992  1.00  0.00     0.136 A 
ATOM     20  N   UNL     1     -49.408  27.101  26.883  1.00  0.00    -0.219 NA
ATOM     21  C   UNL     1     -50.199  27.006  24.654  1.00  0.00     0.061 A 
ATOM     22  C   UNL     1     -48.469  27.960  26.440  1.00  0.00     0.120 A 
ATOM     23  C   UNL     1     -49.190  27.906  24.334  1.00  0.00     0.145 A 
ATOM     24  C   UNL     1     -50.902  26.728  23.450  1.00  0.00    -0.031 A 
ATOM     25  N   UNL     1     -48.293  28.425  25.190  1.00  0.00    -0.218 NA
ATOM     26  H   UNL     1     -47.769  28.321  27.190  1.00  0.00     0.106 H 
ATOM     27  C   UNL     1     -50.313  27.461  22.442  1.00  0.00     0.007 A 
ATOM     28  H   UNL     1     -51.743  26.057  23.333  1.00  0.00     0.065 H 
ATOM     29  H   UNL     1     -50.547  27.526  21.387  1.00  0.00     0.082 H 
BRANCH  19  30
ATOM     30  N   UNL     1     -51.248  25.723  26.470  1.00  0.00    -0.383 N 
ATOM     31  H   UNL     1     -52.070  25.634  25.891  1.00  0.00     0.158 HD
ATOM     32  H   UNL     1     -51.404  25.871  27.461  1.00  0.00     0.158 HD
ENDBRANCH  19  30
ENDBRANCH   8  18
BRANCH  10  33
ATOM     33  O   UNL     1     -49.928  30.735  21.219  1.00  0.00    -0.388 OA
ATOM     34  H   UNL     1     -49.470  31.023  20.408  1.00  0.00     0.211 HD
ENDBRANCH  10  33
BRANCH  14  35
ATOM     35  O   UNL     1     -47.385  31.097  20.425  1.00  0.00    -0.390 OA
ATOM     36  H   UNL     1     -48.188  30.655  20.080  1.00  0.00     0.211 HD
ENDBRANCH  14  35
ENDBRANCH   4   7
ENDBRANCH   1   4
BRANCH   1  37
ATOM     37  C   UNL     1     -47.466  33.091  25.401  1.00  0.00    -0.046 A 
ATOM     38  C   UNL     1     -46.178  33.588  25.587  1.00  0.00    -0.058 A 
ATOM     39  C   UNL     1     -48.543  33.759  26.004  1.00  0.00    -0.032 A 
ATOM     40  C   UNL     1     -45.982  34.729  26.365  1.00  0.00    -0.049 A 
ATOM     41  H   UNL     1     -45.321  33.100  25.129  1.00  0.00     0.063 H 
ATOM     42  C   UNL     1     -48.376  34.904  26.769  1.00  0.00     0.074 A 
ATOM     43  H   UNL     1     -49.552  33.376  25.865  1.00  0.00     0.065 H 
ATOM     44  C   UNL     1     -47.072  35.404  26.963  1.00  0.00     0.042 A 
ATOM     45  H   UNL     1     -44.970  35.105  26.502  1.00  0.00     0.063 H 
ATOM     46  N   UNL     1     -49.466  35.493  27.287  1.00  0.00    -0.256 NA
ATOM     47  C   UNL     1     -46.929  36.570  27.751  1.00  0.00     0.130 A 
ATOM     48  C   UNL     1     -49.290  36.602  28.033  1.00  0.00     0.031 A 
ATOM     49  C   UNL     1     -48.060  37.174  28.292  1.00  0.00    -0.001 A 
ATOM     50  H   UNL     1     -50.204  37.035  28.432  1.00  0.00     0.084 H 
ATOM     51  H   UNL     1     -48.022  38.066  28.903  1.00  0.00     0.068 H 
BRANCH  47  52
ATOM     52  O   UNL     1     -45.648  37.030  27.921  1.00  0.00    -0.488 OA
BRANCH  52  53
ATOM     53  C   UNL     1     -45.297  37.583  29.186  1.00  0.00     0.113 C 
ATOM     54  H   UNL     1     -46.197  37.869  29.745  1.00  0.00     0.076 H 
ATOM     55  H   UNL     1     -44.725  36.859  29.781  1.00  0.00     0.076 H 
BRANCH  53  56
ATOM     56  C   UNL     1     -44.446  38.803  28.941  1.00  0.00    -0.011 A 
ATOM     57  C   UNL     1     -44.641  39.586  27.795  1.00  0.00    -0.056 A 
ATOM     58  C   UNL     1     -43.475  39.195  29.874  1.00  0.00    -0.056 A 
ATOM     59  C   UNL     1     -43.864  40.725  27.575  1.00  0.00    -0.062 A 
ATOM     60  H   UNL     1     -45.406  39.316  27.070  1.00  0.00     0.063 H 
ATOM     61  C   UNL     1     -42.699  40.334  29.652  1.00  0.00    -0.062 A 
ATOM     62  H   UNL     1     -43.323  38.618  30.784  1.00  0.00     0.063 H 
ATOM     63  C   UNL     1     -42.892  41.096  28.501  1.00  0.00    -0.062 A 
ATOM     64  H   UNL     1     -44.022  41.325  26.682  1.00  0.00     0.062 H 
ATOM     65  H   UNL     1     -41.948  40.629  30.380  1.00  0.00     0.062 H 
ATOM     66  H   UNL     1     -42.290  41.985  28.331  1.00  0.00     0.062 H 
ENDBRANCH  53  56
ENDBRANCH  52  53
ENDBRANCH  47  52
ENDBRANCH   1  37
TORSDOF 10
ENDMDL
MODEL 7
REMARK VINA RESULT:      -9.9      3.312     11.756
REMARK SMILES Nc1ncnc2c1ccn2[C@@H]1C[C@H](CCc2ccc3c(OCc4ccccc4)ccnc3c2)[C@@H](O)[C@H]1O
REMARK SMILES IDX 15 1 14 4 13 7 11 8 12 9 36 10 34 14 10 18 2 19 3 20 7 21
REMARK SMILES IDX 4 22 6 23 8 24 5 25 9 27 1 30 37 33 35 35 16 37 17 38 33 39
REMARK SMILES IDX 18 40 32 42 19 44 31 46 20 47 30 48 29 49 21 52 22 53 23 56
REMARK SMILES IDX 24 57 28 58 25 59 27 61 26 63
REMARK H PARENT 15 2 15 3 14 5 14 6 11 11 12 12 12 13 36 15 13 16 34 17 4 26
REMARK H PARENT 8 28 9 29 1 31 1 32 37 34 35 36 17 41 33 43 18 45 30 50 29 51
REMARK H PARENT 22 54 22 55 24 60 28 62 25 64 27 65 26 66
REMARK Flexibility Score: inf
ROOT
ATOM      1  C   UNL     1     -47.972  31.598  24.920  1.00  0.00    -0.027 C 
ATOM      2  H   UNL     1     -49.041  31.365  24.986  1.00  0.00     0.032 H 
ATOM      3  H   UNL     1     -47.459  30.809  25.482  1.00  0.00     0.032 H 
ENDROOT
BRANCH   1   4
ATOM      4  C   UNL     1     -47.485  31.607  23.467  1.00  0.00    -0.044 C 
ATOM      5  H   UNL     1     -47.274  32.631  23.142  1.00  0.00     0.027 H 
ATOM      6  H   UNL     1     -46.525  31.074  23.422  1.00  0.00     0.027 H 
BRANCH   4   7
ATOM      7  C   UNL     1     -48.476  30.945  22.497  1.00  0.00    -0.010 C 
ATOM      8  C   UNL     1     -49.681  28.908  23.231  1.00  0.00     0.064 C 
ATOM      9  C   UNL     1     -48.399  29.400  22.532  1.00  0.00    -0.024 C 
ATOM     10  C   UNL     1     -50.294  30.153  23.887  1.00  0.00     0.101 C 
ATOM     11  H   UNL     1     -50.374  28.542  22.459  1.00  0.00     0.056 H 
ATOM     12  H   UNL     1     -47.487  29.036  23.013  1.00  0.00     0.029 H 
ATOM     13  H   UNL     1     -48.381  29.009  21.507  1.00  0.00     0.029 H 
ATOM     14  C   UNL     1     -49.925  31.256  22.892  1.00  0.00     0.085 C 
ATOM     15  H   UNL     1     -49.878  30.374  24.875  1.00  0.00     0.065 H 
ATOM     16  H   UNL     1     -48.270  31.298  21.479  1.00  0.00     0.033 H 
ATOM     17  H   UNL     1     -50.070  32.259  23.305  1.00  0.00     0.063 H 
BRANCH   8  18
ATOM     18  N   UNL     1     -49.488  27.796  24.147  1.00  0.00    -0.327 N 
ATOM     19  C   UNL     1     -47.446  25.509  25.916  1.00  0.00     0.136 A 
ATOM     20  N   UNL     1     -46.211  25.855  25.503  1.00  0.00    -0.219 NA
ATOM     21  C   UNL     1     -48.550  26.213  25.419  1.00  0.00     0.061 A 
ATOM     22  C   UNL     1     -46.096  26.861  24.613  1.00  0.00     0.120 A 
ATOM     23  C   UNL     1     -48.288  27.235  24.515  1.00  0.00     0.145 A 
ATOM     24  C   UNL     1     -49.960  26.165  25.592  1.00  0.00    -0.031 A 
ATOM     25  N   UNL     1     -47.075  27.610  24.076  1.00  0.00    -0.218 NA
ATOM     26  H   UNL     1     -45.083  27.093  24.292  1.00  0.00     0.106 H 
ATOM     27  C   UNL     1     -50.513  27.150  24.803  1.00  0.00     0.007 A 
ATOM     28  H   UNL     1     -50.511  25.477  26.220  1.00  0.00     0.065 H 
ATOM     29  H   UNL     1     -51.546  27.436  24.651  1.00  0.00     0.082 H 
BRANCH  19  30
ATOM     30  N   UNL     1     -47.542  24.474  26.836  1.00  0.00    -0.383 N 
ATOM     31  H   UNL     1     -46.693  23.946  26.974  1.00  0.00     0.158 HD
ATOM     32  H   UNL     1     -48.390  23.941  26.682  1.00  0.00     0.158 HD
ENDBRANCH  19  30
ENDBRANCH   8  18
BRANCH  10  33
ATOM     33  O   UNL     1     -51.717  30.062  24.000  1.00  0.00    -0.388 OA
ATOM     34  H   UNL     1     -52.079  30.877  23.605  1.00  0.00     0.211 HD
ENDBRANCH  10  33
BRANCH  14  35
ATOM     35  O   UNL     1     -50.759  31.146  21.733  1.00  0.00    -0.390 OA
ATOM     36  H   UNL     1     -51.580  30.721  22.057  1.00  0.00     0.211 HD
ENDBRANCH  14  35
ENDBRANCH   4   7
ENDBRANCH   1   4
BRANCH   1  37
ATOM     37  C   UNL     1     -47.732  32.936  25.572  1.00  0.00    -0.046 A 
ATOM     38  C   UNL     1     -46.482  33.550  25.526  1.00  0.00    -0.058 A 
ATOM     39  C   UNL     1     -48.793  33.608  26.199  1.00  0.00    -0.032 A 
ATOM     40  C   UNL     1     -46.308  34.808  26.102  1.00  0.00    -0.049 A 
ATOM     41  H   UNL     1     -45.639  33.061  25.043  1.00  0.00     0.063 H 
ATOM     42  C   UNL     1     -48.648  34.867  26.764  1.00  0.00     0.074 A 
ATOM     43  H   UNL     1     -49.773  33.135  26.240  1.00  0.00     0.065 H 
ATOM     44  C   UNL     1     -47.383  35.485  26.724  1.00  0.00     0.042 A 
ATOM     45  H   UNL     1     -45.325  35.274  26.059  1.00  0.00     0.063 H 
ATOM     46  N   UNL     1     -49.724  35.446  27.320  1.00  0.00    -0.256 NA
ATOM     47  C   UNL     1     -47.261  36.766  27.312  1.00  0.00     0.130 A 
ATOM     48  C   UNL     1     -49.570  36.667  27.871  1.00  0.00     0.031 A 
ATOM     49  C   UNL     1     -48.377  37.361  27.893  1.00  0.00    -0.001 A 
ATOM     50  H   UNL     1     -50.471  37.088  28.312  1.00  0.00     0.084 H 
ATOM     51  H   UNL     1     -48.353  38.337  28.360  1.00  0.00     0.068 H 
BRANCH  47  52
ATOM     52  O   UNL     1     -46.016  37.340  27.256  1.00  0.00    -0.488 OA
BRANCH  52  53
ATOM     53  C   UNL     1     -45.601  38.146  28.355  1.00  0.00     0.113 C 
ATOM     54  H   UNL     1     -46.464  38.444  28.962  1.00  0.00     0.076 H 
ATOM     55  H   UNL     1     -44.892  37.600  28.991  1.00  0.00     0.076 H 
BRANCH  53  56
ATOM     56  C   UNL     1     -44.925  39.374  27.802  1.00  0.00    -0.011 A 
ATOM     57  C   UNL     1     -43.883  39.991  28.509  1.00  0.00    -0.056 A 
ATOM     58  C   UNL     1     -45.301  39.895  26.555  1.00  0.00    -0.056 A 
ATOM     59  C   UNL     1     -43.245  41.120  27.990  1.00  0.00    -0.062 A 
ATOM     60  H   UNL     1     -43.557  39.589  29.466  1.00  0.00     0.063 H 
ATOM     61  C   UNL     1     -44.662  41.024  26.038  1.00  0.00    -0.062 A 
ATOM     62  H   UNL     1     -46.089  39.419  25.976  1.00  0.00     0.063 H 
ATOM     63  C   UNL     1     -43.637  41.637  26.758  1.00  0.00    -0.062 A 
ATOM     64  H   UNL     1     -42.439  41.591  28.546  1.00  0.00     0.062 H 
ATOM     65  H   UNL     1     -44.961  41.421  25.071  1.00  0.00     0.062 H 
ATOM     66  H   UNL     1     -43.138  42.514  26.352  1.00  0.00     0.062 H 
ENDBRANCH  53  56
ENDBRANCH  52  53
ENDBRANCH  47  52
ENDBRANCH   1  37
TORSDOF 10
ENDMDL
