MODEL 1
REMARK VINA RESULT:     -10.8      0.000      0.000
REMARK SMILES Nc1cc(OC[C@H]2O[C@@H](n3ccc4c(N)ncnc43)[C@@H](F)[C@@H]2O)ccc1C(=O)N1CCNCC1
REMARK SMILES IDX 6 1 5 4 4 5 2 6 3 7 26 8 25 10 24 11 1 14 27 17 28 18 29 19
REMARK SMILES IDX 30 20 34 21 31 22 33 25 32 28 7 34 8 35 22 36 9 38 20 39
REMARK SMILES IDX 21 42 23 44 10 46 11 47 19 48 12 49 13 51 18 52 14 54 17 55
REMARK SMILES IDX 16 56 15 58
REMARK H PARENT 6 2 6 3 3 9 25 12 24 13 1 15 1 16 30 23 30 24 34 26 34 27
REMARK H PARENT 31 29 31 30 33 31 33 32 32 33 7 37 22 40 9 41 20 43 23 45
REMARK H PARENT 11 50 12 53 17 57 15 59 15 60
REMARK Flexibility Score: inf
ROOT
ATOM      1  C   UNL     1     -45.999  35.256  27.402  1.00  0.00     0.117 C 
ATOM      2  H   UNL     1     -44.969  34.938  27.197  1.00  0.00     0.073 H 
ATOM      3  H   UNL     1     -46.302  35.785  26.490  1.00  0.00     0.073 H 
ENDROOT
BRANCH   1   4
ATOM      4  O   UNL     1     -46.898  34.158  27.555  1.00  0.00    -0.491 OA
BRANCH   4   5
ATOM      5  C   UNL     1     -47.182  33.382  26.466  1.00  0.00     0.121 A 
ATOM      6  C   UNL     1     -46.675  32.042  24.490  1.00  0.00     0.048 A 
ATOM      7  C   UNL     1     -46.256  32.816  25.585  1.00  0.00     0.004 A 
ATOM      8  C   UNL     1     -48.045  31.745  24.369  1.00  0.00     0.063 A 
ATOM      9  H   UNL     1     -45.189  32.959  25.721  1.00  0.00     0.068 H 
ATOM     10  C   UNL     1     -48.981  32.334  25.228  1.00  0.00    -0.044 A 
ATOM     11  C   UNL     1     -48.546  33.148  26.271  1.00  0.00    -0.019 A 
ATOM     12  H   UNL     1     -50.045  32.155  25.087  1.00  0.00     0.063 H 
ATOM     13  H   UNL     1     -49.274  33.598  26.941  1.00  0.00     0.066 H 
BRANCH   6  14
ATOM     14  N   UNL     1     -45.699  31.410  23.692  1.00  0.00    -0.398 N 
ATOM     15  H   UNL     1     -44.758  31.474  24.070  1.00  0.00     0.156 HD
ATOM     16  H   UNL     1     -45.725  31.762  22.728  1.00  0.00     0.156 HD
ENDBRANCH   6  14
BRANCH   8  17
ATOM     17  C   UNL     1     -48.529  30.880  23.268  1.00  0.00     0.256 C 
ATOM     18  O   UNL     1     -48.563  31.361  22.135  1.00  0.00    -0.269 OA
ATOM     19  N   UNL     1     -48.940  29.581  23.555  1.00  0.00    -0.336 N 
ATOM     20  C   UNL     1     -49.453  28.783  22.441  1.00  0.00     0.033 C 
ATOM     21  C   UNL     1     -48.498  28.809  24.719  1.00  0.00     0.033 C 
ATOM     22  C   UNL     1     -49.827  27.345  22.848  1.00  0.00     0.013 C 
ATOM     23  H   UNL     1     -50.332  29.306  22.044  1.00  0.00     0.051 H 
ATOM     24  H   UNL     1     -48.696  28.758  21.647  1.00  0.00     0.051 H 
ATOM     25  C   UNL     1     -49.598  27.842  25.209  1.00  0.00     0.013 C 
ATOM     26  H   UNL     1     -48.166  29.444  25.542  1.00  0.00     0.051 H 
ATOM     27  H   UNL     1     -47.617  28.239  24.396  1.00  0.00     0.051 H 
ATOM     28  N   UNL     1     -50.483  27.282  24.165  1.00  0.00    -0.313 NA
ATOM     29  H   UNL     1     -50.488  26.910  22.090  1.00  0.00     0.045 H 
ATOM     30  H   UNL     1     -48.927  26.716  22.869  1.00  0.00     0.045 H 
ATOM     31  H   UNL     1     -50.235  28.368  25.931  1.00  0.00     0.045 H 
ATOM     32  H   UNL     1     -49.128  27.018  25.758  1.00  0.00     0.045 H 
ATOM     33  H   UNL     1     -51.312  27.877  24.116  1.00  0.00     0.122 HD
ENDBRANCH   8  17
ENDBRANCH   4   5
ENDBRANCH   1   4
BRANCH   1  34
ATOM     34  C   UNL     1     -46.084  36.224  28.583  1.00  0.00     0.123 C 
ATOM     35  O   UNL     1     -44.866  36.974  28.703  1.00  0.00    -0.345 OA
ATOM     36  C   UNL     1     -47.208  37.242  28.434  1.00  0.00     0.119 C 
ATOM     37  H   UNL     1     -46.225  35.656  29.512  1.00  0.00     0.067 H 
ATOM     38  C   UNL     1     -45.214  38.290  29.211  1.00  0.00     0.169 C 
ATOM     39  C   UNL     1     -46.733  38.355  29.346  1.00  0.00     0.173 C 
ATOM     40  H   UNL     1     -47.302  37.615  27.408  1.00  0.00     0.066 H 
ATOM     41  H   UNL     1     -44.726  38.394  30.186  1.00  0.00     0.088 H 
ATOM     42  F   UNL     1     -47.254  39.539  28.942  1.00  0.00    -0.239 F 
ATOM     43  H   UNL     1     -47.049  38.181  30.381  1.00  0.00     0.074 H 
BRANCH  36  44
ATOM     44  O   UNL     1     -48.465  36.715  28.843  1.00  0.00    -0.387 OA
ATOM     45  H   UNL     1     -48.448  36.654  29.818  1.00  0.00     0.211 HD
ENDBRANCH  36  44
BRANCH  38  46
ATOM     46  N   UNL     1     -44.650  39.297  28.325  1.00  0.00    -0.303 N 
ATOM     47  C   UNL     1     -45.073  39.614  27.055  1.00  0.00     0.009 A 
ATOM     48  C   UNL     1     -43.587  40.098  28.668  1.00  0.00     0.147 A 
ATOM     49  C   UNL     1     -44.274  40.637  26.586  1.00  0.00    -0.031 A 
ATOM     50  H   UNL     1     -45.898  39.095  26.588  1.00  0.00     0.082 H 
ATOM     51  C   UNL     1     -43.327  40.948  27.601  1.00  0.00     0.061 A 
ATOM     52  N   UNL     1     -42.926  40.058  29.836  1.00  0.00    -0.218 NA
ATOM     53  H   UNL     1     -44.362  41.114  25.618  1.00  0.00     0.065 H 
ATOM     54  C   UNL     1     -42.269  41.853  27.761  1.00  0.00     0.136 A 
ATOM     55  C   UNL     1     -41.941  40.974  29.875  1.00  0.00     0.120 A 
ATOM     56  N   UNL     1     -41.576  41.848  28.917  1.00  0.00    -0.219 NA
ATOM     57  H   UNL     1     -41.364  41.013  30.793  1.00  0.00     0.106 H 
BRANCH  54  58
ATOM     58  N   UNL     1     -41.873  42.755  26.783  1.00  0.00    -0.383 N 
ATOM     59  H   UNL     1     -42.676  43.095  26.267  1.00  0.00     0.158 HD
ATOM     60  H   UNL     1     -41.208  43.449  27.092  1.00  0.00     0.158 HD
ENDBRANCH  54  58
ENDBRANCH  38  46
ENDBRANCH   1  34
TORSDOF 8
ENDMDL
MODEL 2
REMARK VINA RESULT:      -9.6      1.879      2.512
REMARK SMILES Nc1cc(OC[C@H]2O[C@@H](n3ccc4c(N)ncnc43)[C@@H](F)[C@@H]2O)ccc1C(=O)N1CCNCC1
REMARK SMILES IDX 6 1 5 4 4 5 2 6 3 7 26 8 25 10 24 11 1 14 27 17 28 18 29 19
REMARK SMILES IDX 30 20 34 21 31 22 33 25 32 28 7 34 8 35 22 36 9 38 20 39
REMARK SMILES IDX 21 42 23 44 10 46 11 47 19 48 12 49 13 51 18 52 14 54 17 55
REMARK SMILES IDX 16 56 15 58
REMARK H PARENT 6 2 6 3 3 9 25 12 24 13 1 15 1 16 30 23 30 24 34 26 34 27
REMARK H PARENT 31 29 31 30 33 31 33 32 32 33 7 37 22 40 9 41 20 43 23 45
REMARK H PARENT 11 50 12 53 17 57 15 59 15 60
REMARK Flexibility Score: inf
ROOT
ATOM      1  C   UNL     1     -46.868  34.592  27.688  1.00  0.00     0.117 C 
ATOM      2  H   UNL     1     -47.888  34.835  28.007  1.00  0.00     0.073 H 
ATOM      3  H   UNL     1     -46.722  33.557  28.023  1.00  0.00     0.073 H 
ENDROOT
BRANCH   1   4
ATOM      4  O   UNL     1     -46.717  34.587  26.268  1.00  0.00    -0.491 OA
BRANCH   4   5
ATOM      5  C   UNL     1     -46.975  33.433  25.582  1.00  0.00     0.121 A 
ATOM      6  C   UNL     1     -46.500  31.606  24.036  1.00  0.00     0.048 A 
ATOM      7  C   UNL     1     -46.114  32.787  24.690  1.00  0.00     0.004 A 
ATOM      8  C   UNL     1     -47.728  31.016  24.391  1.00  0.00     0.063 A 
ATOM      9  H   UNL     1     -45.125  33.179  24.477  1.00  0.00     0.068 H 
ATOM     10  C   UNL     1     -48.609  31.673  25.259  1.00  0.00    -0.044 A 
ATOM     11  C   UNL     1     -48.229  32.877  25.850  1.00  0.00    -0.019 A 
ATOM     12  H   UNL     1     -49.585  31.247  25.477  1.00  0.00     0.063 H 
ATOM     13  H   UNL     1     -48.912  33.381  26.530  1.00  0.00     0.066 H 
BRANCH   6  14
ATOM     14  N   UNL     1     -45.558  30.939  23.225  1.00  0.00    -0.398 N 
ATOM     15  H   UNL     1     -45.962  30.509  22.399  1.00  0.00     0.156 HD
ATOM     16  H   UNL     1     -45.024  30.250  23.767  1.00  0.00     0.156 HD
ENDBRANCH   6  14
BRANCH   8  17
ATOM     17  C   UNL     1     -48.150  29.737  23.776  1.00  0.00     0.256 C 
ATOM     18  O   UNL     1     -47.986  28.706  24.428  1.00  0.00    -0.269 OA
ATOM     19  N   UNL     1     -48.692  29.748  22.493  1.00  0.00    -0.336 N 
ATOM     20  C   UNL     1     -49.050  28.453  21.911  1.00  0.00     0.033 C 
ATOM     21  C   UNL     1     -49.342  30.907  21.875  1.00  0.00     0.033 C 
ATOM     22  C   UNL     1     -49.693  28.574  20.516  1.00  0.00     0.013 C 
ATOM     23  H   UNL     1     -48.132  27.857  21.856  1.00  0.00     0.051 H 
ATOM     24  H   UNL     1     -49.739  27.939  22.592  1.00  0.00     0.051 H 
ATOM     25  C   UNL     1     -49.131  30.926  20.345  1.00  0.00     0.013 C 
ATOM     26  H   UNL     1     -49.011  31.852  22.308  1.00  0.00     0.051 H 
ATOM     27  H   UNL     1     -50.412  30.820  22.103  1.00  0.00     0.051 H 
ATOM     28  N   UNL     1     -49.050  29.606  19.684  1.00  0.00    -0.313 NA
ATOM     29  H   UNL     1     -49.640  27.607  20.004  1.00  0.00     0.045 H 
ATOM     30  H   UNL     1     -50.760  28.813  20.614  1.00  0.00     0.045 H 
ATOM     31  H   UNL     1     -48.199  31.461  20.123  1.00  0.00     0.045 H 
ATOM     32  H   UNL     1     -49.936  31.508  19.883  1.00  0.00     0.045 H 
ATOM     33  H   UNL     1     -48.061  29.359  19.613  1.00  0.00     0.122 HD
ENDBRANCH   8  17
ENDBRANCH   4   5
ENDBRANCH   1   4
BRANCH   1  34
ATOM     34  C   UNL     1     -45.821  35.479  28.363  1.00  0.00     0.123 C 
ATOM     35  O   UNL     1     -45.308  36.443  27.431  1.00  0.00    -0.345 OA
ATOM     36  C   UNL     1     -46.383  36.268  29.538  1.00  0.00     0.119 C 
ATOM     37  H   UNL     1     -44.982  34.860  28.705  1.00  0.00     0.067 H 
ATOM     38  C   UNL     1     -44.994  37.648  28.181  1.00  0.00     0.169 C 
ATOM     39  C   UNL     1     -45.398  37.416  29.634  1.00  0.00     0.173 C 
ATOM     40  H   UNL     1     -47.389  36.656  29.340  1.00  0.00     0.066 H 
ATOM     41  H   UNL     1     -43.914  37.806  28.092  1.00  0.00     0.088 H 
ATOM     42  F   UNL     1     -45.995  38.493  30.200  1.00  0.00    -0.239 F 
ATOM     43  H   UNL     1     -44.533  37.145  30.250  1.00  0.00     0.074 H 
BRANCH  36  44
ATOM     44  O   UNL     1     -46.422  35.495  30.732  1.00  0.00    -0.387 OA
ATOM     45  H   UNL     1     -46.741  34.605  30.489  1.00  0.00     0.211 HD
ENDBRANCH  36  44
BRANCH  38  46
ATOM     46  N   UNL     1     -45.659  38.777  27.549  1.00  0.00    -0.303 N 
ATOM     47  C   UNL     1     -46.949  38.819  27.070  1.00  0.00     0.009 A 
ATOM     48  C   UNL     1     -45.059  39.999  27.356  1.00  0.00     0.147 A 
ATOM     49  C   UNL     1     -47.175  40.086  26.574  1.00  0.00    -0.031 A 
ATOM     50  H   UNL     1     -47.597  37.955  27.119  1.00  0.00     0.082 H 
ATOM     51  C   UNL     1     -45.981  40.840  26.749  1.00  0.00     0.061 A 
ATOM     52  N   UNL     1     -43.800  40.313  27.703  1.00  0.00    -0.218 NA
ATOM     53  H   UNL     1     -48.101  40.436  26.135  1.00  0.00     0.065 H 
ATOM     54  C   UNL     1     -45.555  42.145  26.469  1.00  0.00     0.136 A 
ATOM     55  C   UNL     1     -43.509  41.589  27.393  1.00  0.00     0.120 A 
ATOM     56  N   UNL     1     -44.298  42.504  26.798  1.00  0.00    -0.219 NA
ATOM     57  H   UNL     1     -42.509  41.925  27.652  1.00  0.00     0.106 H 
BRANCH  54  58
ATOM     58  N   UNL     1     -46.349  43.100  25.850  1.00  0.00    -0.383 N 
ATOM     59  H   UNL     1     -47.059  42.655  25.279  1.00  0.00     0.158 HD
ATOM     60  H   UNL     1     -46.659  43.849  26.452  1.00  0.00     0.158 HD
ENDBRANCH  54  58
ENDBRANCH  38  46
ENDBRANCH   1  34
TORSDOF 8
ENDMDL
MODEL 3
REMARK VINA RESULT:      -9.2      2.459     11.433
REMARK SMILES Nc1cc(OC[C@H]2O[C@@H](n3ccc4c(N)ncnc43)[C@@H](F)[C@@H]2O)ccc1C(=O)N1CCNCC1
REMARK SMILES IDX 6 1 5 4 4 5 2 6 3 7 26 8 25 10 24 11 1 14 27 17 28 18 29 19
REMARK SMILES IDX 30 20 34 21 31 22 33 25 32 28 7 34 8 35 22 36 9 38 20 39
REMARK SMILES IDX 21 42 23 44 10 46 11 47 19 48 12 49 13 51 18 52 14 54 17 55
REMARK SMILES IDX 16 56 15 58
REMARK H PARENT 6 2 6 3 3 9 25 12 24 13 1 15 1 16 30 23 30 24 34 26 34 27
REMARK H PARENT 31 29 31 30 33 31 33 32 32 33 7 37 22 40 9 41 20 43 23 45
REMARK H PARENT 11 50 12 53 17 57 15 59 15 60
REMARK Flexibility Score: inf
ROOT
ATOM      1  C   UNL     1     -48.298  34.424  26.534  1.00  0.00     0.117 C 
ATOM      2  H   UNL     1     -49.302  34.551  26.113  1.00  0.00     0.073 H 
ATOM      3  H   UNL     1     -47.671  35.099  25.938  1.00  0.00     0.073 H 
ENDROOT
BRANCH   1   4
ATOM      4  O   UNL     1     -48.205  34.869  27.888  1.00  0.00    -0.491 OA
BRANCH   4   5
ATOM      5  C   UNL     1     -47.392  35.928  28.179  1.00  0.00     0.121 A 
ATOM      6  C   UNL     1     -46.864  38.235  28.774  1.00  0.00     0.048 A 
ATOM      7  C   UNL     1     -47.801  37.225  28.504  1.00  0.00     0.004 A 
ATOM      8  C   UNL     1     -45.502  37.884  28.833  1.00  0.00     0.063 A 
ATOM      9  H   UNL     1     -48.853  37.487  28.555  1.00  0.00     0.068 H 
ATOM     10  C   UNL     1     -45.083  36.596  28.479  1.00  0.00    -0.044 A 
ATOM     11  C   UNL     1     -46.028  35.625  28.154  1.00  0.00    -0.019 A 
ATOM     12  H   UNL     1     -44.024  36.349  28.459  1.00  0.00     0.063 H 
ATOM     13  H   UNL     1     -45.699  34.624  27.886  1.00  0.00     0.066 H 
BRANCH   6  14
ATOM     14  N   UNL     1     -47.330  39.498  29.195  1.00  0.00    -0.398 N 
ATOM     15  H   UNL     1     -46.768  39.915  29.932  1.00  0.00     0.156 HD
ATOM     16  H   UNL     1     -48.316  39.455  29.474  1.00  0.00     0.156 HD
ENDBRANCH   6  14
BRANCH   8  17
ATOM     17  C   UNL     1     -44.481  38.900  29.177  1.00  0.00     0.256 C 
ATOM     18  O   UNL     1     -43.898  38.784  30.255  1.00  0.00    -0.269 OA
ATOM     19  N   UNL     1     -44.238  39.944  28.289  1.00  0.00    -0.336 N 
ATOM     20  C   UNL     1     -43.253  40.949  28.696  1.00  0.00     0.033 C 
ATOM     21  C   UNL     1     -44.512  39.893  26.850  1.00  0.00     0.033 C 
ATOM     22  C   UNL     1     -43.012  42.029  27.623  1.00  0.00     0.013 C 
ATOM     23  H   UNL     1     -43.621  41.407  29.621  1.00  0.00     0.051 H 
ATOM     24  H   UNL     1     -42.309  40.442  28.929  1.00  0.00     0.051 H 
ATOM     25  C   UNL     1     -44.898  41.282  26.296  1.00  0.00     0.013 C 
ATOM     26  H   UNL     1     -45.284  39.164  26.598  1.00  0.00     0.051 H 
ATOM     27  H   UNL     1     -43.588  39.543  26.371  1.00  0.00     0.051 H 
ATOM     28  N   UNL     1     -44.253  42.442  26.948  1.00  0.00    -0.313 NA
ATOM     29  H   UNL     1     -42.538  42.902  28.085  1.00  0.00     0.045 H 
ATOM     30  H   UNL     1     -42.305  41.658  26.870  1.00  0.00     0.045 H 
ATOM     31  H   UNL     1     -45.982  41.413  26.393  1.00  0.00     0.045 H 
ATOM     32  H   UNL     1     -44.680  41.310  25.223  1.00  0.00     0.045 H 
ATOM     33  H   UNL     1     -44.890  42.780  27.672  1.00  0.00     0.122 HD
ENDBRANCH   8  17
ENDBRANCH   4   5
ENDBRANCH   1   4
BRANCH   1  34
ATOM     34  C   UNL     1     -47.775  32.996  26.372  1.00  0.00     0.123 C 
ATOM     35  O   UNL     1     -48.865  32.062  26.373  1.00  0.00    -0.345 OA
ATOM     36  C   UNL     1     -47.025  32.786  25.063  1.00  0.00     0.119 C 
ATOM     37  H   UNL     1     -47.117  32.750  27.214  1.00  0.00     0.067 H 
ATOM     38  C   UNL     1     -48.497  30.964  25.496  1.00  0.00     0.169 C 
ATOM     39  C   UNL     1     -47.136  31.285  24.886  1.00  0.00     0.173 C 
ATOM     40  H   UNL     1     -47.503  33.298  24.219  1.00  0.00     0.066 H 
ATOM     41  H   UNL     1     -48.449  30.063  26.117  1.00  0.00     0.088 H 
ATOM     42  F   UNL     1     -47.052  30.967  23.571  1.00  0.00    -0.239 F 
ATOM     43  H   UNL     1     -46.329  30.764  25.412  1.00  0.00     0.074 H 
BRANCH  36  44
ATOM     44  O   UNL     1     -45.671  33.217  25.146  1.00  0.00    -0.387 OA
ATOM     45  H   UNL     1     -45.256  33.030  24.282  1.00  0.00     0.211 HD
ENDBRANCH  36  44
BRANCH  38  46
ATOM     46  N   UNL     1     -49.559  30.771  24.520  1.00  0.00    -0.303 N 
ATOM     47  C   UNL     1     -50.382  31.736  23.987  1.00  0.00     0.009 A 
ATOM     48  C   UNL     1     -49.875  29.549  23.976  1.00  0.00     0.147 A 
ATOM     49  C   UNL     1     -51.227  31.122  23.087  1.00  0.00    -0.031 A 
ATOM     50  H   UNL     1     -50.303  32.772  24.286  1.00  0.00     0.082 H 
ATOM     51  C   UNL     1     -50.915  29.734  23.075  1.00  0.00     0.061 A 
ATOM     52  N   UNL     1     -49.273  28.384  24.271  1.00  0.00    -0.218 NA
ATOM     53  H   UNL     1     -51.987  31.617  22.495  1.00  0.00     0.065 H 
ATOM     54  C   UNL     1     -51.382  28.593  22.409  1.00  0.00     0.136 A 
ATOM     55  C   UNL     1     -49.800  27.367  23.567  1.00  0.00     0.120 A 
ATOM     56  N   UNL     1     -50.809  27.403  22.675  1.00  0.00    -0.219 NA
ATOM     57  H   UNL     1     -49.359  26.390  23.742  1.00  0.00     0.106 H 
BRANCH  54  58
ATOM     58  N   UNL     1     -52.425  28.608  21.494  1.00  0.00    -0.383 N 
ATOM     59  H   UNL     1     -52.285  29.342  20.808  1.00  0.00     0.158 HD
ATOM     60  H   UNL     1     -52.689  27.701  21.137  1.00  0.00     0.158 HD
ENDBRANCH  54  58
ENDBRANCH  38  46
ENDBRANCH   1  34
TORSDOF 8
ENDMDL
MODEL 4
REMARK VINA RESULT:      -9.2      1.377      2.074
REMARK SMILES Nc1cc(OC[C@H]2O[C@@H](n3ccc4c(N)ncnc43)[C@@H](F)[C@@H]2O)ccc1C(=O)N1CCNCC1
REMARK SMILES IDX 6 1 5 4 4 5 2 6 3 7 26 8 25 10 24 11 1 14 27 17 28 18 29 19
REMARK SMILES IDX 30 20 34 21 31 22 33 25 32 28 7 34 8 35 22 36 9 38 20 39
REMARK SMILES IDX 21 42 23 44 10 46 11 47 19 48 12 49 13 51 18 52 14 54 17 55
REMARK SMILES IDX 16 56 15 58
REMARK H PARENT 6 2 6 3 3 9 25 12 24 13 1 15 1 16 30 23 30 24 34 26 34 27
REMARK H PARENT 31 29 31 30 33 31 33 32 32 33 7 37 22 40 9 41 20 43 23 45
REMARK H PARENT 11 50 12 53 17 57 15 59 15 60
REMARK Flexibility Score: inf
ROOT
ATOM      1  C   UNL     1     -45.562  35.438  27.545  1.00  0.00     0.117 C 
ATOM      2  H   UNL     1     -45.524  34.476  28.070  1.00  0.00     0.073 H 
ATOM      3  H   UNL     1     -44.520  35.630  27.262  1.00  0.00     0.073 H 
ENDROOT
BRANCH   1   4
ATOM      4  O   UNL     1     -46.310  35.377  26.330  1.00  0.00    -0.491 OA
BRANCH   4   5
ATOM      5  C   UNL     1     -46.948  34.212  26.007  1.00  0.00     0.121 A 
ATOM      6  C   UNL     1     -48.856  32.715  25.744  1.00  0.00     0.048 A 
ATOM      7  C   UNL     1     -48.320  33.963  26.099  1.00  0.00     0.004 A 
ATOM      8  C   UNL     1     -47.996  31.756  25.175  1.00  0.00     0.063 A 
ATOM      9  H   UNL     1     -49.010  34.725  26.447  1.00  0.00     0.068 H 
ATOM     10  C   UNL     1     -46.617  31.987  25.109  1.00  0.00    -0.044 A 
ATOM     11  C   UNL     1     -46.099  33.212  25.524  1.00  0.00    -0.019 A 
ATOM     12  H   UNL     1     -45.949  31.216  24.732  1.00  0.00     0.063 H 
ATOM     13  H   UNL     1     -45.029  33.391  25.465  1.00  0.00     0.066 H 
BRANCH   6  14
ATOM     14  N   UNL     1     -50.257  32.548  25.758  1.00  0.00    -0.398 N 
ATOM     15  H   UNL     1     -50.691  32.660  24.846  1.00  0.00     0.156 HD
ATOM     16  H   UNL     1     -50.697  33.169  26.446  1.00  0.00     0.156 HD
ENDBRANCH   6  14
BRANCH   8  17
ATOM     17  C   UNL     1     -48.526  30.448  24.726  1.00  0.00     0.256 C 
ATOM     18  O   UNL     1     -48.738  29.591  25.584  1.00  0.00    -0.269 OA
ATOM     19  N   UNL     1     -48.741  30.233  23.367  1.00  0.00    -0.336 N 
ATOM     20  C   UNL     1     -49.221  28.908  22.970  1.00  0.00     0.033 C 
ATOM     21  C   UNL     1     -48.971  31.296  22.384  1.00  0.00     0.033 C 
ATOM     22  C   UNL     1     -49.484  28.788  21.456  1.00  0.00     0.013 C 
ATOM     23  H   UNL     1     -48.462  28.181  23.283  1.00  0.00     0.051 H 
ATOM     24  H   UNL     1     -50.142  28.686  23.524  1.00  0.00     0.051 H 
ATOM     25  C   UNL     1     -48.414  30.914  20.996  1.00  0.00     0.013 C 
ATOM     26  H   UNL     1     -48.557  32.255  22.701  1.00  0.00     0.051 H 
ATOM     27  H   UNL     1     -50.058  31.433  22.325  1.00  0.00     0.051 H 
ATOM     28  N   UNL     1     -48.463  29.477  20.649  1.00  0.00    -0.313 NA
ATOM     29  H   UNL     1     -49.520  27.730  21.175  1.00  0.00     0.045 H 
ATOM     30  H   UNL     1     -50.470  29.206  21.213  1.00  0.00     0.045 H 
ATOM     31  H   UNL     1     -47.365  31.229  20.937  1.00  0.00     0.045 H 
ATOM     32  H   UNL     1     -48.949  31.485  20.228  1.00  0.00     0.045 H 
ATOM     33  H   UNL     1     -47.559  29.071  20.898  1.00  0.00     0.122 HD
ENDBRANCH   8  17
ENDBRANCH   4   5
ENDBRANCH   1   4
BRANCH   1  34
ATOM     34  C   UNL     1     -46.044  36.574  28.448  1.00  0.00     0.123 C 
ATOM     35  O   UNL     1     -44.956  37.453  28.768  1.00  0.00    -0.345 OA
ATOM     36  C   UNL     1     -47.119  37.433  27.796  1.00  0.00     0.119 C 
ATOM     37  H   UNL     1     -46.429  36.156  29.388  1.00  0.00     0.067 H 
ATOM     38  C   UNL     1     -45.503  38.793  28.898  1.00  0.00     0.169 C 
ATOM     39  C   UNL     1     -46.994  38.724  28.580  1.00  0.00     0.173 C 
ATOM     40  H   UNL     1     -46.920  37.620  26.735  1.00  0.00     0.066 H 
ATOM     41  H   UNL     1     -45.335  39.106  29.934  1.00  0.00     0.088 H 
ATOM     42  F   UNL     1     -47.427  39.766  27.828  1.00  0.00    -0.239 F 
ATOM     43  H   UNL     1     -47.597  38.693  29.494  1.00  0.00     0.074 H 
BRANCH  36  44
ATOM     44  O   UNL     1     -48.414  36.856  27.920  1.00  0.00    -0.387 OA
ATOM     45  H   UNL     1     -48.903  37.385  28.580  1.00  0.00     0.211 HD
ENDBRANCH  36  44
BRANCH  38  46
ATOM     46  N   UNL     1     -44.749  39.691  28.038  1.00  0.00    -0.303 N 
ATOM     47  C   UNL     1     -45.049  40.044  26.742  1.00  0.00     0.009 A 
ATOM     48  C   UNL     1     -43.601  40.335  28.434  1.00  0.00     0.147 A 
ATOM     49  C   UNL     1     -44.084  40.931  26.311  1.00  0.00    -0.031 A 
ATOM     50  H   UNL     1     -45.913  39.642  26.233  1.00  0.00     0.082 H 
ATOM     51  C   UNL     1     -43.161  41.120  27.377  1.00  0.00     0.061 A 
ATOM     52  N   UNL     1     -43.020  40.221  29.640  1.00  0.00    -0.218 NA
ATOM     53  H   UNL     1     -44.046  41.399  25.335  1.00  0.00     0.065 H 
ATOM     54  C   UNL     1     -41.993  41.864  27.589  1.00  0.00     0.136 A 
ATOM     55  C   UNL     1     -41.916  40.984  29.727  1.00  0.00     0.120 A 
ATOM     56  N   UNL     1     -41.374  41.779  28.784  1.00  0.00    -0.219 NA
ATOM     57  H   UNL     1     -41.392  40.955  30.677  1.00  0.00     0.106 H 
BRANCH  54  58
ATOM     58  N   UNL     1     -41.414  42.682  26.628  1.00  0.00    -0.383 N 
ATOM     59  H   UNL     1     -40.883  43.425  27.068  1.00  0.00     0.158 HD
ATOM     60  H   UNL     1     -40.963  42.190  25.871  1.00  0.00     0.158 HD
ENDBRANCH  54  58
ENDBRANCH  38  46
ENDBRANCH   1  34
TORSDOF 8
ENDMDL
MODEL 5
REMARK VINA RESULT:      -9.0      4.160      6.708
REMARK SMILES Nc1cc(OC[C@H]2O[C@@H](n3ccc4c(N)ncnc43)[C@@H](F)[C@@H]2O)ccc1C(=O)N1CCNCC1
REMARK SMILES IDX 6 1 5 4 4 5 2 6 3 7 26 8 25 10 24 11 1 14 27 17 28 18 29 19
REMARK SMILES IDX 30 20 34 21 31 22 33 25 32 28 7 34 8 35 22 36 9 38 20 39
REMARK SMILES IDX 21 42 23 44 10 46 11 47 19 48 12 49 13 51 18 52 14 54 17 55
REMARK SMILES IDX 16 56 15 58
REMARK H PARENT 6 2 6 3 3 9 25 12 24 13 1 15 1 16 30 23 30 24 34 26 34 27
REMARK H PARENT 31 29 31 30 33 31 33 32 32 33 7 37 22 40 9 41 20 43 23 45
REMARK H PARENT 11 50 12 53 17 57 15 59 15 60
REMARK Flexibility Score: inf
ROOT
ATOM      1  C   UNL     1     -44.614  40.793  27.560  1.00  0.00     0.117 C 
ATOM      2  H   UNL     1     -45.650  40.826  27.202  1.00  0.00     0.073 H 
ATOM      3  H   UNL     1     -44.604  41.480  28.415  1.00  0.00     0.073 H 
ENDROOT
BRANCH   1   4
ATOM      4  O   UNL     1     -44.242  39.509  28.062  1.00  0.00    -0.491 OA
BRANCH   4   5
ATOM      5  C   UNL     1     -45.123  38.472  27.936  1.00  0.00     0.121 A 
ATOM      6  C   UNL     1     -46.155  36.340  28.524  1.00  0.00     0.048 A 
ATOM      7  C   UNL     1     -45.208  37.349  28.765  1.00  0.00     0.004 A 
ATOM      8  C   UNL     1     -47.101  36.542  27.501  1.00  0.00     0.063 A 
ATOM      9  H   UNL     1     -44.546  37.224  29.615  1.00  0.00     0.068 H 
ATOM     10  C   UNL     1     -47.002  37.648  26.648  1.00  0.00    -0.044 A 
ATOM     11  C   UNL     1     -46.015  38.606  26.869  1.00  0.00    -0.019 A 
ATOM     12  H   UNL     1     -47.694  37.764  25.817  1.00  0.00     0.063 H 
ATOM     13  H   UNL     1     -45.946  39.468  26.209  1.00  0.00     0.066 H 
BRANCH   6  14
ATOM     14  N   UNL     1     -46.267  35.279  29.447  1.00  0.00    -0.398 N 
ATOM     15  H   UNL     1     -46.934  35.456  30.193  1.00  0.00     0.156 HD
ATOM     16  H   UNL     1     -45.351  35.027  29.834  1.00  0.00     0.156 HD
ENDBRANCH   6  14
BRANCH   8  17
ATOM     17  C   UNL     1     -48.159  35.536  27.250  1.00  0.00     0.256 C 
ATOM     18  O   UNL     1     -49.269  35.737  27.742  1.00  0.00    -0.269 OA
ATOM     19  N   UNL     1     -47.855  34.408  26.493  1.00  0.00    -0.336 N 
ATOM     20  C   UNL     1     -48.922  33.420  26.313  1.00  0.00     0.033 C 
ATOM     21  C   UNL     1     -46.768  34.332  25.513  1.00  0.00     0.033 C 
ATOM     22  C   UNL     1     -48.507  32.239  25.414  1.00  0.00     0.013 C 
ATOM     23  H   UNL     1     -49.202  33.060  27.309  1.00  0.00     0.051 H 
ATOM     24  H   UNL     1     -49.797  33.923  25.882  1.00  0.00     0.051 H 
ATOM     25  C   UNL     1     -46.177  32.907  25.432  1.00  0.00     0.013 C 
ATOM     26  H   UNL     1     -45.975  35.054  25.712  1.00  0.00     0.051 H 
ATOM     27  H   UNL     1     -47.204  34.611  24.545  1.00  0.00     0.051 H 
ATOM     28  N   UNL     1     -47.125  31.797  25.664  1.00  0.00    -0.313 NA
ATOM     29  H   UNL     1     -49.194  31.401  25.573  1.00  0.00     0.045 H 
ATOM     30  H   UNL     1     -48.604  32.520  24.357  1.00  0.00     0.045 H 
ATOM     31  H   UNL     1     -45.375  32.814  26.174  1.00  0.00     0.045 H 
ATOM     32  H   UNL     1     -45.705  32.774  24.452  1.00  0.00     0.045 H 
ATOM     33  H   UNL     1     -47.065  31.545  26.653  1.00  0.00     0.122 HD
ENDBRANCH   8  17
ENDBRANCH   4   5
ENDBRANCH   1   4
BRANCH   1  34
ATOM     34  C   UNL     1     -43.621  41.297  26.512  1.00  0.00     0.123 C 
ATOM     35  O   UNL     1     -44.300  41.595  25.283  1.00  0.00    -0.345 OA
ATOM     36  C   UNL     1     -42.911  42.576  26.937  1.00  0.00     0.119 C 
ATOM     37  H   UNL     1     -42.877  40.517  26.306  1.00  0.00     0.067 H 
ATOM     38  C   UNL     1     -43.606  42.710  24.662  1.00  0.00     0.169 C 
ATOM     39  C   UNL     1     -42.483  43.146  25.599  1.00  0.00     0.173 C 
ATOM     40  H   UNL     1     -43.582  43.279  27.444  1.00  0.00     0.066 H 
ATOM     41  H   UNL     1     -43.206  42.346  23.710  1.00  0.00     0.088 H 
ATOM     42  F   UNL     1     -42.355  44.492  25.689  1.00  0.00    -0.239 F 
ATOM     43  H   UNL     1     -41.517  42.734  25.284  1.00  0.00     0.074 H 
BRANCH  36  44
ATOM     44  O   UNL     1     -41.800  42.314  27.787  1.00  0.00    -0.387 OA
ATOM     45  H   UNL     1     -42.087  42.504  28.702  1.00  0.00     0.211 HD
ENDBRANCH  36  44
BRANCH  38  46
ATOM     46  N   UNL     1     -44.573  43.755  24.363  1.00  0.00    -0.303 N 
ATOM     47  C   UNL     1     -45.768  43.987  25.004  1.00  0.00     0.009 A 
ATOM     48  C   UNL     1     -44.398  44.688  23.369  1.00  0.00     0.147 A 
ATOM     49  C   UNL     1     -46.358  45.087  24.416  1.00  0.00    -0.031 A 
ATOM     50  H   UNL     1     -46.103  43.360  25.819  1.00  0.00     0.082 H 
ATOM     51  C   UNL     1     -45.497  45.536  23.376  1.00  0.00     0.061 A 
ATOM     52  N   UNL     1     -43.341  44.759  22.543  1.00  0.00    -0.218 NA
ATOM     53  H   UNL     1     -47.305  45.525  24.704  1.00  0.00     0.065 H 
ATOM     54  C   UNL     1     -45.504  46.567  22.427  1.00  0.00     0.136 A 
ATOM     55  C   UNL     1     -43.457  45.788  21.685  1.00  0.00     0.120 A 
ATOM     56  N   UNL     1     -44.464  46.675  21.576  1.00  0.00    -0.219 NA
ATOM     57  H   UNL     1     -42.635  45.920  20.988  1.00  0.00     0.106 H 
BRANCH  54  58
ATOM     58  N   UNL     1     -46.536  47.485  22.293  1.00  0.00    -0.383 N 
ATOM     59  H   UNL     1     -47.240  47.334  23.006  1.00  0.00     0.158 HD
ATOM     60  H   UNL     1     -46.238  48.438  22.147  1.00  0.00     0.158 HD
ENDBRANCH  54  58
ENDBRANCH  38  46
ENDBRANCH   1  34
TORSDOF 8
ENDMDL
MODEL 6
REMARK VINA RESULT:      -8.9      1.874      2.400
REMARK SMILES Nc1cc(OC[C@H]2O[C@@H](n3ccc4c(N)ncnc43)[C@@H](F)[C@@H]2O)ccc1C(=O)N1CCNCC1
REMARK SMILES IDX 6 1 5 4 4 5 2 6 3 7 26 8 25 10 24 11 1 14 27 17 28 18 29 19
REMARK SMILES IDX 30 20 34 21 31 22 33 25 32 28 7 34 8 35 22 36 9 38 20 39
REMARK SMILES IDX 21 42 23 44 10 46 11 47 19 48 12 49 13 51 18 52 14 54 17 55
REMARK SMILES IDX 16 56 15 58
REMARK H PARENT 6 2 6 3 3 9 25 12 24 13 1 15 1 16 30 23 30 24 34 26 34 27
REMARK H PARENT 31 29 31 30 33 31 33 32 32 33 7 37 22 40 9 41 20 43 23 45
REMARK H PARENT 11 50 12 53 17 57 15 59 15 60
REMARK Flexibility Score: inf
ROOT
ATOM      1  C   UNL     1     -47.039  34.544  27.334  1.00  0.00     0.117 C 
ATOM      2  H   UNL     1     -47.634  35.070  26.577  1.00  0.00     0.073 H 
ATOM      3  H   UNL     1     -47.775  34.239  28.088  1.00  0.00     0.073 H 
ENDROOT
BRANCH   1   4
ATOM      4  O   UNL     1     -46.443  33.345  26.836  1.00  0.00    -0.491 OA
BRANCH   4   5
ATOM      5  C   UNL     1     -47.074  32.663  25.834  1.00  0.00     0.121 A 
ATOM      6  C   UNL     1     -47.228  31.393  23.756  1.00  0.00     0.048 A 
ATOM      7  C   UNL     1     -46.467  32.060  24.729  1.00  0.00     0.004 A 
ATOM      8  C   UNL     1     -48.610  31.238  23.980  1.00  0.00     0.063 A 
ATOM      9  H   UNL     1     -45.391  32.090  24.591  1.00  0.00     0.068 H 
ATOM     10  C   UNL     1     -49.230  31.866  25.067  1.00  0.00    -0.044 A 
ATOM     11  C   UNL     1     -48.461  32.575  25.988  1.00  0.00    -0.019 A 
ATOM     12  H   UNL     1     -50.307  31.800  25.198  1.00  0.00     0.063 H 
ATOM     13  H   UNL     1     -48.944  33.056  26.835  1.00  0.00     0.066 H 
BRANCH   6  14
ATOM     14  N   UNL     1     -46.559  30.715  22.716  1.00  0.00    -0.398 N 
ATOM     15  H   UNL     1     -47.184  30.302  22.030  1.00  0.00     0.156 HD
ATOM     16  H   UNL     1     -45.916  30.007  23.090  1.00  0.00     0.156 HD
ENDBRANCH   6  14
BRANCH   8  17
ATOM     17  C   UNL     1     -49.446  30.488  23.015  1.00  0.00     0.256 C 
ATOM     18  O   UNL     1     -49.745  31.048  21.961  1.00  0.00    -0.269 OA
ATOM     19  N   UNL     1     -49.871  29.203  23.341  1.00  0.00    -0.336 N 
ATOM     20  C   UNL     1     -50.733  28.521  22.374  1.00  0.00     0.033 C 
ATOM     21  C   UNL     1     -49.195  28.322  24.298  1.00  0.00     0.033 C 
ATOM     22  C   UNL     1     -51.102  27.086  22.797  1.00  0.00     0.013 C 
ATOM     23  H   UNL     1     -51.639  29.129  22.261  1.00  0.00     0.051 H 
ATOM     24  H   UNL     1     -50.224  28.501  21.402  1.00  0.00     0.051 H 
ATOM     25  C   UNL     1     -50.198  27.399  25.025  1.00  0.00     0.013 C 
ATOM     26  H   UNL     1     -48.601  28.874  25.027  1.00  0.00     0.051 H 
ATOM     27  H   UNL     1     -48.487  27.718  23.716  1.00  0.00     0.051 H 
ATOM     28  N   UNL     1     -51.378  26.976  24.239  1.00  0.00    -0.313 NA
ATOM     29  H   UNL     1     -51.978  26.752  22.231  1.00  0.00     0.045 H 
ATOM     30  H   UNL     1     -50.287  26.398  22.538  1.00  0.00     0.045 H 
ATOM     31  H   UNL     1     -50.569  27.915  25.919  1.00  0.00     0.045 H 
ATOM     32  H   UNL     1     -49.669  26.509  25.381  1.00  0.00     0.045 H 
ATOM     33  H   UNL     1     -52.136  27.627  24.450  1.00  0.00     0.122 HD
ENDBRANCH   8  17
ENDBRANCH   4   5
ENDBRANCH   1   4
BRANCH   1  34
ATOM     34  C   UNL     1     -46.005  35.455  27.996  1.00  0.00     0.123 C 
ATOM     35  O   UNL     1     -45.706  36.572  27.146  1.00  0.00    -0.345 OA
ATOM     36  C   UNL     1     -46.487  36.034  29.320  1.00  0.00     0.119 C 
ATOM     37  H   UNL     1     -45.075  34.895  28.159  1.00  0.00     0.067 H 
ATOM     38  C   UNL     1     -45.416  37.707  28.005  1.00  0.00     0.169 C 
ATOM     39  C   UNL     1     -45.611  37.263  29.452  1.00  0.00     0.173 C 
ATOM     40  H   UNL     1     -47.543  36.330  29.288  1.00  0.00     0.066 H 
ATOM     41  H   UNL     1     -44.376  37.992  27.816  1.00  0.00     0.088 H 
ATOM     42  F   UNL     1     -46.232  38.194  30.216  1.00  0.00    -0.239 F 
ATOM     43  H   UNL     1     -44.654  37.019  29.927  1.00  0.00     0.074 H 
BRANCH  36  44
ATOM     44  O   UNL     1     -46.302  35.126  30.400  1.00  0.00    -0.387 OA
ATOM     45  H   UNL     1     -45.341  34.974  30.486  1.00  0.00     0.211 HD
ENDBRANCH  36  44
BRANCH  38  46
ATOM     46  N   UNL     1     -46.259  38.823  27.604  1.00  0.00    -0.303 N 
ATOM     47  C   UNL     1     -47.630  38.904  27.700  1.00  0.00     0.009 A 
ATOM     48  C   UNL     1     -45.768  39.990  27.069  1.00  0.00     0.147 A 
ATOM     49  C   UNL     1     -48.015  40.142  27.227  1.00  0.00    -0.031 A 
ATOM     50  H   UNL     1     -48.217  38.085  28.091  1.00  0.00     0.082 H 
ATOM     51  C   UNL     1     -46.841  40.836  26.823  1.00  0.00     0.061 A 
ATOM     52  N   UNL     1     -44.472  40.256  26.835  1.00  0.00    -0.218 NA
ATOM     53  H   UNL     1     -49.031  40.511  27.180  1.00  0.00     0.065 H 
ATOM     54  C   UNL     1     -46.541  42.090  26.274  1.00  0.00     0.136 A 
ATOM     55  C   UNL     1     -44.309  41.486  26.317  1.00  0.00     0.120 A 
ATOM     56  N   UNL     1     -45.254  42.399  26.020  1.00  0.00    -0.219 NA
ATOM     57  H   UNL     1     -43.285  41.782  26.107  1.00  0.00     0.106 H 
BRANCH  54  58
ATOM     58  N   UNL     1     -47.500  43.041  25.954  1.00  0.00    -0.383 N 
ATOM     59  H   UNL     1     -47.690  43.033  24.958  1.00  0.00     0.158 HD
ATOM     60  H   UNL     1     -48.303  43.055  26.566  1.00  0.00     0.158 HD
ENDBRANCH  54  58
ENDBRANCH  38  46
ENDBRANCH   1  34
TORSDOF 8
ENDMDL
MODEL 7
REMARK VINA RESULT:      -8.8      3.053      5.218
REMARK SMILES Nc1cc(OC[C@H]2O[C@@H](n3ccc4c(N)ncnc43)[C@@H](F)[C@@H]2O)ccc1C(=O)N1CCNCC1
REMARK SMILES IDX 6 1 5 4 4 5 2 6 3 7 26 8 25 10 24 11 1 14 27 17 28 18 29 19
REMARK SMILES IDX 30 20 34 21 31 22 33 25 32 28 7 34 8 35 22 36 9 38 20 39
REMARK SMILES IDX 21 42 23 44 10 46 11 47 19 48 12 49 13 51 18 52 14 54 17 55
REMARK SMILES IDX 16 56 15 58
REMARK H PARENT 6 2 6 3 3 9 25 12 24 13 1 15 1 16 30 23 30 24 34 26 34 27
REMARK H PARENT 31 29 31 30 33 31 33 32 32 33 7 37 22 40 9 41 20 43 23 45
REMARK H PARENT 11 50 12 53 17 57 15 59 15 60
REMARK Flexibility Score: inf
ROOT
ATOM      1  C   UNL     1     -45.202  39.531  28.006  1.00  0.00     0.117 C 
ATOM      2  H   UNL     1     -45.810  39.472  27.095  1.00  0.00     0.073 H 
ATOM      3  H   UNL     1     -45.732  40.258  28.634  1.00  0.00     0.073 H 
ENDROOT
BRANCH   1   4
ATOM      4  O   UNL     1     -45.175  38.304  28.735  1.00  0.00    -0.491 OA
BRANCH   4   5
ATOM      5  C   UNL     1     -45.843  37.223  28.231  1.00  0.00     0.121 A 
ATOM      6  C   UNL     1     -46.293  34.853  27.866  1.00  0.00     0.048 A 
ATOM      7  C   UNL     1     -45.533  35.878  28.451  1.00  0.00     0.004 A 
ATOM      8  C   UNL     1     -47.453  35.207  27.150  1.00  0.00     0.063 A 
ATOM      9  H   UNL     1     -44.697  35.588  29.079  1.00  0.00     0.068 H 
ATOM     10  C   UNL     1     -47.752  36.552  26.899  1.00  0.00    -0.044 A 
ATOM     11  C   UNL     1     -46.947  37.552  27.439  1.00  0.00    -0.019 A 
ATOM     12  H   UNL     1     -48.611  36.818  26.287  1.00  0.00     0.063 H 
ATOM     13  H   UNL     1     -47.186  38.596  27.249  1.00  0.00     0.066 H 
BRANCH   6  14
ATOM     14  N   UNL     1     -46.002  33.514  28.201  1.00  0.00    -0.398 N 
ATOM     15  H   UNL     1     -45.766  33.380  29.180  1.00  0.00     0.156 HD
ATOM     16  H   UNL     1     -45.264  33.134  27.597  1.00  0.00     0.156 HD
ENDBRANCH   6  14
BRANCH   8  17
ATOM     17  C   UNL     1     -48.322  34.159  26.567  1.00  0.00     0.256 C 
ATOM     18  O   UNL     1     -49.495  34.117  26.938  1.00  0.00    -0.269 OA
ATOM     19  N   UNL     1     -47.782  33.262  25.650  1.00  0.00    -0.336 N 
ATOM     20  C   UNL     1     -48.670  32.216  25.138  1.00  0.00     0.033 C 
ATOM     21  C   UNL     1     -46.598  33.527  24.827  1.00  0.00     0.033 C 
ATOM     22  C   UNL     1     -47.998  31.312  24.088  1.00  0.00     0.013 C 
ATOM     23  H   UNL     1     -48.999  31.621  25.998  1.00  0.00     0.051 H 
ATOM     24  H   UNL     1     -49.559  32.691  24.704  1.00  0.00     0.051 H 
ATOM     25  C   UNL     1     -45.803  32.233  24.545  1.00  0.00     0.013 C 
ATOM     26  H   UNL     1     -45.942  34.279  25.268  1.00  0.00     0.051 H 
ATOM     27  H   UNL     1     -46.966  33.952  23.884  1.00  0.00     0.051 H 
ATOM     28  N   UNL     1     -46.601  30.994  24.427  1.00  0.00    -0.313 NA
ATOM     29  H   UNL     1     -48.570  30.383  23.986  1.00  0.00     0.045 H 
ATOM     30  H   UNL     1     -48.022  31.798  23.104  1.00  0.00     0.045 H 
ATOM     31  H   UNL     1     -45.078  32.080  25.354  1.00  0.00     0.045 H 
ATOM     32  H   UNL     1     -45.216  32.369  23.630  1.00  0.00     0.045 H 
ATOM     33  H   UNL     1     -46.609  30.546  25.345  1.00  0.00     0.122 HD
ENDBRANCH   8  17
ENDBRANCH   4   5
ENDBRANCH   1   4
BRANCH   1  34
ATOM     34  C   UNL     1     -43.792  40.054  27.731  1.00  0.00     0.123 C 
ATOM     35  O   UNL     1     -43.793  40.909  26.577  1.00  0.00    -0.345 OA
ATOM     36  C   UNL     1     -43.232  40.880  28.882  1.00  0.00     0.119 C 
ATOM     37  H   UNL     1     -43.121  39.210  27.526  1.00  0.00     0.067 H 
ATOM     38  C   UNL     1     -42.780  41.929  26.790  1.00  0.00     0.169 C 
ATOM     39  C   UNL     1     -42.179  41.711  28.176  1.00  0.00     0.173 C 
ATOM     40  H   UNL     1     -43.985  41.537  29.332  1.00  0.00     0.066 H 
ATOM     41  H   UNL     1     -42.025  41.797  26.008  1.00  0.00     0.088 H 
ATOM     42  F   UNL     1     -41.970  42.866  28.854  1.00  0.00    -0.239 F 
ATOM     43  H   UNL     1     -41.225  41.176  28.118  1.00  0.00     0.074 H 
BRANCH  36  44
ATOM     44  O   UNL     1     -42.672  40.063  29.904  1.00  0.00    -0.387 OA
ATOM     45  H   UNL     1     -42.127  39.383  29.462  1.00  0.00     0.211 HD
ENDBRANCH  36  44
BRANCH  38  46
ATOM     46  N   UNL     1     -43.388  43.237  26.602  1.00  0.00    -0.303 N 
ATOM     47  C   UNL     1     -44.033  43.997  27.551  1.00  0.00     0.009 A 
ATOM     48  C   UNL     1     -43.382  43.910  25.404  1.00  0.00     0.147 A 
ATOM     49  C   UNL     1     -44.435  45.172  26.951  1.00  0.00    -0.031 A 
ATOM     50  H   UNL     1     -44.155  43.646  28.567  1.00  0.00     0.082 H 
ATOM     51  C   UNL     1     -44.028  45.124  25.588  1.00  0.00     0.061 A 
ATOM     52  N   UNL     1     -42.838  43.462  24.260  1.00  0.00    -0.218 NA
ATOM     53  H   UNL     1     -44.962  45.982  27.439  1.00  0.00     0.065 H 
ATOM     54  C   UNL     1     -44.123  45.964  24.471  1.00  0.00     0.136 A 
ATOM     55  C   UNL     1     -42.984  44.353  23.264  1.00  0.00     0.120 A 
ATOM     56  N   UNL     1     -43.593  45.554  23.301  1.00  0.00    -0.219 NA
ATOM     57  H   UNL     1     -42.560  44.069  22.306  1.00  0.00     0.106 H 
BRANCH  54  58
ATOM     58  N   UNL     1     -44.753  47.201  24.487  1.00  0.00    -0.383 N 
ATOM     59  H   UNL     1     -45.152  47.384  25.400  1.00  0.00     0.158 HD
ATOM     60  H   UNL     1     -44.225  47.951  24.066  1.00  0.00     0.158 HD
ENDBRANCH  54  58
ENDBRANCH  38  46
ENDBRANCH   1  34
TORSDOF 8
ENDMDL
