MODEL 1
REMARK VINA RESULT:     -12.1      0.000      0.000
REMARK SMILES O=C(NCc1ccc2cc(CN3CC4(CCCC4)C3)[nH]c2c1)c1cc(=O)n2ccccc2n1
REMARK SMILES IDX 5 1 6 2 7 3 8 4 9 5 10 6 20 7 21 8 22 9 4 15 3 18 1 19 2 20
REMARK SMILES IDX 23 22 24 23 33 24 25 25 32 27 26 28 27 29 31 30 28 31 30 32
REMARK SMILES IDX 29 34 11 38 12 41 13 42 19 43 14 44 15 49 18 50 16 51 17 54
REMARK H PARENT 6 10 7 11 9 12 20 13 22 14 4 16 4 17 3 21 24 26 31 33 28 35
REMARK H PARENT 30 36 29 37 11 39 11 40 13 45 13 46 19 47 19 48 15 52 15 53
REMARK H PARENT 18 55 18 56 16 57 16 58 17 59 17 60
REMARK Flexibility Score: inf
ROOT
ATOM      1  C   UNL     1     -47.963  34.845  26.681  1.00  0.00    -0.027 A 
ATOM      2  C   UNL     1     -46.669  34.820  26.144  1.00  0.00    -0.057 A 
ATOM      3  C   UNL     1     -46.246  33.768  25.321  1.00  0.00    -0.052 A 
ATOM      4  C   UNL     1     -47.140  32.724  25.023  1.00  0.00    -0.000 A 
ATOM      5  C   UNL     1     -47.050  31.537  24.243  1.00  0.00    -0.032 A 
ATOM      6  C   UNL     1     -48.267  30.887  24.312  1.00  0.00     0.030 A 
ATOM      7  N   UNL     1     -49.086  31.647  25.115  1.00  0.00    -0.357 N 
ATOM      8  C   UNL     1     -48.426  32.769  25.558  1.00  0.00     0.046 A 
ATOM      9  C   UNL     1     -48.868  33.812  26.380  1.00  0.00    -0.033 A 
ATOM     10  H   UNL     1     -45.973  35.628  26.363  1.00  0.00     0.063 H 
ATOM     11  H   UNL     1     -45.239  33.763  24.917  1.00  0.00     0.063 H 
ATOM     12  H   UNL     1     -46.185  31.197  23.691  1.00  0.00     0.065 H 
ATOM     13  H   UNL     1     -50.049  31.412  25.317  1.00  0.00     0.166 HD
ATOM     14  H   UNL     1     -49.881  33.823  26.773  1.00  0.00     0.065 H 
ENDROOT
BRANCH   1  15
ATOM     15  C   UNL     1     -48.405  36.003  27.537  1.00  0.00     0.043 C 
ATOM     16  H   UNL     1     -48.566  35.684  28.574  1.00  0.00     0.054 H 
ATOM     17  H   UNL     1     -49.358  36.409  27.181  1.00  0.00     0.054 H 
BRANCH  15  18
ATOM     18  N   UNL     1     -47.421  37.051  27.527  1.00  0.00    -0.347 N 
ATOM     19  O   UNL     1     -46.644  36.671  29.652  1.00  0.00    -0.268 OA
ATOM     20  C   UNL     1     -46.600  37.293  28.598  1.00  0.00     0.270 C 
ATOM     21  H   UNL     1     -47.279  37.615  26.694  1.00  0.00     0.164 HD
BRANCH  20  22
ATOM     22  C   UNL     1     -45.626  38.416  28.338  1.00  0.00     0.136 A 
ATOM     23  C   UNL     1     -45.808  39.111  27.212  1.00  0.00     0.035 A 
ATOM     24  N   UNL     1     -44.628  38.656  29.255  1.00  0.00    -0.225 NA
ATOM     25  C   UNL     1     -44.883  40.213  26.919  1.00  0.00     0.258 A 
ATOM     26  H   UNL     1     -46.596  38.914  26.497  1.00  0.00     0.071 H 
ATOM     27  C   UNL     1     -43.814  39.631  28.993  1.00  0.00     0.140 A 
ATOM     28  O   UNL     1     -45.042  40.859  25.884  1.00  0.00    -0.269 OA
ATOM     29  N   UNL     1     -43.888  40.433  27.859  1.00  0.00    -0.268 N 
ATOM     30  C   UNL     1     -42.718  39.925  29.959  1.00  0.00    -0.019 A 
ATOM     31  C   UNL     1     -42.973  41.461  27.651  1.00  0.00     0.014 A 
ATOM     32  C   UNL     1     -41.863  40.925  29.715  1.00  0.00    -0.057 A 
ATOM     33  H   UNL     1     -42.653  39.305  30.844  1.00  0.00     0.066 H 
ATOM     34  C   UNL     1     -41.991  41.720  28.523  1.00  0.00    -0.045 A 
ATOM     35  H   UNL     1     -43.090  42.048  26.744  1.00  0.00     0.082 H 
ATOM     36  H   UNL     1     -41.058  41.155  30.406  1.00  0.00     0.062 H 
ATOM     37  H   UNL     1     -41.284  42.524  28.350  1.00  0.00     0.064 H 
ENDBRANCH  20  22
ENDBRANCH  15  18
ENDBRANCH   1  15
BRANCH   6  38
ATOM     38  C   UNL     1     -48.734  29.604  23.706  1.00  0.00     0.039 C 
ATOM     39  H   UNL     1     -49.289  29.813  22.783  1.00  0.00     0.050 H 
ATOM     40  H   UNL     1     -47.840  29.036  23.417  1.00  0.00     0.050 H 
BRANCH  38  41
ATOM     41  N   UNL     1     -49.508  28.814  24.675  1.00  0.00    -0.296 NA
ATOM     42  C   UNL     1     -49.460  27.376  24.348  1.00  0.00     0.005 C 
ATOM     43  C   UNL     1     -48.725  28.591  25.903  1.00  0.00     0.005 C 
ATOM     44  C   UNL     1     -48.392  27.146  25.450  1.00  0.00    -0.004 C 
ATOM     45  H   UNL     1     -50.419  26.877  24.537  1.00  0.00     0.044 H 
ATOM     46  H   UNL     1     -49.162  27.111  23.327  1.00  0.00     0.044 H 
ATOM     47  H   UNL     1     -47.868  29.253  26.065  1.00  0.00     0.044 H 
ATOM     48  H   UNL     1     -49.348  28.646  26.805  1.00  0.00     0.044 H 
ATOM     49  C   UNL     1     -48.702  26.049  26.476  1.00  0.00    -0.045 C 
ATOM     50  C   UNL     1     -46.962  26.893  24.940  1.00  0.00    -0.045 C 
ATOM     51  C   UNL     1     -47.639  24.989  26.214  1.00  0.00    -0.053 C 
ATOM     52  H   UNL     1     -49.713  25.641  26.384  1.00  0.00     0.027 H 
ATOM     53  H   UNL     1     -48.584  26.434  27.496  1.00  0.00     0.027 H 
ATOM     54  C   UNL     1     -46.413  25.818  25.873  1.00  0.00    -0.053 C 
ATOM     55  H   UNL     1     -46.334  27.788  24.957  1.00  0.00     0.027 H 
ATOM     56  H   UNL     1     -46.978  26.507  23.914  1.00  0.00     0.027 H 
ATOM     57  H   UNL     1     -47.926  24.367  25.358  1.00  0.00     0.027 H 
ATOM     58  H   UNL     1     -47.481  24.338  27.078  1.00  0.00     0.027 H 
ATOM     59  H   UNL     1     -46.006  26.278  26.782  1.00  0.00     0.027 H 
ATOM     60  H   UNL     1     -45.622  25.227  25.404  1.00  0.00     0.027 H 
ENDBRANCH  38  41
ENDBRANCH   6  38
TORSDOF 5
ENDMDL
MODEL 2
REMARK VINA RESULT:     -11.0      2.115      3.756
REMARK SMILES O=C(NCc1ccc2cc(CN3CC4(CCCC4)C3)[nH]c2c1)c1cc(=O)n2ccccc2n1
REMARK SMILES IDX 5 1 6 2 7 3 8 4 9 5 10 6 20 7 21 8 22 9 4 15 3 18 1 19 2 20
REMARK SMILES IDX 23 22 24 23 33 24 25 25 32 27 26 28 27 29 31 30 28 31 30 32
REMARK SMILES IDX 29 34 11 38 12 41 13 42 19 43 14 44 15 49 18 50 16 51 17 54
REMARK H PARENT 6 10 7 11 9 12 20 13 22 14 4 16 4 17 3 21 24 26 31 33 28 35
REMARK H PARENT 30 36 29 37 11 39 11 40 13 45 13 46 19 47 19 48 15 52 15 53
REMARK H PARENT 18 55 18 56 16 57 16 58 17 59 17 60
REMARK Flexibility Score: inf
ROOT
ATOM      1  C   UNL     1     -46.349  36.494  28.397  1.00  0.00    -0.027 A 
ATOM      2  C   UNL     1     -47.731  36.551  28.175  1.00  0.00    -0.057 A 
ATOM      3  C   UNL     1     -48.362  35.657  27.300  1.00  0.00    -0.052 A 
ATOM      4  C   UNL     1     -47.594  34.681  26.640  1.00  0.00    -0.000 A 
ATOM      5  C   UNL     1     -47.897  33.643  25.715  1.00  0.00    -0.032 A 
ATOM      6  C   UNL     1     -46.721  32.985  25.411  1.00  0.00     0.030 A 
ATOM      7  N   UNL     1     -45.719  33.600  26.123  1.00  0.00    -0.357 N 
ATOM      8  C   UNL     1     -46.222  34.632  26.880  1.00  0.00     0.046 A 
ATOM      9  C   UNL     1     -45.574  35.514  27.751  1.00  0.00    -0.033 A 
ATOM     10  H   UNL     1     -48.335  37.298  28.687  1.00  0.00     0.063 H 
ATOM     11  H   UNL     1     -49.433  35.719  27.136  1.00  0.00     0.063 H 
ATOM     12  H   UNL     1     -48.873  33.405  25.316  1.00  0.00     0.065 H 
ATOM     13  H   UNL     1     -44.752  33.301  26.105  1.00  0.00     0.166 HD
ATOM     14  H   UNL     1     -44.504  35.443  27.925  1.00  0.00     0.065 H 
ENDROOT
BRANCH   1  15
ATOM     15  C   UNL     1     -45.698  37.444  29.367  1.00  0.00     0.043 C 
ATOM     16  H   UNL     1     -45.015  36.911  30.039  1.00  0.00     0.054 H 
ATOM     17  H   UNL     1     -46.448  37.930  30.000  1.00  0.00     0.054 H 
BRANCH  15  18
ATOM     18  N   UNL     1     -44.954  38.457  28.668  1.00  0.00    -0.347 N 
ATOM     19  O   UNL     1     -46.746  39.829  28.255  1.00  0.00    -0.268 OA
ATOM     20  C   UNL     1     -45.547  39.590  28.174  1.00  0.00     0.270 C 
ATOM     21  H   UNL     1     -43.947  38.375  28.565  1.00  0.00     0.164 HD
BRANCH  20  22
ATOM     22  C   UNL     1     -44.558  40.520  27.515  1.00  0.00     0.136 A 
ATOM     23  C   UNL     1     -43.409  40.721  28.163  1.00  0.00     0.035 A 
ATOM     24  N   UNL     1     -44.890  41.094  26.308  1.00  0.00    -0.225 NA
ATOM     25  C   UNL     1     -42.418  41.620  27.557  1.00  0.00     0.258 A 
ATOM     26  H   UNL     1     -43.159  40.264  29.111  1.00  0.00     0.071 H 
ATOM     27  C   UNL     1     -44.011  41.886  25.776  1.00  0.00     0.140 A 
ATOM     28  O   UNL     1     -41.356  41.811  28.147  1.00  0.00    -0.269 OA
ATOM     29  N   UNL     1     -42.776  42.184  26.343  1.00  0.00    -0.268 N 
ATOM     30  C   UNL     1     -44.329  42.530  24.470  1.00  0.00    -0.019 A 
ATOM     31  C   UNL     1     -41.888  43.046  25.706  1.00  0.00     0.014 A 
ATOM     32  C   UNL     1     -43.441  43.352  23.897  1.00  0.00    -0.057 A 
ATOM     33  H   UNL     1     -45.288  42.304  24.023  1.00  0.00     0.066 H 
ATOM     34  C   UNL     1     -42.180  43.621  24.533  1.00  0.00    -0.045 A 
ATOM     35  H   UNL     1     -40.941  43.234  26.206  1.00  0.00     0.082 H 
ATOM     36  H   UNL     1     -43.655  43.830  22.946  1.00  0.00     0.062 H 
ATOM     37  H   UNL     1     -41.479  44.291  24.047  1.00  0.00     0.064 H 
ENDBRANCH  20  22
ENDBRANCH  15  18
ENDBRANCH   1  15
BRANCH   6  38
ATOM     38  C   UNL     1     -46.444  31.836  24.497  1.00  0.00     0.039 C 
ATOM     39  H   UNL     1     -45.400  31.875  24.161  1.00  0.00     0.050 H 
ATOM     40  H   UNL     1     -46.553  30.917  25.088  1.00  0.00     0.050 H 
BRANCH  38  41
ATOM     41  N   UNL     1     -47.404  31.804  23.384  1.00  0.00    -0.296 NA
ATOM     42  C   UNL     1     -47.133  30.669  22.480  1.00  0.00     0.005 C 
ATOM     43  C   UNL     1     -48.675  31.197  23.814  1.00  0.00     0.005 C 
ATOM     44  C   UNL     1     -48.293  29.863  23.124  1.00  0.00    -0.004 C 
ATOM     45  H   UNL     1     -47.295  30.930  21.428  1.00  0.00     0.044 H 
ATOM     46  H   UNL     1     -46.138  30.213  22.544  1.00  0.00     0.044 H 
ATOM     47  H   UNL     1     -48.853  31.145  24.894  1.00  0.00     0.044 H 
ATOM     48  H   UNL     1     -49.544  31.699  23.370  1.00  0.00     0.044 H 
ATOM     49  C   UNL     1     -49.344  29.299  22.159  1.00  0.00    -0.045 C 
ATOM     50  C   UNL     1     -47.862  28.706  24.043  1.00  0.00    -0.045 C 
ATOM     51  C   UNL     1     -49.172  27.788  22.269  1.00  0.00    -0.053 C 
ATOM     52  H   UNL     1     -49.219  29.647  21.129  1.00  0.00     0.027 H 
ATOM     53  H   UNL     1     -50.353  29.572  22.489  1.00  0.00     0.027 H 
ATOM     54  C   UNL     1     -48.859  27.591  23.742  1.00  0.00    -0.053 C 
ATOM     55  H   UNL     1     -47.875  28.971  25.104  1.00  0.00     0.027 H 
ATOM     56  H   UNL     1     -46.852  28.365  23.790  1.00  0.00     0.027 H 
ATOM     57  H   UNL     1     -48.327  27.456  21.655  1.00  0.00     0.027 H 
ATOM     58  H   UNL     1     -50.066  27.245  21.952  1.00  0.00     0.027 H 
ATOM     59  H   UNL     1     -49.769  27.726  24.342  1.00  0.00     0.027 H 
ATOM     60  H   UNL     1     -48.450  26.600  23.958  1.00  0.00     0.027 H 
ENDBRANCH  38  41
ENDBRANCH   6  38
TORSDOF 5
ENDMDL
MODEL 3
REMARK VINA RESULT:     -10.8      1.266      2.004
REMARK SMILES O=C(NCc1ccc2cc(CN3CC4(CCCC4)C3)[nH]c2c1)c1cc(=O)n2ccccc2n1
REMARK SMILES IDX 5 1 6 2 7 3 8 4 9 5 10 6 20 7 21 8 22 9 4 15 3 18 1 19 2 20
REMARK SMILES IDX 23 22 24 23 33 24 25 25 32 27 26 28 27 29 31 30 28 31 30 32
REMARK SMILES IDX 29 34 11 38 12 41 13 42 19 43 14 44 15 49 18 50 16 51 17 54
REMARK H PARENT 6 10 7 11 9 12 20 13 22 14 4 16 4 17 3 21 24 26 31 33 28 35
REMARK H PARENT 30 36 29 37 11 39 11 40 13 45 13 46 19 47 19 48 15 52 15 53
REMARK H PARENT 18 55 18 56 16 57 16 58 17 59 17 60
REMARK Flexibility Score: inf
ROOT
ATOM      1  C   UNL     1     -47.970  34.873  26.852  1.00  0.00    -0.027 A 
ATOM      2  C   UNL     1     -46.701  34.853  26.258  1.00  0.00    -0.057 A 
ATOM      3  C   UNL     1     -46.351  33.864  25.328  1.00  0.00    -0.052 A 
ATOM      4  C   UNL     1     -47.295  32.880  24.981  1.00  0.00    -0.000 A 
ATOM      5  C   UNL     1     -47.281  31.764  24.098  1.00  0.00    -0.032 A 
ATOM      6  C   UNL     1     -48.517  31.152  24.165  1.00  0.00     0.030 A 
ATOM      7  N   UNL     1     -49.273  31.864  25.066  1.00  0.00    -0.357 N 
ATOM      8  C   UNL     1     -48.555  32.921  25.574  1.00  0.00     0.046 A 
ATOM      9  C   UNL     1     -48.924  33.901  26.503  1.00  0.00    -0.033 A 
ATOM     10  H   UNL     1     -45.967  35.615  26.514  1.00  0.00     0.063 H 
ATOM     11  H   UNL     1     -45.363  33.861  24.881  1.00  0.00     0.063 H 
ATOM     12  H   UNL     1     -46.453  31.446  23.481  1.00  0.00     0.065 H 
ATOM     13  H   UNL     1     -50.236  31.645  25.289  1.00  0.00     0.166 HD
ATOM     14  H   UNL     1     -49.918  33.911  26.940  1.00  0.00     0.065 H 
ENDROOT
BRANCH   1  15
ATOM     15  C   UNL     1     -48.333  35.965  27.824  1.00  0.00     0.043 C 
ATOM     16  H   UNL     1     -48.434  35.567  28.840  1.00  0.00     0.054 H 
ATOM     17  H   UNL     1     -49.298  36.413  27.563  1.00  0.00     0.054 H 
BRANCH  15  18
ATOM     18  N   UNL     1     -47.330  36.996  27.833  1.00  0.00    -0.347 N 
ATOM     19  O   UNL     1     -46.525  36.528  29.930  1.00  0.00    -0.268 OA
ATOM     20  C   UNL     1     -46.487  37.186  28.898  1.00  0.00     0.270 C 
ATOM     21  H   UNL     1     -47.192  37.585  27.017  1.00  0.00     0.164 HD
BRANCH  20  22
ATOM     22  C   UNL     1     -45.498  38.300  28.659  1.00  0.00     0.136 A 
ATOM     23  C   UNL     1     -44.578  38.493  29.607  1.00  0.00     0.035 A 
ATOM     24  N   UNL     1     -45.599  39.039  27.501  1.00  0.00    -0.225 NA
ATOM     25  C   UNL     1     -43.597  39.567  29.416  1.00  0.00     0.258 A 
ATOM     26  H   UNL     1     -44.509  37.905  30.514  1.00  0.00     0.071 H 
ATOM     27  C   UNL     1     -44.729  39.988  27.336  1.00  0.00     0.140 A 
ATOM     28  O   UNL     1     -42.746  39.752  30.284  1.00  0.00    -0.269 OA
ATOM     29  N   UNL     1     -43.720  40.296  28.242  1.00  0.00    -0.268 N 
ATOM     30  C   UNL     1     -44.800  40.813  26.097  1.00  0.00    -0.019 A 
ATOM     31  C   UNL     1     -42.824  41.331  27.990  1.00  0.00     0.014 A 
ATOM     32  C   UNL     1     -43.916  41.798  25.899  1.00  0.00    -0.057 A 
ATOM     33  H   UNL     1     -45.583  40.580  25.387  1.00  0.00     0.066 H 
ATOM     34  C   UNL     1     -42.895  42.068  26.875  1.00  0.00    -0.045 A 
ATOM     35  H   UNL     1     -42.061  41.516  28.741  1.00  0.00     0.082 H 
ATOM     36  H   UNL     1     -43.952  42.410  25.003  1.00  0.00     0.062 H 
ATOM     37  H   UNL     1     -42.191  42.873  26.689  1.00  0.00     0.064 H 
ENDBRANCH  20  22
ENDBRANCH  15  18
ENDBRANCH   1  15
BRANCH   6  38
ATOM     38  C   UNL     1     -49.056  29.944  23.471  1.00  0.00     0.039 C 
ATOM     39  H   UNL     1     -49.865  29.505  24.067  1.00  0.00     0.050 H 
ATOM     40  H   UNL     1     -49.504  30.283  22.527  1.00  0.00     0.050 H 
BRANCH  38  41
ATOM     41  N   UNL     1     -47.982  28.985  23.171  1.00  0.00    -0.296 NA
ATOM     42  C   UNL     1     -47.056  28.849  24.312  1.00  0.00     0.005 C 
ATOM     43  C   UNL     1     -48.456  27.603  23.353  1.00  0.00     0.005 C 
ATOM     44  C   UNL     1     -47.737  27.517  24.723  1.00  0.00    -0.004 C 
ATOM     45  H   UNL     1     -46.013  28.742  23.988  1.00  0.00     0.044 H 
ATOM     46  H   UNL     1     -47.074  29.650  25.061  1.00  0.00     0.044 H 
ATOM     47  H   UNL     1     -49.542  27.455  23.371  1.00  0.00     0.044 H 
ATOM     48  H   UNL     1     -48.053  26.924  22.591  1.00  0.00     0.044 H 
ATOM     49  C   UNL     1     -46.808  26.308  24.902  1.00  0.00    -0.045 C 
ATOM     50  C   UNL     1     -48.625  27.590  25.978  1.00  0.00    -0.045 C 
ATOM     51  C   UNL     1     -46.895  25.995  26.391  1.00  0.00    -0.053 C 
ATOM     52  H   UNL     1     -45.778  26.501  24.588  1.00  0.00     0.027 H 
ATOM     53  H   UNL     1     -47.182  25.451  24.331  1.00  0.00     0.027 H 
ATOM     54  C   UNL     1     -48.352  26.280  26.712  1.00  0.00    -0.053 C 
ATOM     55  H   UNL     1     -49.689  27.698  25.747  1.00  0.00     0.027 H 
ATOM     56  H   UNL     1     -48.328  28.430  26.616  1.00  0.00     0.027 H 
ATOM     57  H   UNL     1     -46.244  26.669  26.960  1.00  0.00     0.027 H 
ATOM     58  H   UNL     1     -46.608  24.964  26.615  1.00  0.00     0.027 H 
ATOM     59  H   UNL     1     -48.989  25.482  26.309  1.00  0.00     0.027 H 
ATOM     60  H   UNL     1     -48.540  26.360  27.786  1.00  0.00     0.027 H 
ENDBRANCH  38  41
ENDBRANCH   6  38
TORSDOF 5
ENDMDL
MODEL 4
REMARK VINA RESULT:     -10.4      2.736     11.856
REMARK SMILES O=C(NCc1ccc2cc(CN3CC4(CCCC4)C3)[nH]c2c1)c1cc(=O)n2ccccc2n1
REMARK SMILES IDX 5 1 6 2 7 3 8 4 9 5 10 6 20 7 21 8 22 9 4 15 3 18 1 19 2 20
REMARK SMILES IDX 23 22 24 23 33 24 25 25 32 27 26 28 27 29 31 30 28 31 30 32
REMARK SMILES IDX 29 34 11 38 12 41 13 42 19 43 14 44 15 49 18 50 16 51 17 54
REMARK H PARENT 6 10 7 11 9 12 20 13 22 14 4 16 4 17 3 21 24 26 31 33 28 35
REMARK H PARENT 30 36 29 37 11 39 11 40 13 45 13 46 19 47 19 48 15 52 15 53
REMARK H PARENT 18 55 18 56 16 57 16 58 17 59 17 60
REMARK Flexibility Score: inf
ROOT
ATOM      1  C   UNL     1     -47.951  34.464  26.714  1.00  0.00    -0.027 A 
ATOM      2  C   UNL     1     -46.805  33.889  27.278  1.00  0.00    -0.057 A 
ATOM      3  C   UNL     1     -45.763  34.685  27.774  1.00  0.00    -0.052 A 
ATOM      4  C   UNL     1     -45.876  36.086  27.712  1.00  0.00    -0.000 A 
ATOM      5  C   UNL     1     -45.039  37.165  28.112  1.00  0.00    -0.032 A 
ATOM      6  C   UNL     1     -45.685  38.345  27.800  1.00  0.00     0.030 A 
ATOM      7  N   UNL     1     -46.885  38.007  27.220  1.00  0.00    -0.357 N 
ATOM      8  C   UNL     1     -47.027  36.641  27.156  1.00  0.00     0.046 A 
ATOM      9  C   UNL     1     -48.079  35.864  26.657  1.00  0.00    -0.033 A 
ATOM     10  H   UNL     1     -46.712  32.806  27.338  1.00  0.00     0.063 H 
ATOM     11  H   UNL     1     -44.881  34.222  28.204  1.00  0.00     0.063 H 
ATOM     12  H   UNL     1     -44.067  37.082  28.578  1.00  0.00     0.065 H 
ATOM     13  H   UNL     1     -47.572  38.685  26.914  1.00  0.00     0.166 HD
ATOM     14  H   UNL     1     -48.968  36.328  26.239  1.00  0.00     0.065 H 
ENDROOT
BRANCH   1  15
ATOM     15  C   UNL     1     -49.071  33.589  26.217  1.00  0.00     0.043 C 
ATOM     16  H   UNL     1     -49.488  33.980  25.281  1.00  0.00     0.054 H 
ATOM     17  H   UNL     1     -49.893  33.559  26.941  1.00  0.00     0.054 H 
BRANCH  15  18
ATOM     18  N   UNL     1     -48.607  32.248  25.985  1.00  0.00    -0.347 N 
ATOM     19  O   UNL     1     -50.101  31.761  24.314  1.00  0.00    -0.268 OA
ATOM     20  C   UNL     1     -49.161  31.437  25.028  1.00  0.00     0.270 C 
ATOM     21  H   UNL     1     -47.814  31.882  26.504  1.00  0.00     0.164 HD
BRANCH  20  22
ATOM     22  C   UNL     1     -48.483  30.092  24.948  1.00  0.00     0.136 A 
ATOM     23  C   UNL     1     -47.549  29.952  24.004  1.00  0.00     0.035 A 
ATOM     24  N   UNL     1     -48.857  29.106  25.833  1.00  0.00    -0.225 NA
ATOM     25  C   UNL     1     -46.864  28.658  23.890  1.00  0.00     0.258 A 
ATOM     26  H   UNL     1     -47.263  30.734  23.313  1.00  0.00     0.071 H 
ATOM     27  C   UNL     1     -48.249  27.965  25.730  1.00  0.00     0.140 A 
ATOM     28  O   UNL     1     -46.002  28.520  23.024  1.00  0.00    -0.269 OA
ATOM     29  N   UNL     1     -47.259  27.683  24.794  1.00  0.00    -0.268 N 
ATOM     30  C   UNL     1     -48.623  26.869  26.668  1.00  0.00    -0.019 A 
ATOM     31  C   UNL     1     -46.655  26.431  24.748  1.00  0.00     0.014 A 
ATOM     32  C   UNL     1     -48.012  25.681  26.585  1.00  0.00    -0.057 A 
ATOM     33  H   UNL     1     -49.393  27.079  27.400  1.00  0.00     0.066 H 
ATOM     34  C   UNL     1     -46.995  25.451  25.594  1.00  0.00    -0.045 A 
ATOM     35  H   UNL     1     -45.889  26.281  23.991  1.00  0.00     0.082 H 
ATOM     36  H   UNL     1     -48.271  24.870  27.259  1.00  0.00     0.062 H 
ATOM     37  H   UNL     1     -46.517  24.479  25.549  1.00  0.00     0.064 H 
ENDBRANCH  20  22
ENDBRANCH  15  18
ENDBRANCH   1  15
BRANCH   6  38
ATOM     38  C   UNL     1     -45.274  39.769  27.981  1.00  0.00     0.039 C 
ATOM     39  H   UNL     1     -45.949  40.423  27.414  1.00  0.00     0.050 H 
ATOM     40  H   UNL     1     -45.410  40.015  29.042  1.00  0.00     0.050 H 
BRANCH  38  41
ATOM     41  N   UNL     1     -43.860  39.960  27.625  1.00  0.00    -0.296 NA
ATOM     42  C   UNL     1     -43.722  40.488  26.254  1.00  0.00     0.005 C 
ATOM     43  C   UNL     1     -43.349  41.219  28.194  1.00  0.00     0.005 C 
ATOM     44  C   UNL     1     -43.474  41.914  26.814  1.00  0.00    -0.004 C 
ATOM     45  H   UNL     1     -42.863  40.054  25.729  1.00  0.00     0.044 H 
ATOM     46  H   UNL     1     -44.588  40.375  25.592  1.00  0.00     0.044 H 
ATOM     47  H   UNL     1     -43.931  41.661  29.009  1.00  0.00     0.044 H 
ATOM     48  H   UNL     1     -42.316  41.120  28.554  1.00  0.00     0.044 H 
ATOM     49  C   UNL     1     -42.208  42.626  26.320  1.00  0.00    -0.045 C 
ATOM     50  C   UNL     1     -44.641  42.902  26.641  1.00  0.00    -0.045 C 
ATOM     51  C   UNL     1     -42.739  43.800  25.508  1.00  0.00    -0.053 C 
ATOM     52  H   UNL     1     -41.553  41.983  25.723  1.00  0.00     0.027 H 
ATOM     53  H   UNL     1     -41.627  43.006  27.168  1.00  0.00     0.027 H 
ATOM     54  C   UNL     1     -43.967  44.227  26.294  1.00  0.00    -0.053 C 
ATOM     55  H   UNL     1     -45.261  42.999  27.536  1.00  0.00     0.027 H 
ATOM     56  H   UNL     1     -45.288  42.598  25.810  1.00  0.00     0.027 H 
ATOM     57  H   UNL     1     -43.029  43.468  24.504  1.00  0.00     0.027 H 
ATOM     58  H   UNL     1     -42.003  44.602  25.408  1.00  0.00     0.027 H 
ATOM     59  H   UNL     1     -43.664  44.748  27.211  1.00  0.00     0.027 H 
ATOM     60  H   UNL     1     -44.624  44.889  25.724  1.00  0.00     0.027 H 
ENDBRANCH  38  41
ENDBRANCH   6  38
TORSDOF 5
ENDMDL
MODEL 5
REMARK VINA RESULT:     -10.3      1.649      2.333
REMARK SMILES O=C(NCc1ccc2cc(CN3CC4(CCCC4)C3)[nH]c2c1)c1cc(=O)n2ccccc2n1
REMARK SMILES IDX 5 1 6 2 7 3 8 4 9 5 10 6 20 7 21 8 22 9 4 15 3 18 1 19 2 20
REMARK SMILES IDX 23 22 24 23 33 24 25 25 32 27 26 28 27 29 31 30 28 31 30 32
REMARK SMILES IDX 29 34 11 38 12 41 13 42 19 43 14 44 15 49 18 50 16 51 17 54
REMARK H PARENT 6 10 7 11 9 12 20 13 22 14 4 16 4 17 3 21 24 26 31 33 28 35
REMARK H PARENT 30 36 29 37 11 39 11 40 13 45 13 46 19 47 19 48 15 52 15 53
REMARK H PARENT 18 55 18 56 16 57 16 58 17 59 17 60
REMARK Flexibility Score: inf
ROOT
ATOM      1  C   UNL     1     -47.854  35.238  27.039  1.00  0.00    -0.027 A 
ATOM      2  C   UNL     1     -46.511  35.137  26.654  1.00  0.00    -0.057 A 
ATOM      3  C   UNL     1     -46.064  34.080  25.849  1.00  0.00    -0.052 A 
ATOM      4  C   UNL     1     -46.985  33.109  25.414  1.00  0.00    -0.000 A 
ATOM      5  C   UNL     1     -46.883  31.940  24.610  1.00  0.00    -0.032 A 
ATOM      6  C   UNL     1     -48.140  31.375  24.516  1.00  0.00     0.030 A 
ATOM      7  N   UNL     1     -48.995  32.169  25.244  1.00  0.00    -0.357 N 
ATOM      8  C   UNL     1     -48.319  33.230  25.799  1.00  0.00     0.046 A 
ATOM      9  C   UNL     1     -48.784  34.279  26.600  1.00  0.00    -0.033 A 
ATOM     10  H   UNL     1     -45.792  35.888  26.979  1.00  0.00     0.063 H 
ATOM     11  H   UNL     1     -45.019  34.015  25.564  1.00  0.00     0.063 H 
ATOM     12  H   UNL     1     -45.983  31.556  24.150  1.00  0.00     0.065 H 
ATOM     13  H   UNL     1     -49.988  31.997  25.326  1.00  0.00     0.166 HD
ATOM     14  H   UNL     1     -49.833  34.351  26.874  1.00  0.00     0.065 H 
ENDROOT
BRANCH   1  15
ATOM     15  C   UNL     1     -48.316  36.401  27.878  1.00  0.00     0.043 C 
ATOM     16  H   UNL     1     -48.094  36.231  28.938  1.00  0.00     0.054 H 
ATOM     17  H   UNL     1     -49.401  36.532  27.799  1.00  0.00     0.054 H 
BRANCH  15  18
ATOM     18  N   UNL     1     -47.670  37.618  27.464  1.00  0.00    -0.347 N 
ATOM     19  O   UNL     1     -46.423  37.888  29.371  1.00  0.00    -0.268 OA
ATOM     20  C   UNL     1     -46.752  38.263  28.253  1.00  0.00     0.270 C 
ATOM     21  H   UNL     1     -47.849  38.006  26.543  1.00  0.00     0.164 HD
BRANCH  20  22
ATOM     22  C   UNL     1     -46.186  39.494  27.590  1.00  0.00     0.136 A 
ATOM     23  C   UNL     1     -44.863  39.519  27.412  1.00  0.00     0.035 A 
ATOM     24  N   UNL     1     -47.048  40.501  27.214  1.00  0.00    -0.225 NA
ATOM     25  C   UNL     1     -44.270  40.700  26.771  1.00  0.00     0.258 A 
ATOM     26  H   UNL     1     -44.196  38.722  27.712  1.00  0.00     0.071 H 
ATOM     27  C   UNL     1     -46.519  41.541  26.647  1.00  0.00     0.140 A 
ATOM     28  O   UNL     1     -43.052  40.731  26.603  1.00  0.00    -0.269 OA
ATOM     29  N   UNL     1     -45.159  41.698  26.402  1.00  0.00    -0.268 N 
ATOM     30  C   UNL     1     -47.414  42.655  26.224  1.00  0.00    -0.019 A 
ATOM     31  C   UNL     1     -44.672  42.847  25.788  1.00  0.00     0.014 A 
ATOM     32  C   UNL     1     -46.898  43.741  25.637  1.00  0.00    -0.057 A 
ATOM     33  H   UNL     1     -48.475  42.542  26.412  1.00  0.00     0.066 H 
ATOM     34  C   UNL     1     -45.482  43.844  25.411  1.00  0.00    -0.045 A 
ATOM     35  H   UNL     1     -43.598  42.902  25.627  1.00  0.00     0.082 H 
ATOM     36  H   UNL     1     -47.534  44.563  25.322  1.00  0.00     0.062 H 
ATOM     37  H   UNL     1     -45.090  44.736  24.932  1.00  0.00     0.064 H 
ENDBRANCH  20  22
ENDBRANCH  15  18
ENDBRANCH   1  15
BRANCH   6  38
ATOM     38  C   UNL     1     -48.616  30.145  23.816  1.00  0.00     0.039 C 
ATOM     39  H   UNL     1     -49.160  30.425  22.905  1.00  0.00     0.050 H 
ATOM     40  H   UNL     1     -47.727  29.587  23.495  1.00  0.00     0.050 H 
BRANCH  38  41
ATOM     41  N   UNL     1     -49.410  29.298  24.719  1.00  0.00    -0.296 NA
ATOM     42  C   UNL     1     -49.429  27.897  24.256  1.00  0.00     0.005 C 
ATOM     43  C   UNL     1     -48.620  28.926  25.905  1.00  0.00     0.005 C 
ATOM     44  C   UNL     1     -48.356  27.519  25.311  1.00  0.00    -0.004 C 
ATOM     45  H   UNL     1     -50.405  27.423  24.414  1.00  0.00     0.044 H 
ATOM     46  H   UNL     1     -49.157  27.720  23.209  1.00  0.00     0.044 H 
ATOM     47  H   UNL     1     -47.732  29.533  26.114  1.00  0.00     0.044 H 
ATOM     48  H   UNL     1     -49.226  28.919  26.820  1.00  0.00     0.044 H 
ATOM     49  C   UNL     1     -48.698  26.342  26.234  1.00  0.00    -0.045 C 
ATOM     50  C   UNL     1     -46.946  27.257  24.753  1.00  0.00    -0.045 C 
ATOM     51  C   UNL     1     -47.685  25.269  25.852  1.00  0.00    -0.053 C 
ATOM     52  H   UNL     1     -49.726  25.987  26.122  1.00  0.00     0.027 H 
ATOM     53  H   UNL     1     -48.548  26.622  27.283  1.00  0.00     0.027 H 
ATOM     54  C   UNL     1     -46.430  26.075  25.569  1.00  0.00    -0.053 C 
ATOM     55  H   UNL     1     -46.279  28.119  24.843  1.00  0.00     0.027 H 
ATOM     56  H   UNL     1     -46.993  26.972  23.695  1.00  0.00     0.027 H 
ATOM     57  H   UNL     1     -48.011  24.744  24.945  1.00  0.00     0.027 H 
ATOM     58  H   UNL     1     -47.543  24.532  26.646  1.00  0.00     0.027 H 
ATOM     59  H   UNL     1     -45.989  26.429  26.509  1.00  0.00     0.027 H 
ATOM     60  H   UNL     1     -45.671  25.499  25.030  1.00  0.00     0.027 H 
ENDBRANCH  38  41
ENDBRANCH   6  38
TORSDOF 5
ENDMDL
MODEL 6
REMARK VINA RESULT:     -10.2      2.079      3.187
REMARK SMILES O=C(NCc1ccc2cc(CN3CC4(CCCC4)C3)[nH]c2c1)c1cc(=O)n2ccccc2n1
REMARK SMILES IDX 5 1 6 2 7 3 8 4 9 5 10 6 20 7 21 8 22 9 4 15 3 18 1 19 2 20
REMARK SMILES IDX 23 22 24 23 33 24 25 25 32 27 26 28 27 29 31 30 28 31 30 32
REMARK SMILES IDX 29 34 11 38 12 41 13 42 19 43 14 44 15 49 18 50 16 51 17 54
REMARK H PARENT 6 10 7 11 9 12 20 13 22 14 4 16 4 17 3 21 24 26 31 33 28 35
REMARK H PARENT 30 36 29 37 11 39 11 40 13 45 13 46 19 47 19 48 15 52 15 53
REMARK H PARENT 18 55 18 56 16 57 16 58 17 59 17 60
REMARK Flexibility Score: inf
ROOT
ATOM      1  C   UNL     1     -46.280  35.384  27.596  1.00  0.00    -0.027 A 
ATOM      2  C   UNL     1     -47.673  35.501  27.510  1.00  0.00    -0.057 A 
ATOM      3  C   UNL     1     -48.427  34.629  26.713  1.00  0.00    -0.052 A 
ATOM      4  C   UNL     1     -47.771  33.613  25.993  1.00  0.00    -0.000 A 
ATOM      5  C   UNL     1     -48.209  32.582  25.116  1.00  0.00    -0.032 A 
ATOM      6  C   UNL     1     -47.099  31.870  24.706  1.00  0.00     0.030 A 
ATOM      7  N   UNL     1     -46.004  32.445  25.309  1.00  0.00    -0.357 N 
ATOM      8  C   UNL     1     -46.386  33.505  26.098  1.00  0.00     0.046 A 
ATOM      9  C   UNL     1     -45.616  34.365  26.890  1.00  0.00    -0.033 A 
ATOM     10  H   UNL     1     -48.191  36.279  28.070  1.00  0.00     0.063 H 
ATOM     11  H   UNL     1     -49.505  34.736  26.655  1.00  0.00     0.063 H 
ATOM     12  H   UNL     1     -49.229  32.385  24.818  1.00  0.00     0.065 H 
ATOM     13  H   UNL     1     -45.058  32.104  25.199  1.00  0.00     0.166 HD
ATOM     14  H   UNL     1     -44.538  34.248  26.958  1.00  0.00     0.065 H 
ENDROOT
BRANCH   1  15
ATOM     15  C   UNL     1     -45.496  36.313  28.485  1.00  0.00     0.043 C 
ATOM     16  H   UNL     1     -44.496  35.910  28.687  1.00  0.00     0.054 H 
ATOM     17  H   UNL     1     -45.989  36.433  29.456  1.00  0.00     0.054 H 
BRANCH  15  18
ATOM     18  N   UNL     1     -45.353  37.607  27.873  1.00  0.00    -0.347 N 
ATOM     19  O   UNL     1     -44.477  38.650  29.719  1.00  0.00    -0.268 OA
ATOM     20  C   UNL     1     -44.835  38.682  28.549  1.00  0.00     0.270 C 
ATOM     21  H   UNL     1     -45.596  37.742  26.897  1.00  0.00     0.164 HD
BRANCH  20  22
ATOM     22  C   UNL     1     -44.751  39.918  27.688  1.00  0.00     0.136 A 
ATOM     23  C   UNL     1     -45.897  40.354  27.160  1.00  0.00     0.035 A 
ATOM     24  N   UNL     1     -43.524  40.514  27.501  1.00  0.00    -0.225 NA
ATOM     25  C   UNL     1     -45.861  41.554  26.315  1.00  0.00     0.258 A 
ATOM     26  H   UNL     1     -46.857  39.877  27.313  1.00  0.00     0.071 H 
ATOM     27  C   UNL     1     -43.497  41.575  26.755  1.00  0.00     0.140 A 
ATOM     28  O   UNL     1     -46.912  41.963  25.824  1.00  0.00    -0.269 OA
ATOM     29  N   UNL     1     -44.614  42.135  26.143  1.00  0.00    -0.268 N 
ATOM     30  C   UNL     1     -42.190  42.252  26.525  1.00  0.00    -0.019 A 
ATOM     31  C   UNL     1     -44.500  43.276  25.356  1.00  0.00     0.014 A 
ATOM     32  C   UNL     1     -42.131  43.349  25.759  1.00  0.00    -0.057 A 
ATOM     33  H   UNL     1     -41.315  41.823  26.997  1.00  0.00     0.066 H 
ATOM     34  C   UNL     1     -43.322  43.880  25.154  1.00  0.00    -0.045 A 
ATOM     35  H   UNL     1     -45.414  43.660  24.909  1.00  0.00     0.082 H 
ATOM     36  H   UNL     1     -41.188  43.856  25.580  1.00  0.00     0.062 H 
ATOM     37  H   UNL     1     -43.246  44.770  24.538  1.00  0.00     0.064 H 
ENDBRANCH  20  22
ENDBRANCH  15  18
ENDBRANCH   1  15
BRANCH   6  38
ATOM     38  C   UNL     1     -46.963  30.702  23.785  1.00  0.00     0.039 C 
ATOM     39  H   UNL     1     -47.239  31.001  22.767  1.00  0.00     0.050 H 
ATOM     40  H   UNL     1     -45.900  30.429  23.759  1.00  0.00     0.050 H 
BRANCH  38  41
ATOM     41  N   UNL     1     -47.738  29.552  24.274  1.00  0.00    -0.296 NA
ATOM     42  C   UNL     1     -49.150  29.643  23.854  1.00  0.00     0.005 C 
ATOM     43  C   UNL     1     -47.525  28.379  23.409  1.00  0.00     0.005 C 
ATOM     44  C   UNL     1     -48.892  28.619  22.717  1.00  0.00    -0.004 C 
ATOM     45  H   UNL     1     -49.837  29.290  24.632  1.00  0.00     0.044 H 
ATOM     46  H   UNL     1     -49.508  30.630  23.539  1.00  0.00     0.044 H 
ATOM     47  H   UNL     1     -46.646  28.404  22.756  1.00  0.00     0.044 H 
ATOM     48  H   UNL     1     -47.471  27.446  23.984  1.00  0.00     0.044 H 
ATOM     49  C   UNL     1     -49.828  27.404  22.674  1.00  0.00    -0.045 C 
ATOM     50  C   UNL     1     -48.854  29.206  21.295  1.00  0.00    -0.045 C 
ATOM     51  C   UNL     1     -50.606  27.584  21.377  1.00  0.00    -0.053 C 
ATOM     52  H   UNL     1     -50.493  27.337  23.540  1.00  0.00     0.027 H 
ATOM     53  H   UNL     1     -49.247  26.475  22.621  1.00  0.00     0.027 H 
ATOM     54  C   UNL     1     -49.564  28.164  20.436  1.00  0.00    -0.053 C 
ATOM     55  H   UNL     1     -47.840  29.392  20.932  1.00  0.00     0.027 H 
ATOM     56  H   UNL     1     -49.410  30.150  21.250  1.00  0.00     0.027 H 
ATOM     57  H   UNL     1     -51.425  28.299  21.521  1.00  0.00     0.027 H 
ATOM     58  H   UNL     1     -51.027  26.644  21.012  1.00  0.00     0.027 H 
ATOM     59  H   UNL     1     -48.857  27.382  20.130  1.00  0.00     0.027 H 
ATOM     60  H   UNL     1     -50.005  28.600  19.535  1.00  0.00     0.027 H 
ENDBRANCH  38  41
ENDBRANCH   6  38
TORSDOF 5
ENDMDL
MODEL 7
REMARK VINA RESULT:     -10.1      2.105      3.425
REMARK SMILES O=C(NCc1ccc2cc(CN3CC4(CCCC4)C3)[nH]c2c1)c1cc(=O)n2ccccc2n1
REMARK SMILES IDX 5 1 6 2 7 3 8 4 9 5 10 6 20 7 21 8 22 9 4 15 3 18 1 19 2 20
REMARK SMILES IDX 23 22 24 23 33 24 25 25 32 27 26 28 27 29 31 30 28 31 30 32
REMARK SMILES IDX 29 34 11 38 12 41 13 42 19 43 14 44 15 49 18 50 16 51 17 54
REMARK H PARENT 6 10 7 11 9 12 20 13 22 14 4 16 4 17 3 21 24 26 31 33 28 35
REMARK H PARENT 30 36 29 37 11 39 11 40 13 45 13 46 19 47 19 48 15 52 15 53
REMARK H PARENT 18 55 18 56 16 57 16 58 17 59 17 60
REMARK Flexibility Score: inf
ROOT
ATOM      1  C   UNL     1     -47.687  35.392  26.861  1.00  0.00    -0.027 A 
ATOM      2  C   UNL     1     -46.391  35.156  26.384  1.00  0.00    -0.057 A 
ATOM      3  C   UNL     1     -46.074  33.975  25.700  1.00  0.00    -0.052 A 
ATOM      4  C   UNL     1     -47.079  33.015  25.481  1.00  0.00    -0.000 A 
ATOM      5  C   UNL     1     -47.110  31.744  24.841  1.00  0.00    -0.032 A 
ATOM      6  C   UNL     1     -48.398  31.253  24.930  1.00  0.00     0.030 A 
ATOM      7  N   UNL     1     -49.141  32.189  25.609  1.00  0.00    -0.357 N 
ATOM      8  C   UNL     1     -48.365  33.270  25.953  1.00  0.00     0.046 A 
ATOM      9  C   UNL     1     -48.701  34.444  26.637  1.00  0.00    -0.033 A 
ATOM     10  H   UNL     1     -45.609  35.897  26.542  1.00  0.00     0.063 H 
ATOM     11  H   UNL     1     -45.064  33.806  25.341  1.00  0.00     0.063 H 
ATOM     12  H   UNL     1     -46.276  31.246  24.366  1.00  0.00     0.065 H 
ATOM     13  H   UNL     1     -50.131  32.093  25.795  1.00  0.00     0.166 HD
ATOM     14  H   UNL     1     -49.716  34.618  26.984  1.00  0.00     0.065 H 
ENDROOT
BRANCH   1  15
ATOM     15  C   UNL     1     -48.011  36.684  27.565  1.00  0.00     0.043 C 
ATOM     16  H   UNL     1     -48.224  36.508  28.626  1.00  0.00     0.054 H 
ATOM     17  H   UNL     1     -48.906  37.148  27.136  1.00  0.00     0.054 H 
BRANCH  15  18
ATOM     18  N   UNL     1     -46.914  37.609  27.465  1.00  0.00    -0.347 N 
ATOM     19  O   UNL     1     -48.131  39.481  27.995  1.00  0.00    -0.268 OA
ATOM     20  C   UNL     1     -47.066  38.951  27.706  1.00  0.00     0.270 C 
ATOM     21  H   UNL     1     -45.978  37.275  27.256  1.00  0.00     0.164 HD
BRANCH  20  22
ATOM     22  C   UNL     1     -45.769  39.710  27.575  1.00  0.00     0.136 A 
ATOM     23  C   UNL     1     -45.594  40.401  26.446  1.00  0.00     0.035 A 
ATOM     24  N   UNL     1     -44.858  39.650  28.606  1.00  0.00    -0.225 NA
ATOM     25  C   UNL     1     -44.345  41.153  26.277  1.00  0.00     0.258 A 
ATOM     26  H   UNL     1     -46.317  40.441  25.641  1.00  0.00     0.071 H 
ATOM     27  C   UNL     1     -43.756  40.317  28.454  1.00  0.00     0.140 A 
ATOM     28  O   UNL     1     -44.176  41.793  25.240  1.00  0.00    -0.269 OA
ATOM     29  N   UNL     1     -43.446  41.076  27.330  1.00  0.00    -0.268 N 
ATOM     30  C   UNL     1     -42.743  40.280  29.545  1.00  0.00    -0.019 A 
ATOM     31  C   UNL     1     -42.240  41.765  27.244  1.00  0.00     0.014 A 
ATOM     32  C   UNL     1     -41.596  40.959  29.416  1.00  0.00    -0.057 A 
ATOM     33  H   UNL     1     -42.976  39.691  30.423  1.00  0.00     0.066 H 
ATOM     34  C   UNL     1     -41.334  41.727  28.228  1.00  0.00    -0.045 A 
ATOM     35  H   UNL     1     -42.064  42.338  26.337  1.00  0.00     0.082 H 
ATOM     36  H   UNL     1     -40.845  40.944  30.200  1.00  0.00     0.062 H 
ATOM     37  H   UNL     1     -40.396  42.268  28.150  1.00  0.00     0.064 H 
ENDBRANCH  20  22
ENDBRANCH  15  18
ENDBRANCH   1  15
BRANCH   6  38
ATOM     38  C   UNL     1     -48.998  29.972  24.449  1.00  0.00     0.039 C 
ATOM     39  H   UNL     1     -48.616  29.137  25.049  1.00  0.00     0.050 H 
ATOM     40  H   UNL     1     -50.078  30.029  24.635  1.00  0.00     0.050 H 
BRANCH  38  41
ATOM     41  N   UNL     1     -48.772  29.793  23.007  1.00  0.00    -0.296 NA
ATOM     42  C   UNL     1     -49.942  29.170  22.358  1.00  0.00     0.005 C 
ATOM     43  C   UNL     1     -49.006  31.055  22.286  1.00  0.00     0.005 C 
ATOM     44  C   UNL     1     -50.397  30.553  21.822  1.00  0.00    -0.004 C 
ATOM     45  H   UNL     1     -49.651  28.457  21.578  1.00  0.00     0.044 H 
ATOM     46  H   UNL     1     -50.652  28.651  23.013  1.00  0.00     0.044 H 
ATOM     47  H   UNL     1     -49.002  31.972  22.887  1.00  0.00     0.044 H 
ATOM     48  H   UNL     1     -48.288  31.204  21.470  1.00  0.00     0.044 H 
ATOM     49  C   UNL     1     -50.657  30.643  20.312  1.00  0.00    -0.045 C 
ATOM     50  C   UNL     1     -51.623  31.163  22.525  1.00  0.00    -0.045 C 
ATOM     51  C   UNL     1     -52.156  30.898  20.211  1.00  0.00    -0.053 C 
ATOM     52  H   UNL     1     -50.361  29.742  19.766  1.00  0.00     0.027 H 
ATOM     53  H   UNL     1     -50.117  31.493  19.881  1.00  0.00     0.027 H 
ATOM     54  C   UNL     1     -52.424  31.807  21.397  1.00  0.00    -0.053 C 
ATOM     55  H   UNL     1     -51.360  31.897  23.291  1.00  0.00     0.027 H 
ATOM     56  H   UNL     1     -52.229  30.380  22.997  1.00  0.00     0.027 H 
ATOM     57  H   UNL     1     -52.710  29.958  20.322  1.00  0.00     0.027 H 
ATOM     58  H   UNL     1     -52.436  31.354  19.258  1.00  0.00     0.027 H 
ATOM     59  H   UNL     1     -52.043  32.816  21.192  1.00  0.00     0.027 H 
ATOM     60  H   UNL     1     -53.488  31.885  21.637  1.00  0.00     0.027 H 
ENDBRANCH  38  41
ENDBRANCH   6  38
TORSDOF 5
ENDMDL
