MODEL 1
REMARK VINA RESULT:     -10.9      0.000      0.000
REMARK SMILES Cn1ccc(-c2cn(-c3cncc(COc4ccc5ccc(N6CCCC6=O)nc5c4)c3)c3ncnc(N)c23)n1
REMARK SMILES IDX 9 1 10 2 11 3 12 4 13 5 32 6 8 10 6 11 7 12 39 13 33 15
REMARK SMILES IDX 37 16 34 17 36 18 35 19 5 21 2 22 3 23 40 24 4 25 1 28 38 32
REMARK SMILES IDX 14 35 15 38 16 39 17 40 31 41 18 42 30 44 19 46 29 48 20 49
REMARK SMILES IDX 22 50 21 51 23 54 24 55 27 56 25 57 26 60 28 61
REMARK H PARENT 10 7 12 8 32 9 7 14 35 20 3 26 4 27 1 29 1 30 1 31 38 33 38 34
REMARK H PARENT 14 36 14 37 17 43 31 45 18 47 20 52 21 53 24 58 24 59 25 62
REMARK H PARENT 25 63 26 64 26 65
REMARK Flexibility Score: inf
ROOT
ATOM      1  C   UNL     1     -45.354  38.100  28.667  1.00  0.00     0.066 A 
ATOM      2  C   UNL     1     -45.947  37.985  29.920  1.00  0.00     0.051 A 
ATOM      3  N   UNL     1     -46.441  36.825  30.430  1.00  0.00    -0.262 NA
ATOM      4  C   UNL     1     -46.336  35.722  29.663  1.00  0.00     0.034 A 
ATOM      5  C   UNL     1     -45.759  35.708  28.403  1.00  0.00     0.010 A 
ATOM      6  C   UNL     1     -45.272  36.926  27.902  1.00  0.00    -0.028 A 
ATOM      7  H   UNL     1     -46.058  38.813  30.609  1.00  0.00     0.086 H 
ATOM      8  H   UNL     1     -46.748  34.821  30.112  1.00  0.00     0.084 H 
ATOM      9  H   UNL     1     -44.838  36.918  26.907  1.00  0.00     0.065 H 
ENDROOT
BRANCH   1  10
ATOM     10  N   UNL     1     -44.847  39.345  28.172  1.00  0.00    -0.299 N 
ATOM     11  C   UNL     1     -44.666  41.212  26.918  1.00  0.00     0.033 A 
ATOM     12  C   UNL     1     -45.383  40.052  27.111  1.00  0.00     0.021 A 
ATOM     13  C   UNL     1     -43.599  41.224  27.852  1.00  0.00     0.071 A 
ATOM     14  H   UNL     1     -46.238  39.701  26.554  1.00  0.00     0.083 H 
ATOM     15  C   UNL     1     -43.751  40.079  28.638  1.00  0.00     0.150 A 
ATOM     16  C   UNL     1     -42.499  42.048  28.144  1.00  0.00     0.137 A 
ATOM     17  N   UNL     1     -42.956  39.750  29.675  1.00  0.00    -0.218 NA
ATOM     18  N   UNL     1     -41.695  41.734  29.175  1.00  0.00    -0.219 NA
ATOM     19  C   UNL     1     -41.968  40.628  29.881  1.00  0.00     0.120 A 
ATOM     20  H   UNL     1     -41.302  40.416  30.711  1.00  0.00     0.106 H 
BRANCH  11  21
ATOM     21  C   UNL     1     -44.972  42.224  25.911  1.00  0.00     0.095 A 
ATOM     22  N   UNL     1     -44.830  43.407  24.168  1.00  0.00    -0.275 N 
ATOM     23  C   UNL     1     -46.005  43.789  24.744  1.00  0.00     0.025 A 
ATOM     24  N   UNL     1     -44.183  42.448  24.855  1.00  0.00    -0.173 NA
ATOM     25  C   UNL     1     -46.135  43.023  25.880  1.00  0.00    -0.016 A 
ATOM     26  H   UNL     1     -46.643  44.543  24.306  1.00  0.00     0.084 H 
ATOM     27  H   UNL     1     -46.957  43.037  26.583  1.00  0.00     0.066 H 
BRANCH  22  28
ATOM     28  C   UNL     1     -44.257  43.913  22.944  1.00  0.00     0.030 C 
ATOM     29  H   UNL     1     -43.861  44.913  23.137  1.00  0.00     0.048 H 
ATOM     30  H   UNL     1     -45.042  43.949  22.185  1.00  0.00     0.048 H 
ATOM     31  H   UNL     1     -43.452  43.250  22.618  1.00  0.00     0.048 H 
ENDBRANCH  22  28
ENDBRANCH  11  21
BRANCH  16  32
ATOM     32  N   UNL     1     -42.137  43.175  27.415  1.00  0.00    -0.383 N 
ATOM     33  H   UNL     1     -42.793  43.941  27.497  1.00  0.00     0.158 HD
ATOM     34  H   UNL     1     -41.910  42.903  26.464  1.00  0.00     0.158 HD
ENDBRANCH  16  32
ENDBRANCH   1  10
BRANCH   5  35
ATOM     35  C   UNL     1     -45.719  34.443  27.588  1.00  0.00     0.115 C 
ATOM     36  H   UNL     1     -44.882  34.485  26.879  1.00  0.00     0.076 H 
ATOM     37  H   UNL     1     -45.584  33.599  28.276  1.00  0.00     0.076 H 
BRANCH  35  38
ATOM     38  O   UNL     1     -46.944  34.314  26.866  1.00  0.00    -0.489 OA
BRANCH  38  39
ATOM     39  C   UNL     1     -47.081  33.220  26.055  1.00  0.00     0.122 A 
ATOM     40  C   UNL     1     -46.396  33.307  24.845  1.00  0.00    -0.019 A 
ATOM     41  C   UNL     1     -47.825  32.073  26.339  1.00  0.00     0.007 A 
ATOM     42  C   UNL     1     -46.455  32.259  23.929  1.00  0.00    -0.049 A 
ATOM     43  H   UNL     1     -45.812  34.196  24.614  1.00  0.00     0.066 H 
ATOM     44  C   UNL     1     -47.901  31.012  25.442  1.00  0.00     0.076 A 
ATOM     45  H   UNL     1     -48.372  31.966  27.269  1.00  0.00     0.069 H 
ATOM     46  C   UNL     1     -47.206  31.112  24.224  1.00  0.00     0.001 A 
ATOM     47  H   UNL     1     -45.914  32.344  22.988  1.00  0.00     0.063 H 
ATOM     48  N   UNL     1     -48.632  29.931  25.765  1.00  0.00    -0.230 NA
ATOM     49  C   UNL     1     -47.293  30.038  23.337  1.00  0.00    -0.049 A 
ATOM     50  C   UNL     1     -48.714  28.892  24.895  1.00  0.00     0.135 A 
ATOM     51  C   UNL     1     -48.051  28.920  23.676  1.00  0.00    -0.018 A 
ATOM     52  H   UNL     1     -46.774  30.058  22.382  1.00  0.00     0.063 H 
ATOM     53  H   UNL     1     -48.098  28.097  22.972  1.00  0.00     0.066 H 
BRANCH  50  54
ATOM     54  N   UNL     1     -49.497  27.793  25.299  1.00  0.00    -0.297 N 
ATOM     55  C   UNL     1     -48.959  26.807  26.204  1.00  0.00     0.028 C 
ATOM     56  C   UNL     1     -50.846  27.567  25.037  1.00  0.00     0.228 C 
ATOM     57  C   UNL     1     -49.926  25.647  26.090  1.00  0.00    -0.026 C 
ATOM     58  H   UNL     1     -47.946  26.501  25.923  1.00  0.00     0.050 H 
ATOM     59  H   UNL     1     -48.956  27.225  27.217  1.00  0.00     0.050 H 
ATOM     60  C   UNL     1     -51.253  26.322  25.793  1.00  0.00     0.029 C 
ATOM     61  O   UNL     1     -51.627  28.230  24.373  1.00  0.00    -0.274 OA
ATOM     62  H   UNL     1     -49.953  25.025  26.989  1.00  0.00     0.029 H 
ATOM     63  H   UNL     1     -49.643  25.007  25.245  1.00  0.00     0.029 H 
ATOM     64  H   UNL     1     -51.769  26.620  26.711  1.00  0.00     0.037 H 
ATOM     65  H   UNL     1     -51.901  25.688  25.183  1.00  0.00     0.037 H 
ENDBRANCH  50  54
ENDBRANCH  38  39
ENDBRANCH  35  38
ENDBRANCH   5  35
TORSDOF 8
ENDMDL
MODEL 2
REMARK VINA RESULT:     -10.8      2.550     12.612
REMARK SMILES Cn1ccc(-c2cn(-c3cncc(COc4ccc5ccc(N6CCCC6=O)nc5c4)c3)c3ncnc(N)c23)n1
REMARK SMILES IDX 9 1 10 2 11 3 12 4 13 5 32 6 8 10 6 11 7 12 39 13 33 15
REMARK SMILES IDX 37 16 34 17 36 18 35 19 5 21 2 22 3 23 40 24 4 25 1 28 38 32
REMARK SMILES IDX 14 35 15 38 16 39 17 40 31 41 18 42 30 44 19 46 29 48 20 49
REMARK SMILES IDX 22 50 21 51 23 54 24 55 27 56 25 57 26 60 28 61
REMARK H PARENT 10 7 12 8 32 9 7 14 35 20 3 26 4 27 1 29 1 30 1 31 38 33 38 34
REMARK H PARENT 14 36 14 37 17 43 31 45 18 47 20 52 21 53 24 58 24 59 25 62
REMARK H PARENT 25 63 26 64 26 65
REMARK Flexibility Score: inf
ROOT
ATOM      1  C   UNL     1     -47.935  33.357  26.267  1.00  0.00     0.066 A 
ATOM      2  C   UNL     1     -49.099  34.085  26.492  1.00  0.00     0.051 A 
ATOM      3  N   UNL     1     -49.145  35.269  27.157  1.00  0.00    -0.262 NA
ATOM      4  C   UNL     1     -47.978  35.763  27.617  1.00  0.00     0.034 A 
ATOM      5  C   UNL     1     -46.754  35.135  27.449  1.00  0.00     0.010 A 
ATOM      6  C   UNL     1     -46.745  33.907  26.769  1.00  0.00    -0.028 A 
ATOM      7  H   UNL     1     -50.076  33.773  26.145  1.00  0.00     0.086 H 
ATOM      8  H   UNL     1     -48.067  36.710  28.144  1.00  0.00     0.084 H 
ATOM      9  H   UNL     1     -45.788  33.407  26.655  1.00  0.00     0.065 H 
ENDROOT
BRANCH   1  10
ATOM     10  N   UNL     1     -47.936  32.111  25.560  1.00  0.00    -0.299 N 
ATOM     11  C   UNL     1     -48.460  29.987  25.007  1.00  0.00     0.033 A 
ATOM     12  C   UNL     1     -48.680  31.001  25.914  1.00  0.00     0.021 A 
ATOM     13  C   UNL     1     -47.500  30.444  24.071  1.00  0.00     0.071 A 
ATOM     14  H   UNL     1     -49.323  30.986  26.781  1.00  0.00     0.083 H 
ATOM     15  C   UNL     1     -47.216  31.769  24.411  1.00  0.00     0.150 A 
ATOM     16  C   UNL     1     -46.807  29.914  22.968  1.00  0.00     0.137 A 
ATOM     17  N   UNL     1     -46.377  32.573  23.728  1.00  0.00    -0.218 NA
ATOM     18  N   UNL     1     -45.966  30.702  22.276  1.00  0.00    -0.219 NA
ATOM     19  C   UNL     1     -45.807  31.971  22.679  1.00  0.00     0.120 A 
ATOM     20  H   UNL     1     -45.128  32.577  22.088  1.00  0.00     0.106 H 
BRANCH  11  21
ATOM     21  C   UNL     1     -49.111  28.681  25.043  1.00  0.00     0.095 A 
ATOM     22  N   UNL     1     -49.530  26.677  25.562  1.00  0.00    -0.275 N 
ATOM     23  C   UNL     1     -50.559  27.040  24.744  1.00  0.00     0.025 A 
ATOM     24  N   UNL     1     -48.637  27.662  25.768  1.00  0.00    -0.173 NA
ATOM     25  C   UNL     1     -50.322  28.351  24.399  1.00  0.00    -0.016 A 
ATOM     26  H   UNL     1     -51.361  26.361  24.492  1.00  0.00     0.084 H 
ATOM     27  H   UNL     1     -50.941  28.980  23.773  1.00  0.00     0.066 H 
BRANCH  22  28
ATOM     28  C   UNL     1     -49.335  25.397  26.198  1.00  0.00     0.030 C 
ATOM     29  H   UNL     1     -50.258  24.819  26.100  1.00  0.00     0.048 H 
ATOM     30  H   UNL     1     -49.097  25.567  27.250  1.00  0.00     0.048 H 
ATOM     31  H   UNL     1     -48.512  24.870  25.709  1.00  0.00     0.048 H 
ENDBRANCH  22  28
ENDBRANCH  11  21
BRANCH  16  32
ATOM     32  N   UNL     1     -46.891  28.594  22.540  1.00  0.00    -0.383 N 
ATOM     33  H   UNL     1     -47.244  28.494  21.596  1.00  0.00     0.158 HD
ATOM     34  H   UNL     1     -47.373  28.041  23.240  1.00  0.00     0.158 HD
ENDBRANCH  16  32
ENDBRANCH   1  10
BRANCH   5  35
ATOM     35  C   UNL     1     -45.498  35.729  28.030  1.00  0.00     0.115 C 
ATOM     36  H   UNL     1     -44.965  34.970  28.616  1.00  0.00     0.076 H 
ATOM     37  H   UNL     1     -44.867  36.072  27.201  1.00  0.00     0.076 H 
BRANCH  35  38
ATOM     38  O   UNL     1     -45.849  36.821  28.881  1.00  0.00    -0.489 OA
BRANCH  38  39
ATOM     39  C   UNL     1     -45.086  37.953  28.794  1.00  0.00     0.122 A 
ATOM     40  C   UNL     1     -44.311  38.217  29.922  1.00  0.00    -0.019 A 
ATOM     41  C   UNL     1     -45.031  38.827  27.705  1.00  0.00     0.007 A 
ATOM     42  C   UNL     1     -43.490  39.342  29.960  1.00  0.00    -0.049 A 
ATOM     43  H   UNL     1     -44.346  37.543  30.774  1.00  0.00     0.066 H 
ATOM     44  C   UNL     1     -44.219  39.957  27.718  1.00  0.00     0.076 A 
ATOM     45  H   UNL     1     -45.617  38.657  26.810  1.00  0.00     0.069 H 
ATOM     46  C   UNL     1     -43.442  40.212  28.862  1.00  0.00     0.001 A 
ATOM     47  H   UNL     1     -42.892  39.533  30.849  1.00  0.00     0.063 H 
ATOM     48  N   UNL     1     -44.203  40.765  26.643  1.00  0.00    -0.230 NA
ATOM     49  C   UNL     1     -42.634  41.350  28.856  1.00  0.00    -0.049 A 
ATOM     50  C   UNL     1     -43.416  41.871  26.648  1.00  0.00     0.135 A 
ATOM     51  C   UNL     1     -42.620  42.184  27.740  1.00  0.00    -0.018 A 
ATOM     52  H   UNL     1     -42.009  41.597  29.710  1.00  0.00     0.063 H 
ATOM     53  H   UNL     1     -41.980  43.059  27.759  1.00  0.00     0.066 H 
BRANCH  50  54
ATOM     54  N   UNL     1     -43.449  42.672  25.488  1.00  0.00    -0.297 N 
ATOM     55  C   UNL     1     -44.704  42.968  24.843  1.00  0.00     0.028 C 
ATOM     56  C   UNL     1     -42.395  43.370  24.907  1.00  0.00     0.228 C 
ATOM     57  C   UNL     1     -44.295  43.505  23.487  1.00  0.00    -0.026 C 
ATOM     58  H   UNL     1     -45.333  42.078  24.738  1.00  0.00     0.050 H 
ATOM     59  H   UNL     1     -45.229  43.730  25.430  1.00  0.00     0.050 H 
ATOM     60  C   UNL     1     -42.962  44.180  23.763  1.00  0.00     0.029 C 
ATOM     61  O   UNL     1     -41.219  43.408  25.232  1.00  0.00    -0.274 OA
ATOM     62  H   UNL     1     -45.037  44.182  23.054  1.00  0.00     0.029 H 
ATOM     63  H   UNL     1     -44.145  42.673  22.787  1.00  0.00     0.029 H 
ATOM     64  H   UNL     1     -43.096  45.215  24.096  1.00  0.00     0.037 H 
ATOM     65  H   UNL     1     -42.304  44.145  22.892  1.00  0.00     0.037 H 
ENDBRANCH  50  54
ENDBRANCH  38  39
ENDBRANCH  35  38
ENDBRANCH   5  35
TORSDOF 8
ENDMDL
MODEL 3
REMARK VINA RESULT:     -10.8      2.504     12.794
REMARK SMILES Cn1ccc(-c2cn(-c3cncc(COc4ccc5ccc(N6CCCC6=O)nc5c4)c3)c3ncnc(N)c23)n1
REMARK SMILES IDX 9 1 10 2 11 3 12 4 13 5 32 6 8 10 6 11 7 12 39 13 33 15
REMARK SMILES IDX 37 16 34 17 36 18 35 19 5 21 2 22 3 23 40 24 4 25 1 28 38 32
REMARK SMILES IDX 14 35 15 38 16 39 17 40 31 41 18 42 30 44 19 46 29 48 20 49
REMARK SMILES IDX 22 50 21 51 23 54 24 55 27 56 25 57 26 60 28 61
REMARK H PARENT 10 7 12 8 32 9 7 14 35 20 3 26 4 27 1 29 1 30 1 31 38 33 38 34
REMARK H PARENT 14 36 14 37 17 43 31 45 18 47 20 52 21 53 24 58 24 59 25 62
REMARK H PARENT 25 63 26 64 26 65
REMARK Flexibility Score: inf
ROOT
ATOM      1  C   UNL     1     -47.934  32.476  25.418  1.00  0.00     0.066 A 
ATOM      2  C   UNL     1     -46.629  32.800  25.063  1.00  0.00     0.051 A 
ATOM      3  N   UNL     1     -46.016  33.969  25.385  1.00  0.00    -0.262 NA
ATOM      4  C   UNL     1     -46.729  34.861  26.102  1.00  0.00     0.034 A 
ATOM      5  C   UNL     1     -48.033  34.649  26.522  1.00  0.00     0.010 A 
ATOM      6  C   UNL     1     -48.640  33.436  26.159  1.00  0.00    -0.028 A 
ATOM      7  H   UNL     1     -45.979  32.139  24.503  1.00  0.00     0.086 H 
ATOM      8  H   UNL     1     -46.196  35.780  26.333  1.00  0.00     0.084 H 
ATOM      9  H   UNL     1     -49.667  33.281  26.471  1.00  0.00     0.065 H 
ENDROOT
BRANCH   1  10
ATOM     10  N   UNL     1     -48.539  31.229  25.054  1.00  0.00    -0.299 N 
ATOM     11  C   UNL     1     -49.067  29.035  25.097  1.00  0.00     0.033 A 
ATOM     12  C   UNL     1     -48.308  30.022  25.688  1.00  0.00     0.021 A 
ATOM     13  C   UNL     1     -49.766  29.618  24.011  1.00  0.00     0.071 A 
ATOM     14  H   UNL     1     -47.626  29.926  26.520  1.00  0.00     0.083 H 
ATOM     15  C   UNL     1     -49.452  30.979  24.024  1.00  0.00     0.150 A 
ATOM     16  C   UNL     1     -50.629  29.180  22.991  1.00  0.00     0.137 A 
ATOM     17  N   UNL     1     -49.958  31.891  23.170  1.00  0.00    -0.218 NA
ATOM     18  N   UNL     1     -51.141  30.076  22.130  1.00  0.00    -0.219 NA
ATOM     19  C   UNL     1     -50.794  31.363  22.270  1.00  0.00     0.120 A 
ATOM     20  H   UNL     1     -51.238  32.055  21.563  1.00  0.00     0.106 H 
BRANCH  11  21
ATOM     21  C   UNL     1     -49.108  27.642  25.534  1.00  0.00     0.095 A 
ATOM     22  N   UNL     1     -48.467  25.736  26.175  1.00  0.00    -0.275 N 
ATOM     23  C   UNL     1     -49.828  25.675  26.232  1.00  0.00     0.025 A 
ATOM     24  N   UNL     1     -48.001  26.928  25.760  1.00  0.00    -0.173 NA
ATOM     25  C   UNL     1     -50.278  26.912  25.832  1.00  0.00    -0.016 A 
ATOM     26  H   UNL     1     -50.352  24.787  26.556  1.00  0.00     0.084 H 
ATOM     27  H   UNL     1     -51.307  27.240  25.769  1.00  0.00     0.066 H 
BRANCH  22  28
ATOM     28  C   UNL     1     -47.535  24.688  26.514  1.00  0.00     0.030 C 
ATOM     29  H   UNL     1     -47.843  24.247  27.465  1.00  0.00     0.048 H 
ATOM     30  H   UNL     1     -46.538  25.127  26.598  1.00  0.00     0.048 H 
ATOM     31  H   UNL     1     -47.543  23.927  25.730  1.00  0.00     0.048 H 
ENDBRANCH  22  28
ENDBRANCH  11  21
BRANCH  16  32
ATOM     32  N   UNL     1     -50.979  27.853  22.766  1.00  0.00    -0.383 N 
ATOM     33  H   UNL     1     -50.825  27.548  21.812  1.00  0.00     0.158 HD
ATOM     34  H   UNL     1     -51.913  27.684  23.125  1.00  0.00     0.158 HD
ENDBRANCH  16  32
ENDBRANCH   1  10
BRANCH   5  35
ATOM     35  C   UNL     1     -48.778  35.713  27.284  1.00  0.00     0.115 C 
ATOM     36  H   UNL     1     -48.688  36.674  26.763  1.00  0.00     0.076 H 
ATOM     37  H   UNL     1     -49.833  35.415  27.339  1.00  0.00     0.076 H 
BRANCH  35  38
ATOM     38  O   UNL     1     -48.218  35.829  28.592  1.00  0.00    -0.489 OA
BRANCH  38  39
ATOM     39  C   UNL     1     -47.170  36.694  28.750  1.00  0.00     0.122 A 
ATOM     40  C   UNL     1     -46.379  36.446  29.870  1.00  0.00    -0.019 A 
ATOM     41  C   UNL     1     -46.849  37.761  27.908  1.00  0.00     0.007 A 
ATOM     42  C   UNL     1     -45.279  37.256  30.145  1.00  0.00    -0.049 A 
ATOM     43  H   UNL     1     -46.619  35.617  30.532  1.00  0.00     0.066 H 
ATOM     44  C   UNL     1     -45.756  38.586  28.160  1.00  0.00     0.076 A 
ATOM     45  H   UNL     1     -47.438  37.987  27.027  1.00  0.00     0.069 H 
ATOM     46  C   UNL     1     -44.966  38.325  29.293  1.00  0.00     0.001 A 
ATOM     47  H   UNL     1     -44.672  37.048  31.024  1.00  0.00     0.063 H 
ATOM     48  N   UNL     1     -45.492  39.600  27.317  1.00  0.00    -0.230 NA
ATOM     49  C   UNL     1     -43.875  39.162  29.529  1.00  0.00    -0.049 A 
ATOM     50  C   UNL     1     -44.430  40.410  27.556  1.00  0.00     0.135 A 
ATOM     51  C   UNL     1     -43.604  40.211  28.653  1.00  0.00    -0.018 A 
ATOM     52  H   UNL     1     -43.226  39.007  30.387  1.00  0.00     0.063 H 
ATOM     53  H   UNL     1     -42.747  40.843  28.856  1.00  0.00     0.066 H 
BRANCH  50  54
ATOM     54  N   UNL     1     -44.213  41.452  26.632  1.00  0.00    -0.297 N 
ATOM     55  C   UNL     1     -45.303  41.960  25.836  1.00  0.00     0.028 C 
ATOM     56  C   UNL     1     -43.053  42.200  26.451  1.00  0.00     0.228 C 
ATOM     57  C   UNL     1     -44.615  42.763  24.752  1.00  0.00    -0.026 C 
ATOM     58  H   UNL     1     -45.906  41.154  25.403  1.00  0.00     0.050 H 
ATOM     59  H   UNL     1     -45.930  42.599  26.467  1.00  0.00     0.050 H 
ATOM     60  C   UNL     1     -43.362  43.279  25.438  1.00  0.00     0.029 C 
ATOM     61  O   UNL     1     -41.970  42.095  27.004  1.00  0.00    -0.274 OA
ATOM     62  H   UNL     1     -45.243  43.562  24.348  1.00  0.00     0.029 H 
ATOM     63  H   UNL     1     -44.332  42.103  23.921  1.00  0.00     0.029 H 
ATOM     64  H   UNL     1     -43.550  44.218  25.968  1.00  0.00     0.037 H 
ATOM     65  H   UNL     1     -42.537  43.402  24.732  1.00  0.00     0.037 H 
ENDBRANCH  50  54
ENDBRANCH  38  39
ENDBRANCH  35  38
ENDBRANCH   5  35
TORSDOF 8
ENDMDL
MODEL 4
REMARK VINA RESULT:     -10.5      1.866      3.009
REMARK SMILES Cn1ccc(-c2cn(-c3cncc(COc4ccc5ccc(N6CCCC6=O)nc5c4)c3)c3ncnc(N)c23)n1
REMARK SMILES IDX 9 1 10 2 11 3 12 4 13 5 32 6 8 10 6 11 7 12 39 13 33 15
REMARK SMILES IDX 37 16 34 17 36 18 35 19 5 21 2 22 3 23 40 24 4 25 1 28 38 32
REMARK SMILES IDX 14 35 15 38 16 39 17 40 31 41 18 42 30 44 19 46 29 48 20 49
REMARK SMILES IDX 22 50 21 51 23 54 24 55 27 56 25 57 26 60 28 61
REMARK H PARENT 10 7 12 8 32 9 7 14 35 20 3 26 4 27 1 29 1 30 1 31 38 33 38 34
REMARK H PARENT 14 36 14 37 17 43 31 45 18 47 20 52 21 53 24 58 24 59 25 62
REMARK H PARENT 25 63 26 64 26 65
REMARK Flexibility Score: inf
ROOT
ATOM      1  C   UNL     1     -45.753  38.947  28.107  1.00  0.00     0.066 A 
ATOM      2  C   UNL     1     -44.836  38.595  29.092  1.00  0.00     0.051 A 
ATOM      3  N   UNL     1     -44.925  37.473  29.854  1.00  0.00    -0.262 NA
ATOM      4  C   UNL     1     -45.969  36.653  29.623  1.00  0.00     0.034 A 
ATOM      5  C   UNL     1     -46.941  36.890  28.664  1.00  0.00     0.010 A 
ATOM      6  C   UNL     1     -46.827  38.066  27.905  1.00  0.00    -0.028 A 
ATOM      7  H   UNL     1     -43.961  39.184  29.333  1.00  0.00     0.086 H 
ATOM      8  H   UNL     1     -45.997  35.771  30.258  1.00  0.00     0.084 H 
ATOM      9  H   UNL     1     -47.600  38.261  27.169  1.00  0.00     0.065 H 
ENDROOT
BRANCH   1  10
ATOM     10  N   UNL     1     -45.618  40.143  27.329  1.00  0.00    -0.299 N 
ATOM     11  C   UNL     1     -44.666  41.769  26.088  1.00  0.00     0.033 A 
ATOM     12  C   UNL     1     -44.432  40.610  26.795  1.00  0.00     0.021 A 
ATOM     13  C   UNL     1     -46.041  42.087  26.219  1.00  0.00     0.071 A 
ATOM     14  H   UNL     1     -43.491  40.101  26.940  1.00  0.00     0.083 H 
ATOM     15  C   UNL     1     -46.616  41.051  26.960  1.00  0.00     0.150 A 
ATOM     16  C   UNL     1     -46.899  43.126  25.819  1.00  0.00     0.137 A 
ATOM     17  N   UNL     1     -47.927  40.960  27.263  1.00  0.00    -0.218 NA
ATOM     18  N   UNL     1     -48.208  43.052  26.113  1.00  0.00    -0.219 NA
ATOM     19  C   UNL     1     -48.647  41.986  26.797  1.00  0.00     0.120 A 
ATOM     20  H   UNL     1     -49.712  41.958  27.005  1.00  0.00     0.106 H 
BRANCH  11  21
ATOM     21  C   UNL     1     -43.650  42.519  25.355  1.00  0.00     0.095 A 
ATOM     22  N   UNL     1     -42.703  43.608  23.814  1.00  0.00    -0.275 N 
ATOM     23  C   UNL     1     -41.815  43.638  24.848  1.00  0.00     0.025 A 
ATOM     24  N   UNL     1     -43.835  42.938  24.098  1.00  0.00    -0.173 NA
ATOM     25  C   UNL     1     -42.411  42.947  25.877  1.00  0.00    -0.016 A 
ATOM     26  H   UNL     1     -40.864  44.147  24.776  1.00  0.00     0.084 H 
ATOM     27  H   UNL     1     -42.008  42.780  26.867  1.00  0.00     0.066 H 
BRANCH  22  28
ATOM     28  C   UNL     1     -42.542  44.209  22.512  1.00  0.00     0.030 C 
ATOM     29  H   UNL     1     -43.225  45.059  22.438  1.00  0.00     0.048 H 
ATOM     30  H   UNL     1     -42.779  43.458  21.754  1.00  0.00     0.048 H 
ATOM     31  H   UNL     1     -41.510  44.548  22.393  1.00  0.00     0.048 H 
ENDBRANCH  22  28
ENDBRANCH  11  21
BRANCH  16  32
ATOM     32  N   UNL     1     -46.491  44.279  25.157  1.00  0.00    -0.383 N 
ATOM     33  H   UNL     1     -47.028  45.101  25.403  1.00  0.00     0.158 HD
ATOM     34  H   UNL     1     -46.423  44.092  24.162  1.00  0.00     0.158 HD
ENDBRANCH  16  32
ENDBRANCH   1  10
BRANCH   5  35
ATOM     35  C   UNL     1     -48.103  35.948  28.495  1.00  0.00     0.115 C 
ATOM     36  H   UNL     1     -47.827  34.950  28.857  1.00  0.00     0.076 H 
ATOM     37  H   UNL     1     -48.946  36.337  29.080  1.00  0.00     0.076 H 
BRANCH  35  38
ATOM     38  O   UNL     1     -48.444  35.871  27.111  1.00  0.00    -0.489 OA
BRANCH  38  39
ATOM     39  C   UNL     1     -48.051  34.752  26.430  1.00  0.00     0.122 A 
ATOM     40  C   UNL     1     -46.808  34.860  25.809  1.00  0.00    -0.019 A 
ATOM     41  C   UNL     1     -48.772  33.561  26.315  1.00  0.00     0.007 A 
ATOM     42  C   UNL     1     -46.292  33.789  25.082  1.00  0.00    -0.049 A 
ATOM     43  H   UNL     1     -46.237  35.782  25.893  1.00  0.00     0.066 H 
ATOM     44  C   UNL     1     -48.280  32.477  25.595  1.00  0.00     0.076 A 
ATOM     45  H   UNL     1     -49.742  33.437  26.783  1.00  0.00     0.069 H 
ATOM     46  C   UNL     1     -47.025  32.598  24.973  1.00  0.00     0.001 A 
ATOM     47  H   UNL     1     -45.320  33.891  24.603  1.00  0.00     0.063 H 
ATOM     48  N   UNL     1     -49.016  31.354  25.516  1.00  0.00    -0.230 NA
ATOM     49  C   UNL     1     -46.548  31.501  24.255  1.00  0.00    -0.049 A 
ATOM     50  C   UNL     1     -48.545  30.293  24.814  1.00  0.00     0.135 A 
ATOM     51  C   UNL     1     -47.313  30.339  24.176  1.00  0.00    -0.018 A 
ATOM     52  H   UNL     1     -45.583  31.535  23.756  1.00  0.00     0.063 H 
ATOM     53  H   UNL     1     -46.917  29.499  23.618  1.00  0.00     0.066 H 
BRANCH  50  54
ATOM     54  N   UNL     1     -49.368  29.149  24.773  1.00  0.00    -0.297 N 
ATOM     55  C   UNL     1     -50.337  28.986  23.718  1.00  0.00     0.028 C 
ATOM     56  C   UNL     1     -49.294  28.019  25.582  1.00  0.00     0.228 C 
ATOM     57  C   UNL     1     -51.237  27.877  24.223  1.00  0.00    -0.026 C 
ATOM     58  H   UNL     1     -50.909  29.903  23.540  1.00  0.00     0.050 H 
ATOM     59  H   UNL     1     -49.814  28.687  22.803  1.00  0.00     0.050 H 
ATOM     60  C   UNL     1     -50.304  27.021  25.062  1.00  0.00     0.029 C 
ATOM     61  O   UNL     1     -48.548  27.785  26.520  1.00  0.00    -0.274 OA
ATOM     62  H   UNL     1     -51.721  27.320  23.416  1.00  0.00     0.029 H 
ATOM     63  H   UNL     1     -52.023  28.297  24.864  1.00  0.00     0.029 H 
ATOM     64  H   UNL     1     -49.783  26.276  24.452  1.00  0.00     0.037 H 
ATOM     65  H   UNL     1     -50.834  26.534  25.884  1.00  0.00     0.037 H 
ENDBRANCH  50  54
ENDBRANCH  38  39
ENDBRANCH  35  38
ENDBRANCH   5  35
TORSDOF 8
ENDMDL
MODEL 5
REMARK VINA RESULT:     -10.3      1.658      2.123
REMARK SMILES Cn1ccc(-c2cn(-c3cncc(COc4ccc5ccc(N6CCCC6=O)nc5c4)c3)c3ncnc(N)c23)n1
REMARK SMILES IDX 9 1 10 2 11 3 12 4 13 5 32 6 8 10 6 11 7 12 39 13 33 15
REMARK SMILES IDX 37 16 34 17 36 18 35 19 5 21 2 22 3 23 40 24 4 25 1 28 38 32
REMARK SMILES IDX 14 35 15 38 16 39 17 40 31 41 18 42 30 44 19 46 29 48 20 49
REMARK SMILES IDX 22 50 21 51 23 54 24 55 27 56 25 57 26 60 28 61
REMARK H PARENT 10 7 12 8 32 9 7 14 35 20 3 26 4 27 1 29 1 30 1 31 38 33 38 34
REMARK H PARENT 14 36 14 37 17 43 31 45 18 47 20 52 21 53 24 58 24 59 25 62
REMARK H PARENT 25 63 26 64 26 65
REMARK Flexibility Score: inf
ROOT
ATOM      1  C   UNL     1     -46.705  39.868  27.276  1.00  0.00     0.066 A 
ATOM      2  C   UNL     1     -47.981  40.300  27.624  1.00  0.00     0.051 A 
ATOM      3  N   UNL     1     -48.982  39.478  28.035  1.00  0.00    -0.262 NA
ATOM      4  C   UNL     1     -48.704  38.161  28.114  1.00  0.00     0.034 A 
ATOM      5  C   UNL     1     -47.470  37.612  27.804  1.00  0.00     0.010 A 
ATOM      6  C   UNL     1     -46.463  38.488  27.369  1.00  0.00    -0.028 A 
ATOM      7  H   UNL     1     -48.287  41.339  27.606  1.00  0.00     0.086 H 
ATOM      8  H   UNL     1     -49.537  37.545  28.446  1.00  0.00     0.084 H 
ATOM      9  H   UNL     1     -45.504  38.054  27.107  1.00  0.00     0.065 H 
ENDROOT
BRANCH   1  10
ATOM     10  N   UNL     1     -45.682  40.774  26.847  1.00  0.00    -0.299 N 
ATOM     11  C   UNL     1     -44.626  42.364  25.644  1.00  0.00     0.033 A 
ATOM     12  C   UNL     1     -45.779  41.618  25.756  1.00  0.00     0.021 A 
ATOM     13  C   UNL     1     -43.736  41.944  26.664  1.00  0.00     0.071 A 
ATOM     14  H   UNL     1     -46.653  41.650  25.123  1.00  0.00     0.083 H 
ATOM     15  C   UNL     1     -44.421  40.986  27.415  1.00  0.00     0.150 A 
ATOM     16  C   UNL     1     -42.419  42.234  27.062  1.00  0.00     0.137 A 
ATOM     17  N   UNL     1     -43.928  40.374  28.510  1.00  0.00    -0.218 NA
ATOM     18  N   UNL     1     -41.912  41.631  28.151  1.00  0.00    -0.219 NA
ATOM     19  C   UNL     1     -42.684  40.758  28.813  1.00  0.00     0.120 A 
ATOM     20  H   UNL     1     -42.242  40.302  29.693  1.00  0.00     0.106 H 
BRANCH  11  21
ATOM     21  C   UNL     1     -44.392  43.390  24.631  1.00  0.00     0.095 A 
ATOM     22  N   UNL     1     -44.359  45.270  23.671  1.00  0.00    -0.275 N 
ATOM     23  C   UNL     1     -43.681  44.443  22.825  1.00  0.00     0.025 A 
ATOM     24  N   UNL     1     -44.796  44.656  24.785  1.00  0.00    -0.173 NA
ATOM     25  C   UNL     1     -43.673  43.208  23.431  1.00  0.00    -0.016 A 
ATOM     26  H   UNL     1     -43.260  44.792  21.893  1.00  0.00     0.084 H 
ATOM     27  H   UNL     1     -43.208  42.305  23.059  1.00  0.00     0.066 H 
BRANCH  22  28
ATOM     28  C   UNL     1     -44.624  46.676  23.486  1.00  0.00     0.030 C 
ATOM     29  H   UNL     1     -44.822  46.852  22.425  1.00  0.00     0.048 H 
ATOM     30  H   UNL     1     -43.746  47.239  23.811  1.00  0.00     0.048 H 
ATOM     31  H   UNL     1     -45.495  46.964  24.080  1.00  0.00     0.048 H 
ENDBRANCH  22  28
ENDBRANCH  11  21
BRANCH  16  32
ATOM     32  N   UNL     1     -41.556  43.087  26.384  1.00  0.00    -0.383 N 
ATOM     33  H   UNL     1     -41.834  44.060  26.421  1.00  0.00     0.158 HD
ATOM     34  H   UNL     1     -41.385  42.725  25.452  1.00  0.00     0.158 HD
ENDBRANCH  16  32
ENDBRANCH   1  10
BRANCH   5  35
ATOM     35  C   UNL     1     -47.250  36.124  27.876  1.00  0.00     0.115 C 
ATOM     36  H   UNL     1     -46.293  35.868  27.404  1.00  0.00     0.076 H 
ATOM     37  H   UNL     1     -47.235  35.833  28.933  1.00  0.00     0.076 H 
BRANCH  35  38
ATOM     38  O   UNL     1     -48.309  35.462  27.185  1.00  0.00    -0.489 OA
BRANCH  38  39
ATOM     39  C   UNL     1     -47.976  34.379  26.418  1.00  0.00     0.122 A 
ATOM     40  C   UNL     1     -46.748  34.485  25.769  1.00  0.00    -0.019 A 
ATOM     41  C   UNL     1     -48.745  33.225  26.245  1.00  0.00     0.007 A 
ATOM     42  C   UNL     1     -46.293  33.449  24.957  1.00  0.00    -0.049 A 
ATOM     43  H   UNL     1     -46.140  35.378  25.898  1.00  0.00     0.066 H 
ATOM     44  C   UNL     1     -48.314  32.176  25.438  1.00  0.00     0.076 A 
ATOM     45  H   UNL     1     -49.705  33.104  26.732  1.00  0.00     0.069 H 
ATOM     46  C   UNL     1     -47.072  32.295  24.789  1.00  0.00     0.001 A 
ATOM     47  H   UNL     1     -45.331  33.548  24.458  1.00  0.00     0.063 H 
ATOM     48  N   UNL     1     -49.093  31.088  25.306  1.00  0.00    -0.230 NA
ATOM     49  C   UNL     1     -46.656  31.233  23.985  1.00  0.00    -0.049 A 
ATOM     50  C   UNL     1     -48.682  30.062  24.520  1.00  0.00     0.135 A 
ATOM     51  C   UNL     1     -47.467  30.108  23.851  1.00  0.00    -0.018 A 
ATOM     52  H   UNL     1     -45.705  31.267  23.461  1.00  0.00     0.063 H 
ATOM     53  H   UNL     1     -47.118  29.294  23.225  1.00  0.00     0.066 H 
BRANCH  50  54
ATOM     54  N   UNL     1     -49.548  28.954  24.427  1.00  0.00    -0.297 N 
ATOM     55  C   UNL     1     -49.167  27.681  24.989  1.00  0.00     0.028 C 
ATOM     56  C   UNL     1     -50.857  28.935  23.952  1.00  0.00     0.228 C 
ATOM     57  C   UNL     1     -50.149  26.707  24.372  1.00  0.00    -0.026 C 
ATOM     58  H   UNL     1     -48.137  27.412  24.735  1.00  0.00     0.050 H 
ATOM     59  H   UNL     1     -49.285  27.729  26.077  1.00  0.00     0.050 H 
ATOM     60  C   UNL     1     -51.402  27.543  24.179  1.00  0.00     0.029 C 
ATOM     61  O   UNL     1     -51.520  29.842  23.476  1.00  0.00    -0.274 OA
ATOM     62  H   UNL     1     -50.316  25.820  24.991  1.00  0.00     0.029 H 
ATOM     63  H   UNL     1     -49.778  26.372  23.395  1.00  0.00     0.029 H 
ATOM     64  H   UNL     1     -52.025  27.550  25.079  1.00  0.00     0.037 H 
ATOM     65  H   UNL     1     -51.984  27.205  23.319  1.00  0.00     0.037 H 
ENDBRANCH  50  54
ENDBRANCH  38  39
ENDBRANCH  35  38
ENDBRANCH   5  35
TORSDOF 8
ENDMDL
MODEL 6
REMARK VINA RESULT:     -10.2      2.791     12.648
REMARK SMILES Cn1ccc(-c2cn(-c3cncc(COc4ccc5ccc(N6CCCC6=O)nc5c4)c3)c3ncnc(N)c23)n1
REMARK SMILES IDX 9 1 10 2 11 3 12 4 13 5 32 6 8 10 6 11 7 12 39 13 33 15
REMARK SMILES IDX 37 16 34 17 36 18 35 19 5 21 2 22 3 23 40 24 4 25 1 28 38 32
REMARK SMILES IDX 14 35 15 38 16 39 17 40 31 41 18 42 30 44 19 46 29 48 20 49
REMARK SMILES IDX 22 50 21 51 23 54 24 55 27 56 25 57 26 60 28 61
REMARK H PARENT 10 7 12 8 32 9 7 14 35 20 3 26 4 27 1 29 1 30 1 31 38 33 38 34
REMARK H PARENT 14 36 14 37 17 43 31 45 18 47 20 52 21 53 24 58 24 59 25 62
REMARK H PARENT 25 63 26 64 26 65
REMARK Flexibility Score: inf
ROOT
ATOM      1  C   UNL     1     -47.269  32.602  26.063  1.00  0.00     0.066 A 
ATOM      2  C   UNL     1     -46.520  32.188  27.160  1.00  0.00     0.051 A 
ATOM      3  N   UNL     1     -46.053  33.022  28.126  1.00  0.00    -0.262 NA
ATOM      4  C   UNL     1     -46.349  34.331  28.006  1.00  0.00     0.034 A 
ATOM      5  C   UNL     1     -47.094  34.863  26.965  1.00  0.00     0.010 A 
ATOM      6  C   UNL     1     -47.549  33.975  25.977  1.00  0.00    -0.028 A 
ATOM      7  H   UNL     1     -46.250  31.156  27.345  1.00  0.00     0.086 H 
ATOM      8  H   UNL     1     -45.952  34.957  28.802  1.00  0.00     0.084 H 
ATOM      9  H   UNL     1     -48.114  34.396  25.151  1.00  0.00     0.065 H 
ENDROOT
BRANCH   1  10
ATOM     10  N   UNL     1     -47.740  31.686  25.068  1.00  0.00    -0.299 N 
ATOM     11  C   UNL     1     -49.001  30.104  24.068  1.00  0.00     0.033 A 
ATOM     12  C   UNL     1     -48.810  30.825  25.227  1.00  0.00     0.021 A 
ATOM     13  C   UNL     1     -47.984  30.474  23.154  1.00  0.00     0.071 A 
ATOM     14  H   UNL     1     -49.379  30.771  26.143  1.00  0.00     0.083 H 
ATOM     15  C   UNL     1     -47.237  31.476  23.779  1.00  0.00     0.150 A 
ATOM     16  C   UNL     1     -47.570  30.091  21.866  1.00  0.00     0.137 A 
ATOM     17  N   UNL     1     -46.199  32.125  23.214  1.00  0.00    -0.218 NA
ATOM     18  N   UNL     1     -46.537  30.727  21.288  1.00  0.00    -0.219 NA
ATOM     19  C   UNL     1     -45.925  31.701  21.976  1.00  0.00     0.120 A 
ATOM     20  H   UNL     1     -45.102  32.197  21.470  1.00  0.00     0.106 H 
BRANCH  11  21
ATOM     21  C   UNL     1     -50.068  29.129  23.860  1.00  0.00     0.095 A 
ATOM     22  N   UNL     1     -51.557  27.981  22.900  1.00  0.00    -0.275 N 
ATOM     23  C   UNL     1     -51.495  27.471  24.163  1.00  0.00     0.025 A 
ATOM     24  N   UNL     1     -50.692  28.988  22.685  1.00  0.00    -0.173 NA
ATOM     25  C   UNL     1     -50.519  28.191  24.813  1.00  0.00    -0.016 A 
ATOM     26  H   UNL     1     -52.121  26.651  24.485  1.00  0.00     0.084 H 
ATOM     27  H   UNL     1     -50.179  28.055  25.830  1.00  0.00     0.066 H 
BRANCH  22  28
ATOM     28  C   UNL     1     -52.422  27.547  21.830  1.00  0.00     0.030 C 
ATOM     29  H   UNL     1     -52.908  28.428  21.401  1.00  0.00     0.048 H 
ATOM     30  H   UNL     1     -53.165  26.861  22.242  1.00  0.00     0.048 H 
ATOM     31  H   UNL     1     -51.828  27.040  21.065  1.00  0.00     0.048 H 
ENDBRANCH  22  28
ENDBRANCH  11  21
BRANCH  16  32
ATOM     32  N   UNL     1     -48.132  29.054  21.130  1.00  0.00    -0.383 N 
ATOM     33  H   UNL     1     -48.996  28.698  21.521  1.00  0.00     0.158 HD
ATOM     34  H   UNL     1     -47.424  28.351  20.943  1.00  0.00     0.158 HD
ENDBRANCH  16  32
ENDBRANCH   1  10
BRANCH   5  35
ATOM     35  C   UNL     1     -47.346  36.344  26.877  1.00  0.00     0.115 C 
ATOM     36  H   UNL     1     -46.594  36.811  26.228  1.00  0.00     0.076 H 
ATOM     37  H   UNL     1     -48.348  36.495  26.457  1.00  0.00     0.076 H 
BRANCH  35  38
ATOM     38  O   UNL     1     -47.258  36.911  28.184  1.00  0.00    -0.489 OA
BRANCH  38  39
ATOM     39  C   UNL     1     -46.232  37.786  28.420  1.00  0.00     0.122 A 
ATOM     40  C   UNL     1     -45.407  37.435  29.487  1.00  0.00    -0.019 A 
ATOM     41  C   UNL     1     -45.964  38.954  27.703  1.00  0.00     0.007 A 
ATOM     42  C   UNL     1     -44.326  38.244  29.832  1.00  0.00    -0.049 A 
ATOM     43  H   UNL     1     -45.605  36.527  30.052  1.00  0.00     0.066 H 
ATOM     44  C   UNL     1     -44.891  39.779  28.026  1.00  0.00     0.076 A 
ATOM     45  H   UNL     1     -46.582  39.261  26.866  1.00  0.00     0.069 H 
ATOM     46  C   UNL     1     -44.066  39.414  29.104  1.00  0.00     0.001 A 
ATOM     47  H   UNL     1     -43.691  37.955  30.667  1.00  0.00     0.063 H 
ATOM     48  N   UNL     1     -44.679  40.892  27.302  1.00  0.00    -0.230 NA
ATOM     49  C   UNL     1     -42.995  40.253  29.414  1.00  0.00    -0.049 A 
ATOM     50  C   UNL     1     -43.636  41.703  27.612  1.00  0.00     0.135 A 
ATOM     51  C   UNL     1     -42.778  41.405  28.661  1.00  0.00    -0.018 A 
ATOM     52  H   UNL     1     -42.321  40.021  30.234  1.00  0.00     0.063 H 
ATOM     53  H   UNL     1     -41.936  42.038  28.918  1.00  0.00     0.066 H 
BRANCH  50  54
ATOM     54  N   UNL     1     -43.473  42.852  26.812  1.00  0.00    -0.297 N 
ATOM     55  C   UNL     1     -42.935  42.741  25.479  1.00  0.00     0.028 C 
ATOM     56  C   UNL     1     -43.900  44.149  27.088  1.00  0.00     0.228 C 
ATOM     57  C   UNL     1     -42.577  44.167  25.115  1.00  0.00    -0.026 C 
ATOM     58  H   UNL     1     -42.051  42.096  25.445  1.00  0.00     0.050 H 
ATOM     59  H   UNL     1     -43.714  42.346  24.817  1.00  0.00     0.050 H 
ATOM     60  C   UNL     1     -43.607  44.992  25.868  1.00  0.00     0.029 C 
ATOM     61  O   UNL     1     -44.456  44.585  28.083  1.00  0.00    -0.274 OA
ATOM     62  H   UNL     1     -42.589  44.349  24.036  1.00  0.00     0.029 H 
ATOM     63  H   UNL     1     -41.573  44.407  25.487  1.00  0.00     0.029 H 
ATOM     64  H   UNL     1     -44.529  45.111  25.291  1.00  0.00     0.037 H 
ATOM     65  H   UNL     1     -43.210  45.970  26.153  1.00  0.00     0.037 H 
ENDBRANCH  50  54
ENDBRANCH  38  39
ENDBRANCH  35  38
ENDBRANCH   5  35
TORSDOF 8
ENDMDL
MODEL 7
REMARK VINA RESULT:     -10.0      2.208      3.305
REMARK SMILES Cn1ccc(-c2cn(-c3cncc(COc4ccc5ccc(N6CCCC6=O)nc5c4)c3)c3ncnc(N)c23)n1
REMARK SMILES IDX 9 1 10 2 11 3 12 4 13 5 32 6 8 10 6 11 7 12 39 13 33 15
REMARK SMILES IDX 37 16 34 17 36 18 35 19 5 21 2 22 3 23 40 24 4 25 1 28 38 32
REMARK SMILES IDX 14 35 15 38 16 39 17 40 31 41 18 42 30 44 19 46 29 48 20 49
REMARK SMILES IDX 22 50 21 51 23 54 24 55 27 56 25 57 26 60 28 61
REMARK H PARENT 10 7 12 8 32 9 7 14 35 20 3 26 4 27 1 29 1 30 1 31 38 33 38 34
REMARK H PARENT 14 36 14 37 17 43 31 45 18 47 20 52 21 53 24 58 24 59 25 62
REMARK H PARENT 25 63 26 64 26 65
REMARK Flexibility Score: inf
ROOT
ATOM      1  C   UNL     1     -46.521  37.930  27.462  1.00  0.00     0.066 A 
ATOM      2  C   UNL     1     -46.490  37.571  28.806  1.00  0.00     0.051 A 
ATOM      3  N   UNL     1     -46.709  36.311  29.267  1.00  0.00    -0.262 NA
ATOM      4  C   UNL     1     -46.964  35.356  28.351  1.00  0.00     0.034 A 
ATOM      5  C   UNL     1     -47.013  35.588  26.985  1.00  0.00     0.010 A 
ATOM      6  C   UNL     1     -46.796  36.903  26.545  1.00  0.00    -0.028 A 
ATOM      7  H   UNL     1     -46.276  38.267  29.607  1.00  0.00     0.086 H 
ATOM      8  H   UNL     1     -47.134  34.366  28.768  1.00  0.00     0.084 H 
ATOM      9  H   UNL     1     -46.855  37.088  25.477  1.00  0.00     0.065 H 
ENDROOT
BRANCH   1  10
ATOM     10  N   UNL     1     -46.285  39.273  27.024  1.00  0.00    -0.299 N 
ATOM     11  C   UNL     1     -45.188  41.097  26.275  1.00  0.00     0.033 A 
ATOM     12  C   UNL     1     -45.050  39.783  26.666  1.00  0.00     0.021 A 
ATOM     13  C   UNL     1     -46.547  41.459  26.440  1.00  0.00     0.071 A 
ATOM     14  H   UNL     1     -44.147  39.194  26.703  1.00  0.00     0.083 H 
ATOM     15  C   UNL     1     -47.213  40.308  26.871  1.00  0.00     0.150 A 
ATOM     16  C   UNL     1     -47.327  42.620  26.296  1.00  0.00     0.137 A 
ATOM     17  N   UNL     1     -48.539  40.229  27.099  1.00  0.00    -0.218 NA
ATOM     18  N   UNL     1     -48.650  42.559  26.520  1.00  0.00    -0.219 NA
ATOM     19  C   UNL     1     -49.179  41.385  26.892  1.00  0.00     0.120 A 
ATOM     20  H   UNL     1     -50.252  41.375  27.053  1.00  0.00     0.106 H 
BRANCH  11  21
ATOM     21  C   UNL     1     -44.098  41.941  25.791  1.00  0.00     0.095 A 
ATOM     22  N   UNL     1     -42.986  43.246  24.560  1.00  0.00    -0.275 N 
ATOM     23  C   UNL     1     -42.226  43.107  25.684  1.00  0.00     0.025 A 
ATOM     24  N   UNL     1     -44.137  42.551  24.602  1.00  0.00    -0.173 NA
ATOM     25  C   UNL     1     -42.934  42.271  26.516  1.00  0.00    -0.016 A 
ATOM     26  H   UNL     1     -41.278  43.612  25.804  1.00  0.00     0.084 H 
ATOM     27  H   UNL     1     -42.649  41.949  27.508  1.00  0.00     0.066 H 
BRANCH  22  28
ATOM     28  C   UNL     1     -42.678  44.039  23.394  1.00  0.00     0.030 C 
ATOM     29  H   UNL     1     -42.119  44.922  23.716  1.00  0.00     0.048 H 
ATOM     30  H   UNL     1     -43.616  44.331  22.917  1.00  0.00     0.048 H 
ATOM     31  H   UNL     1     -42.073  43.448  22.701  1.00  0.00     0.048 H 
ENDBRANCH  22  28
ENDBRANCH  11  21
BRANCH  16  32
ATOM     32  N   UNL     1     -46.825  43.875  25.967  1.00  0.00    -0.383 N 
ATOM     33  H   UNL     1     -46.414  44.367  26.750  1.00  0.00     0.158 HD
ATOM     34  H   UNL     1     -47.528  44.396  25.454  1.00  0.00     0.158 HD
ENDBRANCH  16  32
ENDBRANCH   1  10
BRANCH   5  35
ATOM     35  C   UNL     1     -47.348  34.476  26.027  1.00  0.00     0.115 C 
ATOM     36  H   UNL     1     -47.410  34.873  25.005  1.00  0.00     0.076 H 
ATOM     37  H   UNL     1     -46.553  33.723  26.088  1.00  0.00     0.076 H 
BRANCH  35  38
ATOM     38  O   UNL     1     -48.608  33.911  26.390  1.00  0.00    -0.489 OA
BRANCH  38  39
ATOM     39  C   UNL     1     -48.952  32.722  25.807  1.00  0.00     0.122 A 
ATOM     40  C   UNL     1     -49.927  32.824  24.817  1.00  0.00    -0.019 A 
ATOM     41  C   UNL     1     -48.423  31.468  26.119  1.00  0.00     0.007 A 
ATOM     42  C   UNL     1     -50.367  31.685  24.146  1.00  0.00    -0.049 A 
ATOM     43  H   UNL     1     -50.346  33.796  24.565  1.00  0.00     0.066 H 
ATOM     44  C   UNL     1     -48.845  30.314  25.465  1.00  0.00     0.076 A 
ATOM     45  H   UNL     1     -47.663  31.346  26.883  1.00  0.00     0.069 H 
ATOM     46  C   UNL     1     -49.829  30.431  24.467  1.00  0.00     0.001 A 
ATOM     47  H   UNL     1     -51.129  31.784  23.375  1.00  0.00     0.063 H 
ATOM     48  N   UNL     1     -48.302  29.132  25.805  1.00  0.00    -0.230 NA
ATOM     49  C   UNL     1     -50.239  29.264  23.822  1.00  0.00    -0.049 A 
ATOM     50  C   UNL     1     -48.709  28.002  25.173  1.00  0.00     0.135 A 
ATOM     51  C   UNL     1     -49.674  28.041  24.176  1.00  0.00    -0.018 A 
ATOM     52  H   UNL     1     -50.994  29.292  23.040  1.00  0.00     0.063 H 
ATOM     53  H   UNL     1     -50.006  27.150  23.656  1.00  0.00     0.066 H 
BRANCH  50  54
ATOM     54  N   UNL     1     -48.098  26.799  25.580  1.00  0.00    -0.297 N 
ATOM     55  C   UNL     1     -48.845  25.819  26.329  1.00  0.00     0.028 C 
ATOM     56  C   UNL     1     -46.834  26.328  25.235  1.00  0.00     0.228 C 
ATOM     57  C   UNL     1     -47.779  24.893  26.876  1.00  0.00    -0.026 C 
ATOM     58  H   UNL     1     -49.422  26.274  27.140  1.00  0.00     0.050 H 
ATOM     59  H   UNL     1     -49.516  25.290  25.643  1.00  0.00     0.050 H 
ATOM     60  C   UNL     1     -46.694  24.938  25.814  1.00  0.00     0.029 C 
ATOM     61  O   UNL     1     -45.968  26.859  24.558  1.00  0.00    -0.274 OA
ATOM     62  H   UNL     1     -48.149  23.882  27.069  1.00  0.00     0.029 H 
ATOM     63  H   UNL     1     -47.385  25.294  27.819  1.00  0.00     0.029 H 
ATOM     64  H   UNL     1     -46.876  24.205  25.021  1.00  0.00     0.037 H 
ATOM     65  H   UNL     1     -45.701  24.790  26.244  1.00  0.00     0.037 H 
ENDBRANCH  50  54
ENDBRANCH  38  39
ENDBRANCH  35  38
ENDBRANCH   5  35
TORSDOF 8
ENDMDL
