MODEL 1
REMARK VINA RESULT:     -11.6      0.000      0.000
REMARK SMILES c1cc(-c2cn(Cc3ccc4cc(CNC5CCCC5)[nH]c4c3)nn2)c2cn[nH]c2c1
REMARK SMILES IDX 8 1 9 2 10 3 11 4 12 5 13 6 21 7 22 8 23 9 7 15 6 18 4 19
REMARK SMILES IDX 5 20 25 21 24 23 3 24 1 25 2 26 31 27 30 30 26 32 29 33
REMARK SMILES IDX 27 34 28 35 14 38 15 41 16 43 17 44 20 45 18 47 19 50
REMARK H PARENT 9 10 10 11 12 12 21 13 23 14 7 16 7 17 5 22 1 28 2 29 31 31
REMARK H PARENT 29 36 27 37 14 39 14 40 15 42 16 46 17 48 17 49 20 51 20 52
REMARK H PARENT 18 53 18 54 19 55 19 56
REMARK Flexibility Score: inf
ROOT
ATOM      1  C   UNL     1     -47.872  34.859  26.537  1.00  0.00    -0.024 A 
ATOM      2  C   UNL     1     -46.637  34.840  25.873  1.00  0.00    -0.056 A 
ATOM      3  C   UNL     1     -46.227  33.719  25.138  1.00  0.00    -0.052 A 
ATOM      4  C   UNL     1     -47.071  32.595  25.066  1.00  0.00    -0.000 A 
ATOM      5  C   UNL     1     -46.976  31.326  24.429  1.00  0.00    -0.032 A 
ATOM      6  C   UNL     1     -48.128  30.620  24.711  1.00  0.00     0.030 A 
ATOM      7  N   UNL     1     -48.915  31.428  25.498  1.00  0.00    -0.357 N 
ATOM      8  C   UNL     1     -48.294  32.631  25.732  1.00  0.00     0.046 A 
ATOM      9  C   UNL     1     -48.719  33.738  26.475  1.00  0.00    -0.033 A 
ATOM     10  H   UNL     1     -45.972  35.699  25.916  1.00  0.00     0.063 H 
ATOM     11  H   UNL     1     -45.268  33.718  24.629  1.00  0.00     0.063 H 
ATOM     12  H   UNL     1     -46.152  30.972  23.824  1.00  0.00     0.065 H 
ATOM     13  H   UNL     1     -49.813  31.147  25.871  1.00  0.00     0.166 HD
ATOM     14  H   UNL     1     -49.683  33.732  26.979  1.00  0.00     0.065 H 
ENDROOT
BRANCH   1  15
ATOM     15  C   UNL     1     -48.297  36.082  27.315  1.00  0.00     0.068 C 
ATOM     16  H   UNL     1     -48.781  35.813  28.261  1.00  0.00     0.057 H 
ATOM     17  H   UNL     1     -49.013  36.669  26.730  1.00  0.00     0.057 H 
BRANCH  15  18
ATOM     18  N   UNL     1     -47.164  36.926  27.651  1.00  0.00    -0.247 N 
ATOM     19  C   UNL     1     -45.639  38.451  27.745  1.00  0.00     0.113 A 
ATOM     20  C   UNL     1     -46.758  38.075  27.036  1.00  0.00     0.054 A 
ATOM     21  N   UNL     1     -45.381  37.508  28.707  1.00  0.00    -0.130 NA
ATOM     22  H   UNL     1     -47.281  38.496  26.191  1.00  0.00     0.086 H 
ATOM     23  N   UNL     1     -46.325  36.579  28.644  1.00  0.00    -0.066 NA
BRANCH  19  24
ATOM     24  C   UNL     1     -44.800  39.603  27.509  1.00  0.00     0.015 A 
ATOM     25  C   UNL     1     -44.132  41.457  26.067  1.00  0.00    -0.059 A 
ATOM     26  C   UNL     1     -44.922  40.333  26.312  1.00  0.00    -0.052 A 
ATOM     27  C   UNL     1     -43.187  41.890  27.000  1.00  0.00    -0.036 A 
ATOM     28  H   UNL     1     -44.254  42.002  25.133  1.00  0.00     0.062 H 
ATOM     29  H   UNL     1     -45.649  40.022  25.563  1.00  0.00     0.063 H 
ATOM     30  C   UNL     1     -43.063  41.143  28.177  1.00  0.00     0.066 A 
ATOM     31  H   UNL     1     -42.572  42.763  26.809  1.00  0.00     0.065 H 
ATOM     32  C   UNL     1     -43.834  40.015  28.453  1.00  0.00     0.029 A 
ATOM     33  N   UNL     1     -42.233  41.296  29.257  1.00  0.00    -0.278 N 
ATOM     34  C   UNL     1     -43.348  39.573  29.709  1.00  0.00     0.057 A 
ATOM     35  N   UNL     1     -42.389  40.359  30.206  1.00  0.00    -0.183 NA
ATOM     36  H   UNL     1     -41.535  42.015  29.402  1.00  0.00     0.190 HD
ATOM     37  H   UNL     1     -43.651  38.707  30.280  1.00  0.00     0.087 H 
ENDBRANCH  19  24
ENDBRANCH  15  18
ENDBRANCH   1  15
BRANCH   6  38
ATOM     38  C   UNL     1     -48.578  29.262  24.300  1.00  0.00     0.036 C 
ATOM     39  H   UNL     1     -48.086  28.979  23.362  1.00  0.00     0.049 H 
ATOM     40  H   UNL     1     -49.658  29.295  24.119  1.00  0.00     0.049 H 
BRANCH  38  41
ATOM     41  N   UNL     1     -48.245  28.310  25.359  1.00  0.00    -0.308 NA
ATOM     42  H   UNL     1     -47.380  28.634  25.794  1.00  0.00     0.123 HD
BRANCH  41  43
ATOM     43  C   UNL     1     -48.037  26.954  24.835  1.00  0.00     0.007 C 
ATOM     44  C   UNL     1     -48.842  25.899  25.599  1.00  0.00    -0.038 C 
ATOM     45  C   UNL     1     -46.605  26.498  25.139  1.00  0.00    -0.038 C 
ATOM     46  H   UNL     1     -48.227  26.919  23.756  1.00  0.00     0.046 H 
ATOM     47  C   UNL     1     -48.080  25.695  26.906  1.00  0.00    -0.052 C 
ATOM     48  H   UNL     1     -48.843  24.962  25.030  1.00  0.00     0.028 H 
ATOM     49  H   UNL     1     -49.887  26.169  25.774  1.00  0.00     0.028 H 
ATOM     50  C   UNL     1     -46.628  26.067  26.604  1.00  0.00    -0.052 C 
ATOM     51  H   UNL     1     -45.849  27.267  24.947  1.00  0.00     0.028 H 
ATOM     52  H   UNL     1     -46.356  25.635  24.509  1.00  0.00     0.028 H 
ATOM     53  H   UNL     1     -48.477  26.351  27.689  1.00  0.00     0.027 H 
ATOM     54  H   UNL     1     -48.171  24.664  27.264  1.00  0.00     0.027 H 
ATOM     55  H   UNL     1     -45.948  25.226  26.780  1.00  0.00     0.027 H 
ATOM     56  H   UNL     1     -46.309  26.889  27.255  1.00  0.00     0.027 H 
ENDBRANCH  41  43
ENDBRANCH  38  41
ENDBRANCH   6  38
TORSDOF 6
ENDMDL
MODEL 2
REMARK VINA RESULT:     -11.2      2.873      3.719
REMARK SMILES c1cc(-c2cn(Cc3ccc4cc(CNC5CCCC5)[nH]c4c3)nn2)c2cn[nH]c2c1
REMARK SMILES IDX 8 1 9 2 10 3 11 4 12 5 13 6 21 7 22 8 23 9 7 15 6 18 4 19
REMARK SMILES IDX 5 20 25 21 24 23 3 24 1 25 2 26 31 27 30 30 26 32 29 33
REMARK SMILES IDX 27 34 28 35 14 38 15 41 16 43 17 44 20 45 18 47 19 50
REMARK H PARENT 9 10 10 11 12 12 21 13 23 14 7 16 7 17 5 22 1 28 2 29 31 31
REMARK H PARENT 29 36 27 37 14 39 14 40 15 42 16 46 17 48 17 49 20 51 20 52
REMARK H PARENT 18 53 18 54 19 55 19 56
REMARK Flexibility Score: inf
ROOT
ATOM      1  C   UNL     1     -46.978  35.738  28.109  1.00  0.00    -0.024 A 
ATOM      2  C   UNL     1     -48.331  35.615  27.765  1.00  0.00    -0.056 A 
ATOM      3  C   UNL     1     -48.746  34.723  26.767  1.00  0.00    -0.052 A 
ATOM      4  C   UNL     1     -47.788  33.938  26.100  1.00  0.00    -0.000 A 
ATOM      5  C   UNL     1     -47.853  32.959  25.068  1.00  0.00    -0.032 A 
ATOM      6  C   UNL     1     -46.570  32.519  24.816  1.00  0.00     0.030 A 
ATOM      7  N   UNL     1     -45.733  33.202  25.667  1.00  0.00    -0.357 N 
ATOM      8  C   UNL     1     -46.447  34.073  26.454  1.00  0.00     0.046 A 
ATOM      9  C   UNL     1     -46.011  34.961  27.443  1.00  0.00    -0.033 A 
ATOM     10  H   UNL     1     -49.087  36.212  28.270  1.00  0.00     0.063 H 
ATOM     11  H   UNL     1     -49.798  34.638  26.511  1.00  0.00     0.063 H 
ATOM     12  H   UNL     1     -48.749  32.614  24.569  1.00  0.00     0.065 H 
ATOM     13  H   UNL     1     -44.728  33.089  25.677  1.00  0.00     0.166 HD
ATOM     14  H   UNL     1     -44.956  35.037  27.696  1.00  0.00     0.065 H 
ENDROOT
BRANCH   1  15
ATOM     15  C   UNL     1     -46.554  36.700  29.194  1.00  0.00     0.068 C 
ATOM     16  H   UNL     1     -45.664  36.344  29.726  1.00  0.00     0.057 H 
ATOM     17  H   UNL     1     -47.358  36.814  29.929  1.00  0.00     0.057 H 
BRANCH  15  18
ATOM     18  N   UNL     1     -46.224  38.006  28.655  1.00  0.00    -0.247 N 
ATOM     19  C   UNL     1     -45.256  39.762  27.852  1.00  0.00     0.113 A 
ATOM     20  C   UNL     1     -45.001  38.474  28.268  1.00  0.00     0.054 A 
ATOM     21  N   UNL     1     -46.585  40.041  28.050  1.00  0.00    -0.130 NA
ATOM     22  H   UNL     1     -44.107  37.872  28.321  1.00  0.00     0.086 H 
ATOM     23  N   UNL     1     -47.170  38.956  28.539  1.00  0.00    -0.066 NA
BRANCH  19  24
ATOM     24  C   UNL     1     -44.304  40.724  27.349  1.00  0.00     0.015 A 
ATOM     25  C   UNL     1     -43.611  42.276  25.596  1.00  0.00    -0.059 A 
ATOM     26  C   UNL     1     -44.510  41.334  26.097  1.00  0.00    -0.052 A 
ATOM     27  C   UNL     1     -42.472  42.640  26.317  1.00  0.00    -0.036 A 
ATOM     28  H   UNL     1     -43.801  42.733  24.626  1.00  0.00     0.062 H 
ATOM     29  H   UNL     1     -45.388  41.073  25.508  1.00  0.00     0.063 H 
ATOM     30  C   UNL     1     -42.269  42.011  27.550  1.00  0.00     0.066 A 
ATOM     31  H   UNL     1     -41.773  43.371  25.926  1.00  0.00     0.065 H 
ATOM     32  C   UNL     1     -43.145  41.064  28.080  1.00  0.00     0.029 A 
ATOM     33  N   UNL     1     -41.260  42.134  28.470  1.00  0.00    -0.278 N 
ATOM     34  C   UNL     1     -42.531  40.682  29.299  1.00  0.00     0.057 A 
ATOM     35  N   UNL     1     -41.397  41.342  29.545  1.00  0.00    -0.183 NA
ATOM     36  H   UNL     1     -40.447  42.737  28.416  1.00  0.00     0.190 HD
ATOM     37  H   UNL     1     -42.863  39.944  30.017  1.00  0.00     0.087 H 
ENDBRANCH  19  24
ENDBRANCH  15  18
ENDBRANCH   1  15
BRANCH   6  38
ATOM     38  C   UNL     1     -46.046  31.502  23.863  1.00  0.00     0.036 C 
ATOM     39  H   UNL     1     -46.651  30.590  23.929  1.00  0.00     0.049 H 
ATOM     40  H   UNL     1     -45.021  31.250  24.157  1.00  0.00     0.049 H 
BRANCH  38  41
ATOM     41  N   UNL     1     -46.093  32.051  22.509  1.00  0.00    -0.308 NA
ATOM     42  H   UNL     1     -47.000  32.505  22.399  1.00  0.00     0.123 HD
BRANCH  41  43
ATOM     43  C   UNL     1     -45.956  31.005  21.487  1.00  0.00     0.007 C 
ATOM     44  C   UNL     1     -45.991  31.567  20.063  1.00  0.00    -0.038 C 
ATOM     45  C   UNL     1     -47.212  30.125  21.478  1.00  0.00    -0.038 C 
ATOM     46  H   UNL     1     -45.065  30.395  21.669  1.00  0.00     0.046 H 
ATOM     47  C   UNL     1     -47.463  31.873  19.797  1.00  0.00    -0.052 C 
ATOM     48  H   UNL     1     -45.648  30.798  19.360  1.00  0.00     0.028 H 
ATOM     49  H   UNL     1     -45.358  32.446  19.909  1.00  0.00     0.028 H 
ATOM     50  C   UNL     1     -48.254  30.928  20.702  1.00  0.00    -0.052 C 
ATOM     51  H   UNL     1     -47.563  29.852  22.479  1.00  0.00     0.028 H 
ATOM     52  H   UNL     1     -46.999  29.191  20.944  1.00  0.00     0.028 H 
ATOM     53  H   UNL     1     -47.692  32.914  20.056  1.00  0.00     0.027 H 
ATOM     54  H   UNL     1     -47.715  31.734  18.741  1.00  0.00     0.027 H 
ATOM     55  H   UNL     1     -48.912  30.268  20.125  1.00  0.00     0.027 H 
ATOM     56  H   UNL     1     -48.886  31.506  21.386  1.00  0.00     0.027 H 
ENDBRANCH  41  43
ENDBRANCH  38  41
ENDBRANCH   6  38
TORSDOF 6
ENDMDL
MODEL 3
REMARK VINA RESULT:     -11.2      1.419      2.201
REMARK SMILES c1cc(-c2cn(Cc3ccc4cc(CNC5CCCC5)[nH]c4c3)nn2)c2cn[nH]c2c1
REMARK SMILES IDX 8 1 9 2 10 3 11 4 12 5 13 6 21 7 22 8 23 9 7 15 6 18 4 19
REMARK SMILES IDX 5 20 25 21 24 23 3 24 1 25 2 26 31 27 30 30 26 32 29 33
REMARK SMILES IDX 27 34 28 35 14 38 15 41 16 43 17 44 20 45 18 47 19 50
REMARK H PARENT 9 10 10 11 12 12 21 13 23 14 7 16 7 17 5 22 1 28 2 29 31 31
REMARK H PARENT 29 36 27 37 14 39 14 40 15 42 16 46 17 48 17 49 20 51 20 52
REMARK H PARENT 18 53 18 54 19 55 19 56
REMARK Flexibility Score: inf
ROOT
ATOM      1  C   UNL     1     -47.713  35.900  27.033  1.00  0.00    -0.024 A 
ATOM      2  C   UNL     1     -46.416  35.672  26.552  1.00  0.00    -0.056 A 
ATOM      3  C   UNL     1     -46.074  34.459  25.940  1.00  0.00    -0.052 A 
ATOM      4  C   UNL     1     -47.050  33.455  25.804  1.00  0.00    -0.000 A 
ATOM      5  C   UNL     1     -47.051  32.143  25.250  1.00  0.00    -0.032 A 
ATOM      6  C   UNL     1     -48.317  31.617  25.401  1.00  0.00     0.030 A 
ATOM      7  N   UNL     1     -49.081  32.574  26.028  1.00  0.00    -0.357 N 
ATOM      8  C   UNL     1     -48.334  33.698  26.287  1.00  0.00     0.046 A 
ATOM      9  C   UNL     1     -48.694  34.899  26.907  1.00  0.00    -0.033 A 
ATOM     10  H   UNL     1     -45.649  36.437  26.647  1.00  0.00     0.063 H 
ATOM     11  H   UNL     1     -45.065  34.297  25.572  1.00  0.00     0.063 H 
ATOM     12  H   UNL     1     -46.211  31.643  24.787  1.00  0.00     0.065 H 
ATOM     13  H   UNL     1     -50.051  32.441  26.283  1.00  0.00     0.166 HD
ATOM     14  H   UNL     1     -49.708  35.055  27.269  1.00  0.00     0.065 H 
ENDROOT
BRANCH   1  15
ATOM     15  C   UNL     1     -48.062  37.219  27.682  1.00  0.00     0.068 C 
ATOM     16  H   UNL     1     -48.238  37.107  28.758  1.00  0.00     0.057 H 
ATOM     17  H   UNL     1     -48.977  37.626  27.237  1.00  0.00     0.057 H 
BRANCH  15  18
ATOM     18  N   UNL     1     -46.996  38.191  27.531  1.00  0.00    -0.247 N 
ATOM     19  C   UNL     1     -45.261  39.456  27.761  1.00  0.00     0.113 A 
ATOM     20  C   UNL     1     -45.955  38.439  28.378  1.00  0.00     0.054 A 
ATOM     21  N   UNL     1     -45.922  39.817  26.615  1.00  0.00    -0.130 NA
ATOM     22  H   UNL     1     -45.813  37.892  29.298  1.00  0.00     0.086 H 
ATOM     23  N   UNL     1     -46.983  39.033  26.480  1.00  0.00    -0.066 NA
BRANCH  19  24
ATOM     24  C   UNL     1     -44.067  40.115  28.236  1.00  0.00     0.015 A 
ATOM     25  C   UNL     1     -42.299  40.312  29.909  1.00  0.00    -0.059 A 
ATOM     26  C   UNL     1     -43.460  39.699  29.437  1.00  0.00    -0.052 A 
ATOM     27  C   UNL     1     -41.703  41.363  29.209  1.00  0.00    -0.036 A 
ATOM     28  H   UNL     1     -41.851  39.964  30.838  1.00  0.00     0.062 H 
ATOM     29  H   UNL     1     -43.898  38.882  30.007  1.00  0.00     0.063 H 
ATOM     30  C   UNL     1     -42.328  41.779  28.028  1.00  0.00     0.066 A 
ATOM     31  H   UNL     1     -40.801  41.840  29.577  1.00  0.00     0.065 H 
ATOM     32  C   UNL     1     -43.489  41.191  27.528  1.00  0.00     0.029 A 
ATOM     33  N   UNL     1     -42.007  42.774  27.141  1.00  0.00    -0.278 N 
ATOM     34  C   UNL     1     -43.772  41.944  26.361  1.00  0.00     0.057 A 
ATOM     35  N   UNL     1     -42.865  42.893  26.116  1.00  0.00    -0.183 NA
ATOM     36  H   UNL     1     -41.220  43.410  27.186  1.00  0.00     0.190 HD
ATOM     37  H   UNL     1     -44.607  41.841  25.681  1.00  0.00     0.087 H 
ENDBRANCH  19  24
ENDBRANCH  15  18
ENDBRANCH   1  15
BRANCH   6  38
ATOM     38  C   UNL     1     -48.895  30.306  24.998  1.00  0.00     0.036 C 
ATOM     39  H   UNL     1     -48.496  30.013  24.020  1.00  0.00     0.049 H 
ATOM     40  H   UNL     1     -49.980  30.422  24.900  1.00  0.00     0.049 H 
BRANCH  38  41
ATOM     41  N   UNL     1     -48.555  29.306  26.010  1.00  0.00    -0.308 NA
ATOM     42  H   UNL     1     -47.537  29.239  26.037  1.00  0.00     0.123 HD
BRANCH  41  43
ATOM     43  C   UNL     1     -49.111  27.986  25.687  1.00  0.00     0.007 C 
ATOM     44  C   UNL     1     -48.713  26.915  26.707  1.00  0.00    -0.038 C 
ATOM     45  C   UNL     1     -48.440  27.439  24.422  1.00  0.00    -0.038 C 
ATOM     46  H   UNL     1     -50.197  28.043  25.548  1.00  0.00     0.046 H 
ATOM     47  C   UNL     1     -47.263  26.575  26.373  1.00  0.00    -0.052 C 
ATOM     48  H   UNL     1     -49.337  26.025  26.561  1.00  0.00     0.028 H 
ATOM     49  H   UNL     1     -48.831  27.221  27.750  1.00  0.00     0.028 H 
ATOM     50  C   UNL     1     -47.090  26.899  24.889  1.00  0.00    -0.052 C 
ATOM     51  H   UNL     1     -48.334  28.184  23.625  1.00  0.00     0.028 H 
ATOM     52  H   UNL     1     -49.042  26.616  24.016  1.00  0.00     0.028 H 
ATOM     53  H   UNL     1     -46.577  27.188  26.970  1.00  0.00     0.027 H 
ATOM     54  H   UNL     1     -47.039  25.526  26.591  1.00  0.00     0.027 H 
ATOM     55  H   UNL     1     -46.796  26.015  24.311  1.00  0.00     0.027 H 
ATOM     56  H   UNL     1     -46.306  27.652  24.759  1.00  0.00     0.027 H 
ENDBRANCH  41  43
ENDBRANCH  38  41
ENDBRANCH   6  38
TORSDOF 6
ENDMDL
MODEL 4
REMARK VINA RESULT:     -10.9      1.457      2.279
REMARK SMILES c1cc(-c2cn(Cc3ccc4cc(CNC5CCCC5)[nH]c4c3)nn2)c2cn[nH]c2c1
REMARK SMILES IDX 8 1 9 2 10 3 11 4 12 5 13 6 21 7 22 8 23 9 7 15 6 18 4 19
REMARK SMILES IDX 5 20 25 21 24 23 3 24 1 25 2 26 31 27 30 30 26 32 29 33
REMARK SMILES IDX 27 34 28 35 14 38 15 41 16 43 17 44 20 45 18 47 19 50
REMARK H PARENT 9 10 10 11 12 12 21 13 23 14 7 16 7 17 5 22 1 28 2 29 31 31
REMARK H PARENT 29 36 27 37 14 39 14 40 15 42 16 46 17 48 17 49 20 51 20 52
REMARK H PARENT 18 53 18 54 19 55 19 56
REMARK Flexibility Score: inf
ROOT
ATOM      1  C   UNL     1     -48.182  33.802  26.093  1.00  0.00    -0.024 A 
ATOM      2  C   UNL     1     -46.930  33.868  25.464  1.00  0.00    -0.056 A 
ATOM      3  C   UNL     1     -46.425  32.780  24.741  1.00  0.00    -0.052 A 
ATOM      4  C   UNL     1     -47.188  31.601  24.643  1.00  0.00    -0.000 A 
ATOM      5  C   UNL     1     -46.990  30.343  24.008  1.00  0.00    -0.032 A 
ATOM      6  C   UNL     1     -48.098  29.560  24.257  1.00  0.00     0.030 A 
ATOM      7  N   UNL     1     -48.960  30.310  25.022  1.00  0.00    -0.357 N 
ATOM      8  C   UNL     1     -48.429  31.553  25.274  1.00  0.00     0.046 A 
ATOM      9  C   UNL     1     -48.949  32.625  26.007  1.00  0.00    -0.033 A 
ATOM     10  H   UNL     1     -46.327  34.771  25.527  1.00  0.00     0.063 H 
ATOM     11  H   UNL     1     -45.454  32.845  24.259  1.00  0.00     0.063 H 
ATOM     12  H   UNL     1     -46.126  30.048  23.427  1.00  0.00     0.065 H 
ATOM     13  H   UNL     1     -49.847  29.968  25.369  1.00  0.00     0.166 HD
ATOM     14  H   UNL     1     -49.924  32.552  26.483  1.00  0.00     0.065 H 
ENDROOT
BRANCH   1  15
ATOM     15  C   UNL     1     -48.710  34.990  26.861  1.00  0.00     0.068 C 
ATOM     16  H   UNL     1     -49.512  34.704  27.551  1.00  0.00     0.057 H 
ATOM     17  H   UNL     1     -49.119  35.734  26.166  1.00  0.00     0.057 H 
BRANCH  15  18
ATOM     18  N   UNL     1     -47.674  35.618  27.660  1.00  0.00    -0.247 N 
ATOM     19  C   UNL     1     -46.154  36.911  28.485  1.00  0.00     0.113 A 
ATOM     20  C   UNL     1     -47.044  36.809  27.440  1.00  0.00     0.054 A 
ATOM     21  N   UNL     1     -46.235  35.777  29.254  1.00  0.00    -0.130 NA
ATOM     22  H   UNL     1     -47.280  37.442  26.598  1.00  0.00     0.086 H 
ATOM     23  N   UNL     1     -47.174  34.992  28.742  1.00  0.00    -0.066 NA
BRANCH  19  24
ATOM     24  C   UNL     1     -45.218  37.981  28.736  1.00  0.00     0.015 A 
ATOM     25  C   UNL     1     -43.503  38.985  30.155  1.00  0.00    -0.059 A 
ATOM     26  C   UNL     1     -44.424  37.968  29.898  1.00  0.00    -0.052 A 
ATOM     27  C   UNL     1     -43.344  40.053  29.271  1.00  0.00    -0.036 A 
ATOM     28  H   UNL     1     -42.901  38.943  31.061  1.00  0.00     0.062 H 
ATOM     29  H   UNL     1     -44.523  37.150  30.609  1.00  0.00     0.063 H 
ATOM     30  C   UNL     1     -44.153  40.064  28.129  1.00  0.00     0.066 A 
ATOM     31  H   UNL     1     -42.629  40.844  29.472  1.00  0.00     0.065 H 
ATOM     32  C   UNL     1     -45.085  39.067  27.842  1.00  0.00     0.029 A 
ATOM     33  N   UNL     1     -44.248  40.963  27.099  1.00  0.00    -0.278 N 
ATOM     34  C   UNL     1     -45.685  39.504  26.635  1.00  0.00     0.057 A 
ATOM     35  N   UNL     1     -45.166  40.645  26.174  1.00  0.00    -0.183 NA
ATOM     36  H   UNL     1     -43.716  41.817  26.976  1.00  0.00     0.190 HD
ATOM     37  H   UNL     1     -46.484  39.037  26.074  1.00  0.00     0.087 H 
ENDBRANCH  19  24
ENDBRANCH  15  18
ENDBRANCH   1  15
BRANCH   6  38
ATOM     38  C   UNL     1     -48.444  28.175  23.832  1.00  0.00     0.036 C 
ATOM     39  H   UNL     1     -48.378  28.098  22.741  1.00  0.00     0.049 H 
ATOM     40  H   UNL     1     -49.479  27.973  24.124  1.00  0.00     0.049 H 
BRANCH  38  41
ATOM     41  N   UNL     1     -47.518  27.239  24.468  1.00  0.00    -0.308 NA
ATOM     42  H   UNL     1     -47.746  26.307  24.121  1.00  0.00     0.123 HD
BRANCH  41  43
ATOM     43  C   UNL     1     -47.644  27.247  25.931  1.00  0.00     0.007 C 
ATOM     44  C   UNL     1     -46.738  26.214  26.605  1.00  0.00    -0.038 C 
ATOM     45  C   UNL     1     -49.027  26.721  26.332  1.00  0.00    -0.038 C 
ATOM     46  H   UNL     1     -47.491  28.256  26.330  1.00  0.00     0.046 H 
ATOM     47  C   UNL     1     -47.436  24.875  26.382  1.00  0.00    -0.052 C 
ATOM     48  H   UNL     1     -46.687  26.422  27.681  1.00  0.00     0.028 H 
ATOM     49  H   UNL     1     -45.709  26.205  26.232  1.00  0.00     0.028 H 
ATOM     50  C   UNL     1     -48.921  25.201  26.221  1.00  0.00    -0.052 C 
ATOM     51  H   UNL     1     -49.844  27.123  25.722  1.00  0.00     0.028 H 
ATOM     52  H   UNL     1     -49.235  26.997  27.373  1.00  0.00     0.028 H 
ATOM     53  H   UNL     1     -47.060  24.392  25.472  1.00  0.00     0.027 H 
ATOM     54  H   UNL     1     -47.256  24.187  27.215  1.00  0.00     0.027 H 
ATOM     55  H   UNL     1     -49.531  24.705  26.984  1.00  0.00     0.027 H 
ATOM     56  H   UNL     1     -49.276  24.858  25.243  1.00  0.00     0.027 H 
ENDBRANCH  41  43
ENDBRANCH  38  41
ENDBRANCH   6  38
TORSDOF 6
ENDMDL
MODEL 5
REMARK VINA RESULT:     -10.7      1.569      2.172
REMARK SMILES c1cc(-c2cn(Cc3ccc4cc(CNC5CCCC5)[nH]c4c3)nn2)c2cn[nH]c2c1
REMARK SMILES IDX 8 1 9 2 10 3 11 4 12 5 13 6 21 7 22 8 23 9 7 15 6 18 4 19
REMARK SMILES IDX 5 20 25 21 24 23 3 24 1 25 2 26 31 27 30 30 26 32 29 33
REMARK SMILES IDX 27 34 28 35 14 38 15 41 16 43 17 44 20 45 18 47 19 50
REMARK H PARENT 9 10 10 11 12 12 21 13 23 14 7 16 7 17 5 22 1 28 2 29 31 31
REMARK H PARENT 29 36 27 37 14 39 14 40 15 42 16 46 17 48 17 49 20 51 20 52
REMARK H PARENT 18 53 18 54 19 55 19 56
REMARK Flexibility Score: inf
ROOT
ATOM      1  C   UNL     1     -47.786  36.089  27.154  1.00  0.00    -0.024 A 
ATOM      2  C   UNL     1     -46.479  35.801  26.735  1.00  0.00    -0.056 A 
ATOM      3  C   UNL     1     -46.166  34.577  26.129  1.00  0.00    -0.052 A 
ATOM      4  C   UNL     1     -47.182  33.622  25.936  1.00  0.00    -0.000 A 
ATOM      5  C   UNL     1     -47.218  32.316  25.370  1.00  0.00    -0.032 A 
ATOM      6  C   UNL     1     -48.515  31.852  25.454  1.00  0.00     0.030 A 
ATOM      7  N   UNL     1     -49.262  32.840  26.052  1.00  0.00    -0.357 N 
ATOM      8  C   UNL     1     -48.474  33.924  26.358  1.00  0.00     0.046 A 
ATOM      9  C   UNL     1     -48.807  35.137  26.971  1.00  0.00    -0.033 A 
ATOM     10  H   UNL     1     -45.682  36.527  26.874  1.00  0.00     0.063 H 
ATOM     11  H   UNL     1     -45.150  34.368  25.809  1.00  0.00     0.063 H 
ATOM     12  H   UNL     1     -46.382  31.779  24.944  1.00  0.00     0.065 H 
ATOM     13  H   UNL     1     -50.248  32.752  26.258  1.00  0.00     0.166 HD
ATOM     14  H   UNL     1     -49.828  35.340  27.284  1.00  0.00     0.065 H 
ENDROOT
BRANCH   1  15
ATOM     15  C   UNL     1     -48.103  37.418  27.798  1.00  0.00     0.068 C 
ATOM     16  H   UNL     1     -48.558  37.291  28.786  1.00  0.00     0.057 H 
ATOM     17  H   UNL     1     -48.810  37.977  27.175  1.00  0.00     0.057 H 
BRANCH  15  18
ATOM     18  N   UNL     1     -46.908  38.221  27.986  1.00  0.00    -0.247 N 
ATOM     19  C   UNL     1     -45.261  39.605  27.808  1.00  0.00     0.113 A 
ATOM     20  C   UNL     1     -46.395  39.176  27.156  1.00  0.00     0.054 A 
ATOM     21  N   UNL     1     -45.100  38.873  28.957  1.00  0.00    -0.130 NA
ATOM     22  H   UNL     1     -46.866  39.447  26.223  1.00  0.00     0.086 H 
ATOM     23  N   UNL     1     -46.119  38.030  29.059  1.00  0.00    -0.066 NA
BRANCH  19  24
ATOM     24  C   UNL     1     -44.323  40.609  27.362  1.00  0.00     0.015 A 
ATOM     25  C   UNL     1     -43.621  42.230  25.676  1.00  0.00    -0.059 A 
ATOM     26  C   UNL     1     -44.507  41.247  26.121  1.00  0.00    -0.052 A 
ATOM     27  C   UNL     1     -42.519  42.608  26.444  1.00  0.00    -0.036 A 
ATOM     28  H   UNL     1     -43.794  42.707  24.713  1.00  0.00     0.062 H 
ATOM     29  H   UNL     1     -45.357  40.977  25.496  1.00  0.00     0.063 H 
ATOM     30  C   UNL     1     -42.337  41.951  27.667  1.00  0.00     0.066 A 
ATOM     31  H   UNL     1     -41.830  43.370  26.097  1.00  0.00     0.065 H 
ATOM     32  C   UNL     1     -43.200  40.965  28.141  1.00  0.00     0.029 A 
ATOM     33  N   UNL     1     -41.363  42.080  28.623  1.00  0.00    -0.278 N 
ATOM     34  C   UNL     1     -42.615  40.568  29.369  1.00  0.00     0.057 A 
ATOM     35  N   UNL     1     -41.510  41.255  29.671  1.00  0.00    -0.183 NA
ATOM     36  H   UNL     1     -40.568  42.708  28.612  1.00  0.00     0.190 HD
ATOM     37  H   UNL     1     -42.948  39.800  30.056  1.00  0.00     0.087 H 
ENDBRANCH  19  24
ENDBRANCH  15  18
ENDBRANCH   1  15
BRANCH   6  38
ATOM     38  C   UNL     1     -49.135  30.573  25.011  1.00  0.00     0.036 C 
ATOM     39  H   UNL     1     -49.466  30.665  23.970  1.00  0.00     0.049 H 
ATOM     40  H   UNL     1     -50.017  30.384  25.632  1.00  0.00     0.049 H 
BRANCH  38  41
ATOM     41  N   UNL     1     -48.152  29.498  25.141  1.00  0.00    -0.308 NA
ATOM     42  H   UNL     1     -47.232  29.937  25.205  1.00  0.00     0.123 HD
BRANCH  41  43
ATOM     43  C   UNL     1     -48.170  28.594  23.984  1.00  0.00     0.007 C 
ATOM     44  C   UNL     1     -46.780  28.047  23.644  1.00  0.00    -0.038 C 
ATOM     45  C   UNL     1     -48.483  29.390  22.712  1.00  0.00    -0.038 C 
ATOM     46  H   UNL     1     -48.906  27.795  24.124  1.00  0.00     0.046 H 
ATOM     47  C   UNL     1     -46.064  29.201  22.947  1.00  0.00    -0.052 C 
ATOM     48  H   UNL     1     -46.881  27.208  22.945  1.00  0.00     0.028 H 
ATOM     49  H   UNL     1     -46.217  27.679  24.507  1.00  0.00     0.028 H 
ATOM     50  C   UNL     1     -47.166  30.062  22.329  1.00  0.00    -0.052 C 
ATOM     51  H   UNL     1     -49.296  30.114  22.837  1.00  0.00     0.028 H 
ATOM     52  H   UNL     1     -48.786  28.699  21.915  1.00  0.00     0.028 H 
ATOM     53  H   UNL     1     -45.492  29.792  23.671  1.00  0.00     0.027 H 
ATOM     54  H   UNL     1     -45.360  28.836  22.192  1.00  0.00     0.027 H 
ATOM     55  H   UNL     1     -47.062  30.137  21.241  1.00  0.00     0.027 H 
ATOM     56  H   UNL     1     -47.119  31.079  22.734  1.00  0.00     0.027 H 
ENDBRANCH  41  43
ENDBRANCH  38  41
ENDBRANCH   6  38
TORSDOF 6
ENDMDL
MODEL 6
REMARK VINA RESULT:     -10.4      2.364      3.774
REMARK SMILES c1cc(-c2cn(Cc3ccc4cc(CNC5CCCC5)[nH]c4c3)nn2)c2cn[nH]c2c1
REMARK SMILES IDX 8 1 9 2 10 3 11 4 12 5 13 6 21 7 22 8 23 9 7 15 6 18 4 19
REMARK SMILES IDX 5 20 25 21 24 23 3 24 1 25 2 26 31 27 30 30 26 32 29 33
REMARK SMILES IDX 27 34 28 35 14 38 15 41 16 43 17 44 20 45 18 47 19 50
REMARK H PARENT 9 10 10 11 12 12 21 13 23 14 7 16 7 17 5 22 1 28 2 29 31 31
REMARK H PARENT 29 36 27 37 14 39 14 40 15 42 16 46 17 48 17 49 20 51 20 52
REMARK H PARENT 18 53 18 54 19 55 19 56
REMARK Flexibility Score: inf
ROOT
ATOM      1  C   UNL     1     -46.734  36.914  28.266  1.00  0.00    -0.024 A 
ATOM      2  C   UNL     1     -48.118  36.759  28.104  1.00  0.00    -0.056 A 
ATOM      3  C   UNL     1     -48.643  35.733  27.307  1.00  0.00    -0.052 A 
ATOM      4  C   UNL     1     -47.766  34.843  26.660  1.00  0.00    -0.000 A 
ATOM      5  C   UNL     1     -47.947  33.721  25.803  1.00  0.00    -0.032 A 
ATOM      6  C   UNL     1     -46.701  33.230  25.473  1.00  0.00     0.030 A 
ATOM      7  N   UNL     1     -45.772  34.022  26.108  1.00  0.00    -0.357 N 
ATOM      8  C   UNL     1     -46.393  35.011  26.832  1.00  0.00     0.046 A 
ATOM      9  C   UNL     1     -45.848  36.032  27.618  1.00  0.00    -0.033 A 
ATOM     10  H   UNL     1     -48.811  37.435  28.597  1.00  0.00     0.063 H 
ATOM     11  H   UNL     1     -49.717  35.625  27.191  1.00  0.00     0.063 H 
ATOM     12  H   UNL     1     -48.893  33.317  25.469  1.00  0.00     0.065 H 
ATOM     13  H   UNL     1     -44.773  33.898  26.018  1.00  0.00     0.166 HD
ATOM     14  H   UNL     1     -44.771  36.131  27.732  1.00  0.00     0.065 H 
ENDROOT
BRANCH   1  15
ATOM     15  C   UNL     1     -46.190  38.021  29.137  1.00  0.00     0.068 C 
ATOM     16  H   UNL     1     -45.296  37.704  29.686  1.00  0.00     0.057 H 
ATOM     17  H   UNL     1     -46.943  38.323  29.874  1.00  0.00     0.057 H 
BRANCH  15  18
ATOM     18  N   UNL     1     -45.810  39.183  28.354  1.00  0.00    -0.247 N 
ATOM     19  C   UNL     1     -44.770  40.736  27.274  1.00  0.00     0.113 A 
ATOM     20  C   UNL     1     -44.556  39.579  27.987  1.00  0.00     0.054 A 
ATOM     21  N   UNL     1     -46.111  41.025  27.281  1.00  0.00    -0.130 NA
ATOM     22  H   UNL     1     -43.671  39.022  28.255  1.00  0.00     0.086 H 
ATOM     23  N   UNL     1     -46.741  40.064  27.943  1.00  0.00    -0.066 NA
BRANCH  19  24
ATOM     24  C   UNL     1     -43.774  41.583  26.659  1.00  0.00     0.015 A 
ATOM     25  C   UNL     1     -41.445  42.291  26.469  1.00  0.00    -0.059 A 
ATOM     26  C   UNL     1     -42.427  41.494  27.058  1.00  0.00    -0.052 A 
ATOM     27  C   UNL     1     -41.767  43.210  25.469  1.00  0.00    -0.036 A 
ATOM     28  H   UNL     1     -40.411  42.195  26.797  1.00  0.00     0.062 H 
ATOM     29  H   UNL     1     -42.141  40.787  27.836  1.00  0.00     0.063 H 
ATOM     30  C   UNL     1     -43.113  43.302  25.096  1.00  0.00     0.066 A 
ATOM     31  H   UNL     1     -41.004  43.831  25.013  1.00  0.00     0.065 H 
ATOM     32  C   UNL     1     -44.120  42.523  25.664  1.00  0.00     0.029 A 
ATOM     33  N   UNL     1     -43.741  44.102  24.177  1.00  0.00    -0.278 N 
ATOM     34  C   UNL     1     -45.299  42.975  25.020  1.00  0.00     0.057 A 
ATOM     35  N   UNL     1     -45.069  43.920  24.106  1.00  0.00    -0.183 NA
ATOM     36  H   UNL     1     -43.317  44.797  23.573  1.00  0.00     0.190 HD
ATOM     37  H   UNL     1     -46.319  42.655  25.185  1.00  0.00     0.087 H 
ENDBRANCH  19  24
ENDBRANCH  15  18
ENDBRANCH   1  15
BRANCH   6  38
ATOM     38  C   UNL     1     -46.287  32.074  24.631  1.00  0.00     0.036 C 
ATOM     39  H   UNL     1     -45.273  31.763  24.907  1.00  0.00     0.049 H 
ATOM     40  H   UNL     1     -46.269  32.398  23.585  1.00  0.00     0.049 H 
BRANCH  38  41
ATOM     41  N   UNL     1     -47.232  30.976  24.833  1.00  0.00    -0.308 NA
ATOM     42  H   UNL     1     -46.737  30.243  25.342  1.00  0.00     0.123 HD
BRANCH  41  43
ATOM     43  C   UNL     1     -47.719  30.429  23.561  1.00  0.00     0.007 C 
ATOM     44  C   UNL     1     -48.852  29.417  23.753  1.00  0.00    -0.038 C 
ATOM     45  C   UNL     1     -46.641  29.536  22.936  1.00  0.00    -0.038 C 
ATOM     46  H   UNL     1     -47.995  31.233  22.870  1.00  0.00     0.046 H 
ATOM     47  C   UNL     1     -48.163  28.142  24.233  1.00  0.00    -0.052 C 
ATOM     48  H   UNL     1     -49.336  29.226  22.787  1.00  0.00     0.028 H 
ATOM     49  H   UNL     1     -49.635  29.742  24.444  1.00  0.00     0.028 H 
ATOM     50  C   UNL     1     -46.735  28.211  23.691  1.00  0.00    -0.052 C 
ATOM     51  H   UNL     1     -45.634  29.967  22.982  1.00  0.00     0.028 H 
ATOM     52  H   UNL     1     -46.873  29.370  21.877  1.00  0.00     0.028 H 
ATOM     53  H   UNL     1     -48.143  28.105  25.329  1.00  0.00     0.027 H 
ATOM     54  H   UNL     1     -48.689  27.248  23.885  1.00  0.00     0.027 H 
ATOM     55  H   UNL     1     -46.508  27.365  23.033  1.00  0.00     0.027 H 
ATOM     56  H   UNL     1     -46.018  28.186  24.519  1.00  0.00     0.027 H 
ENDBRANCH  41  43
ENDBRANCH  38  41
ENDBRANCH   6  38
TORSDOF 6
ENDMDL
MODEL 7
REMARK VINA RESULT:     -10.3      2.343      3.315
REMARK SMILES c1cc(-c2cn(Cc3ccc4cc(CNC5CCCC5)[nH]c4c3)nn2)c2cn[nH]c2c1
REMARK SMILES IDX 8 1 9 2 10 3 11 4 12 5 13 6 21 7 22 8 23 9 7 15 6 18 4 19
REMARK SMILES IDX 5 20 25 21 24 23 3 24 1 25 2 26 31 27 30 30 26 32 29 33
REMARK SMILES IDX 27 34 28 35 14 38 15 41 16 43 17 44 20 45 18 47 19 50
REMARK H PARENT 9 10 10 11 12 12 21 13 23 14 7 16 7 17 5 22 1 28 2 29 31 31
REMARK H PARENT 29 36 27 37 14 39 14 40 15 42 16 46 17 48 17 49 20 51 20 52
REMARK H PARENT 18 53 18 54 19 55 19 56
REMARK Flexibility Score: inf
ROOT
ATOM      1  C   UNL     1     -47.694  35.984  27.054  1.00  0.00    -0.024 A 
ATOM      2  C   UNL     1     -46.386  35.686  26.647  1.00  0.00    -0.056 A 
ATOM      3  C   UNL     1     -46.073  34.450  26.066  1.00  0.00    -0.052 A 
ATOM      4  C   UNL     1     -47.089  33.494  25.887  1.00  0.00    -0.000 A 
ATOM      5  C   UNL     1     -47.125  32.177  25.347  1.00  0.00    -0.032 A 
ATOM      6  C   UNL     1     -48.423  31.716  25.434  1.00  0.00     0.030 A 
ATOM      7  N   UNL     1     -49.171  32.717  26.009  1.00  0.00    -0.357 N 
ATOM      8  C   UNL     1     -48.383  33.806  26.298  1.00  0.00     0.046 A 
ATOM      9  C   UNL     1     -48.716  35.031  26.886  1.00  0.00    -0.033 A 
ATOM     10  H   UNL     1     -45.588  36.414  26.775  1.00  0.00     0.063 H 
ATOM     11  H   UNL     1     -45.055  34.234  25.755  1.00  0.00     0.063 H 
ATOM     12  H   UNL     1     -46.288  31.630  24.935  1.00  0.00     0.065 H 
ATOM     13  H   UNL     1     -50.158  32.635  26.213  1.00  0.00     0.166 HD
ATOM     14  H   UNL     1     -49.738  35.241  27.191  1.00  0.00     0.065 H 
ENDROOT
BRANCH   1  15
ATOM     15  C   UNL     1     -48.011  37.326  27.671  1.00  0.00     0.068 C 
ATOM     16  H   UNL     1     -48.176  37.247  28.752  1.00  0.00     0.057 H 
ATOM     17  H   UNL     1     -48.924  37.738  27.225  1.00  0.00     0.057 H 
BRANCH  15  18
ATOM     18  N   UNL     1     -46.929  38.274  27.480  1.00  0.00    -0.247 N 
ATOM     19  C   UNL     1     -45.187  39.535  27.669  1.00  0.00     0.113 A 
ATOM     20  C   UNL     1     -45.911  38.575  28.339  1.00  0.00     0.054 A 
ATOM     21  N   UNL     1     -45.809  39.817  26.479  1.00  0.00    -0.130 NA
ATOM     22  H   UNL     1     -45.803  38.096  29.301  1.00  0.00     0.086 H 
ATOM     23  N   UNL     1     -46.875  39.034  26.371  1.00  0.00    -0.066 NA
BRANCH  19  24
ATOM     24  C   UNL     1     -43.999  40.216  28.131  1.00  0.00     0.015 A 
ATOM     25  C   UNL     1     -42.244  40.478  29.807  1.00  0.00    -0.059 A 
ATOM     26  C   UNL     1     -43.399  39.843  29.348  1.00  0.00    -0.052 A 
ATOM     27  C   UNL     1     -41.649  41.509  29.078  1.00  0.00    -0.036 A 
ATOM     28  H   UNL     1     -41.801  40.163  30.750  1.00  0.00     0.062 H 
ATOM     29  H   UNL     1     -43.836  39.043  29.942  1.00  0.00     0.063 H 
ATOM     30  C   UNL     1     -42.268  41.883  27.879  1.00  0.00     0.066 A 
ATOM     31  H   UNL     1     -40.753  42.003  29.436  1.00  0.00     0.065 H 
ATOM     32  C   UNL     1     -43.423  41.273  27.392  1.00  0.00     0.029 A 
ATOM     33  N   UNL     1     -41.948  42.850  26.963  1.00  0.00    -0.278 N 
ATOM     34  C   UNL     1     -43.703  41.985  26.199  1.00  0.00     0.057 A 
ATOM     35  N   UNL     1     -42.799  42.931  25.929  1.00  0.00    -0.183 NA
ATOM     36  H   UNL     1     -41.164  43.492  26.992  1.00  0.00     0.190 HD
ATOM     37  H   UNL     1     -44.533  41.856  25.517  1.00  0.00     0.087 H 
ENDBRANCH  19  24
ENDBRANCH  15  18
ENDBRANCH   1  15
BRANCH   6  38
ATOM     38  C   UNL     1     -49.043  30.430  25.014  1.00  0.00     0.036 C 
ATOM     39  H   UNL     1     -50.131  30.552  24.943  1.00  0.00     0.049 H 
ATOM     40  H   UNL     1     -48.836  29.678  25.783  1.00  0.00     0.049 H 
BRANCH  38  41
ATOM     41  N   UNL     1     -48.488  30.035  23.720  1.00  0.00    -0.308 NA
ATOM     42  H   UNL     1     -47.472  30.030  23.817  1.00  0.00     0.123 HD
BRANCH  41  43
ATOM     43  C   UNL     1     -48.861  30.972  22.652  1.00  0.00     0.007 C 
ATOM     44  C   UNL     1     -50.349  30.894  22.296  1.00  0.00    -0.038 C 
ATOM     45  C   UNL     1     -48.227  30.527  21.330  1.00  0.00    -0.038 C 
ATOM     46  H   UNL     1     -48.548  31.992  22.901  1.00  0.00     0.046 H 
ATOM     47  C   UNL     1     -50.487  29.623  21.463  1.00  0.00    -0.052 C 
ATOM     48  H   UNL     1     -50.621  31.762  21.683  1.00  0.00     0.028 H 
ATOM     49  H   UNL     1     -51.019  30.890  23.160  1.00  0.00     0.028 H 
ATOM     50  C   UNL     1     -49.117  29.393  20.823  1.00  0.00    -0.052 C 
ATOM     51  H   UNL     1     -47.180  30.217  21.428  1.00  0.00     0.028 H 
ATOM     52  H   UNL     1     -48.252  31.358  20.615  1.00  0.00     0.028 H 
ATOM     53  H   UNL     1     -50.747  28.771  22.101  1.00  0.00     0.027 H 
ATOM     54  H   UNL     1     -51.277  29.722  20.711  1.00  0.00     0.027 H 
ATOM     55  H   UNL     1     -49.174  29.394  19.729  1.00  0.00     0.027 H 
ATOM     56  H   UNL     1     -48.719  28.421  21.131  1.00  0.00     0.027 H 
ENDBRANCH  41  43
ENDBRANCH  38  41
ENDBRANCH   6  38
TORSDOF 6
ENDMDL
