MODEL 1
REMARK VINA RESULT:      -9.6      0.000      0.000
REMARK SMILES CNc1ccc2ccc(CC[C@H]3C[C@@H](n4cc(C5CCCCC5)c5c(N)ncnc54)[C@H](O)[C@@H]3O)cc2n1
REMARK SMILES IDX 10 1 9 4 3 5 4 6 37 7 5 8 36 10 6 11 35 13 7 14 8 16 2 19
REMARK SMILES IDX 1 21 11 25 12 28 13 29 33 30 14 32 31 35 34 39 15 41 16 42
REMARK SMILES IDX 30 43 17 44 24 46 29 47 25 48 28 49 27 50 18 52 19 53 23 54
REMARK SMILES IDX 20 56 22 59 21 62 26 69 32 72
REMARK H PARENT 10 2 10 3 4 9 5 12 35 15 7 17 8 18 2 20 1 22 1 23 1 24 11 26
REMARK H PARENT 11 27 12 31 13 33 13 34 33 36 14 37 31 38 34 40 16 45 28 51
REMARK H PARENT 18 55 19 57 19 58 23 60 23 61 20 63 20 64 22 65 22 66 21 67
REMARK H PARENT 21 68 26 70 26 71 32 73
REMARK Flexibility Score: inf
ROOT
ATOM      1  C   UNL     1     -48.066  35.042  26.842  1.00  0.00    -0.027 C 
ATOM      2  H   UNL     1     -48.083  34.712  27.886  1.00  0.00     0.032 H 
ATOM      3  H   UNL     1     -49.087  35.375  26.617  1.00  0.00     0.032 H 
ENDROOT
BRANCH   1   4
ATOM      4  C   UNL     1     -47.709  33.860  25.976  1.00  0.00    -0.046 A 
ATOM      5  C   UNL     1     -48.882  29.528  24.354  1.00  0.00     0.126 A 
ATOM      6  C   UNL     1     -47.707  29.438  23.614  1.00  0.00    -0.019 A 
ATOM      7  N   UNL     1     -49.174  30.622  25.085  1.00  0.00    -0.231 NA
ATOM      8  C   UNL     1     -46.797  30.490  23.648  1.00  0.00    -0.049 A 
ATOM      9  H   UNL     1     -47.505  28.562  23.008  1.00  0.00     0.066 H 
ATOM     10  C   UNL     1     -48.296  31.641  25.125  1.00  0.00     0.073 A 
ATOM     11  C   UNL     1     -47.080  31.620  24.417  1.00  0.00     0.000 A 
ATOM     12  H   UNL     1     -45.879  30.420  23.071  1.00  0.00     0.063 H 
ATOM     13  C   UNL     1     -48.585  32.763  25.891  1.00  0.00    -0.033 A 
ATOM     14  C   UNL     1     -46.193  32.709  24.492  1.00  0.00    -0.053 A 
ATOM     15  H   UNL     1     -49.522  32.775  26.444  1.00  0.00     0.065 H 
ATOM     16  C   UNL     1     -46.507  33.822  25.271  1.00  0.00    -0.058 A 
ATOM     17  H   UNL     1     -45.253  32.693  23.945  1.00  0.00     0.063 H 
ATOM     18  H   UNL     1     -45.808  34.653  25.321  1.00  0.00     0.063 H 
BRANCH   5  19
ATOM     19  N   UNL     1     -49.787  28.452  24.281  1.00  0.00    -0.373 N 
ATOM     20  H   UNL     1     -50.727  28.826  24.192  1.00  0.00     0.161 HD
BRANCH  19  21
ATOM     21  C   UNL     1     -49.488  27.499  23.224  1.00  0.00     0.005 C 
ATOM     22  H   UNL     1     -50.399  26.942  22.981  1.00  0.00     0.045 H 
ATOM     23  H   UNL     1     -49.153  28.000  22.309  1.00  0.00     0.045 H 
ATOM     24  H   UNL     1     -48.737  26.769  23.544  1.00  0.00     0.045 H 
ENDBRANCH  19  21
ENDBRANCH   5  19
ENDBRANCH   1   4
BRANCH   1  25
ATOM     25  C   UNL     1     -47.085  36.202  26.633  1.00  0.00    -0.044 C 
ATOM     26  H   UNL     1     -46.601  36.114  25.653  1.00  0.00     0.027 H 
ATOM     27  H   UNL     1     -47.654  37.141  26.610  1.00  0.00     0.027 H 
BRANCH  25  28
ATOM     28  C   UNL     1     -46.012  36.290  27.734  1.00  0.00    -0.010 C 
ATOM     29  C   UNL     1     -45.176  37.582  27.649  1.00  0.00    -0.024 C 
ATOM     30  C   UNL     1     -46.667  36.322  29.130  1.00  0.00     0.085 C 
ATOM     31  H   UNL     1     -45.349  35.421  27.637  1.00  0.00     0.033 H 
ATOM     32  C   UNL     1     -45.699  38.513  28.764  1.00  0.00     0.064 C 
ATOM     33  H   UNL     1     -45.184  38.043  26.658  1.00  0.00     0.029 H 
ATOM     34  H   UNL     1     -44.130  37.329  27.865  1.00  0.00     0.029 H 
ATOM     35  C   UNL     1     -46.025  37.506  29.871  1.00  0.00     0.101 C 
ATOM     36  H   UNL     1     -47.752  36.441  29.061  1.00  0.00     0.063 H 
ATOM     37  H   UNL     1     -44.886  39.178  29.088  1.00  0.00     0.056 H 
ATOM     38  H   UNL     1     -46.642  37.890  30.685  1.00  0.00     0.065 H 
BRANCH  30  39
ATOM     39  O   UNL     1     -46.402  35.111  29.844  1.00  0.00    -0.390 OA
ATOM     40  H   UNL     1     -45.472  34.879  29.669  1.00  0.00     0.211 HD
ENDBRANCH  30  39
BRANCH  32  41
ATOM     41  N   UNL     1     -46.749  39.401  28.279  1.00  0.00    -0.326 N 
ATOM     42  C   UNL     1     -48.073  39.221  28.618  1.00  0.00     0.010 A 
ATOM     43  C   UNL     1     -46.653  40.488  27.446  1.00  0.00     0.146 A 
ATOM     44  C   UNL     1     -48.827  40.254  28.088  1.00  0.00    -0.014 A 
ATOM     45  H   UNL     1     -48.369  38.390  29.247  1.00  0.00     0.082 H 
ATOM     46  C   UNL     1     -47.925  41.034  27.287  1.00  0.00     0.065 A 
ATOM     47  N   UNL     1     -45.524  40.948  26.882  1.00  0.00    -0.218 NA
ATOM     48  C   UNL     1     -48.019  42.154  26.438  1.00  0.00     0.136 A 
ATOM     49  C   UNL     1     -45.740  42.024  26.114  1.00  0.00     0.120 A 
ATOM     50  N   UNL     1     -46.905  42.638  25.860  1.00  0.00    -0.219 NA
ATOM     51  H   UNL     1     -44.865  42.449  25.631  1.00  0.00     0.106 H 
BRANCH  44  52
ATOM     52  C   UNL     1     -50.304  40.485  28.305  1.00  0.00    -0.014 C 
ATOM     53  C   UNL     1     -50.604  41.110  29.685  1.00  0.00    -0.046 C 
ATOM     54  C   UNL     1     -51.130  39.208  28.039  1.00  0.00    -0.046 C 
ATOM     55  H   UNL     1     -50.634  41.227  27.569  1.00  0.00     0.035 H 
ATOM     56  C   UNL     1     -52.064  40.915  30.075  1.00  0.00    -0.053 C 
ATOM     57  H   UNL     1     -49.974  40.678  30.473  1.00  0.00     0.027 H 
ATOM     58  H   UNL     1     -50.364  42.180  29.659  1.00  0.00     0.027 H 
ATOM     59  C   UNL     1     -51.566  38.519  29.326  1.00  0.00    -0.053 C 
ATOM     60  H   UNL     1     -50.579  38.502  27.405  1.00  0.00     0.027 H 
ATOM     61  H   UNL     1     -52.031  39.484  27.475  1.00  0.00     0.027 H 
ATOM     62  C   UNL     1     -52.421  39.433  30.204  1.00  0.00    -0.053 C 
ATOM     63  H   UNL     1     -52.279  41.430  31.018  1.00  0.00     0.027 H 
ATOM     64  H   UNL     1     -52.704  41.380  29.314  1.00  0.00     0.027 H 
ATOM     65  H   UNL     1     -52.128  37.606  29.094  1.00  0.00     0.027 H 
ATOM     66  H   UNL     1     -50.679  38.201  29.887  1.00  0.00     0.027 H 
ATOM     67  H   UNL     1     -52.315  39.116  31.248  1.00  0.00     0.027 H 
ATOM     68  H   UNL     1     -53.481  39.304  29.954  1.00  0.00     0.027 H 
ENDBRANCH  44  52
BRANCH  48  69
ATOM     69  N   UNL     1     -49.208  42.792  26.099  1.00  0.00    -0.383 N 
ATOM     70  H   UNL     1     -50.028  42.231  26.285  1.00  0.00     0.158 HD
ATOM     71  H   UNL     1     -49.136  43.141  25.149  1.00  0.00     0.158 HD
ENDBRANCH  48  69
ENDBRANCH  32  41
BRANCH  35  72
ATOM     72  O   UNL     1     -44.795  37.059  30.479  1.00  0.00    -0.388 OA
ATOM     73  H   UNL     1     -44.919  36.091  30.584  1.00  0.00     0.211 HD
ENDBRANCH  35  72
ENDBRANCH  25  28
ENDBRANCH   1  25
TORSDOF 10
ENDMDL
MODEL 2
REMARK VINA RESULT:      -9.0      2.668      4.619
REMARK SMILES CNc1ccc2ccc(CC[C@H]3C[C@@H](n4cc(C5CCCCC5)c5c(N)ncnc54)[C@H](O)[C@@H]3O)cc2n1
REMARK SMILES IDX 10 1 9 4 3 5 4 6 37 7 5 8 36 10 6 11 35 13 7 14 8 16 2 19
REMARK SMILES IDX 1 21 11 25 12 28 13 29 33 30 14 32 31 35 34 39 15 41 16 42
REMARK SMILES IDX 30 43 17 44 24 46 29 47 25 48 28 49 27 50 18 52 19 53 23 54
REMARK SMILES IDX 20 56 22 59 21 62 26 69 32 72
REMARK H PARENT 10 2 10 3 4 9 5 12 35 15 7 17 8 18 2 20 1 22 1 23 1 24 11 26
REMARK H PARENT 11 27 12 31 13 33 13 34 33 36 14 37 31 38 34 40 16 45 28 51
REMARK H PARENT 18 55 19 57 19 58 23 60 23 61 20 63 20 64 22 65 22 66 21 67
REMARK H PARENT 21 68 26 70 26 71 32 73
REMARK Flexibility Score: inf
ROOT
ATOM      1  C   UNL     1     -45.199  38.511  28.759  1.00  0.00    -0.027 C 
ATOM      2  H   UNL     1     -44.175  38.125  28.805  1.00  0.00     0.032 H 
ATOM      3  H   UNL     1     -45.487  38.717  29.797  1.00  0.00     0.032 H 
ENDROOT
BRANCH   1   4
ATOM      4  C   UNL     1     -46.086  37.435  28.184  1.00  0.00    -0.046 A 
ATOM      5  C   UNL     1     -46.424  33.293  25.837  1.00  0.00     0.126 A 
ATOM      6  C   UNL     1     -47.815  33.332  25.880  1.00  0.00    -0.019 A 
ATOM      7  N   UNL     1     -45.674  34.262  26.399  1.00  0.00    -0.231 NA
ATOM      8  C   UNL     1     -48.450  34.408  26.493  1.00  0.00    -0.049 A 
ATOM      9  H   UNL     1     -48.400  32.527  25.450  1.00  0.00     0.066 H 
ATOM     10  C   UNL     1     -46.282  35.307  26.989  1.00  0.00     0.073 A 
ATOM     11  C   UNL     1     -47.682  35.426  27.061  1.00  0.00     0.000 A 
ATOM     12  H   UNL     1     -49.535  34.438  26.526  1.00  0.00     0.063 H 
ATOM     13  C   UNL     1     -45.512  36.316  27.553  1.00  0.00    -0.033 A 
ATOM     14  C   UNL     1     -48.272  36.539  27.687  1.00  0.00    -0.053 A 
ATOM     15  H   UNL     1     -44.429  36.227  27.491  1.00  0.00     0.065 H 
ATOM     16  C   UNL     1     -47.475  37.539  28.243  1.00  0.00    -0.058 A 
ATOM     17  H   UNL     1     -49.354  36.632  27.742  1.00  0.00     0.063 H 
ATOM     18  H   UNL     1     -47.947  38.395  28.719  1.00  0.00     0.063 H 
BRANCH   5  19
ATOM     19  N   UNL     1     -45.818  32.180  25.225  1.00  0.00    -0.373 N 
ATOM     20  H   UNL     1     -45.670  31.464  25.930  1.00  0.00     0.161 HD
BRANCH  19  21
ATOM     21  C   UNL     1     -46.551  31.662  24.081  1.00  0.00     0.005 C 
ATOM     22  H   UNL     1     -47.550  31.355  24.410  1.00  0.00     0.045 H 
ATOM     23  H   UNL     1     -46.679  32.422  23.303  1.00  0.00     0.045 H 
ATOM     24  H   UNL     1     -46.063  30.777  23.659  1.00  0.00     0.045 H 
ENDBRANCH  19  21
ENDBRANCH   5  19
ENDBRANCH   1   4
BRANCH   1  25
ATOM     25  C   UNL     1     -45.280  39.800  27.932  1.00  0.00    -0.044 C 
ATOM     26  H   UNL     1     -46.012  39.683  27.124  1.00  0.00     0.027 H 
ATOM     27  H   UNL     1     -45.661  40.604  28.576  1.00  0.00     0.027 H 
BRANCH  25  28
ATOM     28  C   UNL     1     -43.923  40.226  27.344  1.00  0.00    -0.010 C 
ATOM     29  C   UNL     1     -44.023  40.656  25.867  1.00  0.00    -0.024 C 
ATOM     30  C   UNL     1     -43.371  41.459  28.088  1.00  0.00     0.085 C 
ATOM     31  H   UNL     1     -43.231  39.379  27.430  1.00  0.00     0.033 H 
ATOM     32  C   UNL     1     -43.960  42.199  25.857  1.00  0.00     0.064 C 
ATOM     33  H   UNL     1     -44.899  40.254  25.353  1.00  0.00     0.029 H 
ATOM     34  H   UNL     1     -43.145  40.266  25.336  1.00  0.00     0.029 H 
ATOM     35  C   UNL     1     -42.975  42.469  26.999  1.00  0.00     0.101 C 
ATOM     36  H   UNL     1     -44.115  41.883  28.768  1.00  0.00     0.063 H 
ATOM     37  H   UNL     1     -43.532  42.536  24.903  1.00  0.00     0.056 H 
ATOM     38  H   UNL     1     -42.946  43.500  27.356  1.00  0.00     0.065 H 
BRANCH  30  39
ATOM     39  O   UNL     1     -42.217  41.112  28.860  1.00  0.00    -0.390 OA
ATOM     40  H   UNL     1     -41.859  41.943  29.219  1.00  0.00     0.211 HD
ENDBRANCH  30  39
BRANCH  32  41
ATOM     41  N   UNL     1     -45.290  42.794  25.910  1.00  0.00    -0.326 N 
ATOM     42  C   UNL     1     -46.396  42.079  26.321  1.00  0.00     0.010 A 
ATOM     43  C   UNL     1     -45.688  44.065  25.577  1.00  0.00     0.146 A 
ATOM     44  C   UNL     1     -47.497  42.916  26.353  1.00  0.00    -0.014 A 
ATOM     45  H   UNL     1     -46.300  41.036  26.598  1.00  0.00     0.082 H 
ATOM     46  C   UNL     1     -47.057  44.175  25.820  1.00  0.00     0.065 A 
ATOM     47  N   UNL     1     -44.894  45.038  25.102  1.00  0.00    -0.218 NA
ATOM     48  C   UNL     1     -47.645  45.417  25.511  1.00  0.00     0.136 A 
ATOM     49  C   UNL     1     -45.564  46.173  24.864  1.00  0.00     0.120 A 
ATOM     50  N   UNL     1     -46.874  46.411  25.033  1.00  0.00    -0.219 NA
ATOM     51  H   UNL     1     -44.978  47.003  24.481  1.00  0.00     0.106 H 
BRANCH  44  52
ATOM     52  C   UNL     1     -48.882  42.553  26.837  1.00  0.00    -0.014 C 
ATOM     53  C   UNL     1     -49.324  43.407  28.046  1.00  0.00    -0.046 C 
ATOM     54  C   UNL     1     -49.019  41.038  27.097  1.00  0.00    -0.046 C 
ATOM     55  H   UNL     1     -49.586  42.795  26.033  1.00  0.00     0.035 H 
ATOM     56  C   UNL     1     -50.475  42.749  28.795  1.00  0.00    -0.053 C 
ATOM     57  H   UNL     1     -48.500  43.571  28.751  1.00  0.00     0.027 H 
ATOM     58  H   UNL     1     -49.625  44.402  27.696  1.00  0.00     0.027 H 
ATOM     59  C   UNL     1     -48.963  40.695  28.582  1.00  0.00    -0.053 C 
ATOM     60  H   UNL     1     -48.256  40.468  26.554  1.00  0.00     0.027 H 
ATOM     61  H   UNL     1     -49.988  40.701  26.704  1.00  0.00     0.027 H 
ATOM     62  C   UNL     1     -50.072  41.391  29.372  1.00  0.00    -0.053 C 
ATOM     63  H   UNL     1     -50.828  43.402  29.601  1.00  0.00     0.027 H 
ATOM     64  H   UNL     1     -51.322  42.617  28.109  1.00  0.00     0.027 H 
ATOM     65  H   UNL     1     -49.041  39.611  28.722  1.00  0.00     0.027 H 
ATOM     66  H   UNL     1     -47.987  40.990  28.986  1.00  0.00     0.027 H 
ATOM     67  H   UNL     1     -49.739  41.514  30.410  1.00  0.00     0.027 H 
ATOM     68  H   UNL     1     -50.960  40.749  29.413  1.00  0.00     0.027 H 
ENDBRANCH  44  52
BRANCH  48  69
ATOM     69  N   UNL     1     -49.003  45.697  25.615  1.00  0.00    -0.383 N 
ATOM     70  H   UNL     1     -49.589  44.989  25.192  1.00  0.00     0.158 HD
ATOM     71  H   UNL     1     -49.172  46.642  25.288  1.00  0.00     0.158 HD
ENDBRANCH  48  69
ENDBRANCH  32  41
BRANCH  35  72
ATOM     72  O   UNL     1     -41.638  42.164  26.550  1.00  0.00    -0.388 OA
ATOM     73  H   UNL     1     -41.719  42.120  25.573  1.00  0.00     0.211 HD
ENDBRANCH  35  72
ENDBRANCH  25  28
ENDBRANCH   1  25
TORSDOF 10
ENDMDL
MODEL 3
REMARK VINA RESULT:      -8.8      3.077      4.642
REMARK SMILES CNc1ccc2ccc(CC[C@H]3C[C@@H](n4cc(C5CCCCC5)c5c(N)ncnc54)[C@H](O)[C@@H]3O)cc2n1
REMARK SMILES IDX 10 1 9 4 3 5 4 6 37 7 5 8 36 10 6 11 35 13 7 14 8 16 2 19
REMARK SMILES IDX 1 21 11 25 12 28 13 29 33 30 14 32 31 35 34 39 15 41 16 42
REMARK SMILES IDX 30 43 17 44 24 46 29 47 25 48 28 49 27 50 18 52 19 53 23 54
REMARK SMILES IDX 20 56 22 59 21 62 26 69 32 72
REMARK H PARENT 10 2 10 3 4 9 5 12 35 15 7 17 8 18 2 20 1 22 1 23 1 24 11 26
REMARK H PARENT 11 27 12 31 13 33 13 34 33 36 14 37 31 38 34 40 16 45 28 51
REMARK H PARENT 18 55 19 57 19 58 23 60 23 61 20 63 20 64 22 65 22 66 21 67
REMARK H PARENT 21 68 26 70 26 71 32 73
REMARK Flexibility Score: inf
ROOT
ATOM      1  C   UNL     1     -46.806  36.477  26.375  1.00  0.00    -0.027 C 
ATOM      2  H   UNL     1     -47.573  37.055  26.903  1.00  0.00     0.032 H 
ATOM      3  H   UNL     1     -46.644  36.997  25.423  1.00  0.00     0.032 H 
ENDROOT
BRANCH   1   4
ATOM      4  C   UNL     1     -47.349  35.093  26.119  1.00  0.00    -0.046 A 
ATOM      5  C   UNL     1     -46.785  30.848  24.013  1.00  0.00     0.126 A 
ATOM      6  C   UNL     1     -48.003  30.392  24.506  1.00  0.00    -0.019 A 
ATOM      7  N   UNL     1     -46.325  32.083  24.299  1.00  0.00    -0.231 NA
ATOM      8  C   UNL     1     -48.782  31.237  25.291  1.00  0.00    -0.049 A 
ATOM      9  H   UNL     1     -48.341  29.384  24.289  1.00  0.00     0.066 H 
ATOM     10  C   UNL     1     -47.075  32.906  25.054  1.00  0.00     0.073 A 
ATOM     11  C   UNL     1     -48.325  32.524  25.578  1.00  0.00     0.000 A 
ATOM     12  H   UNL     1     -49.733  30.881  25.675  1.00  0.00     0.063 H 
ATOM     13  C   UNL     1     -46.613  34.185  25.337  1.00  0.00    -0.033 A 
ATOM     14  C   UNL     1     -49.073  33.420  26.361  1.00  0.00    -0.053 A 
ATOM     15  H   UNL     1     -45.650  34.481  24.927  1.00  0.00     0.065 H 
ATOM     16  C   UNL     1     -48.586  34.700  26.627  1.00  0.00    -0.058 A 
ATOM     17  H   UNL     1     -50.039  33.127  26.765  1.00  0.00     0.063 H 
ATOM     18  H   UNL     1     -49.180  35.382  27.230  1.00  0.00     0.063 H 
BRANCH   5  19
ATOM     19  N   UNL     1     -46.017  29.959  23.237  1.00  0.00    -0.373 N 
ATOM     20  H   UNL     1     -46.451  29.042  23.273  1.00  0.00     0.161 HD
BRANCH  19  21
ATOM     21  C   UNL     1     -45.809  30.399  21.867  1.00  0.00     0.005 C 
ATOM     22  H   UNL     1     -45.982  29.553  21.193  1.00  0.00     0.045 H 
ATOM     23  H   UNL     1     -46.508  31.194  21.585  1.00  0.00     0.045 H 
ATOM     24  H   UNL     1     -44.779  30.736  21.706  1.00  0.00     0.045 H 
ENDBRANCH  19  21
ENDBRANCH   5  19
ENDBRANCH   1   4
BRANCH   1  25
ATOM     25  C   UNL     1     -45.495  36.423  27.167  1.00  0.00    -0.044 C 
ATOM     26  H   UNL     1     -44.900  35.558  26.852  1.00  0.00     0.027 H 
ATOM     27  H   UNL     1     -44.900  37.311  26.917  1.00  0.00     0.027 H 
BRANCH  25  28
ATOM     28  C   UNL     1     -45.711  36.375  28.690  1.00  0.00    -0.010 C 
ATOM     29  C   UNL     1     -44.499  36.905  29.482  1.00  0.00    -0.024 C 
ATOM     30  C   UNL     1     -46.890  37.281  29.101  1.00  0.00     0.085 C 
ATOM     31  H   UNL     1     -45.905  35.333  28.976  1.00  0.00     0.033 H 
ATOM     32  C   UNL     1     -44.879  38.322  29.964  1.00  0.00     0.064 C 
ATOM     33  H   UNL     1     -43.563  36.874  28.919  1.00  0.00     0.029 H 
ATOM     34  H   UNL     1     -44.355  36.263  30.360  1.00  0.00     0.029 H 
ATOM     35  C   UNL     1     -46.373  38.151  30.258  1.00  0.00     0.101 C 
ATOM     36  H   UNL     1     -47.231  37.898  28.265  1.00  0.00     0.063 H 
ATOM     37  H   UNL     1     -44.336  38.544  30.893  1.00  0.00     0.056 H 
ATOM     38  H   UNL     1     -46.933  39.079  30.384  1.00  0.00     0.065 H 
BRANCH  30  39
ATOM     39  O   UNL     1     -48.000  36.498  29.551  1.00  0.00    -0.390 OA
ATOM     40  H   UNL     1     -48.677  37.124  29.864  1.00  0.00     0.211 HD
ENDBRANCH  30  39
BRANCH  32  41
ATOM     41  N   UNL     1     -44.454  39.346  29.018  1.00  0.00    -0.326 N 
ATOM     42  C   UNL     1     -45.153  39.608  27.859  1.00  0.00     0.010 A 
ATOM     43  C   UNL     1     -43.361  40.176  29.067  1.00  0.00     0.146 A 
ATOM     44  C   UNL     1     -44.572  40.679  27.204  1.00  0.00    -0.014 A 
ATOM     45  H   UNL     1     -46.038  39.033  27.613  1.00  0.00     0.082 H 
ATOM     46  C   UNL     1     -43.388  41.006  27.948  1.00  0.00     0.065 A 
ATOM     47  N   UNL     1     -42.426  40.187  30.031  1.00  0.00    -0.218 NA
ATOM     48  C   UNL     1     -42.319  41.915  27.822  1.00  0.00     0.136 A 
ATOM     49  C   UNL     1     -41.475  41.104  29.809  1.00  0.00     0.120 A 
ATOM     50  N   UNL     1     -41.368  41.950  28.773  1.00  0.00    -0.219 NA
ATOM     51  H   UNL     1     -40.689  41.167  30.556  1.00  0.00     0.106 H 
BRANCH  44  52
ATOM     52  C   UNL     1     -45.086  41.344  25.948  1.00  0.00    -0.014 C 
ATOM     53  C   UNL     1     -43.942  41.769  24.999  1.00  0.00    -0.046 C 
ATOM     54  C   UNL     1     -46.055  42.502  26.266  1.00  0.00    -0.046 C 
ATOM     55  H   UNL     1     -45.665  40.598  25.392  1.00  0.00     0.035 H 
ATOM     56  C   UNL     1     -44.415  42.815  23.998  1.00  0.00    -0.053 C 
ATOM     57  H   UNL     1     -43.087  42.179  25.551  1.00  0.00     0.027 H 
ATOM     58  H   UNL     1     -43.564  40.887  24.469  1.00  0.00     0.027 H 
ATOM     59  C   UNL     1     -45.398  43.869  26.113  1.00  0.00    -0.053 C 
ATOM     60  H   UNL     1     -46.479  42.402  27.273  1.00  0.00     0.027 H 
ATOM     61  H   UNL     1     -46.904  42.450  25.571  1.00  0.00     0.027 H 
ATOM     62  C   UNL     1     -44.875  44.097  24.694  1.00  0.00    -0.053 C 
ATOM     63  H   UNL     1     -43.616  43.048  23.285  1.00  0.00     0.027 H 
ATOM     64  H   UNL     1     -45.244  42.401  23.410  1.00  0.00     0.027 H 
ATOM     65  H   UNL     1     -46.111  44.662  26.370  1.00  0.00     0.027 H 
ATOM     66  H   UNL     1     -44.569  43.956  26.825  1.00  0.00     0.027 H 
ATOM     67  H   UNL     1     -44.045  44.813  24.737  1.00  0.00     0.027 H 
ATOM     68  H   UNL     1     -45.652  44.570  24.081  1.00  0.00     0.027 H 
ENDBRANCH  44  52
BRANCH  48  69
ATOM     69  N   UNL     1     -42.132  42.772  26.743  1.00  0.00    -0.383 N 
ATOM     70  H   UNL     1     -41.718  42.317  25.941  1.00  0.00     0.158 HD
ATOM     71  H   UNL     1     -41.646  43.603  27.061  1.00  0.00     0.158 HD
ENDBRANCH  48  69
ENDBRANCH  32  41
BRANCH  35  72
ATOM     72  O   UNL     1     -46.529  37.419  31.492  1.00  0.00    -0.388 OA
ATOM     73  H   UNL     1     -45.631  37.422  31.886  1.00  0.00     0.211 HD
ENDBRANCH  35  72
ENDBRANCH  25  28
ENDBRANCH   1  25
TORSDOF 10
ENDMDL
MODEL 4
REMARK VINA RESULT:      -8.7      1.814      4.250
REMARK SMILES CNc1ccc2ccc(CC[C@H]3C[C@@H](n4cc(C5CCCCC5)c5c(N)ncnc54)[C@H](O)[C@@H]3O)cc2n1
REMARK SMILES IDX 10 1 9 4 3 5 4 6 37 7 5 8 36 10 6 11 35 13 7 14 8 16 2 19
REMARK SMILES IDX 1 21 11 25 12 28 13 29 33 30 14 32 31 35 34 39 15 41 16 42
REMARK SMILES IDX 30 43 17 44 24 46 29 47 25 48 28 49 27 50 18 52 19 53 23 54
REMARK SMILES IDX 20 56 22 59 21 62 26 69 32 72
REMARK H PARENT 10 2 10 3 4 9 5 12 35 15 7 17 8 18 2 20 1 22 1 23 1 24 11 26
REMARK H PARENT 11 27 12 31 13 33 13 34 33 36 14 37 31 38 34 40 16 45 28 51
REMARK H PARENT 18 55 19 57 19 58 23 60 23 61 20 63 20 64 22 65 22 66 21 67
REMARK H PARENT 21 68 26 70 26 71 32 73
REMARK Flexibility Score: inf
ROOT
ATOM      1  C   UNL     1     -47.879  35.857  26.930  1.00  0.00    -0.027 C 
ATOM      2  H   UNL     1     -48.137  35.782  27.992  1.00  0.00     0.032 H 
ATOM      3  H   UNL     1     -48.605  36.554  26.494  1.00  0.00     0.032 H 
ENDROOT
BRANCH   1   4
ATOM      4  C   UNL     1     -48.039  34.493  26.307  1.00  0.00    -0.046 A 
ATOM      5  C   UNL     1     -46.171  31.034  23.600  1.00  0.00     0.126 A 
ATOM      6  C   UNL     1     -47.317  30.255  23.727  1.00  0.00    -0.019 A 
ATOM      7  N   UNL     1     -46.062  32.233  24.207  1.00  0.00    -0.231 NA
ATOM      8  C   UNL     1     -48.389  30.733  24.475  1.00  0.00    -0.049 A 
ATOM      9  H   UNL     1     -47.373  29.279  23.256  1.00  0.00     0.066 H 
ATOM     10  C   UNL     1     -47.096  32.702  24.928  1.00  0.00     0.073 A 
ATOM     11  C   UNL     1     -48.294  31.982  25.092  1.00  0.00     0.000 A 
ATOM     12  H   UNL     1     -49.283  30.126  24.573  1.00  0.00     0.063 H 
ATOM     13  C   UNL     1     -46.994  33.945  25.540  1.00  0.00    -0.033 A 
ATOM     14  C   UNL     1     -49.348  32.515  25.853  1.00  0.00    -0.053 A 
ATOM     15  H   UNL     1     -46.070  34.504  25.408  1.00  0.00     0.065 H 
ATOM     16  C   UNL     1     -49.220  33.767  26.456  1.00  0.00    -0.058 A 
ATOM     17  H   UNL     1     -50.274  31.959  25.980  1.00  0.00     0.063 H 
ATOM     18  H   UNL     1     -50.047  34.167  27.037  1.00  0.00     0.063 H 
BRANCH   5  19
ATOM     19  N   UNL     1     -45.101  30.509  22.851  1.00  0.00    -0.373 N 
ATOM     20  H   UNL     1     -44.246  30.618  23.388  1.00  0.00     0.161 HD
BRANCH  19  21
ATOM     21  C   UNL     1     -45.295  29.132  22.428  1.00  0.00     0.005 C 
ATOM     22  H   UNL     1     -46.310  28.818  22.696  1.00  0.00     0.045 H 
ATOM     23  H   UNL     1     -45.191  29.021  21.343  1.00  0.00     0.045 H 
ATOM     24  H   UNL     1     -44.602  28.454  22.938  1.00  0.00     0.045 H 
ENDBRANCH  19  21
ENDBRANCH   5  19
ENDBRANCH   1   4
BRANCH   1  25
ATOM     25  C   UNL     1     -46.458  36.397  26.730  1.00  0.00    -0.044 C 
ATOM     26  H   UNL     1     -45.933  35.803  25.973  1.00  0.00     0.027 H 
ATOM     27  H   UNL     1     -46.525  37.416  26.328  1.00  0.00     0.027 H 
BRANCH  25  28
ATOM     28  C   UNL     1     -45.634  36.422  28.031  1.00  0.00    -0.010 C 
ATOM     29  C   UNL     1     -44.535  37.504  28.019  1.00  0.00    -0.024 C 
ATOM     30  C   UNL     1     -46.532  36.771  29.236  1.00  0.00     0.085 C 
ATOM     31  H   UNL     1     -45.173  35.436  28.164  1.00  0.00     0.033 H 
ATOM     32  C   UNL     1     -45.054  38.661  28.900  1.00  0.00     0.064 C 
ATOM     33  H   UNL     1     -44.244  37.819  27.014  1.00  0.00     0.029 H 
ATOM     34  H   UNL     1     -43.635  37.083  28.486  1.00  0.00     0.029 H 
ATOM     35  C   UNL     1     -45.808  37.896  29.992  1.00  0.00     0.101 C 
ATOM     36  H   UNL     1     -47.528  37.088  28.915  1.00  0.00     0.063 H 
ATOM     37  H   UNL     1     -44.197  39.193  29.336  1.00  0.00     0.056 H 
ATOM     38  H   UNL     1     -46.475  38.500  30.609  1.00  0.00     0.065 H 
BRANCH  30  39
ATOM     39  O   UNL     1     -46.687  35.639  30.098  1.00  0.00    -0.390 OA
ATOM     40  H   UNL     1     -47.338  35.890  30.777  1.00  0.00     0.211 HD
ENDBRANCH  30  39
BRANCH  32  41
ATOM     41  N   UNL     1     -45.765  39.662  28.113  1.00  0.00    -0.326 N 
ATOM     42  C   UNL     1     -45.103  40.573  27.319  1.00  0.00     0.010 A 
ATOM     43  C   UNL     1     -47.114  39.897  28.021  1.00  0.00     0.146 A 
ATOM     44  C   UNL     1     -46.027  41.336  26.628  1.00  0.00    -0.014 A 
ATOM     45  H   UNL     1     -44.020  40.578  27.278  1.00  0.00     0.082 H 
ATOM     46  C   UNL     1     -47.317  40.943  27.122  1.00  0.00     0.065 A 
ATOM     47  N   UNL     1     -48.075  39.231  28.681  1.00  0.00    -0.218 NA
ATOM     48  C   UNL     1     -48.654  41.338  26.920  1.00  0.00     0.136 A 
ATOM     49  C   UNL     1     -49.302  39.686  28.392  1.00  0.00     0.120 A 
ATOM     50  N   UNL     1     -49.638  40.689  27.567  1.00  0.00    -0.219 NA
ATOM     51  H   UNL     1     -50.126  39.186  28.892  1.00  0.00     0.106 H 
BRANCH  44  52
ATOM     52  C   UNL     1     -45.719  42.383  25.582  1.00  0.00    -0.014 C 
ATOM     53  C   UNL     1     -44.401  42.092  24.831  1.00  0.00    -0.046 C 
ATOM     54  C   UNL     1     -45.768  43.810  26.167  1.00  0.00    -0.046 C 
ATOM     55  H   UNL     1     -46.507  42.332  24.822  1.00  0.00     0.035 H 
ATOM     56  C   UNL     1     -43.874  43.341  24.136  1.00  0.00    -0.053 C 
ATOM     57  H   UNL     1     -43.623  41.717  25.506  1.00  0.00     0.027 H 
ATOM     58  H   UNL     1     -44.571  41.297  24.094  1.00  0.00     0.027 H 
ATOM     59  C   UNL     1     -44.378  44.383  26.418  1.00  0.00    -0.053 C 
ATOM     60  H   UNL     1     -46.358  43.844  27.091  1.00  0.00     0.027 H 
ATOM     61  H   UNL     1     -46.284  44.465  25.452  1.00  0.00     0.027 H 
ATOM     62  C   UNL     1     -43.545  44.449  25.137  1.00  0.00    -0.053 C 
ATOM     63  H   UNL     1     -42.983  43.101  23.545  1.00  0.00     0.027 H 
ATOM     64  H   UNL     1     -44.629  43.703  23.426  1.00  0.00     0.027 H 
ATOM     65  H   UNL     1     -44.456  45.386  26.854  1.00  0.00     0.027 H 
ATOM     66  H   UNL     1     -43.858  43.764  27.159  1.00  0.00     0.027 H 
ATOM     67  H   UNL     1     -42.483  44.402  25.406  1.00  0.00     0.027 H 
ATOM     68  H   UNL     1     -43.691  45.420  24.647  1.00  0.00     0.027 H 
ENDBRANCH  44  52
BRANCH  48  69
ATOM     69  N   UNL     1     -49.051  42.404  26.120  1.00  0.00    -0.383 N 
ATOM     70  H   UNL     1     -49.286  43.233  26.650  1.00  0.00     0.158 HD
ATOM     71  H   UNL     1     -49.772  42.088  25.481  1.00  0.00     0.158 HD
ENDBRANCH  48  69
ENDBRANCH  32  41
BRANCH  35  72
ATOM     72  O   UNL     1     -44.853  37.304  30.898  1.00  0.00    -0.388 OA
ATOM     73  H   UNL     1     -44.587  36.471  30.453  1.00  0.00     0.211 HD
ENDBRANCH  35  72
ENDBRANCH  25  28
ENDBRANCH   1  25
TORSDOF 10
ENDMDL
MODEL 5
REMARK VINA RESULT:      -8.5      3.359      5.783
REMARK SMILES CNc1ccc2ccc(CC[C@H]3C[C@@H](n4cc(C5CCCCC5)c5c(N)ncnc54)[C@H](O)[C@@H]3O)cc2n1
REMARK SMILES IDX 10 1 9 4 3 5 4 6 37 7 5 8 36 10 6 11 35 13 7 14 8 16 2 19
REMARK SMILES IDX 1 21 11 25 12 28 13 29 33 30 14 32 31 35 34 39 15 41 16 42
REMARK SMILES IDX 30 43 17 44 24 46 29 47 25 48 28 49 27 50 18 52 19 53 23 54
REMARK SMILES IDX 20 56 22 59 21 62 26 69 32 72
REMARK H PARENT 10 2 10 3 4 9 5 12 35 15 7 17 8 18 2 20 1 22 1 23 1 24 11 26
REMARK H PARENT 11 27 12 31 13 33 13 34 33 36 14 37 31 38 34 40 16 45 28 51
REMARK H PARENT 18 55 19 57 19 58 23 60 23 61 20 63 20 64 22 65 22 66 21 67
REMARK H PARENT 21 68 26 70 26 71 32 73
REMARK Flexibility Score: inf
ROOT
ATOM      1  C   UNL     1     -44.535  39.373  28.390  1.00  0.00    -0.027 C 
ATOM      2  H   UNL     1     -43.563  38.955  28.107  1.00  0.00     0.032 H 
ATOM      3  H   UNL     1     -44.495  39.512  29.477  1.00  0.00     0.032 H 
ENDROOT
BRANCH   1   4
ATOM      4  C   UNL     1     -45.604  38.370  28.038  1.00  0.00    -0.046 A 
ATOM      5  C   UNL     1     -46.702  33.913  26.730  1.00  0.00     0.126 A 
ATOM      6  C   UNL     1     -48.060  34.214  26.684  1.00  0.00    -0.019 A 
ATOM      7  N   UNL     1     -45.786  34.836  27.086  1.00  0.00    -0.231 NA
ATOM      8  C   UNL     1     -48.484  35.504  26.987  1.00  0.00    -0.049 A 
ATOM      9  H   UNL     1     -48.784  33.449  26.425  1.00  0.00     0.066 H 
ATOM     10  C   UNL     1     -46.190  36.087  27.375  1.00  0.00     0.073 A 
ATOM     11  C   UNL     1     -47.543  36.473  27.338  1.00  0.00     0.000 A 
ATOM     12  H   UNL     1     -49.544  35.739  26.950  1.00  0.00     0.063 H 
ATOM     13  C   UNL     1     -45.248  37.046  27.725  1.00  0.00    -0.033 A 
ATOM     14  C   UNL     1     -47.916  37.793  27.646  1.00  0.00    -0.053 A 
ATOM     15  H   UNL     1     -44.201  36.747  27.748  1.00  0.00     0.065 H 
ATOM     16  C   UNL     1     -46.949  38.737  27.993  1.00  0.00    -0.058 A 
ATOM     17  H   UNL     1     -48.961  38.093  27.617  1.00  0.00     0.063 H 
ATOM     18  H   UNL     1     -47.254  39.754  28.224  1.00  0.00     0.063 H 
BRANCH   5  19
ATOM     19  N   UNL     1     -46.312  32.593  26.435  1.00  0.00    -0.373 N 
ATOM     20  H   UNL     1     -46.896  31.957  26.971  1.00  0.00     0.161 HD
BRANCH  19  21
ATOM     21  C   UNL     1     -46.333  32.273  25.017  1.00  0.00     0.005 C 
ATOM     22  H   UNL     1     -46.811  31.298  24.880  1.00  0.00     0.045 H 
ATOM     23  H   UNL     1     -46.910  33.007  24.444  1.00  0.00     0.045 H 
ATOM     24  H   UNL     1     -45.320  32.197  24.609  1.00  0.00     0.045 H 
ENDBRANCH  19  21
ENDBRANCH   5  19
ENDBRANCH   1   4
BRANCH   1  25
ATOM     25  C   UNL     1     -44.790  40.721  27.704  1.00  0.00    -0.044 C 
ATOM     26  H   UNL     1     -45.723  40.681  27.131  1.00  0.00     0.027 H 
ATOM     27  H   UNL     1     -44.940  41.484  28.480  1.00  0.00     0.027 H 
BRANCH  25  28
ATOM     28  C   UNL     1     -43.635  41.158  26.785  1.00  0.00    -0.010 C 
ATOM     29  C   UNL     1     -44.128  41.812  25.479  1.00  0.00    -0.024 C 
ATOM     30  C   UNL     1     -42.768  42.233  27.473  1.00  0.00     0.085 C 
ATOM     31  H   UNL     1     -43.034  40.272  26.543  1.00  0.00     0.033 H 
ATOM     32  C   UNL     1     -43.921  43.333  25.648  1.00  0.00     0.064 C 
ATOM     33  H   UNL     1     -45.153  41.540  25.214  1.00  0.00     0.029 H 
ATOM     34  H   UNL     1     -43.491  41.461  24.657  1.00  0.00     0.029 H 
ATOM     35  C   UNL     1     -42.619  43.374  26.454  1.00  0.00     0.101 C 
ATOM     36  H   UNL     1     -43.231  42.588  28.398  1.00  0.00     0.063 H 
ATOM     37  H   UNL     1     -43.767  43.787  24.659  1.00  0.00     0.056 H 
ATOM     38  H   UNL     1     -42.385  44.335  26.914  1.00  0.00     0.065 H 
BRANCH  30  39
ATOM     39  O   UNL     1     -41.477  41.711  27.799  1.00  0.00    -0.390 OA
ATOM     40  H   UNL     1     -40.957  42.452  28.158  1.00  0.00     0.211 HD
ENDBRANCH  30  39
BRANCH  32  41
ATOM     41  N   UNL     1     -45.111  43.983  26.186  1.00  0.00    -0.326 N 
ATOM     42  C   UNL     1     -46.375  43.467  25.998  1.00  0.00     0.010 A 
ATOM     43  C   UNL     1     -45.215  45.147  26.907  1.00  0.00     0.146 A 
ATOM     44  C   UNL     1     -47.293  44.239  26.687  1.00  0.00    -0.014 A 
ATOM     45  H   UNL     1     -46.515  42.561  25.420  1.00  0.00     0.082 H 
ATOM     46  C   UNL     1     -46.557  45.351  27.222  1.00  0.00     0.065 A 
ATOM     47  N   UNL     1     -44.196  45.950  27.254  1.00  0.00    -0.218 NA
ATOM     48  C   UNL     1     -46.854  46.520  27.948  1.00  0.00     0.136 A 
ATOM     49  C   UNL     1     -44.602  47.016  27.956  1.00  0.00     0.120 A 
ATOM     50  N   UNL     1     -45.854  47.344  28.310  1.00  0.00    -0.219 NA
ATOM     51  H   UNL     1     -43.824  47.705  28.271  1.00  0.00     0.106 H 
BRANCH  44  52
ATOM     52  C   UNL     1     -48.773  43.963  26.821  1.00  0.00    -0.014 C 
ATOM     53  C   UNL     1     -49.106  42.463  26.660  1.00  0.00    -0.046 C 
ATOM     54  C   UNL     1     -49.611  44.861  25.887  1.00  0.00    -0.046 C 
ATOM     55  H   UNL     1     -49.066  44.221  27.845  1.00  0.00     0.035 H 
ATOM     56  C   UNL     1     -50.581  42.256  26.339  1.00  0.00    -0.053 C 
ATOM     57  H   UNL     1     -48.510  41.996  25.867  1.00  0.00     0.027 H 
ATOM     58  H   UNL     1     -48.847  41.933  27.585  1.00  0.00     0.027 H 
ATOM     59  C   UNL     1     -50.100  44.117  24.649  1.00  0.00    -0.053 C 
ATOM     60  H   UNL     1     -49.053  45.757  25.587  1.00  0.00     0.027 H 
ATOM     61  H   UNL     1     -50.489  45.220  26.440  1.00  0.00     0.027 H 
ATOM     62  C   UNL     1     -50.968  42.911  25.012  1.00  0.00    -0.053 C 
ATOM     63  H   UNL     1     -50.817  41.186  26.305  1.00  0.00     0.027 H 
ATOM     64  H   UNL     1     -51.188  42.683  27.147  1.00  0.00     0.027 H 
ATOM     65  H   UNL     1     -50.670  44.795  24.002  1.00  0.00     0.027 H 
ATOM     66  H   UNL     1     -49.237  43.782  24.062  1.00  0.00     0.027 H 
ATOM     67  H   UNL     1     -50.900  42.175  24.202  1.00  0.00     0.027 H 
ATOM     68  H   UNL     1     -52.021  43.211  25.062  1.00  0.00     0.027 H 
ENDBRANCH  44  52
BRANCH  48  69
ATOM     69  N   UNL     1     -48.137  46.934  28.292  1.00  0.00    -0.383 N 
ATOM     70  H   UNL     1     -48.725  46.177  28.616  1.00  0.00     0.158 HD
ATOM     71  H   UNL     1     -48.524  47.479  27.529  1.00  0.00     0.158 HD
ENDBRANCH  48  69
ENDBRANCH  32  41
BRANCH  35  72
ATOM     72  O   UNL     1     -41.514  43.069  25.578  1.00  0.00    -0.388 OA
ATOM     73  H   UNL     1     -40.905  42.540  26.137  1.00  0.00     0.211 HD
ENDBRANCH  35  72
ENDBRANCH  25  28
ENDBRANCH   1  25
TORSDOF 10
ENDMDL
MODEL 6
REMARK VINA RESULT:      -8.3      1.414      2.147
REMARK SMILES CNc1ccc2ccc(CC[C@H]3C[C@@H](n4cc(C5CCCCC5)c5c(N)ncnc54)[C@H](O)[C@@H]3O)cc2n1
REMARK SMILES IDX 10 1 9 4 3 5 4 6 37 7 5 8 36 10 6 11 35 13 7 14 8 16 2 19
REMARK SMILES IDX 1 21 11 25 12 28 13 29 33 30 14 32 31 35 34 39 15 41 16 42
REMARK SMILES IDX 30 43 17 44 24 46 29 47 25 48 28 49 27 50 18 52 19 53 23 54
REMARK SMILES IDX 20 56 22 59 21 62 26 69 32 72
REMARK H PARENT 10 2 10 3 4 9 5 12 35 15 7 17 8 18 2 20 1 22 1 23 1 24 11 26
REMARK H PARENT 11 27 12 31 13 33 13 34 33 36 14 37 31 38 34 40 16 45 28 51
REMARK H PARENT 18 55 19 57 19 58 23 60 23 61 20 63 20 64 22 65 22 66 21 67
REMARK H PARENT 21 68 26 70 26 71 32 73
REMARK Flexibility Score: inf
ROOT
ATOM      1  C   UNL     1     -47.999  35.910  27.106  1.00  0.00    -0.027 C 
ATOM      2  H   UNL     1     -48.090  35.796  28.192  1.00  0.00     0.032 H 
ATOM      3  H   UNL     1     -48.778  36.625  26.815  1.00  0.00     0.032 H 
ENDROOT
BRANCH   1   4
ATOM      4  C   UNL     1     -48.265  34.571  26.465  1.00  0.00    -0.046 A 
ATOM      5  C   UNL     1     -46.628  30.954  23.816  1.00  0.00     0.126 A 
ATOM      6  C   UNL     1     -47.851  30.293  23.884  1.00  0.00    -0.019 A 
ATOM      7  N   UNL     1     -46.428  32.134  24.438  1.00  0.00    -0.231 NA
ATOM      8  C   UNL     1     -48.903  30.873  24.587  1.00  0.00    -0.049 A 
ATOM      9  H   UNL     1     -47.982  29.330  23.403  1.00  0.00     0.066 H 
ATOM     10  C   UNL     1     -47.443  32.701  25.115  1.00  0.00     0.073 A 
ATOM     11  C   UNL     1     -48.713  32.103  25.218  1.00  0.00     0.000 A 
ATOM     12  H   UNL     1     -49.857  30.357  24.639  1.00  0.00     0.063 H 
ATOM     13  C   UNL     1     -47.246  33.925  25.742  1.00  0.00    -0.033 A 
ATOM     14  C   UNL     1     -49.742  32.737  25.936  1.00  0.00    -0.053 A 
ATOM     15  H   UNL     1     -46.265  34.390  25.657  1.00  0.00     0.065 H 
ATOM     16  C   UNL     1     -49.518  33.967  26.554  1.00  0.00    -0.058 A 
ATOM     17  H   UNL     1     -50.724  32.275  26.015  1.00  0.00     0.063 H 
ATOM     18  H   UNL     1     -50.327  34.445  27.100  1.00  0.00     0.063 H 
BRANCH   5  19
ATOM     19  N   UNL     1     -45.582  30.328  23.112  1.00  0.00    -0.373 N 
ATOM     20  H   UNL     1     -45.687  29.322  23.206  1.00  0.00     0.161 HD
BRANCH  19  21
ATOM     21  C   UNL     1     -45.487  30.729  21.718  1.00  0.00     0.005 C 
ATOM     22  H   UNL     1     -44.949  29.953  21.162  1.00  0.00     0.045 H 
ATOM     23  H   UNL     1     -46.475  30.839  21.258  1.00  0.00     0.045 H 
ATOM     24  H   UNL     1     -44.920  31.659  21.606  1.00  0.00     0.045 H 
ENDBRANCH  19  21
ENDBRANCH   5  19
ENDBRANCH   1   4
BRANCH   1  25
ATOM     25  C   UNL     1     -46.622  36.454  26.709  1.00  0.00    -0.044 C 
ATOM     26  H   UNL     1     -46.170  35.812  25.944  1.00  0.00     0.027 H 
ATOM     27  H   UNL     1     -46.757  37.438  26.243  1.00  0.00     0.027 H 
BRANCH  25  28
ATOM     28  C   UNL     1     -45.660  36.590  27.904  1.00  0.00    -0.010 C 
ATOM     29  C   UNL     1     -44.945  37.955  27.941  1.00  0.00    -0.024 C 
ATOM     30  C   UNL     1     -46.432  36.501  29.236  1.00  0.00     0.085 C 
ATOM     31  H   UNL     1     -44.912  35.789  27.835  1.00  0.00     0.033 H 
ATOM     32  C   UNL     1     -45.647  38.785  29.038  1.00  0.00     0.064 C 
ATOM     33  H   UNL     1     -44.912  38.457  26.970  1.00  0.00     0.029 H 
ATOM     34  H   UNL     1     -43.902  37.789  28.240  1.00  0.00     0.029 H 
ATOM     35  C   UNL     1     -45.970  37.704  30.074  1.00  0.00     0.101 C 
ATOM     36  H   UNL     1     -47.513  36.524  29.075  1.00  0.00     0.063 H 
ATOM     37  H   UNL     1     -44.931  39.506  29.456  1.00  0.00     0.056 H 
ATOM     38  H   UNL     1     -46.688  37.995  30.843  1.00  0.00     0.065 H 
BRANCH  30  39
ATOM     39  O   UNL     1     -46.116  35.288  29.927  1.00  0.00    -0.390 OA
ATOM     40  H   UNL     1     -45.718  35.544  30.778  1.00  0.00     0.211 HD
ENDBRANCH  30  39
BRANCH  32  41
ATOM     41  N   UNL     1     -46.730  39.594  28.493  1.00  0.00    -0.326 N 
ATOM     42  C   UNL     1     -48.048  39.379  28.836  1.00  0.00     0.010 A 
ATOM     43  C   UNL     1     -46.675  40.630  27.593  1.00  0.00     0.146 A 
ATOM     44  C   UNL     1     -48.841  40.343  28.240  1.00  0.00    -0.014 A 
ATOM     45  H   UNL     1     -48.312  38.577  29.516  1.00  0.00     0.082 H 
ATOM     46  C   UNL     1     -47.968  41.110  27.395  1.00  0.00     0.065 A 
ATOM     47  N   UNL     1     -45.563  41.102  27.007  1.00  0.00    -0.218 NA
ATOM     48  C   UNL     1     -48.104  42.169  26.477  1.00  0.00     0.136 A 
ATOM     49  C   UNL     1     -45.819  42.117  26.171  1.00  0.00     0.120 A 
ATOM     50  N   UNL     1     -47.008  42.663  25.874  1.00  0.00    -0.219 NA
ATOM     51  H   UNL     1     -44.960  42.548  25.666  1.00  0.00     0.106 H 
BRANCH  44  52
ATOM     52  C   UNL     1     -50.329  40.524  28.435  1.00  0.00    -0.014 C 
ATOM     53  C   UNL     1     -51.058  40.857  27.114  1.00  0.00    -0.046 C 
ATOM     54  C   UNL     1     -50.642  41.535  29.558  1.00  0.00    -0.046 C 
ATOM     55  H   UNL     1     -50.738  39.561  28.761  1.00  0.00     0.035 H 
ATOM     56  C   UNL     1     -52.424  41.475  27.378  1.00  0.00    -0.053 C 
ATOM     57  H   UNL     1     -50.477  41.550  26.493  1.00  0.00     0.027 H 
ATOM     58  H   UNL     1     -51.170  39.941  26.521  1.00  0.00     0.027 H 
ATOM     59  C   UNL     1     -51.062  42.896  29.015  1.00  0.00    -0.053 C 
ATOM     60  H   UNL     1     -49.790  41.652  30.239  1.00  0.00     0.027 H 
ATOM     61  H   UNL     1     -51.467  41.139  30.167  1.00  0.00     0.027 H 
ATOM     62  C   UNL     1     -52.309  42.800  28.134  1.00  0.00    -0.053 C 
ATOM     63  H   UNL     1     -52.960  41.634  26.435  1.00  0.00     0.027 H 
ATOM     64  H   UNL     1     -53.030  40.773  27.965  1.00  0.00     0.027 H 
ATOM     65  H   UNL     1     -51.253  43.590  29.842  1.00  0.00     0.027 H 
ATOM     66  H   UNL     1     -50.238  43.326  28.434  1.00  0.00     0.027 H 
ATOM     67  H   UNL     1     -52.299  43.634  27.420  1.00  0.00     0.027 H 
ATOM     68  H   UNL     1     -53.209  42.936  28.746  1.00  0.00     0.027 H 
ENDBRANCH  44  52
BRANCH  48  69
ATOM     69  N   UNL     1     -49.316  42.733  26.093  1.00  0.00    -0.383 N 
ATOM     70  H   UNL     1     -49.324  43.742  26.159  1.00  0.00     0.158 HD
ATOM     71  H   UNL     1     -50.069  42.267  26.587  1.00  0.00     0.158 HD
ENDBRANCH  48  69
ENDBRANCH  32  41
BRANCH  35  72
ATOM     72  O   UNL     1     -44.760  37.344  30.772  1.00  0.00    -0.388 OA
ATOM     73  H   UNL     1     -44.680  38.023  31.476  1.00  0.00     0.211 HD
ENDBRANCH  35  72
ENDBRANCH  25  28
ENDBRANCH   1  25
TORSDOF 10
ENDMDL
MODEL 7
REMARK VINA RESULT:      -8.3      3.560      6.223
REMARK SMILES CNc1ccc2ccc(CC[C@H]3C[C@@H](n4cc(C5CCCCC5)c5c(N)ncnc54)[C@H](O)[C@@H]3O)cc2n1
REMARK SMILES IDX 10 1 9 4 3 5 4 6 37 7 5 8 36 10 6 11 35 13 7 14 8 16 2 19
REMARK SMILES IDX 1 21 11 25 12 28 13 29 33 30 14 32 31 35 34 39 15 41 16 42
REMARK SMILES IDX 30 43 17 44 24 46 29 47 25 48 28 49 27 50 18 52 19 53 23 54
REMARK SMILES IDX 20 56 22 59 21 62 26 69 32 72
REMARK H PARENT 10 2 10 3 4 9 5 12 35 15 7 17 8 18 2 20 1 22 1 23 1 24 11 26
REMARK H PARENT 11 27 12 31 13 33 13 34 33 36 14 37 31 38 34 40 16 45 28 51
REMARK H PARENT 18 55 19 57 19 58 23 60 23 61 20 63 20 64 22 65 22 66 21 67
REMARK H PARENT 21 68 26 70 26 71 32 73
REMARK Flexibility Score: inf
ROOT
ATOM      1  C   UNL     1     -45.854  40.420  27.532  1.00  0.00    -0.027 C 
ATOM      2  H   UNL     1     -45.496  40.559  28.558  1.00  0.00     0.032 H 
ATOM      3  H   UNL     1     -46.510  41.274  27.326  1.00  0.00     0.032 H 
ENDROOT
BRANCH   1   4
ATOM      4  C   UNL     1     -46.648  39.138  27.477  1.00  0.00    -0.046 A 
ATOM      5  C   UNL     1     -46.741  34.472  26.480  1.00  0.00     0.126 A 
ATOM      6  C   UNL     1     -48.090  34.384  26.810  1.00  0.00    -0.019 A 
ATOM      7  N   UNL     1     -46.065  35.634  26.580  1.00  0.00    -0.231 NA
ATOM      8  C   UNL     1     -48.768  35.525  27.228  1.00  0.00    -0.049 A 
ATOM      9  H   UNL     1     -48.608  33.433  26.752  1.00  0.00     0.066 H 
ATOM     10  C   UNL     1     -46.716  36.742  26.980  1.00  0.00     0.073 A 
ATOM     11  C   UNL     1     -48.082  36.738  27.317  1.00  0.00     0.000 A 
ATOM     12  H   UNL     1     -49.821  35.456  27.484  1.00  0.00     0.063 H 
ATOM     13  C   UNL     1     -46.027  37.945  27.067  1.00  0.00    -0.033 A 
ATOM     14  C   UNL     1     -48.719  37.922  27.727  1.00  0.00    -0.053 A 
ATOM     15  H   UNL     1     -44.971  37.949  26.801  1.00  0.00     0.065 H 
ATOM     16  C   UNL     1     -48.004  39.117  27.804  1.00  0.00    -0.058 A 
ATOM     17  H   UNL     1     -49.775  37.919  27.987  1.00  0.00     0.063 H 
ATOM     18  H   UNL     1     -48.513  40.025  28.118  1.00  0.00     0.063 H 
BRANCH   5  19
ATOM     19  N   UNL     1     -46.085  33.293  26.079  1.00  0.00    -0.373 N 
ATOM     20  H   UNL     1     -46.239  32.581  26.787  1.00  0.00     0.161 HD
BRANCH  19  21
ATOM     21  C   UNL     1     -46.468  32.824  24.757  1.00  0.00     0.005 C 
ATOM     22  H   UNL     1     -47.530  32.558  24.769  1.00  0.00     0.045 H 
ATOM     23  H   UNL     1     -46.331  33.600  23.995  1.00  0.00     0.045 H 
ATOM     24  H   UNL     1     -45.912  31.924  24.474  1.00  0.00     0.045 H 
ENDBRANCH  19  21
ENDBRANCH   5  19
ENDBRANCH   1   4
BRANCH   1  25
ATOM     25  C   UNL     1     -44.696  40.400  26.528  1.00  0.00    -0.044 C 
ATOM     26  H   UNL     1     -44.769  39.515  25.886  1.00  0.00     0.027 H 
ATOM     27  H   UNL     1     -44.795  41.269  25.864  1.00  0.00     0.027 H 
BRANCH  25  28
ATOM     28  C   UNL     1     -43.312  40.436  27.202  1.00  0.00    -0.010 C 
ATOM     29  C   UNL     1     -42.261  41.190  26.364  1.00  0.00    -0.024 C 
ATOM     30  C   UNL     1     -43.381  41.195  28.543  1.00  0.00     0.085 C 
ATOM     31  H   UNL     1     -42.979  39.402  27.359  1.00  0.00     0.033 H 
ATOM     32  C   UNL     1     -42.081  42.571  27.031  1.00  0.00     0.064 C 
ATOM     33  H   UNL     1     -42.510  41.249  25.302  1.00  0.00     0.029 H 
ATOM     34  H   UNL     1     -41.311  40.643  26.431  1.00  0.00     0.029 H 
ATOM     35  C   UNL     1     -42.230  42.214  28.513  1.00  0.00     0.101 C 
ATOM     36  H   UNL     1     -44.346  41.693  28.673  1.00  0.00     0.063 H 
ATOM     37  H   UNL     1     -41.064  42.937  26.832  1.00  0.00     0.056 H 
ATOM     38  H   UNL     1     -42.386  43.061  29.183  1.00  0.00     0.065 H 
BRANCH  30  39
ATOM     39  O   UNL     1     -43.197  40.300  29.644  1.00  0.00    -0.390 OA
ATOM     40  H   UNL     1     -42.664  39.555  29.314  1.00  0.00     0.211 HD
ENDBRANCH  30  39
BRANCH  32  41
ATOM     41  N   UNL     1     -42.968  43.572  26.448  1.00  0.00    -0.326 N 
ATOM     42  C   UNL     1     -43.938  44.211  27.190  1.00  0.00     0.010 A 
ATOM     43  C   UNL     1     -43.030  44.031  25.156  1.00  0.00     0.146 A 
ATOM     44  C   UNL     1     -44.565  45.162  26.405  1.00  0.00    -0.014 A 
ATOM     45  H   UNL     1     -44.078  43.963  28.236  1.00  0.00     0.082 H 
ATOM     46  C   UNL     1     -44.023  45.007  25.083  1.00  0.00     0.065 A 
ATOM     47  N   UNL     1     -42.263  43.614  24.136  1.00  0.00    -0.218 NA
ATOM     48  C   UNL     1     -44.242  45.577  23.814  1.00  0.00     0.136 A 
ATOM     49  C   UNL     1     -42.553  44.242  22.988  1.00  0.00     0.120 A 
ATOM     50  N   UNL     1     -43.489  45.180  22.774  1.00  0.00    -0.219 NA
ATOM     51  H   UNL     1     -41.964  43.953  22.123  1.00  0.00     0.106 H 
BRANCH  44  52
ATOM     52  C   UNL     1     -45.619  46.144  26.860  1.00  0.00    -0.014 C 
ATOM     53  C   UNL     1     -45.495  46.484  28.362  1.00  0.00    -0.046 C 
ATOM     54  C   UNL     1     -47.039  45.682  26.471  1.00  0.00    -0.046 C 
ATOM     55  H   UNL     1     -45.443  47.087  26.331  1.00  0.00     0.035 H 
ATOM     56  C   UNL     1     -46.788  47.081  28.902  1.00  0.00    -0.053 C 
ATOM     57  H   UNL     1     -45.245  45.598  28.960  1.00  0.00     0.027 H 
ATOM     58  H   UNL     1     -44.668  47.189  28.507  1.00  0.00     0.027 H 
ATOM     59  C   UNL     1     -47.803  45.093  27.650  1.00  0.00    -0.053 C 
ATOM     60  H   UNL     1     -47.012  44.961  25.645  1.00  0.00     0.027 H 
ATOM     61  H   UNL     1     -47.601  46.550  26.098  1.00  0.00     0.027 H 
ATOM     62  C   UNL     1     -47.954  46.097  28.795  1.00  0.00    -0.053 C 
ATOM     63  H   UNL     1     -46.659  47.388  29.946  1.00  0.00     0.027 H 
ATOM     64  H   UNL     1     -47.026  47.992  28.338  1.00  0.00     0.027 H 
ATOM     65  H   UNL     1     -48.796  44.757  27.328  1.00  0.00     0.027 H 
ATOM     66  H   UNL     1     -47.279  44.201  28.015  1.00  0.00     0.027 H 
ATOM     67  H   UNL     1     -48.059  45.543  29.735  1.00  0.00     0.027 H 
ATOM     68  H   UNL     1     -48.883  46.665  28.672  1.00  0.00     0.027 H 
ENDBRANCH  44  52
BRANCH  48  69
ATOM     69  N   UNL     1     -45.233  46.510  23.527  1.00  0.00    -0.383 N 
ATOM     70  H   UNL     1     -46.005  46.484  24.179  1.00  0.00     0.158 HD
ATOM     71  H   UNL     1     -45.496  46.423  22.551  1.00  0.00     0.158 HD
ENDBRANCH  48  69
ENDBRANCH  32  41
BRANCH  35  72
ATOM     72  O   UNL     1     -41.025  41.563  28.964  1.00  0.00    -0.388 OA
ATOM     73  H   UNL     1     -41.343  40.884  29.597  1.00  0.00     0.211 HD
ENDBRANCH  35  72
ENDBRANCH  25  28
ENDBRANCH   1  25
TORSDOF 10
ENDMDL
