MODEL 1
REMARK VINA RESULT:     -11.1      0.000      0.000
REMARK SMILES Nc1cc(OCc2cncc(-n3cc(Br)c4c(N)ncnc43)c2)ccc1C(=O)N1CCNCC1
REMARK SMILES IDX 6 1 5 4 4 5 2 6 3 7 26 8 25 10 24 11 1 14 27 17 28 18 29 19
REMARK SMILES IDX 30 20 34 21 31 22 33 25 32 28 7 34 8 35 23 36 9 37 11 39
REMARK SMILES IDX 10 41 12 43 13 44 22 45 14 46 16 48 21 49 15 50 17 51 20 52
REMARK SMILES IDX 19 53 18 55
REMARK H PARENT 6 2 6 3 3 9 25 12 24 13 1 15 1 16 30 23 30 24 34 26 34 27
REMARK H PARENT 31 29 31 30 33 31 33 32 32 33 8 38 23 40 10 42 13 47 20 54
REMARK H PARENT 18 56 18 57
REMARK Flexibility Score: inf
ROOT
ATOM      1  C   UNL     1     -46.018  34.539  27.909  1.00  0.00     0.115 C 
ATOM      2  H   UNL     1     -45.740  33.671  28.520  1.00  0.00     0.076 H 
ATOM      3  H   UNL     1     -45.308  34.556  27.073  1.00  0.00     0.076 H 
ENDROOT
BRANCH   1   4
ATOM      4  O   UNL     1     -47.317  34.370  27.339  1.00  0.00    -0.489 OA
BRANCH   4   5
ATOM      5  C   UNL     1     -47.470  33.485  26.307  1.00  0.00     0.121 A 
ATOM      6  C   UNL     1     -46.735  32.069  24.459  1.00  0.00     0.048 A 
ATOM      7  C   UNL     1     -46.450  32.961  25.507  1.00  0.00     0.004 A 
ATOM      8  C   UNL     1     -48.058  31.614  24.313  1.00  0.00     0.063 A 
ATOM      9  H   UNL     1     -45.412  33.225  25.677  1.00  0.00     0.068 H 
ATOM     10  C   UNL     1     -49.089  32.147  25.098  1.00  0.00    -0.044 A 
ATOM     11  C   UNL     1     -48.789  33.078  26.091  1.00  0.00    -0.019 A 
ATOM     12  H   UNL     1     -50.118  31.834  24.941  1.00  0.00     0.063 H 
ATOM     13  H   UNL     1     -49.588  33.484  26.708  1.00  0.00     0.066 H 
BRANCH   6  14
ATOM     14  N   UNL     1     -45.663  31.491  23.747  1.00  0.00    -0.398 N 
ATOM     15  H   UNL     1     -44.831  32.070  23.716  1.00  0.00     0.156 HD
ATOM     16  H   UNL     1     -45.952  31.208  22.806  1.00  0.00     0.156 HD
ENDBRANCH   6  14
BRANCH   8  17
ATOM     17  C   UNL     1     -48.400  30.624  23.264  1.00  0.00     0.256 C 
ATOM     18  O   UNL     1     -48.264  30.965  22.089  1.00  0.00    -0.269 OA
ATOM     19  N   UNL     1     -48.882  29.370  23.654  1.00  0.00    -0.336 N 
ATOM     20  C   UNL     1     -48.427  28.724  24.894  1.00  0.00     0.033 C 
ATOM     21  C   UNL     1     -49.197  28.431  22.577  1.00  0.00     0.033 C 
ATOM     22  C   UNL     1     -49.354  27.573  25.320  1.00  0.00     0.013 C 
ATOM     23  H   UNL     1     -47.415  28.345  24.705  1.00  0.00     0.051 H 
ATOM     24  H   UNL     1     -48.350  29.444  25.711  1.00  0.00     0.051 H 
ATOM     25  C   UNL     1     -50.106  27.284  23.052  1.00  0.00     0.013 C 
ATOM     26  H   UNL     1     -49.686  28.965  21.754  1.00  0.00     0.051 H 
ATOM     27  H   UNL     1     -48.248  28.033  22.196  1.00  0.00     0.051 H 
ATOM     28  N   UNL     1     -49.586  26.594  24.244  1.00  0.00    -0.313 NA
ATOM     29  H   UNL     1     -50.318  27.982  25.648  1.00  0.00     0.045 H 
ATOM     30  H   UNL     1     -48.914  27.056  26.180  1.00  0.00     0.045 H 
ATOM     31  H   UNL     1     -51.106  27.678  23.273  1.00  0.00     0.045 H 
ATOM     32  H   UNL     1     -50.218  26.555  22.242  1.00  0.00     0.045 H 
ATOM     33  H   UNL     1     -50.268  25.904  24.557  1.00  0.00     0.122 HD
ENDBRANCH   8  17
ENDBRANCH   4   5
ENDBRANCH   1   4
BRANCH   1  34
ATOM     34  C   UNL     1     -45.871  35.840  28.653  1.00  0.00     0.010 A 
ATOM     35  C   UNL     1     -46.287  35.971  29.970  1.00  0.00     0.034 A 
ATOM     36  C   UNL     1     -45.354  36.979  28.019  1.00  0.00    -0.028 A 
ATOM     37  N   UNL     1     -46.207  37.120  30.672  1.00  0.00    -0.262 NA
ATOM     38  H   UNL     1     -46.711  35.132  30.518  1.00  0.00     0.084 H 
ATOM     39  C   UNL     1     -45.241  38.190  28.711  1.00  0.00     0.066 A 
ATOM     40  H   UNL     1     -45.061  36.884  26.979  1.00  0.00     0.065 H 
ATOM     41  C   UNL     1     -45.682  38.195  30.032  1.00  0.00     0.051 A 
ATOM     42  H   UNL     1     -45.632  39.068  30.674  1.00  0.00     0.086 H 
BRANCH  39  43
ATOM     43  N   UNL     1     -44.704  39.374  28.109  1.00  0.00    -0.298 N 
ATOM     44  C   UNL     1     -45.160  39.943  26.930  1.00  0.00     0.026 A 
ATOM     45  C   UNL     1     -43.647  40.172  28.567  1.00  0.00     0.151 A 
ATOM     46  C   UNL     1     -44.412  41.059  26.657  1.00  0.00     0.049 A 
ATOM     47  H   UNL     1     -45.969  39.514  26.357  1.00  0.00     0.084 H 
ATOM     48  C   UNL     1     -43.454  41.227  27.673  1.00  0.00     0.076 A 
ATOM     49  N   UNL     1     -42.926  39.983  29.692  1.00  0.00    -0.218 NA
ATOM     50  Br  UNL     1     -44.637  42.167  25.158  1.00  0.00    -0.048 Br
ATOM     51  C   UNL     1     -42.431  42.142  27.973  1.00  0.00     0.137 A 
ATOM     52  C   UNL     1     -41.981  40.914  29.871  1.00  0.00     0.120 A 
ATOM     53  N   UNL     1     -41.694  41.959  29.082  1.00  0.00    -0.219 NA
ATOM     54  H   UNL     1     -41.369  40.812  30.764  1.00  0.00     0.106 H 
BRANCH  51  55
ATOM     55  N   UNL     1     -42.112  43.239  27.192  1.00  0.00    -0.383 N 
ATOM     56  H   UNL     1     -41.114  43.411  27.173  1.00  0.00     0.158 HD
ATOM     57  H   UNL     1     -42.612  43.323  26.317  1.00  0.00     0.158 HD
ENDBRANCH  51  55
ENDBRANCH  39  43
ENDBRANCH   1  34
TORSDOF 7
ENDMDL
MODEL 2
REMARK VINA RESULT:     -10.4      1.629      2.193
REMARK SMILES Nc1cc(OCc2cncc(-n3cc(Br)c4c(N)ncnc43)c2)ccc1C(=O)N1CCNCC1
REMARK SMILES IDX 6 1 5 4 4 5 2 6 3 7 26 8 25 10 24 11 1 14 27 17 28 18 29 19
REMARK SMILES IDX 30 20 34 21 31 22 33 25 32 28 7 34 8 35 23 36 9 37 11 39
REMARK SMILES IDX 10 41 12 43 13 44 22 45 14 46 16 48 21 49 15 50 17 51 20 52
REMARK SMILES IDX 19 53 18 55
REMARK H PARENT 6 2 6 3 3 9 25 12 24 13 1 15 1 16 30 23 30 24 34 26 34 27
REMARK H PARENT 31 29 31 30 33 31 33 32 32 33 8 38 23 40 10 42 13 47 20 54
REMARK H PARENT 18 56 18 57
REMARK Flexibility Score: inf
ROOT
ATOM      1  C   UNL     1     -46.740  35.251  27.904  1.00  0.00     0.115 C 
ATOM      2  H   UNL     1     -46.307  34.853  28.830  1.00  0.00     0.076 H 
ATOM      3  H   UNL     1     -46.008  35.038  27.116  1.00  0.00     0.076 H 
ENDROOT
BRANCH   1   4
ATOM      4  O   UNL     1     -47.935  34.551  27.553  1.00  0.00    -0.489 OA
BRANCH   4   5
ATOM      5  C   UNL     1     -47.891  33.656  26.519  1.00  0.00     0.121 A 
ATOM      6  C   UNL     1     -46.821  32.244  24.840  1.00  0.00     0.048 A 
ATOM      7  C   UNL     1     -46.738  33.148  25.912  1.00  0.00     0.004 A 
ATOM      8  C   UNL     1     -48.090  31.762  24.472  1.00  0.00     0.063 A 
ATOM      9  H   UNL     1     -45.750  33.434  26.257  1.00  0.00     0.068 H 
ATOM     10  C   UNL     1     -49.250  32.279  25.062  1.00  0.00    -0.044 A 
ATOM     11  C   UNL     1     -49.145  33.221  26.082  1.00  0.00    -0.019 A 
ATOM     12  H   UNL     1     -50.230  31.945  24.731  1.00  0.00     0.063 H 
ATOM     13  H   UNL     1     -50.046  33.615  26.548  1.00  0.00     0.066 H 
BRANCH   6  14
ATOM     14  N   UNL     1     -45.631  31.683  24.330  1.00  0.00    -0.398 N 
ATOM     15  H   UNL     1     -45.136  32.287  23.682  1.00  0.00     0.156 HD
ATOM     16  H   UNL     1     -45.803  30.761  23.918  1.00  0.00     0.156 HD
ENDBRANCH   6  14
BRANCH   8  17
ATOM     17  C   UNL     1     -48.226  30.759  23.388  1.00  0.00     0.256 C 
ATOM     18  O   UNL     1     -47.880  31.090  22.255  1.00  0.00    -0.269 OA
ATOM     19  N   UNL     1     -48.762  29.504  23.698  1.00  0.00    -0.336 N 
ATOM     20  C   UNL     1     -48.536  28.874  25.007  1.00  0.00     0.033 C 
ATOM     21  C   UNL     1     -48.868  28.551  22.592  1.00  0.00     0.033 C 
ATOM     22  C   UNL     1     -49.517  27.718  25.269  1.00  0.00     0.013 C 
ATOM     23  H   UNL     1     -47.503  28.503  25.011  1.00  0.00     0.051 H 
ATOM     24  H   UNL     1     -48.615  29.602  25.817  1.00  0.00     0.051 H 
ATOM     25  C   UNL     1     -49.839  27.400  22.905  1.00  0.00     0.013 C 
ATOM     26  H   UNL     1     -49.202  29.073  21.687  1.00  0.00     0.051 H 
ATOM     27  H   UNL     1     -47.862  28.160  22.395  1.00  0.00     0.051 H 
ATOM     28  N   UNL     1     -49.540  26.727  24.180  1.00  0.00    -0.313 NA
ATOM     29  H   UNL     1     -50.527  28.121  25.411  1.00  0.00     0.045 H 
ATOM     30  H   UNL     1     -49.237  27.213  26.201  1.00  0.00     0.045 H 
ATOM     31  H   UNL     1     -50.865  27.787  22.935  1.00  0.00     0.045 H 
ATOM     32  H   UNL     1     -49.796  26.663  22.096  1.00  0.00     0.045 H 
ATOM     33  H   UNL     1     -50.262  26.033  24.370  1.00  0.00     0.122 HD
ENDBRANCH   8  17
ENDBRANCH   4   5
ENDBRANCH   1   4
BRANCH   1  34
ATOM     34  C   UNL     1     -46.930  36.744  27.951  1.00  0.00     0.010 A 
ATOM     35  C   UNL     1     -48.195  37.310  28.018  1.00  0.00     0.034 A 
ATOM     36  C   UNL     1     -45.833  37.615  27.876  1.00  0.00    -0.028 A 
ATOM     37  N   UNL     1     -48.423  38.640  28.031  1.00  0.00    -0.262 NA
ATOM     38  H   UNL     1     -49.091  36.695  28.064  1.00  0.00     0.084 H 
ATOM     39  C   UNL     1     -46.020  39.001  27.899  1.00  0.00     0.066 A 
ATOM     40  H   UNL     1     -44.847  37.171  27.789  1.00  0.00     0.065 H 
ATOM     41  C   UNL     1     -47.336  39.450  27.978  1.00  0.00     0.051 A 
ATOM     42  H   UNL     1     -47.607  40.499  28.018  1.00  0.00     0.086 H 
BRANCH  39  43
ATOM     43  N   UNL     1     -44.928  39.927  27.841  1.00  0.00    -0.298 N 
ATOM     44  C   UNL     1     -43.866  39.960  28.733  1.00  0.00     0.026 A 
ATOM     45  C   UNL     1     -44.714  40.953  26.911  1.00  0.00     0.151 A 
ATOM     46  C   UNL     1     -43.017  40.974  28.374  1.00  0.00     0.049 A 
ATOM     47  H   UNL     1     -43.791  39.277  29.566  1.00  0.00     0.084 H 
ATOM     48  C   UNL     1     -43.525  41.613  27.229  1.00  0.00     0.076 A 
ATOM     49  N   UNL     1     -45.503  41.263  25.861  1.00  0.00    -0.218 NA
ATOM     50  Br  UNL     1     -41.438  41.430  29.281  1.00  0.00    -0.048 Br
ATOM     51  C   UNL     1     -43.142  42.677  26.395  1.00  0.00     0.137 A 
ATOM     52  C   UNL     1     -45.038  42.292  25.142  1.00  0.00     0.120 A 
ATOM     53  N   UNL     1     -43.925  43.009  25.354  1.00  0.00    -0.219 NA
ATOM     54  H   UNL     1     -45.634  42.585  24.282  1.00  0.00     0.106 H 
BRANCH  51  55
ATOM     55  N   UNL     1     -41.995  43.433  26.573  1.00  0.00    -0.383 N 
ATOM     56  H   UNL     1     -41.838  43.654  27.549  1.00  0.00     0.158 HD
ATOM     57  H   UNL     1     -41.192  43.157  26.025  1.00  0.00     0.158 HD
ENDBRANCH  51  55
ENDBRANCH  39  43
ENDBRANCH   1  34
TORSDOF 7
ENDMDL
MODEL 3
REMARK VINA RESULT:     -10.3      1.676      2.057
REMARK SMILES Nc1cc(OCc2cncc(-n3cc(Br)c4c(N)ncnc43)c2)ccc1C(=O)N1CCNCC1
REMARK SMILES IDX 6 1 5 4 4 5 2 6 3 7 26 8 25 10 24 11 1 14 27 17 28 18 29 19
REMARK SMILES IDX 30 20 34 21 31 22 33 25 32 28 7 34 8 35 23 36 9 37 11 39
REMARK SMILES IDX 10 41 12 43 13 44 22 45 14 46 16 48 21 49 15 50 17 51 20 52
REMARK SMILES IDX 19 53 18 55
REMARK H PARENT 6 2 6 3 3 9 25 12 24 13 1 15 1 16 30 23 30 24 34 26 34 27
REMARK H PARENT 31 29 31 30 33 31 33 32 32 33 8 38 23 40 10 42 13 47 20 54
REMARK H PARENT 18 56 18 57
REMARK Flexibility Score: inf
ROOT
ATOM      1  C   UNL     1     -46.442  33.960  26.771  1.00  0.00     0.115 C 
ATOM      2  H   UNL     1     -46.987  33.185  27.325  1.00  0.00     0.076 H 
ATOM      3  H   UNL     1     -45.398  33.884  27.100  1.00  0.00     0.076 H 
ENDROOT
BRANCH   1   4
ATOM      4  O   UNL     1     -46.449  33.689  25.368  1.00  0.00    -0.489 OA
BRANCH   4   5
ATOM      5  C   UNL     1     -47.045  32.541  24.925  1.00  0.00     0.121 A 
ATOM      6  C   UNL     1     -47.254  30.517  23.575  1.00  0.00     0.048 A 
ATOM      7  C   UNL     1     -46.537  31.661  23.964  1.00  0.00     0.004 A 
ATOM      8  C   UNL     1     -48.439  30.208  24.266  1.00  0.00     0.063 A 
ATOM      9  H   UNL     1     -45.573  31.836  23.498  1.00  0.00     0.068 H 
ATOM     10  C   UNL     1     -48.965  31.091  25.217  1.00  0.00    -0.044 A 
ATOM     11  C   UNL     1     -48.265  32.252  25.542  1.00  0.00    -0.019 A 
ATOM     12  H   UNL     1     -49.911  30.875  25.705  1.00  0.00     0.063 H 
ATOM     13  H   UNL     1     -48.669  32.933  26.288  1.00  0.00     0.066 H 
BRANCH   6  14
ATOM     14  N   UNL     1     -46.652  29.610  22.678  1.00  0.00    -0.398 N 
ATOM     15  H   UNL     1     -47.284  28.899  22.326  1.00  0.00     0.156 HD
ATOM     16  H   UNL     1     -45.812  29.188  23.086  1.00  0.00     0.156 HD
ENDBRANCH   6  14
BRANCH   8  17
ATOM     17  C   UNL     1     -49.200  28.978  23.937  1.00  0.00     0.256 C 
ATOM     18  O   UNL     1     -49.815  28.954  22.871  1.00  0.00    -0.269 OA
ATOM     19  N   UNL     1     -49.205  27.925  24.857  1.00  0.00    -0.336 N 
ATOM     20  C   UNL     1     -48.038  27.640  25.705  1.00  0.00     0.033 C 
ATOM     21  C   UNL     1     -49.967  26.734  24.478  1.00  0.00     0.033 C 
ATOM     22  C   UNL     1     -48.393  26.721  26.887  1.00  0.00     0.013 C 
ATOM     23  H   UNL     1     -47.286  27.160  25.065  1.00  0.00     0.051 H 
ATOM     24  H   UNL     1     -47.591  28.560  26.086  1.00  0.00     0.051 H 
ATOM     25  C   UNL     1     -50.279  25.833  25.685  1.00  0.00     0.013 C 
ATOM     26  H   UNL     1     -50.904  27.035  23.996  1.00  0.00     0.051 H 
ATOM     27  H   UNL     1     -49.375  26.185  23.734  1.00  0.00     0.051 H 
ATOM     28  N   UNL     1     -49.082  25.489  26.470  1.00  0.00    -0.313 NA
ATOM     29  H   UNL     1     -49.029  27.267  27.596  1.00  0.00     0.045 H 
ATOM     30  H   UNL     1     -47.475  26.450  27.420  1.00  0.00     0.045 H 
ATOM     31  H   UNL     1     -51.004  26.335  26.337  1.00  0.00     0.045 H 
ATOM     32  H   UNL     1     -50.749  24.908  25.332  1.00  0.00     0.045 H 
ATOM     33  H   UNL     1     -49.363  24.963  27.297  1.00  0.00     0.122 HD
ENDBRANCH   8  17
ENDBRANCH   4   5
ENDBRANCH   1   4
BRANCH   1  34
ATOM     34  C   UNL     1     -46.920  35.350  27.101  1.00  0.00     0.010 A 
ATOM     35  C   UNL     1     -48.256  35.611  27.365  1.00  0.00     0.034 A 
ATOM     36  C   UNL     1     -46.034  36.437  27.099  1.00  0.00    -0.028 A 
ATOM     37  N   UNL     1     -48.741  36.841  27.634  1.00  0.00    -0.262 NA
ATOM     38  H   UNL     1     -49.000  34.817  27.368  1.00  0.00     0.084 H 
ATOM     39  C   UNL     1     -46.489  37.728  27.385  1.00  0.00     0.066 A 
ATOM     40  H   UNL     1     -44.995  36.237  26.858  1.00  0.00     0.065 H 
ATOM     41  C   UNL     1     -47.851  37.864  27.645  1.00  0.00     0.051 A 
ATOM     42  H   UNL     1     -48.319  38.810  27.894  1.00  0.00     0.086 H 
BRANCH  39  43
ATOM     43  N   UNL     1     -45.618  38.865  27.411  1.00  0.00    -0.298 N 
ATOM     44  C   UNL     1     -45.588  39.865  26.451  1.00  0.00     0.026 A 
ATOM     45  C   UNL     1     -44.651  39.190  28.372  1.00  0.00     0.151 A 
ATOM     46  C   UNL     1     -44.633  40.785  26.799  1.00  0.00     0.049 A 
ATOM     47  H   UNL     1     -46.230  39.852  25.583  1.00  0.00     0.084 H 
ATOM     48  C   UNL     1     -44.030  40.385  28.005  1.00  0.00     0.076 A 
ATOM     49  N   UNL     1     -44.359  38.488  29.488  1.00  0.00    -0.218 NA
ATOM     50  Br  UNL     1     -44.204  42.321  25.808  1.00  0.00    -0.048 Br
ATOM     51  C   UNL     1     -43.028  40.875  28.860  1.00  0.00     0.137 A 
ATOM     52  C   UNL     1     -43.390  39.050  30.221  1.00  0.00     0.120 A 
ATOM     53  N   UNL     1     -42.714  40.180  29.966  1.00  0.00    -0.219 NA
ATOM     54  H   UNL     1     -43.114  38.527  31.132  1.00  0.00     0.106 H 
BRANCH  51  55
ATOM     55  N   UNL     1     -42.317  42.042  28.640  1.00  0.00    -0.383 N 
ATOM     56  H   UNL     1     -41.357  41.855  28.377  1.00  0.00     0.158 HD
ATOM     57  H   UNL     1     -42.802  42.769  28.132  1.00  0.00     0.158 HD
ENDBRANCH  51  55
ENDBRANCH  39  43
ENDBRANCH   1  34
TORSDOF 7
ENDMDL
MODEL 4
REMARK VINA RESULT:      -9.9      1.805      2.269
REMARK SMILES Nc1cc(OCc2cncc(-n3cc(Br)c4c(N)ncnc43)c2)ccc1C(=O)N1CCNCC1
REMARK SMILES IDX 6 1 5 4 4 5 2 6 3 7 26 8 25 10 24 11 1 14 27 17 28 18 29 19
REMARK SMILES IDX 30 20 34 21 31 22 33 25 32 28 7 34 8 35 23 36 9 37 11 39
REMARK SMILES IDX 10 41 12 43 13 44 22 45 14 46 16 48 21 49 15 50 17 51 20 52
REMARK SMILES IDX 19 53 18 55
REMARK H PARENT 6 2 6 3 3 9 25 12 24 13 1 15 1 16 30 23 30 24 34 26 34 27
REMARK H PARENT 31 29 31 30 33 31 33 32 32 33 8 38 23 40 10 42 13 47 20 54
REMARK H PARENT 18 56 18 57
REMARK Flexibility Score: inf
ROOT
ATOM      1  C   UNL     1     -46.429  34.472  27.061  1.00  0.00     0.115 C 
ATOM      2  H   UNL     1     -45.651  34.109  27.745  1.00  0.00     0.076 H 
ATOM      3  H   UNL     1     -45.978  34.459  26.062  1.00  0.00     0.076 H 
ENDROOT
BRANCH   1   4
ATOM      4  O   UNL     1     -47.538  33.572  27.021  1.00  0.00    -0.489 OA
BRANCH   4   5
ATOM      5  C   UNL     1     -47.589  32.639  26.022  1.00  0.00     0.121 A 
ATOM      6  C   UNL     1     -46.763  31.399  24.088  1.00  0.00     0.048 A 
ATOM      7  C   UNL     1     -46.585  32.373  25.084  1.00  0.00     0.004 A 
ATOM      8  C   UNL     1     -47.924  30.606  24.131  1.00  0.00     0.063 A 
ATOM      9  H   UNL     1     -45.642  32.908  25.106  1.00  0.00     0.068 H 
ATOM     10  C   UNL     1     -48.941  30.877  25.054  1.00  0.00    -0.044 A 
ATOM     11  C   UNL     1     -48.768  31.891  25.995  1.00  0.00    -0.019 A 
ATOM     12  H   UNL     1     -49.861  30.299  25.044  1.00  0.00     0.063 H 
ATOM     13  H   UNL     1     -49.555  32.095  26.718  1.00  0.00     0.066 H 
BRANCH   6  14
ATOM     14  N   UNL     1     -45.682  31.097  23.232  1.00  0.00    -0.398 N 
ATOM     15  H   UNL     1     -45.592  30.110  23.016  1.00  0.00     0.156 HD
ATOM     16  H   UNL     1     -44.803  31.479  23.595  1.00  0.00     0.156 HD
ENDBRANCH   6  14
BRANCH   8  17
ATOM     17  C   UNL     1     -48.129  29.522  23.141  1.00  0.00     0.256 C 
ATOM     18  O   UNL     1     -47.585  28.439  23.356  1.00  0.00    -0.269 OA
ATOM     19  N   UNL     1     -48.900  29.786  22.004  1.00  0.00    -0.336 N 
ATOM     20  C   UNL     1     -50.039  30.714  22.048  1.00  0.00     0.033 C 
ATOM     21  C   UNL     1     -49.074  28.678  21.064  1.00  0.00     0.033 C 
ATOM     22  C   UNL     1     -50.484  31.152  20.641  1.00  0.00     0.013 C 
ATOM     23  H   UNL     1     -50.858  30.192  22.559  1.00  0.00     0.051 H 
ATOM     24  H   UNL     1     -49.807  31.600  22.643  1.00  0.00     0.051 H 
ATOM     25  C   UNL     1     -49.541  29.158  19.679  1.00  0.00     0.013 C 
ATOM     26  H   UNL     1     -48.129  28.132  20.960  1.00  0.00     0.051 H 
ATOM     27  H   UNL     1     -49.808  27.988  21.497  1.00  0.00     0.051 H 
ATOM     28  N   UNL     1     -50.736  30.015  19.740  1.00  0.00    -0.313 NA
ATOM     29  H   UNL     1     -49.715  31.797  20.200  1.00  0.00     0.045 H 
ATOM     30  H   UNL     1     -51.399  31.748  20.723  1.00  0.00     0.045 H 
ATOM     31  H   UNL     1     -48.728  29.709  19.190  1.00  0.00     0.045 H 
ATOM     32  H   UNL     1     -49.762  28.286  19.052  1.00  0.00     0.045 H 
ATOM     33  H   UNL     1     -50.946  30.365  18.806  1.00  0.00     0.122 HD
ENDBRANCH   8  17
ENDBRANCH   4   5
ENDBRANCH   1   4
BRANCH   1  34
ATOM     34  C   UNL     1     -46.838  35.892  27.354  1.00  0.00     0.010 A 
ATOM     35  C   UNL     1     -48.154  36.218  27.650  1.00  0.00     0.034 A 
ATOM     36  C   UNL     1     -45.909  36.940  27.284  1.00  0.00    -0.028 A 
ATOM     37  N   UNL     1     -48.579  37.476  27.889  1.00  0.00    -0.262 NA
ATOM     38  H   UNL     1     -48.929  35.457  27.706  1.00  0.00     0.084 H 
ATOM     39  C   UNL     1     -46.302  38.259  27.536  1.00  0.00     0.066 A 
ATOM     40  H   UNL     1     -44.888  36.688  27.019  1.00  0.00     0.065 H 
ATOM     41  C   UNL     1     -47.647  38.460  27.833  1.00  0.00     0.051 A 
ATOM     42  H   UNL     1     -48.068  39.434  28.062  1.00  0.00     0.086 H 
BRANCH  39  43
ATOM     43  N   UNL     1     -45.384  39.358  27.493  1.00  0.00    -0.298 N 
ATOM     44  C   UNL     1     -45.362  40.336  26.511  1.00  0.00     0.026 A 
ATOM     45  C   UNL     1     -44.357  39.662  28.397  1.00  0.00     0.151 A 
ATOM     46  C   UNL     1     -44.354  41.222  26.789  1.00  0.00     0.049 A 
ATOM     47  H   UNL     1     -46.048  40.333  25.676  1.00  0.00     0.084 H 
ATOM     48  C   UNL     1     -43.707  40.822  27.973  1.00  0.00     0.076 A 
ATOM     49  N   UNL     1     -44.038  38.971  29.512  1.00  0.00    -0.218 NA
ATOM     50  Br  UNL     1     -43.913  42.718  25.744  1.00  0.00    -0.048 Br
ATOM     51  C   UNL     1     -42.644  41.286  28.765  1.00  0.00     0.137 A 
ATOM     52  C   UNL     1     -43.010  39.506  30.183  1.00  0.00     0.120 A 
ATOM     53  N   UNL     1     -42.302  40.601  29.870  1.00  0.00    -0.219 NA
ATOM     54  H   UNL     1     -42.709  38.991  31.091  1.00  0.00     0.106 H 
BRANCH  51  55
ATOM     55  N   UNL     1     -41.897  42.418  28.483  1.00  0.00    -0.383 N 
ATOM     56  H   UNL     1     -41.299  42.283  27.677  1.00  0.00     0.158 HD
ATOM     57  H   UNL     1     -42.385  43.301  28.555  1.00  0.00     0.158 HD
ENDBRANCH  51  55
ENDBRANCH  39  43
ENDBRANCH   1  34
TORSDOF 7
ENDMDL
MODEL 5
REMARK VINA RESULT:      -9.6      1.859      2.656
REMARK SMILES Nc1cc(OCc2cncc(-n3cc(Br)c4c(N)ncnc43)c2)ccc1C(=O)N1CCNCC1
REMARK SMILES IDX 6 1 5 4 4 5 2 6 3 7 26 8 25 10 24 11 1 14 27 17 28 18 29 19
REMARK SMILES IDX 30 20 34 21 31 22 33 25 32 28 7 34 8 35 23 36 9 37 11 39
REMARK SMILES IDX 10 41 12 43 13 44 22 45 14 46 16 48 21 49 15 50 17 51 20 52
REMARK SMILES IDX 19 53 18 55
REMARK H PARENT 6 2 6 3 3 9 25 12 24 13 1 15 1 16 30 23 30 24 34 26 34 27
REMARK H PARENT 31 29 31 30 33 31 33 32 32 33 8 38 23 40 10 42 13 47 20 54
REMARK H PARENT 18 56 18 57
REMARK Flexibility Score: inf
ROOT
ATOM      1  C   UNL     1     -46.950  35.301  26.411  1.00  0.00     0.115 C 
ATOM      2  H   UNL     1     -46.140  35.084  25.703  1.00  0.00     0.076 H 
ATOM      3  H   UNL     1     -47.666  35.925  25.863  1.00  0.00     0.076 H 
ENDROOT
BRANCH   1   4
ATOM      4  O   UNL     1     -47.645  34.108  26.778  1.00  0.00    -0.489 OA
BRANCH   4   5
ATOM      5  C   UNL     1     -47.678  33.069  25.890  1.00  0.00     0.121 A 
ATOM      6  C   UNL     1     -46.792  31.579  24.170  1.00  0.00     0.048 A 
ATOM      7  C   UNL     1     -46.631  32.655  25.059  1.00  0.00     0.004 A 
ATOM      8  C   UNL     1     -47.990  30.845  24.222  1.00  0.00     0.063 A 
ATOM      9  H   UNL     1     -45.666  33.150  25.085  1.00  0.00     0.068 H 
ATOM     10  C   UNL     1     -49.050  31.262  25.037  1.00  0.00    -0.044 A 
ATOM     11  C   UNL     1     -48.888  32.371  25.867  1.00  0.00    -0.019 A 
ATOM     12  H   UNL     1     -49.994  30.725  25.029  1.00  0.00     0.063 H 
ATOM     13  H   UNL     1     -49.708  32.689  26.507  1.00  0.00     0.066 H 
BRANCH   6  14
ATOM     14  N   UNL     1     -45.675  31.137  23.429  1.00  0.00    -0.398 N 
ATOM     15  H   UNL     1     -45.482  30.146  23.529  1.00  0.00     0.156 HD
ATOM     16  H   UNL     1     -44.844  31.699  23.640  1.00  0.00     0.156 HD
ENDBRANCH   6  14
BRANCH   8  17
ATOM     17  C   UNL     1     -48.184  29.662  23.349  1.00  0.00     0.256 C 
ATOM     18  O   UNL     1     -47.694  28.594  23.715  1.00  0.00    -0.269 OA
ATOM     19  N   UNL     1     -48.883  29.821  22.149  1.00  0.00    -0.336 N 
ATOM     20  C   UNL     1     -49.988  30.784  22.024  1.00  0.00     0.033 C 
ATOM     21  C   UNL     1     -49.050  28.619  21.329  1.00  0.00     0.033 C 
ATOM     22  C   UNL     1     -50.340  31.073  20.555  1.00  0.00     0.013 C 
ATOM     23  H   UNL     1     -50.852  30.350  22.543  1.00  0.00     0.051 H 
ATOM     24  H   UNL     1     -49.753  31.723  22.529  1.00  0.00     0.051 H 
ATOM     25  C   UNL     1     -49.425  28.953  19.875  1.00  0.00     0.013 C 
ATOM     26  H   UNL     1     -48.122  28.035  21.341  1.00  0.00     0.051 H 
ATOM     27  H   UNL     1     -49.832  28.007  21.795  1.00  0.00     0.051 H 
ATOM     28  N   UNL     1     -50.588  29.850  19.773  1.00  0.00    -0.313 NA
ATOM     29  H   UNL     1     -49.525  31.639  20.088  1.00  0.00     0.045 H 
ATOM     30  H   UNL     1     -51.235  31.704  20.517  1.00  0.00     0.045 H 
ATOM     31  H   UNL     1     -48.567  29.419  19.375  1.00  0.00     0.045 H 
ATOM     32  H   UNL     1     -49.646  28.024  19.338  1.00  0.00     0.045 H 
ATOM     33  H   UNL     1     -50.735  30.098  18.795  1.00  0.00     0.122 HD
ENDBRANCH   8  17
ENDBRANCH   4   5
ENDBRANCH   1   4
BRANCH   1  34
ATOM     34  C   UNL     1     -46.479  36.094  27.602  1.00  0.00     0.010 A 
ATOM     35  C   UNL     1     -46.794  35.708  28.897  1.00  0.00     0.034 A 
ATOM     36  C   UNL     1     -45.750  37.280  27.437  1.00  0.00    -0.028 A 
ATOM     37  N   UNL     1     -46.425  36.398  29.996  1.00  0.00    -0.262 NA
ATOM     38  H   UNL     1     -47.370  34.807  29.097  1.00  0.00     0.084 H 
ATOM     39  C   UNL     1     -45.335  38.022  28.548  1.00  0.00     0.066 A 
ATOM     40  H   UNL     1     -45.534  37.599  26.423  1.00  0.00     0.065 H 
ATOM     41  C   UNL     1     -45.702  37.529  29.798  1.00  0.00     0.051 A 
ATOM     42  H   UNL     1     -45.427  38.006  30.732  1.00  0.00     0.086 H 
BRANCH  39  43
ATOM     43  N   UNL     1     -44.573  39.230  28.428  1.00  0.00    -0.298 N 
ATOM     44  C   UNL     1     -43.484  39.564  29.218  1.00  0.00     0.026 A 
ATOM     45  C   UNL     1     -44.763  40.284  27.525  1.00  0.00     0.151 A 
ATOM     46  C   UNL     1     -43.009  40.788  28.824  1.00  0.00     0.049 A 
ATOM     47  H   UNL     1     -43.128  38.924  30.013  1.00  0.00     0.084 H 
ATOM     48  C   UNL     1     -43.795  41.262  27.758  1.00  0.00     0.076 A 
ATOM     49  N   UNL     1     -45.710  40.360  26.566  1.00  0.00    -0.218 NA
ATOM     50  Br  UNL     1     -41.550  41.679  29.600  1.00  0.00    -0.048 Br
ATOM     51  C   UNL     1     -43.825  42.402  26.938  1.00  0.00     0.137 A 
ATOM     52  C   UNL     1     -45.642  41.489  25.850  1.00  0.00     0.120 A 
ATOM     53  N   UNL     1     -44.771  42.500  25.988  1.00  0.00    -0.219 NA
ATOM     54  H   UNL     1     -46.381  41.604  25.062  1.00  0.00     0.106 H 
BRANCH  51  55
ATOM     55  N   UNL     1     -42.939  43.460  27.039  1.00  0.00    -0.383 N 
ATOM     56  H   UNL     1     -43.143  44.047  27.840  1.00  0.00     0.158 HD
ATOM     57  H   UNL     1     -41.967  43.246  26.859  1.00  0.00     0.158 HD
ENDBRANCH  51  55
ENDBRANCH  39  43
ENDBRANCH   1  34
TORSDOF 7
ENDMDL
MODEL 6
REMARK VINA RESULT:      -9.6      2.162      2.994
REMARK SMILES Nc1cc(OCc2cncc(-n3cc(Br)c4c(N)ncnc43)c2)ccc1C(=O)N1CCNCC1
REMARK SMILES IDX 6 1 5 4 4 5 2 6 3 7 26 8 25 10 24 11 1 14 27 17 28 18 29 19
REMARK SMILES IDX 30 20 34 21 31 22 33 25 32 28 7 34 8 35 23 36 9 37 11 39
REMARK SMILES IDX 10 41 12 43 13 44 22 45 14 46 16 48 21 49 15 50 17 51 20 52
REMARK SMILES IDX 19 53 18 55
REMARK H PARENT 6 2 6 3 3 9 25 12 24 13 1 15 1 16 30 23 30 24 34 26 34 27
REMARK H PARENT 31 29 31 30 33 31 33 32 32 33 8 38 23 40 10 42 13 47 20 54
REMARK H PARENT 18 56 18 57
REMARK Flexibility Score: inf
ROOT
ATOM      1  C   UNL     1     -46.808  36.133  27.717  1.00  0.00     0.115 C 
ATOM      2  H   UNL     1     -47.865  36.420  27.772  1.00  0.00     0.076 H 
ATOM      3  H   UNL     1     -46.696  35.271  28.386  1.00  0.00     0.076 H 
ENDROOT
BRANCH   1   4
ATOM      4  O   UNL     1     -46.467  35.678  26.406  1.00  0.00    -0.489 OA
BRANCH   4   5
ATOM      5  C   UNL     1     -46.933  34.459  25.993  1.00  0.00     0.121 A 
ATOM      6  C   UNL     1     -46.829  32.307  24.846  1.00  0.00     0.048 A 
ATOM      7  C   UNL     1     -46.235  33.522  25.226  1.00  0.00     0.004 A 
ATOM      8  C   UNL     1     -48.101  31.998  25.362  1.00  0.00     0.063 A 
ATOM      9  H   UNL     1     -45.214  33.706  24.909  1.00  0.00     0.068 H 
ATOM     10  C   UNL     1     -48.815  32.938  26.116  1.00  0.00    -0.044 A 
ATOM     11  C   UNL     1     -48.228  34.162  26.428  1.00  0.00    -0.019 A 
ATOM     12  H   UNL     1     -49.821  32.715  26.462  1.00  0.00     0.063 H 
ATOM     13  H   UNL     1     -48.778  34.888  27.022  1.00  0.00     0.066 H 
BRANCH   6  14
ATOM     14  N   UNL     1     -46.048  31.353  24.160  1.00  0.00    -0.398 N 
ATOM     15  H   UNL     1     -45.422  30.826  24.760  1.00  0.00     0.156 HD
ATOM     16  H   UNL     1     -45.540  31.781  23.380  1.00  0.00     0.156 HD
ENDBRANCH   6  14
BRANCH   8  17
ATOM     17  C   UNL     1     -48.745  30.701  25.043  1.00  0.00     0.256 C 
ATOM     18  O   UNL     1     -48.601  29.778  25.844  1.00  0.00    -0.269 OA
ATOM     19  N   UNL     1     -49.455  30.580  23.844  1.00  0.00    -0.336 N 
ATOM     20  C   UNL     1     -50.191  31.716  23.270  1.00  0.00     0.033 C 
ATOM     21  C   UNL     1     -50.075  29.280  23.583  1.00  0.00     0.033 C 
ATOM     22  C   UNL     1     -50.556  31.482  21.793  1.00  0.00     0.013 C 
ATOM     23  H   UNL     1     -51.101  31.845  23.869  1.00  0.00     0.051 H 
ATOM     24  H   UNL     1     -49.620  32.643  23.355  1.00  0.00     0.051 H 
ATOM     25  C   UNL     1     -50.444  29.097  22.101  1.00  0.00     0.013 C 
ATOM     26  H   UNL     1     -49.391  28.479  23.889  1.00  0.00     0.051 H 
ATOM     27  H   UNL     1     -50.971  29.208  24.212  1.00  0.00     0.051 H 
ATOM     28  N   UNL     1     -51.256  30.206  21.571  1.00  0.00    -0.313 NA
ATOM     29  H   UNL     1     -49.644  31.503  21.184  1.00  0.00     0.045 H 
ATOM     30  H   UNL     1     -51.195  32.301  21.446  1.00  0.00     0.045 H 
ATOM     31  H   UNL     1     -49.528  29.005  21.505  1.00  0.00     0.045 H 
ATOM     32  H   UNL     1     -51.002  28.162  21.982  1.00  0.00     0.045 H 
ATOM     33  H   UNL     1     -51.397  30.068  20.570  1.00  0.00     0.122 HD
ENDBRANCH   8  17
ENDBRANCH   4   5
ENDBRANCH   1   4
BRANCH   1  34
ATOM     34  C   UNL     1     -45.888  37.215  28.216  1.00  0.00     0.010 A 
ATOM     35  C   UNL     1     -45.257  37.116  29.449  1.00  0.00     0.034 A 
ATOM     36  C   UNL     1     -45.680  38.386  27.473  1.00  0.00    -0.028 A 
ATOM     37  N   UNL     1     -44.450  38.070  29.956  1.00  0.00    -0.262 NA
ATOM     38  H   UNL     1     -45.386  36.243  30.083  1.00  0.00     0.084 H 
ATOM     39  C   UNL     1     -44.840  39.397  27.954  1.00  0.00     0.066 A 
ATOM     40  H   UNL     1     -46.200  38.477  26.526  1.00  0.00     0.065 H 
ATOM     41  C   UNL     1     -44.255  39.178  29.199  1.00  0.00     0.051 A 
ATOM     42  H   UNL     1     -43.575  39.880  29.670  1.00  0.00     0.086 H 
BRANCH  39  43
ATOM     43  N   UNL     1     -44.585  40.601  27.222  1.00  0.00    -0.298 N 
ATOM     44  C   UNL     1     -43.328  41.053  26.849  1.00  0.00     0.026 A 
ATOM     45  C   UNL     1     -45.514  41.538  26.749  1.00  0.00     0.151 A 
ATOM     46  C   UNL     1     -43.466  42.235  26.167  1.00  0.00     0.049 A 
ATOM     47  H   UNL     1     -42.424  40.520  27.102  1.00  0.00     0.084 H 
ATOM     48  C   UNL     1     -44.832  42.561  26.088  1.00  0.00     0.076 A 
ATOM     49  N   UNL     1     -46.856  41.477  26.884  1.00  0.00    -0.218 NA
ATOM     50  Br  UNL     1     -42.048  43.247  25.467  1.00  0.00    -0.048 Br
ATOM     51  C   UNL     1     -45.606  43.596  25.539  1.00  0.00     0.137 A 
ATOM     52  C   UNL     1     -47.486  42.516  26.323  1.00  0.00     0.120 A 
ATOM     53  N   UNL     1     -46.943  43.559  25.677  1.00  0.00    -0.219 NA
ATOM     54  H   UNL     1     -48.570  42.519  26.400  1.00  0.00     0.106 H 
BRANCH  51  55
ATOM     55  N   UNL     1     -45.086  44.681  24.855  1.00  0.00    -0.383 N 
ATOM     56  H   UNL     1     -44.504  44.392  24.077  1.00  0.00     0.158 HD
ATOM     57  H   UNL     1     -45.719  45.453  24.697  1.00  0.00     0.158 HD
ENDBRANCH  51  55
ENDBRANCH  39  43
ENDBRANCH   1  34
TORSDOF 7
ENDMDL
MODEL 7
REMARK VINA RESULT:      -9.6      3.430     11.770
REMARK SMILES Nc1cc(OCc2cncc(-n3cc(Br)c4c(N)ncnc43)c2)ccc1C(=O)N1CCNCC1
REMARK SMILES IDX 6 1 5 4 4 5 2 6 3 7 26 8 25 10 24 11 1 14 27 17 28 18 29 19
REMARK SMILES IDX 30 20 34 21 31 22 33 25 32 28 7 34 8 35 23 36 9 37 11 39
REMARK SMILES IDX 10 41 12 43 13 44 22 45 14 46 16 48 21 49 15 50 17 51 20 52
REMARK SMILES IDX 19 53 18 55
REMARK H PARENT 6 2 6 3 3 9 25 12 24 13 1 15 1 16 30 23 30 24 34 26 34 27
REMARK H PARENT 31 29 31 30 33 31 33 32 32 33 8 38 23 40 10 42 13 47 20 54
REMARK H PARENT 18 56 18 57
REMARK Flexibility Score: inf
ROOT
ATOM      1  C   UNL     1     -48.196  35.037  27.070  1.00  0.00     0.115 C 
ATOM      2  H   UNL     1     -49.287  35.085  27.176  1.00  0.00     0.076 H 
ATOM      3  H   UNL     1     -47.901  35.976  26.587  1.00  0.00     0.076 H 
ENDROOT
BRANCH   1   4
ATOM      4  O   UNL     1     -47.556  35.016  28.347  1.00  0.00    -0.489 OA
BRANCH   4   5
ATOM      5  C   UNL     1     -46.735  36.056  28.686  1.00  0.00     0.121 A 
ATOM      6  C   UNL     1     -45.691  37.673  30.189  1.00  0.00     0.048 A 
ATOM      7  C   UNL     1     -46.551  36.584  29.968  1.00  0.00     0.004 A 
ATOM      8  C   UNL     1     -44.918  38.140  29.110  1.00  0.00     0.063 A 
ATOM      9  H   UNL     1     -47.065  36.163  30.825  1.00  0.00     0.068 H 
ATOM     10  C   UNL     1     -45.108  37.630  27.820  1.00  0.00    -0.044 A 
ATOM     11  C   UNL     1     -46.014  36.591  27.614  1.00  0.00    -0.019 A 
ATOM     12  H   UNL     1     -44.550  38.037  26.981  1.00  0.00     0.063 H 
ATOM     13  H   UNL     1     -46.154  36.188  26.614  1.00  0.00     0.066 H 
BRANCH   6  14
ATOM     14  N   UNL     1     -45.463  38.101  31.514  1.00  0.00    -0.398 N 
ATOM     15  H   UNL     1     -45.653  37.392  32.214  1.00  0.00     0.156 HD
ATOM     16  H   UNL     1     -45.973  38.966  31.717  1.00  0.00     0.156 HD
ENDBRANCH   6  14
BRANCH   8  17
ATOM     17  C   UNL     1     -43.948  39.244  29.306  1.00  0.00     0.256 C 
ATOM     18  O   UNL     1     -43.245  39.216  30.315  1.00  0.00    -0.269 OA
ATOM     19  N   UNL     1     -43.899  40.271  28.358  1.00  0.00    -0.336 N 
ATOM     20  C   UNL     1     -44.161  40.015  26.934  1.00  0.00     0.033 C 
ATOM     21  C   UNL     1     -42.919  41.332  28.598  1.00  0.00     0.033 C 
ATOM     22  C   UNL     1     -44.440  41.312  26.155  1.00  0.00     0.013 C 
ATOM     23  H   UNL     1     -43.273  39.513  26.529  1.00  0.00     0.051 H 
ATOM     24  H   UNL     1     -45.001  39.330  26.802  1.00  0.00     0.051 H 
ATOM     25  C   UNL     1     -43.222  42.600  27.782  1.00  0.00     0.013 C 
ATOM     26  H   UNL     1     -42.901  41.581  29.665  1.00  0.00     0.051 H 
ATOM     27  H   UNL     1     -41.930  40.935  28.335  1.00  0.00     0.051 H 
ATOM     28  N   UNL     1     -43.395  42.332  26.345  1.00  0.00    -0.313 NA
ATOM     29  H   UNL     1     -45.407  41.726  26.467  1.00  0.00     0.045 H 
ATOM     30  H   UNL     1     -44.518  41.080  25.087  1.00  0.00     0.045 H 
ATOM     31  H   UNL     1     -44.131  43.076  28.171  1.00  0.00     0.045 H 
ATOM     32  H   UNL     1     -42.402  43.316  27.912  1.00  0.00     0.045 H 
ATOM     33  H   UNL     1     -43.673  43.192  25.874  1.00  0.00     0.122 HD
ENDBRANCH   8  17
ENDBRANCH   4   5
ENDBRANCH   1   4
BRANCH   1  34
ATOM     34  C   UNL     1     -47.752  33.910  26.175  1.00  0.00     0.010 A 
ATOM     35  C   UNL     1     -46.544  33.960  25.495  1.00  0.00     0.034 A 
ATOM     36  C   UNL     1     -48.573  32.793  25.959  1.00  0.00    -0.028 A 
ATOM     37  N   UNL     1     -46.113  32.994  24.658  1.00  0.00    -0.262 NA
ATOM     38  H   UNL     1     -45.866  34.804  25.604  1.00  0.00     0.084 H 
ATOM     39  C   UNL     1     -48.162  31.760  25.110  1.00  0.00     0.066 A 
ATOM     40  H   UNL     1     -49.532  32.771  26.465  1.00  0.00     0.065 H 
ATOM     41  C   UNL     1     -46.924  31.919  24.491  1.00  0.00     0.051 A 
ATOM     42  H   UNL     1     -46.492  31.182  23.824  1.00  0.00     0.086 H 
BRANCH  39  43
ATOM     43  N   UNL     1     -48.959  30.594  24.873  1.00  0.00    -0.298 N 
ATOM     44  C   UNL     1     -48.743  29.353  25.453  1.00  0.00     0.026 A 
ATOM     45  C   UNL     1     -50.077  30.467  24.038  1.00  0.00     0.151 A 
ATOM     46  C   UNL     1     -49.693  28.477  24.995  1.00  0.00     0.049 A 
ATOM     47  H   UNL     1     -47.927  29.168  26.136  1.00  0.00     0.084 H 
ATOM     48  C   UNL     1     -50.547  29.154  24.105  1.00  0.00     0.076 A 
ATOM     49  N   UNL     1     -50.639  31.442  23.293  1.00  0.00    -0.218 NA
ATOM     50  Br  UNL     1     -49.816  26.668  25.480  1.00  0.00    -0.048 Br
ATOM     51  C   UNL     1     -51.677  28.838  23.332  1.00  0.00     0.137 A 
ATOM     52  C   UNL     1     -51.704  31.023  22.599  1.00  0.00     0.120 A 
ATOM     53  N   UNL     1     -52.238  29.794  22.571  1.00  0.00    -0.219 NA
ATOM     54  H   UNL     1     -52.197  31.768  21.980  1.00  0.00     0.106 H 
BRANCH  51  55
ATOM     55  N   UNL     1     -52.265  27.586  23.286  1.00  0.00    -0.383 N 
ATOM     56  H   UNL     1     -52.231  27.120  24.185  1.00  0.00     0.158 HD
ATOM     57  H   UNL     1     -53.128  27.519  22.763  1.00  0.00     0.158 HD
ENDBRANCH  51  55
ENDBRANCH  39  43
ENDBRANCH   1  34
TORSDOF 7
ENDMDL
