MODEL 1
REMARK VINA RESULT:      -9.9      0.000      0.000
REMARK SMILES C[C@]12C[C@](CNCc3cc4cnc(CNC(=O)c5cc(=O)n6ccccc6n5)cc4[nH]3)(C1)C2
REMARK SMILES IDX 7 1 6 4 5 6 4 9 2 10 32 11 3 12 33 13 1 20 8 24 9 25 31 26
REMARK SMILES IDX 10 27 30 29 11 31 29 32 12 33 13 35 14 37 15 40 16 41 17 43
REMARK SMILES IDX 18 44 19 45 28 46 20 47 27 49 21 50 22 51 26 52 23 53 25 54
REMARK SMILES IDX 24 56
REMARK H PARENT 7 2 7 3 6 5 5 7 5 8 32 14 32 15 3 16 3 17 33 18 33 19 1 21
REMARK H PARENT 1 22 1 23 9 28 31 30 11 34 29 36 14 38 14 39 15 42 19 48 26 55
REMARK H PARENT 23 57 25 58 24 59
REMARK Flexibility Score: inf
ROOT
ATOM      1  C   UNL     1     -48.624  31.365  25.174  1.00  0.00     0.036 C 
ATOM      2  H   UNL     1     -49.663  31.605  24.933  1.00  0.00     0.049 H 
ATOM      3  H   UNL     1     -48.102  31.253  24.216  1.00  0.00     0.049 H 
ENDROOT
BRANCH   1   4
ATOM      4  N   UNL     1     -48.508  30.103  25.904  1.00  0.00    -0.311 NA
ATOM      5  H   UNL     1     -47.526  29.940  26.130  1.00  0.00     0.123 HD
BRANCH   4   6
ATOM      6  C   UNL     1     -49.027  28.945  25.168  1.00  0.00     0.001 C 
ATOM      7  H   UNL     1     -48.889  29.061  24.087  1.00  0.00     0.043 H 
ATOM      8  H   UNL     1     -50.113  28.933  25.325  1.00  0.00     0.043 H 
BRANCH   6   9
ATOM      9  C   UNL     1     -48.458  27.656  25.642  1.00  0.00    -0.016 C 
ATOM     10  C   UNL     1     -47.846  25.890  26.292  1.00  0.00    -0.031 C 
ATOM     11  C   UNL     1     -47.215  26.799  25.169  1.00  0.00    -0.041 C 
ATOM     12  C   UNL     1     -49.225  26.273  25.635  1.00  0.00    -0.041 C 
ATOM     13  C   UNL     1     -48.016  27.234  27.100  1.00  0.00    -0.041 C 
ATOM     14  H   UNL     1     -46.219  27.205  25.375  1.00  0.00     0.028 H 
ATOM     15  H   UNL     1     -47.243  26.413  24.145  1.00  0.00     0.028 H 
ATOM     16  H   UNL     1     -50.113  26.197  26.271  1.00  0.00     0.028 H 
ATOM     17  H   UNL     1     -49.446  25.836  24.656  1.00  0.00     0.028 H 
ATOM     18  H   UNL     1     -48.788  27.251  27.876  1.00  0.00     0.028 H 
ATOM     19  H   UNL     1     -47.102  27.694  27.491  1.00  0.00     0.028 H 
BRANCH  10  20
ATOM     20  C   UNL     1     -47.388  24.570  26.778  1.00  0.00    -0.060 C 
ATOM     21  H   UNL     1     -47.486  23.807  26.001  1.00  0.00     0.024 H 
ATOM     22  H   UNL     1     -47.975  24.243  27.643  1.00  0.00     0.024 H 
ATOM     23  H   UNL     1     -46.338  24.604  27.082  1.00  0.00     0.024 H 
ENDBRANCH  10  20
ENDBRANCH   6   9
ENDBRANCH   4   6
ENDBRANCH   1   4
BRANCH   1  24
ATOM     24  C   UNL     1     -47.978  32.486  25.912  1.00  0.00     0.030 A 
ATOM     25  C   UNL     1     -46.697  32.635  26.405  1.00  0.00    -0.031 A 
ATOM     26  N   UNL     1     -48.672  33.628  26.236  1.00  0.00    -0.357 N 
ATOM     27  C   UNL     1     -46.615  33.906  27.040  1.00  0.00     0.018 A 
ATOM     28  H   UNL     1     -45.900  31.908  26.318  1.00  0.00     0.065 H 
ATOM     29  C   UNL     1     -47.865  34.507  26.917  1.00  0.00     0.049 A 
ATOM     30  H   UNL     1     -49.633  33.791  25.964  1.00  0.00     0.166 HD
ATOM     31  C   UNL     1     -45.602  34.605  27.705  1.00  0.00     0.037 A 
ATOM     32  C   UNL     1     -48.134  35.775  27.429  1.00  0.00    -0.014 A 
ATOM     33  N   UNL     1     -45.834  35.840  28.214  1.00  0.00    -0.259 NA
ATOM     34  H   UNL     1     -44.604  34.207  27.841  1.00  0.00     0.085 H 
ATOM     35  C   UNL     1     -47.068  36.403  28.076  1.00  0.00     0.062 A 
ATOM     36  H   UNL     1     -49.106  36.243  27.331  1.00  0.00     0.067 H 
BRANCH  35  37
ATOM     37  C   UNL     1     -47.285  37.785  28.660  1.00  0.00     0.060 C 
ATOM     38  H   UNL     1     -47.255  37.736  29.755  1.00  0.00     0.056 H 
ATOM     39  H   UNL     1     -48.266  38.168  28.355  1.00  0.00     0.056 H 
BRANCH  37  40
ATOM     40  N   UNL     1     -46.285  38.728  28.228  1.00  0.00    -0.345 N 
ATOM     41  C   UNL     1     -46.377  39.422  27.054  1.00  0.00     0.270 C 
ATOM     42  H   UNL     1     -45.480  38.876  28.833  1.00  0.00     0.164 HD
ATOM     43  O   UNL     1     -47.308  39.308  26.266  1.00  0.00    -0.268 OA
BRANCH  41  44
ATOM     44  C   UNL     1     -45.207  40.349  26.826  1.00  0.00     0.136 A 
ATOM     45  C   UNL     1     -44.255  40.342  27.760  1.00  0.00     0.035 A 
ATOM     46  N   UNL     1     -45.188  41.130  25.695  1.00  0.00    -0.225 NA
ATOM     47  C   UNL     1     -43.098  41.227  27.581  1.00  0.00     0.258 A 
ATOM     48  H   UNL     1     -44.279  39.722  28.647  1.00  0.00     0.071 H 
ATOM     49  C   UNL     1     -44.164  41.912  25.539  1.00  0.00     0.140 A 
ATOM     50  O   UNL     1     -42.214  41.227  28.438  1.00  0.00    -0.269 OA
ATOM     51  N   UNL     1     -43.103  42.004  26.432  1.00  0.00    -0.268 N 
ATOM     52  C   UNL     1     -44.104  42.776  24.326  1.00  0.00    -0.019 A 
ATOM     53  C   UNL     1     -42.039  42.868  26.192  1.00  0.00     0.014 A 
ATOM     54  C   UNL     1     -43.060  43.592  24.138  1.00  0.00    -0.057 A 
ATOM     55  H   UNL     1     -44.927  42.709  23.627  1.00  0.00     0.066 H 
ATOM     56  C   UNL     1     -41.992  43.642  25.101  1.00  0.00    -0.045 A 
ATOM     57  H   UNL     1     -41.244  42.889  26.933  1.00  0.00     0.082 H 
ATOM     58  H   UNL     1     -42.999  44.229  23.261  1.00  0.00     0.062 H 
ATOM     59  H   UNL     1     -41.157  44.312  24.923  1.00  0.00     0.064 H 
ENDBRANCH  41  44
ENDBRANCH  37  40
ENDBRANCH  35  37
ENDBRANCH   1  24
TORSDOF 8
ENDMDL
MODEL 2
REMARK VINA RESULT:      -9.7      1.701      2.213
REMARK SMILES C[C@]12C[C@](CNCc3cc4cnc(CNC(=O)c5cc(=O)n6ccccc6n5)cc4[nH]3)(C1)C2
REMARK SMILES IDX 7 1 6 4 5 6 4 9 2 10 32 11 3 12 33 13 1 20 8 24 9 25 31 26
REMARK SMILES IDX 10 27 30 29 11 31 29 32 12 33 13 35 14 37 15 40 16 41 17 43
REMARK SMILES IDX 18 44 19 45 28 46 20 47 27 49 21 50 22 51 26 52 23 53 25 54
REMARK SMILES IDX 24 56
REMARK H PARENT 7 2 7 3 6 5 5 7 5 8 32 14 32 15 3 16 3 17 33 18 33 19 1 21
REMARK H PARENT 1 22 1 23 9 28 31 30 11 34 29 36 14 38 14 39 15 42 19 48 26 55
REMARK H PARENT 23 57 25 58 24 59
REMARK Flexibility Score: inf
ROOT
ATOM      1  C   UNL     1     -46.421  31.690  24.066  1.00  0.00     0.036 C 
ATOM      2  H   UNL     1     -45.550  31.939  23.454  1.00  0.00     0.049 H 
ATOM      3  H   UNL     1     -46.160  30.779  24.619  1.00  0.00     0.049 H 
ENDROOT
BRANCH   1   4
ATOM      4  N   UNL     1     -47.601  31.404  23.250  1.00  0.00    -0.311 NA
ATOM      5  H   UNL     1     -48.438  31.564  23.811  1.00  0.00     0.123 HD
BRANCH   4   6
ATOM      6  C   UNL     1     -47.634  30.036  22.720  1.00  0.00     0.001 C 
ATOM      7  H   UNL     1     -46.637  29.582  22.718  1.00  0.00     0.043 H 
ATOM      8  H   UNL     1     -47.924  30.114  21.666  1.00  0.00     0.043 H 
BRANCH   6   9
ATOM      9  C   UNL     1     -48.614  29.168  23.426  1.00  0.00    -0.016 C 
ATOM     10  C   UNL     1     -49.799  27.958  24.450  1.00  0.00    -0.031 C 
ATOM     11  C   UNL     1     -50.098  29.411  23.915  1.00  0.00    -0.041 C 
ATOM     12  C   UNL     1     -48.399  28.549  24.865  1.00  0.00    -0.041 C 
ATOM     13  C   UNL     1     -49.126  27.722  23.043  1.00  0.00    -0.041 C 
ATOM     14  H   UNL     1     -50.872  29.496  23.146  1.00  0.00     0.028 H 
ATOM     15  H   UNL     1     -50.249  30.194  24.666  1.00  0.00     0.028 H 
ATOM     16  H   UNL     1     -47.576  27.835  24.979  1.00  0.00     0.028 H 
ATOM     17  H   UNL     1     -48.386  29.249  25.707  1.00  0.00     0.028 H 
ATOM     18  H   UNL     1     -48.373  26.930  22.981  1.00  0.00     0.028 H 
ATOM     19  H   UNL     1     -49.797  27.649  22.181  1.00  0.00     0.028 H 
BRANCH  10  20
ATOM     20  C   UNL     1     -50.685  27.055  25.216  1.00  0.00    -0.060 C 
ATOM     21  H   UNL     1     -50.233  26.774  26.171  1.00  0.00     0.024 H 
ATOM     22  H   UNL     1     -50.886  26.134  24.658  1.00  0.00     0.024 H 
ATOM     23  H   UNL     1     -51.646  27.532  25.429  1.00  0.00     0.024 H 
ENDBRANCH  10  20
ENDBRANCH   6   9
ENDBRANCH   4   6
ENDBRANCH   1   4
BRANCH   1  24
ATOM     24  C   UNL     1     -46.692  32.761  25.064  1.00  0.00     0.030 A 
ATOM     25  C   UNL     1     -47.864  33.392  25.430  1.00  0.00    -0.031 A 
ATOM     26  N   UNL     1     -45.681  33.320  25.812  1.00  0.00    -0.357 N 
ATOM     27  C   UNL     1     -47.553  34.354  26.432  1.00  0.00     0.018 A 
ATOM     28  H   UNL     1     -48.845  33.183  25.023  1.00  0.00     0.065 H 
ATOM     29  C   UNL     1     -46.179  34.285  26.653  1.00  0.00     0.049 A 
ATOM     30  H   UNL     1     -44.717  33.015  25.761  1.00  0.00     0.166 HD
ATOM     31  C   UNL     1     -48.302  35.274  27.173  1.00  0.00     0.037 A 
ATOM     32  C   UNL     1     -45.535  35.097  27.585  1.00  0.00    -0.014 A 
ATOM     33  N   UNL     1     -47.702  36.077  28.086  1.00  0.00    -0.259 NA
ATOM     34  H   UNL     1     -49.373  35.387  27.059  1.00  0.00     0.085 H 
ATOM     35  C   UNL     1     -46.356  35.985  28.281  1.00  0.00     0.062 A 
ATOM     36  H   UNL     1     -44.468  35.041  27.758  1.00  0.00     0.067 H 
BRANCH  35  37
ATOM     37  C   UNL     1     -45.727  36.902  29.312  1.00  0.00     0.060 C 
ATOM     38  H   UNL     1     -45.016  36.338  29.927  1.00  0.00     0.056 H 
ATOM     39  H   UNL     1     -46.504  37.315  29.965  1.00  0.00     0.056 H 
BRANCH  37  40
ATOM     40  N   UNL     1     -45.019  38.003  28.709  1.00  0.00    -0.345 N 
ATOM     41  C   UNL     1     -45.633  39.167  28.339  1.00  0.00     0.270 C 
ATOM     42  H   UNL     1     -44.018  37.899  28.560  1.00  0.00     0.164 HD
ATOM     43  O   UNL     1     -46.832  39.381  28.482  1.00  0.00    -0.268 OA
BRANCH  41  44
ATOM     44  C   UNL     1     -44.680  40.168  27.733  1.00  0.00     0.136 A 
ATOM     45  C   UNL     1     -43.565  40.417  28.423  1.00  0.00     0.035 A 
ATOM     46  N   UNL     1     -45.004  40.754  26.533  1.00  0.00    -0.225 NA
ATOM     47  C   UNL     1     -42.607  41.384  27.873  1.00  0.00     0.258 A 
ATOM     48  H   UNL     1     -43.318  39.949  29.368  1.00  0.00     0.071 H 
ATOM     49  C   UNL     1     -44.156  41.608  26.049  1.00  0.00     0.140 A 
ATOM     50  O   UNL     1     -41.575  41.619  28.502  1.00  0.00    -0.269 OA
ATOM     51  N   UNL     1     -42.958  41.960  26.661  1.00  0.00    -0.268 N 
ATOM     52  C   UNL     1     -44.469  42.268  24.749  1.00  0.00    -0.019 A 
ATOM     53  C   UNL     1     -42.101  42.886  26.076  1.00  0.00     0.014 A 
ATOM     54  C   UNL     1     -43.614  43.153  24.225  1.00  0.00    -0.057 A 
ATOM     55  H   UNL     1     -45.401  41.998  24.267  1.00  0.00     0.066 H 
ATOM     56  C   UNL     1     -42.389  43.474  24.908  1.00  0.00    -0.045 A 
ATOM     57  H   UNL     1     -41.182  43.114  26.610  1.00  0.00     0.082 H 
ATOM     58  H   UNL     1     -43.824  43.642  23.280  1.00  0.00     0.062 H 
ATOM     59  H   UNL     1     -41.713  44.195  24.460  1.00  0.00     0.064 H 
ENDBRANCH  41  44
ENDBRANCH  37  40
ENDBRANCH  35  37
ENDBRANCH   1  24
TORSDOF 8
ENDMDL
MODEL 3
REMARK VINA RESULT:      -9.6      1.682      2.238
REMARK SMILES C[C@]12C[C@](CNCc3cc4cnc(CNC(=O)c5cc(=O)n6ccccc6n5)cc4[nH]3)(C1)C2
REMARK SMILES IDX 7 1 6 4 5 6 4 9 2 10 32 11 3 12 33 13 1 20 8 24 9 25 31 26
REMARK SMILES IDX 10 27 30 29 11 31 29 32 12 33 13 35 14 37 15 40 16 41 17 43
REMARK SMILES IDX 18 44 19 45 28 46 20 47 27 49 21 50 22 51 26 52 23 53 25 54
REMARK SMILES IDX 24 56
REMARK H PARENT 7 2 7 3 6 5 5 7 5 8 32 14 32 15 3 16 3 17 33 18 33 19 1 21
REMARK H PARENT 1 22 1 23 9 28 31 30 11 34 29 36 14 38 14 39 15 42 19 48 26 55
REMARK H PARENT 23 57 25 58 24 59
REMARK Flexibility Score: inf
ROOT
ATOM      1  C   UNL     1     -46.539  31.358  24.000  1.00  0.00     0.036 C 
ATOM      2  H   UNL     1     -46.066  31.730  23.087  1.00  0.00     0.049 H 
ATOM      3  H   UNL     1     -45.820  30.671  24.463  1.00  0.00     0.049 H 
ENDROOT
BRANCH   1   4
ATOM      4  N   UNL     1     -47.765  30.613  23.718  1.00  0.00    -0.311 NA
ATOM      5  H   UNL     1     -48.326  30.565  24.569  1.00  0.00     0.123 HD
BRANCH   4   6
ATOM      6  C   UNL     1     -47.528  29.251  23.225  1.00  0.00     0.001 C 
ATOM      7  H   UNL     1     -46.471  29.090  22.984  1.00  0.00     0.043 H 
ATOM      8  H   UNL     1     -48.063  29.163  22.273  1.00  0.00     0.043 H 
BRANCH   6   9
ATOM      9  C   UNL     1     -48.028  28.205  24.157  1.00  0.00    -0.016 C 
ATOM     10  C   UNL     1     -48.828  26.816  25.317  1.00  0.00    -0.031 C 
ATOM     11  C   UNL     1     -47.343  26.932  24.798  1.00  0.00    -0.041 C 
ATOM     12  C   UNL     1     -49.227  27.220  23.848  1.00  0.00    -0.041 C 
ATOM     13  C   UNL     1     -48.721  28.370  25.567  1.00  0.00    -0.041 C 
ATOM     14  H   UNL     1     -46.575  27.105  25.559  1.00  0.00     0.028 H 
ATOM     15  H   UNL     1     -46.998  26.155  24.107  1.00  0.00     0.028 H 
ATOM     16  H   UNL     1     -50.215  27.672  23.711  1.00  0.00     0.028 H 
ATOM     17  H   UNL     1     -49.063  26.472  23.066  1.00  0.00     0.028 H 
ATOM     18  H   UNL     1     -49.660  28.932  25.595  1.00  0.00     0.028 H 
ATOM     19  H   UNL     1     -48.082  28.694  26.396  1.00  0.00     0.028 H 
BRANCH  10  20
ATOM     20  C   UNL     1     -49.426  25.778  26.185  1.00  0.00    -0.060 C 
ATOM     21  H   UNL     1     -48.653  25.168  26.660  1.00  0.00     0.024 H 
ATOM     22  H   UNL     1     -50.074  25.109  25.610  1.00  0.00     0.024 H 
ATOM     23  H   UNL     1     -50.031  26.227  26.978  1.00  0.00     0.024 H 
ENDBRANCH  10  20
ENDBRANCH   6   9
ENDBRANCH   4   6
ENDBRANCH   1   4
BRANCH   1  24
ATOM     24  C   UNL     1     -46.782  32.470  24.960  1.00  0.00     0.030 A 
ATOM     25  C   UNL     1     -47.950  33.077  25.377  1.00  0.00    -0.031 A 
ATOM     26  N   UNL     1     -45.745  33.103  25.605  1.00  0.00    -0.357 N 
ATOM     27  C   UNL     1     -47.609  34.101  26.305  1.00  0.00     0.018 A 
ATOM     28  H   UNL     1     -48.948  32.812  25.051  1.00  0.00     0.065 H 
ATOM     29  C   UNL     1     -46.222  34.093  26.430  1.00  0.00     0.049 A 
ATOM     30  H   UNL     1     -44.776  32.831  25.501  1.00  0.00     0.166 HD
ATOM     31  C   UNL     1     -48.340  35.031  27.050  1.00  0.00     0.037 A 
ATOM     32  C   UNL     1     -45.547  34.975  27.273  1.00  0.00    -0.014 A 
ATOM     33  N   UNL     1     -47.711  35.902  27.877  1.00  0.00    -0.259 NA
ATOM     34  H   UNL     1     -49.421  35.099  27.008  1.00  0.00     0.085 H 
ATOM     35  C   UNL     1     -46.352  35.869  27.980  1.00  0.00     0.062 A 
ATOM     36  H   UNL     1     -44.469  34.967  27.372  1.00  0.00     0.067 H 
BRANCH  35  37
ATOM     37  C   UNL     1     -45.690  36.860  28.916  1.00  0.00     0.060 C 
ATOM     38  H   UNL     1     -44.822  36.395  29.398  1.00  0.00     0.056 H 
ATOM     39  H   UNL     1     -46.398  37.167  29.695  1.00  0.00     0.056 H 
BRANCH  37  40
ATOM     40  N   UNL     1     -45.238  38.045  28.233  1.00  0.00    -0.345 N 
ATOM     41  C   UNL     1     -45.995  39.179  28.132  1.00  0.00     0.270 C 
ATOM     42  H   UNL     1     -44.312  38.026  27.811  1.00  0.00     0.164 HD
ATOM     43  O   UNL     1     -47.120  39.292  28.608  1.00  0.00    -0.268 OA
BRANCH  41  44
ATOM     44  C   UNL     1     -45.303  40.283  27.371  1.00  0.00     0.136 A 
ATOM     45  C   UNL     1     -46.084  41.073  26.631  1.00  0.00     0.035 A 
ATOM     46  N   UNL     1     -43.938  40.412  27.479  1.00  0.00    -0.225 NA
ATOM     47  C   UNL     1     -45.455  42.161  25.873  1.00  0.00     0.258 A 
ATOM     48  H   UNL     1     -47.158  40.964  26.553  1.00  0.00     0.071 H 
ATOM     49  C   UNL     1     -43.385  41.374  26.808  1.00  0.00     0.140 A 
ATOM     50  O   UNL     1     -46.168  42.895  25.188  1.00  0.00    -0.269 OA
ATOM     51  N   UNL     1     -44.078  42.269  26.000  1.00  0.00    -0.268 N 
ATOM     52  C   UNL     1     -41.907  41.549  26.897  1.00  0.00    -0.019 A 
ATOM     53  C   UNL     1     -43.409  43.276  25.312  1.00  0.00     0.014 A 
ATOM     54  C   UNL     1     -41.308  42.533  26.216  1.00  0.00    -0.057 A 
ATOM     55  H   UNL     1     -41.362  40.856  27.525  1.00  0.00     0.066 H 
ATOM     56  C   UNL     1     -42.082  43.427  25.397  1.00  0.00    -0.045 A 
ATOM     57  H   UNL     1     -44.014  43.939  24.698  1.00  0.00     0.082 H 
ATOM     58  H   UNL     1     -40.234  42.676  26.269  1.00  0.00     0.062 H 
ATOM     59  H   UNL     1     -41.570  44.217  24.855  1.00  0.00     0.064 H 
ENDBRANCH  41  44
ENDBRANCH  37  40
ENDBRANCH  35  37
ENDBRANCH   1  24
TORSDOF 8
ENDMDL
MODEL 4
REMARK VINA RESULT:      -9.4      1.763      2.768
REMARK SMILES C[C@]12C[C@](CNCc3cc4cnc(CNC(=O)c5cc(=O)n6ccccc6n5)cc4[nH]3)(C1)C2
REMARK SMILES IDX 7 1 6 4 5 6 4 9 2 10 32 11 3 12 33 13 1 20 8 24 9 25 31 26
REMARK SMILES IDX 10 27 30 29 11 31 29 32 12 33 13 35 14 37 15 40 16 41 17 43
REMARK SMILES IDX 18 44 19 45 28 46 20 47 27 49 21 50 22 51 26 52 23 53 25 54
REMARK SMILES IDX 24 56
REMARK H PARENT 7 2 7 3 6 5 5 7 5 8 32 14 32 15 3 16 3 17 33 18 33 19 1 21
REMARK H PARENT 1 22 1 23 9 28 31 30 11 34 29 36 14 38 14 39 15 42 19 48 26 55
REMARK H PARENT 23 57 25 58 24 59
REMARK Flexibility Score: inf
ROOT
ATOM      1  C   UNL     1     -48.433  29.136  22.659  1.00  0.00     0.036 C 
ATOM      2  H   UNL     1     -48.844  29.456  21.698  1.00  0.00     0.049 H 
ATOM      3  H   UNL     1     -47.524  28.566  22.432  1.00  0.00     0.049 H 
ENDROOT
BRANCH   1   4
ATOM      4  N   UNL     1     -49.350  28.258  23.384  1.00  0.00    -0.311 NA
ATOM      5  H   UNL     1     -50.305  28.455  23.083  1.00  0.00     0.123 HD
BRANCH   4   6
ATOM      6  C   UNL     1     -49.271  28.395  24.843  1.00  0.00     0.001 C 
ATOM      7  H   UNL     1     -50.261  28.548  25.286  1.00  0.00     0.043 H 
ATOM      8  H   UNL     1     -48.714  29.319  25.042  1.00  0.00     0.043 H 
BRANCH   6   9
ATOM      9  C   UNL     1     -48.565  27.259  25.492  1.00  0.00    -0.016 C 
ATOM     10  C   UNL     1     -47.766  25.681  26.380  1.00  0.00    -0.031 C 
ATOM     11  C   UNL     1     -47.216  26.505  25.153  1.00  0.00    -0.041 C 
ATOM     12  C   UNL     1     -49.161  25.803  25.661  1.00  0.00    -0.041 C 
ATOM     13  C   UNL     1     -48.118  27.089  26.999  1.00  0.00    -0.041 C 
ATOM     14  H   UNL     1     -46.282  27.053  25.315  1.00  0.00     0.028 H 
ATOM     15  H   UNL     1     -47.169  25.987  24.190  1.00  0.00     0.028 H 
ATOM     16  H   UNL     1     -50.052  25.704  26.290  1.00  0.00     0.028 H 
ATOM     17  H   UNL     1     -49.301  25.218  24.746  1.00  0.00     0.028 H 
ATOM     18  H   UNL     1     -48.907  27.113  27.756  1.00  0.00     0.028 H 
ATOM     19  H   UNL     1     -47.277  27.705  27.336  1.00  0.00     0.028 H 
BRANCH  10  20
ATOM     20  C   UNL     1     -47.168  24.502  27.044  1.00  0.00    -0.060 C 
ATOM     21  H   UNL     1     -46.083  24.605  27.129  1.00  0.00     0.024 H 
ATOM     22  H   UNL     1     -47.374  23.586  26.481  1.00  0.00     0.024 H 
ATOM     23  H   UNL     1     -47.571  24.371  28.053  1.00  0.00     0.024 H 
ENDBRANCH  10  20
ENDBRANCH   6   9
ENDBRANCH   4   6
ENDBRANCH   1   4
BRANCH   1  24
ATOM     24  C   UNL     1     -48.034  30.311  23.483  1.00  0.00     0.030 A 
ATOM     25  C   UNL     1     -46.793  30.843  23.773  1.00  0.00    -0.031 A 
ATOM     26  N   UNL     1     -48.968  31.081  24.137  1.00  0.00    -0.357 N 
ATOM     27  C   UNL     1     -46.985  31.970  24.622  1.00  0.00     0.018 A 
ATOM     28  H   UNL     1     -45.846  30.464  23.413  1.00  0.00     0.065 H 
ATOM     29  C   UNL     1     -48.356  32.096  24.831  1.00  0.00     0.049 A 
ATOM     30  H   UNL     1     -49.966  30.925  24.068  1.00  0.00     0.166 HD
ATOM     31  C   UNL     1     -46.129  32.894  25.231  1.00  0.00     0.037 A 
ATOM     32  C   UNL     1     -48.896  33.111  25.619  1.00  0.00    -0.014 A 
ATOM     33  N   UNL     1     -46.626  33.891  26.004  1.00  0.00    -0.259 NA
ATOM     34  H   UNL     1     -45.053  32.863  25.116  1.00  0.00     0.085 H 
ATOM     35  C   UNL     1     -47.973  33.990  26.188  1.00  0.00     0.062 A 
ATOM     36  H   UNL     1     -49.962  33.210  25.780  1.00  0.00     0.067 H 
BRANCH  35  37
ATOM     37  C   UNL     1     -48.487  35.119  27.060  1.00  0.00     0.060 C 
ATOM     38  H   UNL     1     -48.811  34.724  28.029  1.00  0.00     0.056 H 
ATOM     39  H   UNL     1     -49.343  35.603  26.575  1.00  0.00     0.056 H 
BRANCH  37  40
ATOM     40  N   UNL     1     -47.485  36.126  27.301  1.00  0.00    -0.345 N 
ATOM     41  C   UNL     1     -47.785  37.377  27.764  1.00  0.00     0.270 C 
ATOM     42  H   UNL     1     -46.514  35.883  27.117  1.00  0.00     0.164 HD
ATOM     43  O   UNL     1     -48.923  37.757  28.013  1.00  0.00    -0.268 OA
BRANCH  41  44
ATOM     44  C   UNL     1     -46.564  38.248  27.938  1.00  0.00     0.136 A 
ATOM     45  C   UNL     1     -45.827  38.025  29.027  1.00  0.00     0.035 A 
ATOM     46  N   UNL     1     -46.286  39.201  26.986  1.00  0.00    -0.225 NA
ATOM     47  C   UNL     1     -44.631  38.848  29.239  1.00  0.00     0.258 A 
ATOM     48  H   UNL     1     -46.055  37.271  29.770  1.00  0.00     0.071 H 
ATOM     49  C   UNL     1     -45.228  39.927  27.176  1.00  0.00     0.140 A 
ATOM     50  O   UNL     1     -43.944  38.649  30.242  1.00  0.00    -0.269 OA
ATOM     51  N   UNL     1     -44.372  39.801  28.265  1.00  0.00    -0.268 N 
ATOM     52  C   UNL     1     -44.889  40.973  26.168  1.00  0.00    -0.019 A 
ATOM     53  C   UNL     1     -43.255  40.620  28.395  1.00  0.00     0.014 A 
ATOM     54  C   UNL     1     -43.804  41.736  26.337  1.00  0.00    -0.057 A 
ATOM     55  H   UNL     1     -45.551  41.076  25.318  1.00  0.00     0.066 H 
ATOM     56  C   UNL     1     -42.958  41.557  27.486  1.00  0.00    -0.045 A 
ATOM     57  H   UNL     1     -42.631  40.466  29.272  1.00  0.00     0.082 H 
ATOM     58  H   UNL     1     -43.541  42.502  25.614  1.00  0.00     0.062 H 
ATOM     59  H   UNL     1     -42.083  42.190  27.597  1.00  0.00     0.064 H 
ENDBRANCH  41  44
ENDBRANCH  37  40
ENDBRANCH  35  37
ENDBRANCH   1  24
TORSDOF 8
ENDMDL
MODEL 5
REMARK VINA RESULT:      -9.1      2.789      3.755
REMARK SMILES C[C@]12C[C@](CNCc3cc4cnc(CNC(=O)c5cc(=O)n6ccccc6n5)cc4[nH]3)(C1)C2
REMARK SMILES IDX 7 1 6 4 5 6 4 9 2 10 32 11 3 12 33 13 1 20 8 24 9 25 31 26
REMARK SMILES IDX 10 27 30 29 11 31 29 32 12 33 13 35 14 37 15 40 16 41 17 43
REMARK SMILES IDX 18 44 19 45 28 46 20 47 27 49 21 50 22 51 26 52 23 53 25 54
REMARK SMILES IDX 24 56
REMARK H PARENT 7 2 7 3 6 5 5 7 5 8 32 14 32 15 3 16 3 17 33 18 33 19 1 21
REMARK H PARENT 1 22 1 23 9 28 31 30 11 34 29 36 14 38 14 39 15 42 19 48 26 55
REMARK H PARENT 23 57 25 58 24 59
REMARK Flexibility Score: inf
ROOT
ATOM      1  C   UNL     1     -46.140  31.421  23.649  1.00  0.00     0.036 C 
ATOM      2  H   UNL     1     -45.106  31.621  23.355  1.00  0.00     0.049 H 
ATOM      3  H   UNL     1     -46.137  30.440  24.140  1.00  0.00     0.049 H 
ENDROOT
BRANCH   1   4
ATOM      4  N   UNL     1     -47.034  31.348  22.494  1.00  0.00    -0.311 NA
ATOM      5  H   UNL     1     -47.751  32.068  22.584  1.00  0.00     0.123 HD
BRANCH   4   6
ATOM      6  C   UNL     1     -47.684  30.043  22.332  1.00  0.00     0.001 C 
ATOM      7  H   UNL     1     -47.672  29.470  23.266  1.00  0.00     0.043 H 
ATOM      8  H   UNL     1     -47.071  29.469  21.628  1.00  0.00     0.043 H 
BRANCH   6   9
ATOM      9  C   UNL     1     -49.066  30.150  21.791  1.00  0.00    -0.016 C 
ATOM     10  C   UNL     1     -50.944  30.359  21.205  1.00  0.00    -0.031 C 
ATOM     11  C   UNL     1     -49.624  30.500  20.353  1.00  0.00    -0.041 C 
ATOM     12  C   UNL     1     -50.159  31.172  22.302  1.00  0.00    -0.041 C 
ATOM     13  C   UNL     1     -50.242  29.096  21.838  1.00  0.00    -0.041 C 
ATOM     14  H   UNL     1     -49.475  29.758  19.562  1.00  0.00     0.028 H 
ATOM     15  H   UNL     1     -49.392  31.496  19.962  1.00  0.00     0.028 H 
ATOM     16  H   UNL     1     -50.497  31.058  23.337  1.00  0.00     0.028 H 
ATOM     17  H   UNL     1     -49.978  32.232  22.098  1.00  0.00     0.028 H 
ATOM     18  H   UNL     1     -50.588  28.782  22.828  1.00  0.00     0.028 H 
ATOM     19  H   UNL     1     -50.141  28.214  21.196  1.00  0.00     0.028 H 
BRANCH  10  20
ATOM     20  C   UNL     1     -52.348  30.515  20.767  1.00  0.00    -0.060 C 
ATOM     21  H   UNL     1     -53.008  30.711  21.616  1.00  0.00     0.024 H 
ATOM     22  H   UNL     1     -52.708  29.610  20.266  1.00  0.00     0.024 H 
ATOM     23  H   UNL     1     -52.452  31.347  20.064  1.00  0.00     0.024 H 
ENDBRANCH  10  20
ENDBRANCH   6   9
ENDBRANCH   4   6
ENDBRANCH   1   4
BRANCH   1  24
ATOM     24  C   UNL     1     -46.611  32.423  24.644  1.00  0.00     0.030 A 
ATOM     25  C   UNL     1     -47.880  32.748  25.081  1.00  0.00    -0.031 A 
ATOM     26  N   UNL     1     -45.732  33.246  25.307  1.00  0.00    -0.357 N 
ATOM     27  C   UNL     1     -47.762  33.793  26.040  1.00  0.00     0.018 A 
ATOM     28  H   UNL     1     -48.799  32.283  24.748  1.00  0.00     0.065 H 
ATOM     29  C   UNL     1     -46.406  34.083  26.164  1.00  0.00     0.049 A 
ATOM     30  H   UNL     1     -44.727  33.195  25.193  1.00  0.00     0.166 HD
ATOM     31  C   UNL     1     -48.672  34.518  26.815  1.00  0.00     0.037 A 
ATOM     32  C   UNL     1     -45.933  35.065  27.033  1.00  0.00    -0.014 A 
ATOM     33  N   UNL     1     -48.241  35.480  27.669  1.00  0.00    -0.259 NA
ATOM     34  H   UNL     1     -49.742  34.351  26.776  1.00  0.00     0.085 H 
ATOM     35  C   UNL     1     -46.907  35.740  27.769  1.00  0.00     0.062 A 
ATOM     36  H   UNL     1     -44.878  35.289  27.131  1.00  0.00     0.067 H 
BRANCH  35  37
ATOM     37  C   UNL     1     -46.468  36.823  28.735  1.00  0.00     0.060 C 
ATOM     38  H   UNL     1     -45.635  36.461  29.347  1.00  0.00     0.056 H 
ATOM     39  H   UNL     1     -47.300  37.087  29.400  1.00  0.00     0.056 H 
BRANCH  37  40
ATOM     40  N   UNL     1     -46.039  38.021  28.061  1.00  0.00    -0.345 N 
ATOM     41  C   UNL     1     -45.076  38.852  28.561  1.00  0.00     0.270 C 
ATOM     42  H   UNL     1     -46.479  38.248  27.171  1.00  0.00     0.164 HD
ATOM     43  O   UNL     1     -44.494  38.658  29.623  1.00  0.00    -0.268 OA
BRANCH  41  44
ATOM     44  C   UNL     1     -44.801  40.038  27.670  1.00  0.00     0.136 A 
ATOM     45  C   UNL     1     -45.859  40.582  27.065  1.00  0.00     0.035 A 
ATOM     46  N   UNL     1     -43.507  40.484  27.535  1.00  0.00    -0.225 NA
ATOM     47  C   UNL     1     -45.640  41.739  26.188  1.00  0.00     0.258 A 
ATOM     48  H   UNL     1     -46.874  40.224  27.178  1.00  0.00     0.071 H 
ATOM     49  C   UNL     1     -43.317  41.506  26.759  1.00  0.00     0.140 A 
ATOM     50  O   UNL     1     -46.610  42.247  25.625  1.00  0.00    -0.269 OA
ATOM     51  N   UNL     1     -44.326  42.168  26.069  1.00  0.00    -0.268 N 
ATOM     52  C   UNL     1     -41.929  42.021  26.584  1.00  0.00    -0.019 A 
ATOM     53  C   UNL     1     -44.039  43.259  25.255  1.00  0.00     0.014 A 
ATOM     54  C   UNL     1     -41.702  43.074  25.791  1.00  0.00    -0.057 A 
ATOM     55  H   UNL     1     -41.138  41.510  27.119  1.00  0.00     0.066 H 
ATOM     56  C   UNL     1     -42.790  43.716  25.103  1.00  0.00    -0.045 A 
ATOM     57  H   UNL     1     -44.877  43.728  24.746  1.00  0.00     0.082 H 
ATOM     58  H   UNL     1     -40.698  43.463  25.652  1.00  0.00     0.062 H 
ATOM     59  H   UNL     1     -42.577  44.569  24.466  1.00  0.00     0.064 H 
ENDBRANCH  41  44
ENDBRANCH  37  40
ENDBRANCH  35  37
ENDBRANCH   1  24
TORSDOF 8
ENDMDL
MODEL 6
REMARK VINA RESULT:      -8.9      2.731      3.776
REMARK SMILES C[C@]12C[C@](CNCc3cc4cnc(CNC(=O)c5cc(=O)n6ccccc6n5)cc4[nH]3)(C1)C2
REMARK SMILES IDX 7 1 6 4 5 6 4 9 2 10 32 11 3 12 33 13 1 20 8 24 9 25 31 26
REMARK SMILES IDX 10 27 30 29 11 31 29 32 12 33 13 35 14 37 15 40 16 41 17 43
REMARK SMILES IDX 18 44 19 45 28 46 20 47 27 49 21 50 22 51 26 52 23 53 25 54
REMARK SMILES IDX 24 56
REMARK H PARENT 7 2 7 3 6 5 5 7 5 8 32 14 32 15 3 16 3 17 33 18 33 19 1 21
REMARK H PARENT 1 22 1 23 9 28 31 30 11 34 29 36 14 38 14 39 15 42 19 48 26 55
REMARK H PARENT 23 57 25 58 24 59
REMARK Flexibility Score: inf
ROOT
ATOM      1  C   UNL     1     -46.234  32.107  24.811  1.00  0.00     0.036 C 
ATOM      2  H   UNL     1     -45.209  32.459  24.674  1.00  0.00     0.049 H 
ATOM      3  H   UNL     1     -46.176  31.236  25.475  1.00  0.00     0.049 H 
ENDROOT
BRANCH   1   4
ATOM      4  N   UNL     1     -46.841  31.678  23.552  1.00  0.00    -0.311 NA
ATOM      5  H   UNL     1     -47.420  32.435  23.187  1.00  0.00     0.123 HD
BRANCH   4   6
ATOM      6  C   UNL     1     -47.661  30.467  23.674  1.00  0.00     0.001 C 
ATOM      7  H   UNL     1     -48.275  30.487  24.581  1.00  0.00     0.043 H 
ATOM      8  H   UNL     1     -46.967  29.629  23.808  1.00  0.00     0.043 H 
BRANCH   6   9
ATOM      9  C   UNL     1     -48.496  30.211  22.470  1.00  0.00    -0.016 C 
ATOM     10  C   UNL     1     -49.529  29.987  20.797  1.00  0.00    -0.031 C 
ATOM     11  C   UNL     1     -49.029  28.880  21.804  1.00  0.00    -0.041 C 
ATOM     12  C   UNL     1     -48.098  30.614  20.993  1.00  0.00    -0.041 C 
ATOM     13  C   UNL     1     -49.912  30.803  22.092  1.00  0.00    -0.041 C 
ATOM     14  H   UNL     1     -49.806  28.326  22.342  1.00  0.00     0.028 H 
ATOM     15  H   UNL     1     -48.277  28.177  21.433  1.00  0.00     0.028 H 
ATOM     16  H   UNL     1     -47.996  31.684  20.783  1.00  0.00     0.028 H 
ATOM     17  H   UNL     1     -47.255  30.079  20.544  1.00  0.00     0.028 H 
ATOM     18  H   UNL     1     -49.984  31.890  21.988  1.00  0.00     0.028 H 
ATOM     19  H   UNL     1     -50.769  30.439  22.670  1.00  0.00     0.028 H 
BRANCH  10  20
ATOM     20  C   UNL     1     -50.302  29.818  19.548  1.00  0.00    -0.060 C 
ATOM     21  H   UNL     1     -51.095  29.075  19.670  1.00  0.00     0.024 H 
ATOM     22  H   UNL     1     -49.657  29.486  18.727  1.00  0.00     0.024 H 
ATOM     23  H   UNL     1     -50.770  30.759  19.243  1.00  0.00     0.024 H 
ENDBRANCH  10  20
ENDBRANCH   6   9
ENDBRANCH   4   6
ENDBRANCH   1   4
BRANCH   1  24
ATOM     24  C   UNL     1     -47.062  33.140  25.494  1.00  0.00     0.030 A 
ATOM     25  C   UNL     1     -48.369  33.115  25.937  1.00  0.00    -0.031 A 
ATOM     26  N   UNL     1     -46.561  34.389  25.779  1.00  0.00    -0.357 N 
ATOM     27  C   UNL     1     -48.664  34.384  26.512  1.00  0.00     0.018 A 
ATOM     28  H   UNL     1     -49.045  32.273  25.858  1.00  0.00     0.065 H 
ATOM     29  C   UNL     1     -47.513  35.160  26.401  1.00  0.00     0.049 A 
ATOM     30  H   UNL     1     -45.607  34.664  25.584  1.00  0.00     0.166 HD
ATOM     31  C   UNL     1     -49.792  34.947  27.116  1.00  0.00     0.037 A 
ATOM     32  C   UNL     1     -47.452  36.470  26.875  1.00  0.00    -0.014 A 
ATOM     33  N   UNL     1     -49.763  36.219  27.584  1.00  0.00    -0.259 NA
ATOM     34  H   UNL     1     -50.724  34.408  27.239  1.00  0.00     0.085 H 
ATOM     35  C   UNL     1     -48.621  36.954  27.463  1.00  0.00     0.062 A 
ATOM     36  H   UNL     1     -46.557  37.073  26.790  1.00  0.00     0.067 H 
BRANCH  35  37
ATOM     37  C   UNL     1     -48.632  38.371  28.001  1.00  0.00     0.060 C 
ATOM     38  H   UNL     1     -48.927  38.367  29.056  1.00  0.00     0.056 H 
ATOM     39  H   UNL     1     -49.353  38.977  27.439  1.00  0.00     0.056 H 
BRANCH  37  40
ATOM     40  N   UNL     1     -47.343  39.007  27.901  1.00  0.00    -0.345 N 
ATOM     41  C   UNL     1     -47.080  40.020  27.022  1.00  0.00     0.270 C 
ATOM     42  H   UNL     1     -46.603  38.680  28.519  1.00  0.00     0.164 HD
ATOM     43  O   UNL     1     -47.908  40.477  26.242  1.00  0.00    -0.268 OA
BRANCH  41  44
ATOM     44  C   UNL     1     -45.659  40.521  27.109  1.00  0.00     0.136 A 
ATOM     45  C   UNL     1     -45.228  41.260  26.085  1.00  0.00     0.035 A 
ATOM     46  N   UNL     1     -44.905  40.197  28.212  1.00  0.00    -0.225 NA
ATOM     47  C   UNL     1     -43.852  41.770  26.125  1.00  0.00     0.258 A 
ATOM     48  H   UNL     1     -45.830  41.510  25.221  1.00  0.00     0.071 H 
ATOM     49  C   UNL     1     -43.690  40.649  28.245  1.00  0.00     0.140 A 
ATOM     50  O   UNL     1     -43.445  42.452  25.185  1.00  0.00    -0.269 OA
ATOM     51  N   UNL     1     -43.113  41.429  27.249  1.00  0.00    -0.268 N 
ATOM     52  C   UNL     1     -42.838  40.320  29.424  1.00  0.00    -0.019 A 
ATOM     53  C   UNL     1     -41.800  41.875  27.360  1.00  0.00     0.014 A 
ATOM     54  C   UNL     1     -41.580  40.772  29.486  1.00  0.00    -0.057 A 
ATOM     55  H   UNL     1     -43.281  39.714  30.203  1.00  0.00     0.066 H 
ATOM     56  C   UNL     1     -41.041  41.576  28.421  1.00  0.00    -0.045 A 
ATOM     57  H   UNL     1     -41.415  42.479  26.543  1.00  0.00     0.082 H 
ATOM     58  H   UNL     1     -40.945  40.544  30.336  1.00  0.00     0.062 H 
ATOM     59  H   UNL     1     -40.018  41.929  28.498  1.00  0.00     0.064 H 
ENDBRANCH  41  44
ENDBRANCH  37  40
ENDBRANCH  35  37
ENDBRANCH   1  24
TORSDOF 8
ENDMDL
MODEL 7
REMARK VINA RESULT:      -8.8      2.841     11.791
REMARK SMILES C[C@]12C[C@](CNCc3cc4cnc(CNC(=O)c5cc(=O)n6ccccc6n5)cc4[nH]3)(C1)C2
REMARK SMILES IDX 7 1 6 4 5 6 4 9 2 10 32 11 3 12 33 13 1 20 8 24 9 25 31 26
REMARK SMILES IDX 10 27 30 29 11 31 29 32 12 33 13 35 14 37 15 40 16 41 17 43
REMARK SMILES IDX 18 44 19 45 28 46 20 47 27 49 21 50 22 51 26 52 23 53 25 54
REMARK SMILES IDX 24 56
REMARK H PARENT 7 2 7 3 6 5 5 7 5 8 32 14 32 15 3 16 3 17 33 18 33 19 1 21
REMARK H PARENT 1 22 1 23 9 28 31 30 11 34 29 36 14 38 14 39 15 42 19 48 26 55
REMARK H PARENT 23 57 25 58 24 59
REMARK Flexibility Score: inf
ROOT
ATOM      1  C   UNL     1     -42.927  40.912  29.087  1.00  0.00     0.036 C 
ATOM      2  H   UNL     1     -43.351  41.584  29.838  1.00  0.00     0.049 H 
ATOM      3  H   UNL     1     -42.183  40.297  29.608  1.00  0.00     0.049 H 
ENDROOT
BRANCH   1   4
ATOM      4  N   UNL     1     -42.245  41.642  28.019  1.00  0.00    -0.311 NA
ATOM      5  H   UNL     1     -41.246  41.677  28.227  1.00  0.00     0.123 HD
BRANCH   4   6
ATOM      6  C   UNL     1     -42.741  43.010  27.829  1.00  0.00     0.001 C 
ATOM      7  H   UNL     1     -42.159  43.733  28.411  1.00  0.00     0.043 H 
ATOM      8  H   UNL     1     -43.753  43.040  28.251  1.00  0.00     0.043 H 
BRANCH   6   9
ATOM      9  C   UNL     1     -42.805  43.407  26.397  1.00  0.00    -0.016 C 
ATOM     10  C   UNL     1     -42.928  43.787  24.459  1.00  0.00    -0.031 C 
ATOM     11  C   UNL     1     -43.349  44.703  25.672  1.00  0.00    -0.041 C 
ATOM     12  C   UNL     1     -43.607  42.627  25.279  1.00  0.00    -0.041 C 
ATOM     13  C   UNL     1     -41.649  43.461  25.322  1.00  0.00    -0.041 C 
ATOM     14  H   UNL     1     -42.778  45.628  25.804  1.00  0.00     0.028 H 
ATOM     15  H   UNL     1     -44.417  44.920  25.782  1.00  0.00     0.028 H 
ATOM     16  H   UNL     1     -43.278  41.606  25.055  1.00  0.00     0.028 H 
ATOM     17  H   UNL     1     -44.699  42.643  25.351  1.00  0.00     0.028 H 
ATOM     18  H   UNL     1     -41.131  42.521  25.103  1.00  0.00     0.028 H 
ATOM     19  H   UNL     1     -40.909  44.261  25.432  1.00  0.00     0.028 H 
BRANCH  10  20
ATOM     20  C   UNL     1     -43.020  44.073  23.011  1.00  0.00    -0.060 C 
ATOM     21  H   UNL     1     -42.412  44.940  22.740  1.00  0.00     0.024 H 
ATOM     22  H   UNL     1     -44.053  44.283  22.715  1.00  0.00     0.024 H 
ATOM     23  H   UNL     1     -42.671  43.222  22.418  1.00  0.00     0.024 H 
ENDBRANCH  10  20
ENDBRANCH   6   9
ENDBRANCH   4   6
ENDBRANCH   1   4
BRANCH   1  24
ATOM     24  C   UNL     1     -43.970  39.997  28.545  1.00  0.00     0.030 A 
ATOM     25  C   UNL     1     -44.682  40.024  27.363  1.00  0.00    -0.031 A 
ATOM     26  N   UNL     1     -44.402  38.900  29.253  1.00  0.00    -0.357 N 
ATOM     27  C   UNL     1     -45.565  38.908  27.355  1.00  0.00     0.018 A 
ATOM     28  H   UNL     1     -44.580  40.767  26.583  1.00  0.00     0.065 H 
ATOM     29  C   UNL     1     -45.366  38.221  28.550  1.00  0.00     0.049 A 
ATOM     30  H   UNL     1     -44.017  38.629  30.150  1.00  0.00     0.166 HD
ATOM     31  C   UNL     1     -46.511  38.414  26.451  1.00  0.00     0.037 A 
ATOM     32  C   UNL     1     -46.074  37.062  28.867  1.00  0.00    -0.014 A 
ATOM     33  N   UNL     1     -47.215  37.289  26.733  1.00  0.00    -0.259 NA
ATOM     34  H   UNL     1     -46.722  38.890  25.502  1.00  0.00     0.085 H 
ATOM     35  C   UNL     1     -46.997  36.638  27.910  1.00  0.00     0.062 A 
ATOM     36  H   UNL     1     -45.918  36.527  29.795  1.00  0.00     0.067 H 
BRANCH  35  37
ATOM     37  C   UNL     1     -47.805  35.385  28.185  1.00  0.00     0.060 C 
ATOM     38  H   UNL     1     -48.853  35.649  28.365  1.00  0.00     0.056 H 
ATOM     39  H   UNL     1     -47.416  34.879  29.076  1.00  0.00     0.056 H 
BRANCH  37  40
ATOM     40  N   UNL     1     -47.763  34.451  27.089  1.00  0.00    -0.345 N 
ATOM     41  C   UNL     1     -46.943  33.357  27.076  1.00  0.00     0.270 C 
ATOM     42  H   UNL     1     -48.376  34.623  26.295  1.00  0.00     0.164 HD
ATOM     43  O   UNL     1     -46.173  33.072  27.986  1.00  0.00    -0.268 OA
BRANCH  41  44
ATOM     44  C   UNL     1     -47.083  32.532  25.820  1.00  0.00     0.136 A 
ATOM     45  C   UNL     1     -46.348  32.917  24.774  1.00  0.00     0.035 A 
ATOM     46  N   UNL     1     -47.938  31.455  25.822  1.00  0.00    -0.225 NA
ATOM     47  C   UNL     1     -46.451  32.145  23.530  1.00  0.00     0.258 A 
ATOM     48  H   UNL     1     -45.678  33.766  24.783  1.00  0.00     0.071 H 
ATOM     49  C   UNL     1     -48.026  30.775  24.721  1.00  0.00     0.140 A 
ATOM     50  O   UNL     1     -45.777  32.492  22.559  1.00  0.00    -0.269 OA
ATOM     51  N   UNL     1     -47.320  31.064  23.559  1.00  0.00    -0.268 N 
ATOM     52  C   UNL     1     -48.942  29.599  24.680  1.00  0.00    -0.019 A 
ATOM     53  C   UNL     1     -47.471  30.283  22.417  1.00  0.00     0.014 A 
ATOM     54  C   UNL     1     -49.055  28.878  23.559  1.00  0.00    -0.057 A 
ATOM     55  H   UNL     1     -49.495  29.369  25.582  1.00  0.00     0.066 H 
ATOM     56  C   UNL     1     -48.296  29.229  22.388  1.00  0.00    -0.045 A 
ATOM     57  H   UNL     1     -46.888  30.567  21.545  1.00  0.00     0.082 H 
ATOM     58  H   UNL     1     -49.716  28.019  23.510  1.00  0.00     0.062 H 
ATOM     59  H   UNL     1     -48.406  28.626  21.492  1.00  0.00     0.064 H 
ENDBRANCH  41  44
ENDBRANCH  37  40
ENDBRANCH  35  37
ENDBRANCH   1  24
TORSDOF 8
ENDMDL
