MODEL 1
REMARK VINA RESULT:     -11.5      0.000      0.000
REMARK SMILES O=C(NCc1ccc2cc(CNC3(C4CCC4)CC3)[nH]c2c1)c1cc(=O)n2ccccc2n1
REMARK SMILES IDX 5 1 6 2 7 3 8 4 9 5 10 6 20 7 21 8 22 9 4 15 3 18 1 19 2 20
REMARK SMILES IDX 23 22 24 23 33 24 25 25 32 27 26 28 27 29 31 30 28 31 30 32
REMARK SMILES IDX 29 34 11 38 12 41 13 43 18 44 19 45 14 50 15 51 17 52 16 54
REMARK H PARENT 6 10 7 11 9 12 20 13 22 14 4 16 4 17 3 21 24 26 31 33 28 35
REMARK H PARENT 30 36 29 37 11 39 11 40 12 42 18 46 18 47 19 48 19 49 14 53
REMARK H PARENT 15 55 15 56 17 57 17 58 16 59 16 60
REMARK Flexibility Score: inf
ROOT
ATOM      1  C   UNL     1     -47.990  34.918  26.729  1.00  0.00    -0.027 A 
ATOM      2  C   UNL     1     -46.698  35.007  26.191  1.00  0.00    -0.057 A 
ATOM      3  C   UNL     1     -46.179  33.991  25.380  1.00  0.00    -0.052 A 
ATOM      4  C   UNL     1     -46.970  32.863  25.096  1.00  0.00    -0.000 A 
ATOM      5  C   UNL     1     -46.768  31.680  24.331  1.00  0.00    -0.032 A 
ATOM      6  C   UNL     1     -47.917  30.918  24.413  1.00  0.00     0.030 A 
ATOM      7  N   UNL     1     -48.804  31.607  25.207  1.00  0.00    -0.357 N 
ATOM      8  C   UNL     1     -48.254  32.792  25.633  1.00  0.00     0.046 A 
ATOM      9  C   UNL     1     -48.793  33.800  26.444  1.00  0.00    -0.033 A 
ATOM     10  H   UNL     1     -46.084  35.882  26.400  1.00  0.00     0.063 H 
ATOM     11  H   UNL     1     -45.176  34.077  24.973  1.00  0.00     0.063 H 
ATOM     12  H   UNL     1     -45.874  31.418  23.781  1.00  0.00     0.065 H 
ATOM     13  H   UNL     1     -49.739  31.284  25.414  1.00  0.00     0.166 HD
ATOM     14  H   UNL     1     -49.800  33.715  26.841  1.00  0.00     0.065 H 
ENDROOT
BRANCH   1  15
ATOM     15  C   UNL     1     -48.528  36.042  27.579  1.00  0.00     0.043 C 
ATOM     16  H   UNL     1     -49.458  36.432  27.151  1.00  0.00     0.054 H 
ATOM     17  H   UNL     1     -48.763  35.677  28.586  1.00  0.00     0.054 H 
BRANCH  15  18
ATOM     18  N   UNL     1     -47.590  37.133  27.635  1.00  0.00    -0.347 N 
ATOM     19  O   UNL     1     -46.707  36.636  29.702  1.00  0.00    -0.268 OA
ATOM     20  C   UNL     1     -46.702  37.296  28.669  1.00  0.00     0.270 C 
ATOM     21  H   UNL     1     -47.400  37.668  26.795  1.00  0.00     0.164 HD
BRANCH  20  22
ATOM     22  C   UNL     1     -45.692  38.385  28.391  1.00  0.00     0.136 A 
ATOM     23  C   UNL     1     -45.852  39.066  27.253  1.00  0.00     0.035 A 
ATOM     24  N   UNL     1     -44.692  38.612  29.309  1.00  0.00    -0.225 NA
ATOM     25  C   UNL     1     -44.897  40.138  26.945  1.00  0.00     0.258 A 
ATOM     26  H   UNL     1     -46.645  38.879  26.541  1.00  0.00     0.071 H 
ATOM     27  C   UNL     1     -43.853  39.564  29.034  1.00  0.00     0.140 A 
ATOM     28  O   UNL     1     -45.034  40.768  25.897  1.00  0.00    -0.269 OA
ATOM     29  N   UNL     1     -43.903  40.350  27.888  1.00  0.00    -0.268 N 
ATOM     30  C   UNL     1     -42.756  39.850  30.002  1.00  0.00    -0.019 A 
ATOM     31  C   UNL     1     -42.962  41.350  27.667  1.00  0.00     0.014 A 
ATOM     32  C   UNL     1     -41.875  40.823  29.745  1.00  0.00    -0.057 A 
ATOM     33  H   UNL     1     -42.710  39.244  30.898  1.00  0.00     0.066 H 
ATOM     34  C   UNL     1     -41.979  41.601  28.539  1.00  0.00    -0.045 A 
ATOM     35  H   UNL     1     -43.061  41.926  26.748  1.00  0.00     0.082 H 
ATOM     36  H   UNL     1     -41.069  41.047  30.436  1.00  0.00     0.062 H 
ATOM     37  H   UNL     1     -41.251  42.385  28.356  1.00  0.00     0.064 H 
ENDBRANCH  20  22
ENDBRANCH  15  18
ENDBRANCH   1  15
BRANCH   6  38
ATOM     38  C   UNL     1     -48.264  29.593  23.827  1.00  0.00     0.036 C 
ATOM     39  H   UNL     1     -49.349  29.527  23.695  1.00  0.00     0.049 H 
ATOM     40  H   UNL     1     -47.798  29.514  22.838  1.00  0.00     0.049 H 
BRANCH  38  41
ATOM     41  N   UNL     1     -47.787  28.535  24.714  1.00  0.00    -0.305 NA
ATOM     42  H   UNL     1     -47.626  28.940  25.637  1.00  0.00     0.123 HD
BRANCH  41  43
ATOM     43  C   UNL     1     -48.696  27.367  24.807  1.00  0.00     0.021 C 
ATOM     44  C   UNL     1     -50.163  27.665  25.046  1.00  0.00    -0.033 C 
ATOM     45  C   UNL     1     -49.707  27.266  23.677  1.00  0.00    -0.033 C 
ATOM     46  H   UNL     1     -50.466  28.695  25.195  1.00  0.00     0.029 H 
ATOM     47  H   UNL     1     -50.755  26.957  25.615  1.00  0.00     0.029 H 
ATOM     48  H   UNL     1     -49.697  28.028  22.906  1.00  0.00     0.029 H 
ATOM     49  H   UNL     1     -49.991  26.286  23.311  1.00  0.00     0.029 H 
BRANCH  43  50
ATOM     50  C   UNL     1     -48.045  26.077  25.349  1.00  0.00    -0.023 C 
ATOM     51  C   UNL     1     -46.694  26.168  26.116  1.00  0.00    -0.049 C 
ATOM     52  C   UNL     1     -48.596  25.366  26.621  1.00  0.00    -0.049 C 
ATOM     53  H   UNL     1     -47.981  25.356  24.517  1.00  0.00     0.032 H 
ATOM     54  C   UNL     1     -47.148  24.941  26.928  1.00  0.00    -0.053 C 
ATOM     55  H   UNL     1     -45.792  26.019  25.519  1.00  0.00     0.027 H 
ATOM     56  H   UNL     1     -46.576  27.078  26.717  1.00  0.00     0.027 H 
ATOM     57  H   UNL     1     -49.022  26.029  27.382  1.00  0.00     0.027 H 
ATOM     58  H   UNL     1     -49.297  24.547  26.437  1.00  0.00     0.027 H 
ATOM     59  H   UNL     1     -46.867  24.937  27.984  1.00  0.00     0.027 H 
ATOM     60  H   UNL     1     -46.863  23.983  26.478  1.00  0.00     0.027 H 
ENDBRANCH  43  50
ENDBRANCH  41  43
ENDBRANCH  38  41
ENDBRANCH   6  38
TORSDOF 7
ENDMDL
MODEL 2
REMARK VINA RESULT:     -10.9      2.226      3.859
REMARK SMILES O=C(NCc1ccc2cc(CNC3(C4CCC4)CC3)[nH]c2c1)c1cc(=O)n2ccccc2n1
REMARK SMILES IDX 5 1 6 2 7 3 8 4 9 5 10 6 20 7 21 8 22 9 4 15 3 18 1 19 2 20
REMARK SMILES IDX 23 22 24 23 33 24 25 25 32 27 26 28 27 29 31 30 28 31 30 32
REMARK SMILES IDX 29 34 11 38 12 41 13 43 18 44 19 45 14 50 15 51 17 52 16 54
REMARK H PARENT 6 10 7 11 9 12 20 13 22 14 4 16 4 17 3 21 24 26 31 33 28 35
REMARK H PARENT 30 36 29 37 11 39 11 40 12 42 18 46 18 47 19 48 19 49 14 53
REMARK H PARENT 15 55 15 56 17 57 17 58 16 59 16 60
REMARK Flexibility Score: inf
ROOT
ATOM      1  C   UNL     1     -46.628  35.802  28.605  1.00  0.00    -0.027 A 
ATOM      2  C   UNL     1     -47.912  36.109  28.130  1.00  0.00    -0.057 A 
ATOM      3  C   UNL     1     -48.498  35.371  27.095  1.00  0.00    -0.052 A 
ATOM      4  C   UNL     1     -47.788  34.300  26.524  1.00  0.00    -0.000 A 
ATOM      5  C   UNL     1     -48.071  33.365  25.489  1.00  0.00    -0.032 A 
ATOM      6  C   UNL     1     -46.982  32.525  25.364  1.00  0.00     0.030 A 
ATOM      7  N   UNL     1     -46.050  32.929  26.291  1.00  0.00    -0.357 N 
ATOM      8  C   UNL     1     -46.516  34.004  27.010  1.00  0.00     0.046 A 
ATOM      9  C   UNL     1     -45.913  34.728  28.048  1.00  0.00    -0.033 A 
ATOM     10  H   UNL     1     -48.471  36.932  28.574  1.00  0.00     0.063 H 
ATOM     11  H   UNL     1     -49.493  35.624  26.741  1.00  0.00     0.063 H 
ATOM     12  H   UNL     1     -48.977  33.316  24.900  1.00  0.00     0.065 H 
ATOM     13  H   UNL     1     -45.161  32.468  26.432  1.00  0.00     0.166 HD
ATOM     14  H   UNL     1     -44.923  34.466  28.406  1.00  0.00     0.065 H 
ENDROOT
BRANCH   1  15
ATOM     15  C   UNL     1     -46.036  36.602  29.738  1.00  0.00     0.043 C 
ATOM     16  H   UNL     1     -46.813  36.876  30.459  1.00  0.00     0.054 H 
ATOM     17  H   UNL     1     -45.291  36.003  30.276  1.00  0.00     0.054 H 
BRANCH  15  18
ATOM     18  N   UNL     1     -45.453  37.825  29.249  1.00  0.00    -0.347 N 
ATOM     19  O   UNL     1     -44.069  38.214  31.046  1.00  0.00    -0.268 OA
ATOM     20  C   UNL     1     -44.459  38.493  29.919  1.00  0.00     0.270 C 
ATOM     21  H   UNL     1     -45.595  38.090  28.281  1.00  0.00     0.164 HD
BRANCH  20  22
ATOM     22  C   UNL     1     -43.875  39.622  29.100  1.00  0.00     0.136 A 
ATOM     23  C   UNL     1     -42.783  40.210  29.594  1.00  0.00     0.035 A 
ATOM     24  N   UNL     1     -44.485  39.965  27.915  1.00  0.00    -0.225 NA
ATOM     25  C   UNL     1     -42.179  41.307  28.829  1.00  0.00     0.258 A 
ATOM     26  H   UNL     1     -42.312  39.929  30.527  1.00  0.00     0.071 H 
ATOM     27  C   UNL     1     -43.943  40.932  27.239  1.00  0.00     0.140 A 
ATOM     28  O   UNL     1     -41.175  41.858  29.279  1.00  0.00    -0.269 OA
ATOM     29  N   UNL     1     -42.809  41.630  27.637  1.00  0.00    -0.268 N 
ATOM     30  C   UNL     1     -44.567  41.336  25.947  1.00  0.00    -0.019 A 
ATOM     31  C   UNL     1     -42.292  42.658  26.854  1.00  0.00     0.014 A 
ATOM     32  C   UNL     1     -44.033  42.331  25.229  1.00  0.00    -0.057 A 
ATOM     33  H   UNL     1     -45.450  40.796  25.628  1.00  0.00     0.066 H 
ATOM     34  C   UNL     1     -42.857  43.016  25.695  1.00  0.00    -0.045 A 
ATOM     35  H   UNL     1     -41.402  43.162  27.226  1.00  0.00     0.082 H 
ATOM     36  H   UNL     1     -44.471  42.639  24.286  1.00  0.00     0.062 H 
ATOM     37  H   UNL     1     -42.445  43.819  25.093  1.00  0.00     0.064 H 
ENDBRANCH  20  22
ENDBRANCH  15  18
ENDBRANCH   1  15
BRANCH   6  38
ATOM     38  C   UNL     1     -46.720  31.382  24.445  1.00  0.00     0.036 C 
ATOM     39  H   UNL     1     -46.737  31.736  23.410  1.00  0.00     0.049 H 
ATOM     40  H   UNL     1     -45.718  30.988  24.651  1.00  0.00     0.049 H 
BRANCH  38  41
ATOM     41  N   UNL     1     -47.736  30.354  24.654  1.00  0.00    -0.305 NA
ATOM     42  H   UNL     1     -48.528  30.779  25.138  1.00  0.00     0.123 HD
BRANCH  41  43
ATOM     43  C   UNL     1     -48.184  29.682  23.410  1.00  0.00     0.021 C 
ATOM     44  C   UNL     1     -47.098  29.183  22.478  1.00  0.00    -0.033 C 
ATOM     45  C   UNL     1     -47.839  28.204  23.335  1.00  0.00    -0.033 C 
ATOM     46  H   UNL     1     -46.063  29.389  22.730  1.00  0.00     0.029 H 
ATOM     47  H   UNL     1     -47.287  29.175  21.412  1.00  0.00     0.029 H 
ATOM     48  H   UNL     1     -47.307  27.755  24.167  1.00  0.00     0.029 H 
ATOM     49  H   UNL     1     -48.533  27.526  22.850  1.00  0.00     0.029 H 
BRANCH  43  50
ATOM     50  C   UNL     1     -49.545  30.164  22.864  1.00  0.00    -0.023 C 
ATOM     51  C   UNL     1     -50.324  31.274  23.627  1.00  0.00    -0.049 C 
ATOM     52  C   UNL     1     -49.632  31.105  21.625  1.00  0.00    -0.049 C 
ATOM     53  H   UNL     1     -50.177  29.275  22.702  1.00  0.00     0.032 H 
ATOM     54  C   UNL     1     -50.889  31.722  22.266  1.00  0.00    -0.053 C 
ATOM     55  H   UNL     1     -51.071  30.929  24.346  1.00  0.00     0.027 H 
ATOM     56  H   UNL     1     -49.686  32.024  24.110  1.00  0.00     0.027 H 
ATOM     57  H   UNL     1     -48.807  31.818  21.520  1.00  0.00     0.027 H 
ATOM     58  H   UNL     1     -49.790  30.607  20.665  1.00  0.00     0.027 H 
ATOM     59  H   UNL     1     -51.012  32.799  22.132  1.00  0.00     0.027 H 
ATOM     60  H   UNL     1     -51.820  31.217  21.987  1.00  0.00     0.027 H 
ENDBRANCH  43  50
ENDBRANCH  41  43
ENDBRANCH  38  41
ENDBRANCH   6  38
TORSDOF 7
ENDMDL
MODEL 3
REMARK VINA RESULT:     -10.7      1.937      3.127
REMARK SMILES O=C(NCc1ccc2cc(CNC3(C4CCC4)CC3)[nH]c2c1)c1cc(=O)n2ccccc2n1
REMARK SMILES IDX 5 1 6 2 7 3 8 4 9 5 10 6 20 7 21 8 22 9 4 15 3 18 1 19 2 20
REMARK SMILES IDX 23 22 24 23 33 24 25 25 32 27 26 28 27 29 31 30 28 31 30 32
REMARK SMILES IDX 29 34 11 38 12 41 13 43 18 44 19 45 14 50 15 51 17 52 16 54
REMARK H PARENT 6 10 7 11 9 12 20 13 22 14 4 16 4 17 3 21 24 26 31 33 28 35
REMARK H PARENT 30 36 29 37 11 39 11 40 12 42 18 46 18 47 19 48 19 49 14 53
REMARK H PARENT 15 55 15 56 17 57 17 58 16 59 16 60
REMARK Flexibility Score: inf
ROOT
ATOM      1  C   UNL     1     -46.297  35.801  27.996  1.00  0.00    -0.027 A 
ATOM      2  C   UNL     1     -47.693  35.818  27.866  1.00  0.00    -0.057 A 
ATOM      3  C   UNL     1     -48.349  34.967  26.969  1.00  0.00    -0.052 A 
ATOM      4  C   UNL     1     -47.593  34.075  26.187  1.00  0.00    -0.000 A 
ATOM      5  C   UNL     1     -47.920  33.098  25.206  1.00  0.00    -0.032 A 
ATOM      6  C   UNL     1     -46.745  32.515  24.775  1.00  0.00     0.030 A 
ATOM      7  N   UNL     1     -45.719  33.116  25.466  1.00  0.00    -0.357 N 
ATOM      8  C   UNL     1     -46.207  34.066  26.332  1.00  0.00     0.046 A 
ATOM      9  C   UNL     1     -45.532  34.907  27.227  1.00  0.00    -0.033 A 
ATOM     10  H   UNL     1     -48.286  36.501  28.475  1.00  0.00     0.063 H 
ATOM     11  H   UNL     1     -49.431  34.996  26.882  1.00  0.00     0.063 H 
ATOM     12  H   UNL     1     -48.914  32.851  24.855  1.00  0.00     0.065 H 
ATOM     13  H   UNL     1     -44.746  32.861  25.361  1.00  0.00     0.166 HD
ATOM     14  H   UNL     1     -44.452  34.869  27.318  1.00  0.00     0.065 H 
ENDROOT
BRANCH   1  15
ATOM     15  C   UNL     1     -45.625  36.714  28.990  1.00  0.00     0.043 C 
ATOM     16  H   UNL     1     -46.359  37.118  29.695  1.00  0.00     0.054 H 
ATOM     17  H   UNL     1     -44.885  36.156  29.577  1.00  0.00     0.054 H 
BRANCH  15  18
ATOM     18  N   UNL     1     -45.010  37.832  28.321  1.00  0.00    -0.347 N 
ATOM     19  O   UNL     1     -46.785  39.284  28.513  1.00  0.00    -0.268 OA
ATOM     20  C   UNL     1     -45.622  39.055  28.202  1.00  0.00     0.270 C 
ATOM     21  H   UNL     1     -44.014  37.812  28.134  1.00  0.00     0.164 HD
BRANCH  20  22
ATOM     22  C   UNL     1     -44.692  40.110  27.651  1.00  0.00     0.136 A 
ATOM     23  C   UNL     1     -43.622  40.404  28.393  1.00  0.00     0.035 A 
ATOM     24  N   UNL     1     -44.991  40.689  26.439  1.00  0.00    -0.225 NA
ATOM     25  C   UNL     1     -42.687  41.419  27.893  1.00  0.00     0.258 A 
ATOM     26  H   UNL     1     -43.397  39.939  29.344  1.00  0.00     0.071 H 
ATOM     27  C   UNL     1     -44.159  41.583  25.998  1.00  0.00     0.140 A 
ATOM     28  O   UNL     1     -41.701  41.700  28.572  1.00  0.00    -0.269 OA
ATOM     29  N   UNL     1     -43.008  41.984  26.668  1.00  0.00    -0.268 N 
ATOM     30  C   UNL     1     -44.439  42.234  24.687  1.00  0.00    -0.019 A 
ATOM     31  C   UNL     1     -42.168  42.952  26.127  1.00  0.00     0.014 A 
ATOM     32  C   UNL     1     -43.601  43.160  24.208  1.00  0.00    -0.057 A 
ATOM     33  H   UNL     1     -45.332  41.927  24.157  1.00  0.00     0.066 H 
ATOM     34  C   UNL     1     -42.426  43.533  24.949  1.00  0.00    -0.045 A 
ATOM     35  H   UNL     1     -41.285  43.218  26.705  1.00  0.00     0.082 H 
ATOM     36  H   UNL     1     -43.787  43.645  23.255  1.00  0.00     0.062 H 
ATOM     37  H   UNL     1     -41.763  44.287  24.538  1.00  0.00     0.064 H 
ENDBRANCH  20  22
ENDBRANCH  15  18
ENDBRANCH   1  15
BRANCH   6  38
ATOM     38  C   UNL     1     -46.484  31.454  23.763  1.00  0.00     0.036 C 
ATOM     39  H   UNL     1     -47.091  31.645  22.872  1.00  0.00     0.049 H 
ATOM     40  H   UNL     1     -45.429  31.501  23.469  1.00  0.00     0.049 H 
BRANCH  38  41
ATOM     41  N   UNL     1     -46.807  30.151  24.337  1.00  0.00    -0.305 NA
ATOM     42  H   UNL     1     -47.055  30.286  25.318  1.00  0.00     0.123 HD
BRANCH  41  43
ATOM     43  C   UNL     1     -47.883  29.423  23.622  1.00  0.00     0.021 C 
ATOM     44  C   UNL     1     -48.851  30.264  22.812  1.00  0.00    -0.033 C 
ATOM     45  C   UNL     1     -47.784  29.485  22.107  1.00  0.00    -0.033 C 
ATOM     46  H   UNL     1     -48.750  31.343  22.841  1.00  0.00     0.029 H 
ATOM     47  H   UNL     1     -49.877  29.931  22.714  1.00  0.00     0.029 H 
ATOM     48  H   UNL     1     -46.962  30.039  21.665  1.00  0.00     0.029 H 
ATOM     49  H   UNL     1     -48.085  28.622  21.524  1.00  0.00     0.029 H 
BRANCH  43  50
ATOM     50  C   UNL     1     -48.335  28.107  24.290  1.00  0.00    -0.023 C 
ATOM     51  C   UNL     1     -47.262  27.101  24.797  1.00  0.00    -0.049 C 
ATOM     52  C   UNL     1     -48.884  28.089  25.749  1.00  0.00    -0.049 C 
ATOM     53  H   UNL     1     -49.054  27.615  23.616  1.00  0.00     0.032 H 
ATOM     54  C   UNL     1     -48.260  26.689  25.894  1.00  0.00    -0.053 C 
ATOM     55  H   UNL     1     -46.985  26.305  24.102  1.00  0.00     0.027 H 
ATOM     56  H   UNL     1     -46.348  27.570  25.182  1.00  0.00     0.027 H 
ATOM     57  H   UNL     1     -48.444  28.830  26.425  1.00  0.00     0.027 H 
ATOM     58  H   UNL     1     -49.973  28.130  25.843  1.00  0.00     0.027 H 
ATOM     59  H   UNL     1     -47.827  26.459  26.871  1.00  0.00     0.027 H 
ATOM     60  H   UNL     1     -48.930  25.873  25.599  1.00  0.00     0.027 H 
ENDBRANCH  43  50
ENDBRANCH  41  43
ENDBRANCH  38  41
ENDBRANCH   6  38
TORSDOF 7
ENDMDL
MODEL 4
REMARK VINA RESULT:     -10.6      1.654      2.127
REMARK SMILES O=C(NCc1ccc2cc(CNC3(C4CCC4)CC3)[nH]c2c1)c1cc(=O)n2ccccc2n1
REMARK SMILES IDX 5 1 6 2 7 3 8 4 9 5 10 6 20 7 21 8 22 9 4 15 3 18 1 19 2 20
REMARK SMILES IDX 23 22 24 23 33 24 25 25 32 27 26 28 27 29 31 30 28 31 30 32
REMARK SMILES IDX 29 34 11 38 12 41 13 43 18 44 19 45 14 50 15 51 17 52 16 54
REMARK H PARENT 6 10 7 11 9 12 20 13 22 14 4 16 4 17 3 21 24 26 31 33 28 35
REMARK H PARENT 30 36 29 37 11 39 11 40 12 42 18 46 18 47 19 48 19 49 14 53
REMARK H PARENT 15 55 15 56 17 57 17 58 16 59 16 60
REMARK Flexibility Score: inf
ROOT
ATOM      1  C   UNL     1     -47.813  36.211  27.219  1.00  0.00    -0.027 A 
ATOM      2  C   UNL     1     -46.494  35.970  26.810  1.00  0.00    -0.057 A 
ATOM      3  C   UNL     1     -46.125  34.751  26.229  1.00  0.00    -0.052 A 
ATOM      4  C   UNL     1     -47.098  33.750  26.050  1.00  0.00    -0.000 A 
ATOM      5  C   UNL     1     -47.076  32.435  25.509  1.00  0.00    -0.032 A 
ATOM      6  C   UNL     1     -48.353  31.918  25.593  1.00  0.00     0.030 A 
ATOM      7  N   UNL     1     -49.144  32.883  26.171  1.00  0.00    -0.357 N 
ATOM      8  C   UNL     1     -48.406  34.007  26.457  1.00  0.00     0.046 A 
ATOM      9  C   UNL     1     -48.795  35.222  27.036  1.00  0.00    -0.033 A 
ATOM     10  H   UNL     1     -45.737  36.744  26.938  1.00  0.00     0.063 H 
ATOM     11  H   UNL     1     -45.098  34.583  25.919  1.00  0.00     0.063 H 
ATOM     12  H   UNL     1     -46.212  31.924  25.103  1.00  0.00     0.065 H 
ATOM     13  H   UNL     1     -50.136  32.775  26.330  1.00  0.00     0.166 HD
ATOM     14  H   UNL     1     -49.824  35.390  27.336  1.00  0.00     0.065 H 
ENDROOT
BRANCH   1  15
ATOM     15  C   UNL     1     -48.182  37.545  27.819  1.00  0.00     0.043 C 
ATOM     16  H   UNL     1     -49.217  37.801  27.572  1.00  0.00     0.054 H 
ATOM     17  H   UNL     1     -48.109  37.502  28.912  1.00  0.00     0.054 H 
BRANCH  15  18
ATOM     18  N   UNL     1     -47.343  38.590  27.291  1.00  0.00    -0.347 N 
ATOM     19  O   UNL     1     -48.047  40.258  28.712  1.00  0.00    -0.268 OA
ATOM     20  C   UNL     1     -47.295  39.850  27.834  1.00  0.00     0.270 C 
ATOM     21  H   UNL     1     -46.590  38.349  26.656  1.00  0.00     0.164 HD
BRANCH  20  22
ATOM     22  C   UNL     1     -46.191  40.690  27.237  1.00  0.00     0.136 A 
ATOM     23  C   UNL     1     -46.557  41.583  26.314  1.00  0.00     0.035 A 
ATOM     24  N   UNL     1     -44.900  40.496  27.674  1.00  0.00    -0.225 NA
ATOM     25  C   UNL     1     -45.518  42.426  25.711  1.00  0.00     0.258 A 
ATOM     26  H   UNL     1     -47.577  41.727  25.981  1.00  0.00     0.071 H 
ATOM     27  C   UNL     1     -43.985  41.248  27.141  1.00  0.00     0.140 A 
ATOM     28  O   UNL     1     -45.846  43.248  24.857  1.00  0.00    -0.269 OA
ATOM     29  N   UNL     1     -44.227  42.214  26.172  1.00  0.00    -0.268 N 
ATOM     30  C   UNL     1     -42.573  41.076  27.587  1.00  0.00    -0.019 A 
ATOM     31  C   UNL     1     -43.188  42.977  25.649  1.00  0.00     0.014 A 
ATOM     32  C   UNL     1     -41.608  41.835  27.055  1.00  0.00    -0.057 A 
ATOM     33  H   UNL     1     -42.375  40.327  28.343  1.00  0.00     0.066 H 
ATOM     34  C   UNL     1     -41.922  42.818  26.053  1.00  0.00    -0.045 A 
ATOM     35  H   UNL     1     -43.449  43.716  24.893  1.00  0.00     0.082 H 
ATOM     36  H   UNL     1     -40.574  41.726  27.366  1.00  0.00     0.062 H 
ATOM     37  H   UNL     1     -41.120  43.420  25.639  1.00  0.00     0.064 H 
ENDBRANCH  20  22
ENDBRANCH  15  18
ENDBRANCH   1  15
BRANCH   6  38
ATOM     38  C   UNL     1     -48.908  30.594  25.194  1.00  0.00     0.036 C 
ATOM     39  H   UNL     1     -49.480  30.173  26.028  1.00  0.00     0.049 H 
ATOM     40  H   UNL     1     -49.596  30.740  24.353  1.00  0.00     0.049 H 
BRANCH  38  41
ATOM     41  N   UNL     1     -47.812  29.705  24.821  1.00  0.00    -0.305 NA
ATOM     42  H   UNL     1     -47.112  29.729  25.564  1.00  0.00     0.123 HD
BRANCH  41  43
ATOM     43  C   UNL     1     -48.231  28.309  24.545  1.00  0.00     0.021 C 
ATOM     44  C   UNL     1     -49.524  28.127  23.776  1.00  0.00    -0.033 C 
ATOM     45  C   UNL     1     -48.217  27.928  23.074  1.00  0.00    -0.033 C 
ATOM     46  H   UNL     1     -50.104  29.007  23.521  1.00  0.00     0.029 H 
ATOM     47  H   UNL     1     -50.134  27.254  23.978  1.00  0.00     0.029 H 
ATOM     48  H   UNL     1     -47.914  28.677  22.350  1.00  0.00     0.029 H 
ATOM     49  H   UNL     1     -47.937  26.919  22.794  1.00  0.00     0.029 H 
BRANCH  43  50
ATOM     50  C   UNL     1     -47.771  27.272  25.592  1.00  0.00    -0.023 C 
ATOM     51  C   UNL     1     -48.613  25.982  25.809  1.00  0.00    -0.049 C 
ATOM     52  C   UNL     1     -46.574  26.315  25.310  1.00  0.00    -0.049 C 
ATOM     53  H   UNL     1     -47.606  27.803  26.544  1.00  0.00     0.032 H 
ATOM     54  C   UNL     1     -47.299  25.264  26.171  1.00  0.00    -0.053 C 
ATOM     55  H   UNL     1     -49.354  26.021  26.610  1.00  0.00     0.027 H 
ATOM     56  H   UNL     1     -49.092  25.596  24.901  1.00  0.00     0.027 H 
ATOM     57  H   UNL     1     -46.455  26.008  24.265  1.00  0.00     0.027 H 
ATOM     58  H   UNL     1     -45.605  26.647  25.691  1.00  0.00     0.027 H 
ATOM     59  H   UNL     1     -47.213  24.228  25.833  1.00  0.00     0.027 H 
ATOM     60  H   UNL     1     -47.047  25.316  27.237  1.00  0.00     0.027 H 
ENDBRANCH  43  50
ENDBRANCH  41  43
ENDBRANCH  38  41
ENDBRANCH   6  38
TORSDOF 7
ENDMDL
MODEL 5
REMARK VINA RESULT:     -10.5      1.995      3.108
REMARK SMILES O=C(NCc1ccc2cc(CNC3(C4CCC4)CC3)[nH]c2c1)c1cc(=O)n2ccccc2n1
REMARK SMILES IDX 5 1 6 2 7 3 8 4 9 5 10 6 20 7 21 8 22 9 4 15 3 18 1 19 2 20
REMARK SMILES IDX 23 22 24 23 33 24 25 25 32 27 26 28 27 29 31 30 28 31 30 32
REMARK SMILES IDX 29 34 11 38 12 41 13 43 18 44 19 45 14 50 15 51 17 52 16 54
REMARK H PARENT 6 10 7 11 9 12 20 13 22 14 4 16 4 17 3 21 24 26 31 33 28 35
REMARK H PARENT 30 36 29 37 11 39 11 40 12 42 18 46 18 47 19 48 19 49 14 53
REMARK H PARENT 15 55 15 56 17 57 17 58 16 59 16 60
REMARK Flexibility Score: inf
ROOT
ATOM      1  C   UNL     1     -48.141  35.504  26.932  1.00  0.00    -0.027 A 
ATOM      2  C   UNL     1     -46.863  35.466  26.356  1.00  0.00    -0.057 A 
ATOM      3  C   UNL     1     -46.425  34.350  25.633  1.00  0.00    -0.052 A 
ATOM      4  C   UNL     1     -47.286  33.248  25.477  1.00  0.00    -0.000 A 
ATOM      5  C   UNL     1     -47.173  31.990  24.824  1.00  0.00    -0.032 A 
ATOM      6  C   UNL     1     -48.360  31.307  25.006  1.00  0.00     0.030 A 
ATOM      7  N   UNL     1     -49.183  32.117  25.753  1.00  0.00    -0.357 N 
ATOM      8  C   UNL     1     -48.555  33.304  26.051  1.00  0.00     0.046 A 
ATOM      9  C   UNL     1     -49.014  34.412  26.774  1.00  0.00    -0.033 A 
ATOM     10  H   UNL     1     -46.195  36.320  26.465  1.00  0.00     0.063 H 
ATOM     11  H   UNL     1     -45.432  34.340  25.195  1.00  0.00     0.063 H 
ATOM     12  H   UNL     1     -46.312  31.626  24.280  1.00  0.00     0.065 H 
ATOM     13  H   UNL     1     -50.128  31.871  26.013  1.00  0.00     0.166 HD
ATOM     14  H   UNL     1     -50.010  34.423  27.202  1.00  0.00     0.065 H 
ENDROOT
BRANCH   1  15
ATOM     15  C   UNL     1     -48.591  36.732  27.683  1.00  0.00     0.043 C 
ATOM     16  H   UNL     1     -49.465  37.178  27.198  1.00  0.00     0.054 H 
ATOM     17  H   UNL     1     -48.888  36.463  28.704  1.00  0.00     0.054 H 
BRANCH  15  18
ATOM     18  N   UNL     1     -47.551  37.729  27.699  1.00  0.00    -0.347 N 
ATOM     19  O   UNL     1     -46.567  37.077  29.675  1.00  0.00    -0.268 OA
ATOM     20  C   UNL     1     -46.577  37.771  28.665  1.00  0.00     0.270 C 
ATOM     21  H   UNL     1     -47.375  38.275  26.863  1.00  0.00     0.164 HD
BRANCH  20  22
ATOM     22  C   UNL     1     -45.492  38.772  28.341  1.00  0.00     0.136 A 
ATOM     23  C   UNL     1     -45.571  39.367  27.148  1.00  0.00     0.035 A 
ATOM     24  N   UNL     1     -44.512  39.013  29.276  1.00  0.00    -0.225 NA
ATOM     25  C   UNL     1     -44.541  40.352  26.793  1.00  0.00     0.258 A 
ATOM     26  H   UNL     1     -46.349  39.171  26.422  1.00  0.00     0.071 H 
ATOM     27  C   UNL     1     -43.607  39.888  28.960  1.00  0.00     0.140 A 
ATOM     28  O   UNL     1     -44.603  40.902  25.695  1.00  0.00    -0.269 OA
ATOM     29  N   UNL     1     -43.568  40.580  27.754  1.00  0.00    -0.268 N 
ATOM     30  C   UNL     1     -42.527  40.185  29.944  1.00  0.00    -0.019 A 
ATOM     31  C   UNL     1     -42.560  41.502  27.492  1.00  0.00     0.014 A 
ATOM     32  C   UNL     1     -41.579  41.081  29.645  1.00  0.00    -0.057 A 
ATOM     33  H   UNL     1     -42.550  39.653  30.886  1.00  0.00     0.066 H 
ATOM     34  C   UNL     1     -41.593  41.763  28.379  1.00  0.00    -0.045 A 
ATOM     35  H   UNL     1     -42.591  42.006  26.528  1.00  0.00     0.082 H 
ATOM     36  H   UNL     1     -40.785  41.311  30.348  1.00  0.00     0.062 H 
ATOM     37  H   UNL     1     -40.812  42.485  28.163  1.00  0.00     0.064 H 
ENDBRANCH  20  22
ENDBRANCH  15  18
ENDBRANCH   1  15
BRANCH   6  38
ATOM     38  C   UNL     1     -48.797  29.955  24.558  1.00  0.00     0.036 C 
ATOM     39  H   UNL     1     -47.949  29.430  24.107  1.00  0.00     0.049 H 
ATOM     40  H   UNL     1     -49.120  29.383  25.436  1.00  0.00     0.049 H 
BRANCH  38  41
ATOM     41  N   UNL     1     -49.887  30.095  23.597  1.00  0.00    -0.305 NA
ATOM     42  H   UNL     1     -50.210  31.063  23.618  1.00  0.00     0.123 HD
BRANCH  41  43
ATOM     43  C   UNL     1     -49.532  29.693  22.215  1.00  0.00     0.021 C 
ATOM     44  C   UNL     1     -48.952  28.303  22.039  1.00  0.00    -0.033 C 
ATOM     45  C   UNL     1     -50.376  28.560  21.654  1.00  0.00    -0.033 C 
ATOM     46  H   UNL     1     -48.770  27.702  22.923  1.00  0.00     0.029 H 
ATOM     47  H   UNL     1     -48.231  28.134  21.249  1.00  0.00     0.029 H 
ATOM     48  H   UNL     1     -51.153  28.136  22.281  1.00  0.00     0.029 H 
ATOM     49  H   UNL     1     -50.626  28.562  20.599  1.00  0.00     0.029 H 
BRANCH  43  50
ATOM     50  C   UNL     1     -49.121  30.853  21.284  1.00  0.00    -0.023 C 
ATOM     51  C   UNL     1     -47.669  30.908  20.728  1.00  0.00    -0.049 C 
ATOM     52  C   UNL     1     -49.578  30.896  19.795  1.00  0.00    -0.049 C 
ATOM     53  H   UNL     1     -49.391  31.798  21.783  1.00  0.00     0.032 H 
ATOM     54  C   UNL     1     -48.244  31.596  19.476  1.00  0.00    -0.053 C 
ATOM     55  H   UNL     1     -46.958  31.509  21.300  1.00  0.00     0.027 H 
ATOM     56  H   UNL     1     -47.224  29.926  20.528  1.00  0.00     0.027 H 
ATOM     57  H   UNL     1     -49.680  29.920  19.307  1.00  0.00     0.027 H 
ATOM     58  H   UNL     1     -50.477  31.484  19.594  1.00  0.00     0.027 H 
ATOM     59  H   UNL     1     -47.778  31.323  18.526  1.00  0.00     0.027 H 
ATOM     60  H   UNL     1     -48.288  32.688  19.553  1.00  0.00     0.027 H 
ENDBRANCH  43  50
ENDBRANCH  41  43
ENDBRANCH  38  41
ENDBRANCH   6  38
TORSDOF 7
ENDMDL
MODEL 6
REMARK VINA RESULT:     -10.5      2.764     11.678
REMARK SMILES O=C(NCc1ccc2cc(CNC3(C4CCC4)CC3)[nH]c2c1)c1cc(=O)n2ccccc2n1
REMARK SMILES IDX 5 1 6 2 7 3 8 4 9 5 10 6 20 7 21 8 22 9 4 15 3 18 1 19 2 20
REMARK SMILES IDX 23 22 24 23 33 24 25 25 32 27 26 28 27 29 31 30 28 31 30 32
REMARK SMILES IDX 29 34 11 38 12 41 13 43 18 44 19 45 14 50 15 51 17 52 16 54
REMARK H PARENT 6 10 7 11 9 12 20 13 22 14 4 16 4 17 3 21 24 26 31 33 28 35
REMARK H PARENT 30 36 29 37 11 39 11 40 12 42 18 46 18 47 19 48 19 49 14 53
REMARK H PARENT 15 55 15 56 17 57 17 58 16 59 16 60
REMARK Flexibility Score: inf
ROOT
ATOM      1  C   UNL     1     -46.924  33.583  25.612  1.00  0.00    -0.027 A 
ATOM      2  C   UNL     1     -48.267  33.761  25.974  1.00  0.00    -0.057 A 
ATOM      3  C   UNL     1     -48.651  34.773  26.862  1.00  0.00    -0.052 A 
ATOM      4  C   UNL     1     -47.671  35.629  27.397  1.00  0.00    -0.000 A 
ATOM      5  C   UNL     1     -47.704  36.730  28.298  1.00  0.00    -0.032 A 
ATOM      6  C   UNL     1     -46.412  37.191  28.456  1.00  0.00     0.030 A 
ATOM      7  N   UNL     1     -45.601  36.398  27.679  1.00  0.00    -0.357 N 
ATOM      8  C   UNL     1     -46.341  35.442  27.023  1.00  0.00     0.046 A 
ATOM      9  C   UNL     1     -45.938  34.438  26.133  1.00  0.00    -0.033 A 
ATOM     10  H   UNL     1     -49.032  33.108  25.556  1.00  0.00     0.063 H 
ATOM     11  H   UNL     1     -49.696  34.895  27.131  1.00  0.00     0.063 H 
ATOM     12  H   UNL     1     -48.584  37.138  28.778  1.00  0.00     0.065 H 
ATOM     13  H   UNL     1     -44.603  36.532  27.589  1.00  0.00     0.166 HD
ATOM     14  H   UNL     1     -44.894  34.325  25.860  1.00  0.00     0.065 H 
ENDROOT
BRANCH   1  15
ATOM     15  C   UNL     1     -46.548  32.498  24.634  1.00  0.00     0.043 C 
ATOM     16  H   UNL     1     -46.823  32.791  23.615  1.00  0.00     0.054 H 
ATOM     17  H   UNL     1     -45.463  32.339  24.644  1.00  0.00     0.054 H 
BRANCH  15  18
ATOM     18  N   UNL     1     -47.248  31.276  24.934  1.00  0.00    -0.347 N 
ATOM     19  O   UNL     1     -48.522  31.205  23.019  1.00  0.00    -0.268 OA
ATOM     20  C   UNL     1     -48.130  30.691  24.060  1.00  0.00     0.270 C 
ATOM     21  H   UNL     1     -46.923  30.692  25.697  1.00  0.00     0.164 HD
BRANCH  20  22
ATOM     22  C   UNL     1     -48.565  29.318  24.518  1.00  0.00     0.136 A 
ATOM     23  C   UNL     1     -49.873  29.057  24.451  1.00  0.00     0.035 A 
ATOM     24  N   UNL     1     -47.608  28.433  24.960  1.00  0.00    -0.225 NA
ATOM     25  C   UNL     1     -50.340  27.733  24.880  1.00  0.00     0.258 A 
ATOM     26  H   UNL     1     -50.615  29.762  24.100  1.00  0.00     0.071 H 
ATOM     27  C   UNL     1     -48.026  27.262  25.332  1.00  0.00     0.140 A 
ATOM     28  O   UNL     1     -51.543  27.485  24.827  1.00  0.00    -0.269 OA
ATOM     29  N   UNL     1     -49.356  26.858  25.316  1.00  0.00    -0.268 N 
ATOM     30  C   UNL     1     -47.024  26.268  25.814  1.00  0.00    -0.019 A 
ATOM     31  C   UNL     1     -49.721  25.583  25.735  1.00  0.00     0.014 A 
ATOM     32  C   UNL     1     -47.424  25.053  26.207  1.00  0.00    -0.057 A 
ATOM     33  H   UNL     1     -45.985  26.572  25.829  1.00  0.00     0.066 H 
ATOM     34  C   UNL     1     -48.817  24.696  26.167  1.00  0.00    -0.045 A 
ATOM     35  H   UNL     1     -50.780  25.335  25.696  1.00  0.00     0.082 H 
ATOM     36  H   UNL     1     -46.711  24.315  26.561  1.00  0.00     0.062 H 
ATOM     37  H   UNL     1     -49.114  23.704  26.492  1.00  0.00     0.064 H 
ENDBRANCH  20  22
ENDBRANCH  15  18
ENDBRANCH   1  15
BRANCH   6  38
ATOM     38  C   UNL     1     -45.856  38.301  29.279  1.00  0.00     0.036 C 
ATOM     39  H   UNL     1     -46.118  38.140  30.330  1.00  0.00     0.049 H 
ATOM     40  H   UNL     1     -44.763  38.285  29.197  1.00  0.00     0.049 H 
BRANCH  38  41
ATOM     41  N   UNL     1     -46.396  39.571  28.803  1.00  0.00    -0.305 NA
ATOM     42  H   UNL     1     -46.164  40.294  29.485  1.00  0.00     0.123 HD
BRANCH  41  43
ATOM     43  C   UNL     1     -45.926  39.961  27.451  1.00  0.00     0.021 C 
ATOM     44  C   UNL     1     -46.808  39.563  26.284  1.00  0.00    -0.033 C 
ATOM     45  C   UNL     1     -46.803  40.986  26.752  1.00  0.00    -0.033 C 
ATOM     46  H   UNL     1     -47.695  38.971  26.482  1.00  0.00     0.029 H 
ATOM     47  H   UNL     1     -46.345  39.337  25.332  1.00  0.00     0.029 H 
ATOM     48  H   UNL     1     -47.684  41.350  27.270  1.00  0.00     0.029 H 
ATOM     49  H   UNL     1     -46.339  41.729  26.115  1.00  0.00     0.029 H 
BRANCH  43  50
ATOM     50  C   UNL     1     -44.393  40.056  27.297  1.00  0.00    -0.023 C 
ATOM     51  C   UNL     1     -43.791  41.022  26.236  1.00  0.00    -0.049 C 
ATOM     52  C   UNL     1     -43.523  40.828  28.334  1.00  0.00    -0.049 C 
ATOM     53  H   UNL     1     -44.002  39.033  27.170  1.00  0.00     0.032 H 
ATOM     54  C   UNL     1     -42.581  41.192  27.172  1.00  0.00    -0.053 C 
ATOM     55  H   UNL     1     -43.563  40.582  25.262  1.00  0.00     0.027 H 
ATOM     56  H   UNL     1     -44.367  41.943  26.084  1.00  0.00     0.027 H 
ATOM     57  H   UNL     1     -44.002  41.700  28.791  1.00  0.00     0.027 H 
ATOM     58  H   UNL     1     -43.079  40.216  29.125  1.00  0.00     0.027 H 
ATOM     59  H   UNL     1     -42.144  42.194  27.209  1.00  0.00     0.027 H 
ATOM     60  H   UNL     1     -41.784  40.460  27.002  1.00  0.00     0.027 H 
ENDBRANCH  43  50
ENDBRANCH  41  43
ENDBRANCH  38  41
ENDBRANCH   6  38
TORSDOF 7
ENDMDL
MODEL 7
REMARK VINA RESULT:     -10.3      2.644      4.733
REMARK SMILES O=C(NCc1ccc2cc(CNC3(C4CCC4)CC3)[nH]c2c1)c1cc(=O)n2ccccc2n1
REMARK SMILES IDX 5 1 6 2 7 3 8 4 9 5 10 6 20 7 21 8 22 9 4 15 3 18 1 19 2 20
REMARK SMILES IDX 23 22 24 23 33 24 25 25 32 27 26 28 27 29 31 30 28 31 30 32
REMARK SMILES IDX 29 34 11 38 12 41 13 43 18 44 19 45 14 50 15 51 17 52 16 54
REMARK H PARENT 6 10 7 11 9 12 20 13 22 14 4 16 4 17 3 21 24 26 31 33 28 35
REMARK H PARENT 30 36 29 37 11 39 11 40 12 42 18 46 18 47 19 48 19 49 14 53
REMARK H PARENT 15 55 15 56 17 57 17 58 16 59 16 60
REMARK Flexibility Score: inf
ROOT
ATOM      1  C   UNL     1     -45.636  37.641  28.355  1.00  0.00    -0.027 A 
ATOM      2  C   UNL     1     -46.919  38.021  27.936  1.00  0.00    -0.057 A 
ATOM      3  C   UNL     1     -47.763  37.120  27.274  1.00  0.00    -0.052 A 
ATOM      4  C   UNL     1     -47.315  35.809  27.029  1.00  0.00    -0.000 A 
ATOM      5  C   UNL     1     -47.891  34.669  26.404  1.00  0.00    -0.032 A 
ATOM      6  C   UNL     1     -46.970  33.641  26.460  1.00  0.00     0.030 A 
ATOM      7  N   UNL     1     -45.855  34.132  27.098  1.00  0.00    -0.357 N 
ATOM      8  C   UNL     1     -46.039  35.446  27.456  1.00  0.00     0.046 A 
ATOM      9  C   UNL     1     -45.182  36.331  28.124  1.00  0.00    -0.033 A 
ATOM     10  H   UNL     1     -47.275  39.032  28.131  1.00  0.00     0.063 H 
ATOM     11  H   UNL     1     -48.753  37.433  26.958  1.00  0.00     0.063 H 
ATOM     12  H   UNL     1     -48.876  34.610  25.960  1.00  0.00     0.065 H 
ATOM     13  H   UNL     1     -45.032  33.578  27.296  1.00  0.00     0.166 HD
ATOM     14  H   UNL     1     -44.197  36.012  28.447  1.00  0.00     0.065 H 
ENDROOT
BRANCH   1  15
ATOM     15  C   UNL     1     -44.762  38.628  29.087  1.00  0.00     0.043 C 
ATOM     16  H   UNL     1     -45.220  38.908  30.042  1.00  0.00     0.054 H 
ATOM     17  H   UNL     1     -43.789  38.178  29.313  1.00  0.00     0.054 H 
BRANCH  15  18
ATOM     18  N   UNL     1     -44.602  39.836  28.318  1.00  0.00    -0.347 N 
ATOM     19  O   UNL     1     -42.607  40.501  29.253  1.00  0.00    -0.268 OA
ATOM     20  C   UNL     1     -43.492  40.638  28.417  1.00  0.00     0.270 C 
ATOM     21  H   UNL     1     -45.194  39.992  27.510  1.00  0.00     0.164 HD
BRANCH  20  22
ATOM     22  C   UNL     1     -43.470  41.718  27.361  1.00  0.00     0.136 A 
ATOM     23  C   UNL     1     -42.278  42.010  26.836  1.00  0.00     0.035 A 
ATOM     24  N   UNL     1     -44.655  42.321  27.004  1.00  0.00    -0.225 NA
ATOM     25  C   UNL     1     -42.210  43.050  25.802  1.00  0.00     0.258 A 
ATOM     26  H   UNL     1     -41.353  41.528  27.124  1.00  0.00     0.071 H 
ATOM     27  C   UNL     1     -44.591  43.235  26.085  1.00  0.00     0.140 A 
ATOM     28  O   UNL     1     -41.115  43.329  25.315  1.00  0.00    -0.269 OA
ATOM     29  N   UNL     1     -43.418  43.637  25.457  1.00  0.00    -0.268 N 
ATOM     30  C   UNL     1     -45.850  43.912  25.663  1.00  0.00    -0.019 A 
ATOM     31  C   UNL     1     -43.434  44.629  24.481  1.00  0.00     0.014 A 
ATOM     32  C   UNL     1     -45.815  44.860  24.719  1.00  0.00    -0.057 A 
ATOM     33  H   UNL     1     -46.769  43.604  26.145  1.00  0.00     0.066 H 
ATOM     34  C   UNL     1     -44.568  45.233  24.107  1.00  0.00    -0.045 A 
ATOM     35  H   UNL     1     -42.479  44.895  24.031  1.00  0.00     0.082 H 
ATOM     36  H   UNL     1     -46.720  45.364  24.398  1.00  0.00     0.062 H 
ATOM     37  H   UNL     1     -44.568  46.005  23.344  1.00  0.00     0.064 H 
ENDBRANCH  20  22
ENDBRANCH  15  18
ENDBRANCH   1  15
BRANCH   6  38
ATOM     38  C   UNL     1     -47.026  32.240  25.959  1.00  0.00     0.036 C 
ATOM     39  H   UNL     1     -46.229  32.084  25.224  1.00  0.00     0.049 H 
ATOM     40  H   UNL     1     -46.847  31.559  26.799  1.00  0.00     0.049 H 
BRANCH  38  41
ATOM     41  N   UNL     1     -48.334  31.994  25.359  1.00  0.00    -0.305 NA
ATOM     42  H   UNL     1     -48.731  32.891  25.077  1.00  0.00     0.123 HD
BRANCH  41  43
ATOM     43  C   UNL     1     -48.310  31.052  24.214  1.00  0.00     0.021 C 
ATOM     44  C   UNL     1     -49.483  30.100  24.092  1.00  0.00    -0.033 C 
ATOM     45  C   UNL     1     -49.401  31.287  23.183  1.00  0.00    -0.033 C 
ATOM     46  H   UNL     1     -50.243  30.111  24.866  1.00  0.00     0.029 H 
ATOM     47  H   UNL     1     -49.318  29.118  23.667  1.00  0.00     0.029 H 
ATOM     48  H   UNL     1     -50.101  32.099  23.348  1.00  0.00     0.029 H 
ATOM     49  H   UNL     1     -49.182  31.112  22.136  1.00  0.00     0.029 H 
BRANCH  43  50
ATOM     50  C   UNL     1     -46.900  30.646  23.735  1.00  0.00    -0.023 C 
ATOM     51  C   UNL     1     -46.628  29.170  23.326  1.00  0.00    -0.049 C 
ATOM     52  C   UNL     1     -46.392  31.022  22.310  1.00  0.00    -0.049 C 
ATOM     53  H   UNL     1     -46.174  30.989  24.491  1.00  0.00     0.032 H 
ATOM     54  C   UNL     1     -45.589  29.708  22.324  1.00  0.00    -0.053 C 
ATOM     55  H   UNL     1     -46.224  28.522  24.107  1.00  0.00     0.027 H 
ATOM     56  H   UNL     1     -47.480  28.667  22.853  1.00  0.00     0.027 H 
ATOM     57  H   UNL     1     -47.160  31.049  21.530  1.00  0.00     0.027 H 
ATOM     58  H   UNL     1     -45.795  31.936  22.248  1.00  0.00     0.027 H 
ATOM     59  H   UNL     1     -45.527  29.177  21.371  1.00  0.00     0.027 H 
ATOM     60  H   UNL     1     -44.582  29.809  22.744  1.00  0.00     0.027 H 
ENDBRANCH  43  50
ENDBRANCH  41  43
ENDBRANCH  38  41
ENDBRANCH   6  38
TORSDOF 7
ENDMDL
