MODEL 1
REMARK VINA RESULT:     -10.8      0.000      0.000
REMARK SMILES Cn1ccc(-c2cn([C@@H]3O[C@H](COc4ccc5ccc(N[C@H]6C[C@H](N)C6)nc5c4)[C@@H](O)[C@@H]3F)c3ncnc(N)c23)n1
REMARK SMILES IDX 12 1 11 4 9 5 10 6 32 7 30 9 33 10 8 14 6 15 7 16 40 17
REMARK SMILES IDX 34 19 38 20 35 21 37 22 36 23 5 25 2 26 3 27 41 28 4 29 1 32
REMARK SMILES IDX 39 36 31 39 13 41 14 42 15 43 29 44 16 45 28 47 17 49 27 51
REMARK SMILES IDX 18 52 20 53 19 54 21 57 22 59 23 60 26 61 24 63 25 69
REMARK H PARENT 12 2 12 3 9 8 32 11 11 12 30 13 7 18 36 24 3 30 4 31 1 33 1 34
REMARK H PARENT 1 35 39 37 39 38 31 40 15 46 29 48 16 50 18 55 19 56 21 58
REMARK H PARENT 22 62 23 64 23 65 26 66 26 67 24 68 25 70 25 71
REMARK Flexibility Score: inf
ROOT
ATOM      1  C   UNL     1     -46.386  35.919  26.985  1.00  0.00     0.117 C 
ATOM      2  H   UNL     1     -45.670  35.705  26.182  1.00  0.00     0.073 H 
ATOM      3  H   UNL     1     -46.781  36.909  26.730  1.00  0.00     0.073 H 
ENDROOT
BRANCH   1   4
ATOM      4  C   UNL     1     -45.706  35.973  28.360  1.00  0.00     0.123 C 
ATOM      5  C   UNL     1     -44.981  38.045  29.159  1.00  0.00     0.169 C 
ATOM      6  O   UNL     1     -44.627  36.928  28.306  1.00  0.00    -0.345 OA
ATOM      7  C   UNL     1     -46.460  37.913  29.496  1.00  0.00     0.173 C 
ATOM      8  H   UNL     1     -44.358  37.951  30.057  1.00  0.00     0.088 H 
ATOM      9  C   UNL     1     -46.646  36.415  29.487  1.00  0.00     0.119 C 
ATOM     10  F   UNL     1     -47.240  38.446  28.514  1.00  0.00    -0.239 F 
ATOM     11  H   UNL     1     -46.722  38.397  30.442  1.00  0.00     0.074 H 
ATOM     12  H   UNL     1     -45.267  34.998  28.600  1.00  0.00     0.067 H 
ATOM     13  H   UNL     1     -47.686  36.117  29.333  1.00  0.00     0.066 H 
BRANCH   5  14
ATOM     14  N   UNL     1     -44.633  39.300  28.515  1.00  0.00    -0.302 N 
ATOM     15  C   UNL     1     -44.606  41.072  27.168  1.00  0.00     0.033 A 
ATOM     16  C   UNL     1     -45.283  39.906  27.471  1.00  0.00     0.019 A 
ATOM     17  C   UNL     1     -43.531  41.210  28.095  1.00  0.00     0.071 A 
ATOM     18  H   UNL     1     -46.156  39.463  27.011  1.00  0.00     0.083 H 
ATOM     19  C   UNL     1     -43.566  40.074  28.898  1.00  0.00     0.148 A 
ATOM     20  C   UNL     1     -42.527  42.146  28.396  1.00  0.00     0.137 A 
ATOM     21  N   UNL     1     -42.720  39.769  29.898  1.00  0.00    -0.218 NA
ATOM     22  N   UNL     1     -41.653  41.875  29.388  1.00  0.00    -0.219 NA
ATOM     23  C   UNL     1     -41.790  40.721  30.066  1.00  0.00     0.120 A 
ATOM     24  H   UNL     1     -41.060  40.542  30.848  1.00  0.00     0.106 H 
BRANCH  15  25
ATOM     25  C   UNL     1     -44.954  41.988  26.084  1.00  0.00     0.095 A 
ATOM     26  N   UNL     1     -44.795  43.163  24.338  1.00  0.00    -0.275 N 
ATOM     27  C   UNL     1     -46.026  43.465  24.841  1.00  0.00     0.025 A 
ATOM     28  N   UNL     1     -44.117  42.268  25.078  1.00  0.00    -0.173 NA
ATOM     29  C   UNL     1     -46.154  42.722  25.991  1.00  0.00    -0.016 A 
ATOM     30  H   UNL     1     -46.687  44.174  24.361  1.00  0.00     0.084 H 
ATOM     31  H   UNL     1     -46.995  42.717  26.672  1.00  0.00     0.066 H 
BRANCH  26  32
ATOM     32  C   UNL     1     -44.187  43.699  23.145  1.00  0.00     0.030 C 
ATOM     33  H   UNL     1     -43.721  42.890  22.577  1.00  0.00     0.048 H 
ATOM     34  H   UNL     1     -44.966  44.175  22.544  1.00  0.00     0.048 H 
ATOM     35  H   UNL     1     -43.430  44.430  23.442  1.00  0.00     0.048 H 
ENDBRANCH  26  32
ENDBRANCH  15  25
BRANCH  20  36
ATOM     36  N   UNL     1     -42.378  43.378  27.771  1.00  0.00    -0.383 N 
ATOM     37  H   UNL     1     -41.412  43.674  27.695  1.00  0.00     0.158 HD
ATOM     38  H   UNL     1     -42.899  43.382  26.900  1.00  0.00     0.158 HD
ENDBRANCH  20  36
ENDBRANCH   5  14
BRANCH   9  39
ATOM     39  O   UNL     1     -46.217  35.883  30.747  1.00  0.00    -0.387 OA
ATOM     40  H   UNL     1     -46.723  36.338  31.445  1.00  0.00     0.211 HD
ENDBRANCH   9  39
ENDBRANCH   1   4
BRANCH   1  41
ATOM     41  O   UNL     1     -47.495  35.020  26.978  1.00  0.00    -0.491 OA
BRANCH  41  42
ATOM     42  C   UNL     1     -47.424  33.887  26.217  1.00  0.00     0.121 A 
ATOM     43  C   UNL     1     -46.390  33.887  25.283  1.00  0.00    -0.019 A 
ATOM     44  C   UNL     1     -48.275  32.783  26.291  1.00  0.00     0.007 A 
ATOM     45  C   UNL     1     -46.208  32.798  24.433  1.00  0.00    -0.049 A 
ATOM     46  H   UNL     1     -45.718  34.741  25.218  1.00  0.00     0.066 H 
ATOM     47  C   UNL     1     -48.119  31.685  25.452  1.00  0.00     0.076 A 
ATOM     48  H   UNL     1     -49.093  32.736  27.002  1.00  0.00     0.069 H 
ATOM     49  C   UNL     1     -47.070  31.696  24.514  1.00  0.00     0.001 A 
ATOM     50  H   UNL     1     -45.394  32.816  23.712  1.00  0.00     0.063 H 
ATOM     51  N   UNL     1     -48.975  30.654  25.562  1.00  0.00    -0.231 NA
ATOM     52  C   UNL     1     -46.931  30.585  23.678  1.00  0.00    -0.049 A 
ATOM     53  C   UNL     1     -48.823  29.583  24.758  1.00  0.00     0.126 A 
ATOM     54  C   UNL     1     -47.818  29.521  23.799  1.00  0.00    -0.019 A 
ATOM     55  H   UNL     1     -46.144  30.542  22.929  1.00  0.00     0.063 H 
ATOM     56  H   UNL     1     -47.732  28.662  23.143  1.00  0.00     0.066 H 
BRANCH  53  57
ATOM     57  N   UNL     1     -49.735  28.507  24.846  1.00  0.00    -0.367 N 
ATOM     58  H   UNL     1     -49.983  28.215  23.905  1.00  0.00     0.162 HD
BRANCH  57  59
ATOM     59  C   UNL     1     -49.501  27.392  25.724  1.00  0.00     0.030 C 
ATOM     60  C   UNL     1     -48.634  26.293  25.063  1.00  0.00    -0.017 C 
ATOM     61  C   UNL     1     -48.345  27.622  26.727  1.00  0.00    -0.017 C 
ATOM     62  H   UNL     1     -50.425  27.004  26.171  1.00  0.00     0.053 H 
ATOM     63  C   UNL     1     -47.805  26.224  26.363  1.00  0.00     0.008 C 
ATOM     64  H   UNL     1     -48.042  26.633  24.203  1.00  0.00     0.030 H 
ATOM     65  H   UNL     1     -49.168  25.385  24.765  1.00  0.00     0.030 H 
ATOM     66  H   UNL     1     -47.654  28.428  26.448  1.00  0.00     0.030 H 
ATOM     67  H   UNL     1     -48.647  27.785  27.767  1.00  0.00     0.030 H 
ATOM     68  H   UNL     1     -46.722  26.138  26.248  1.00  0.00     0.046 H 
BRANCH  63  69
ATOM     69  N   UNL     1     -48.405  25.233  27.255  1.00  0.00    -0.328 NA
ATOM     70  H   UNL     1     -48.296  25.449  28.245  1.00  0.00     0.119 HD
ATOM     71  H   UNL     1     -49.404  25.096  27.105  1.00  0.00     0.119 HD
ENDBRANCH  63  69
ENDBRANCH  57  59
ENDBRANCH  53  57
ENDBRANCH  41  42
ENDBRANCH   1  41
TORSDOF 11
ENDMDL
MODEL 2
REMARK VINA RESULT:      -9.1      1.811      3.086
REMARK SMILES Cn1ccc(-c2cn([C@@H]3O[C@H](COc4ccc5ccc(N[C@H]6C[C@H](N)C6)nc5c4)[C@@H](O)[C@@H]3F)c3ncnc(N)c23)n1
REMARK SMILES IDX 12 1 11 4 9 5 10 6 32 7 30 9 33 10 8 14 6 15 7 16 40 17
REMARK SMILES IDX 34 19 38 20 35 21 37 22 36 23 5 25 2 26 3 27 41 28 4 29 1 32
REMARK SMILES IDX 39 36 31 39 13 41 14 42 15 43 29 44 16 45 28 47 17 49 27 51
REMARK SMILES IDX 18 52 20 53 19 54 21 57 22 59 23 60 26 61 24 63 25 69
REMARK H PARENT 12 2 12 3 9 8 32 11 11 12 30 13 7 18 36 24 3 30 4 31 1 33 1 34
REMARK H PARENT 1 35 39 37 39 38 31 40 15 46 29 48 16 50 18 55 19 56 21 58
REMARK H PARENT 22 62 23 64 23 65 26 66 26 67 24 68 25 70 25 71
REMARK Flexibility Score: inf
ROOT
ATOM      1  C   UNL     1     -45.949  35.527  28.189  1.00  0.00     0.117 C 
ATOM      2  H   UNL     1     -44.977  35.902  28.533  1.00  0.00     0.073 H 
ATOM      3  H   UNL     1     -45.975  35.797  27.127  1.00  0.00     0.073 H 
ENDROOT
BRANCH   1   4
ATOM      4  C   UNL     1     -47.116  36.201  28.923  1.00  0.00     0.123 C 
ATOM      5  C   UNL     1     -47.580  38.441  28.446  1.00  0.00     0.169 C 
ATOM      6  O   UNL     1     -46.744  37.559  29.236  1.00  0.00    -0.345 OA
ATOM      7  C   UNL     1     -48.267  37.592  27.385  1.00  0.00     0.173 C 
ATOM      8  H   UNL     1     -48.309  38.873  29.143  1.00  0.00     0.088 H 
ATOM      9  C   UNL     1     -48.402  36.264  28.092  1.00  0.00     0.119 C 
ATOM     10  F   UNL     1     -47.465  37.417  26.297  1.00  0.00    -0.239 F 
ATOM     11  H   UNL     1     -49.214  38.023  27.047  1.00  0.00     0.074 H 
ATOM     12  H   UNL     1     -47.308  35.690  29.872  1.00  0.00     0.067 H 
ATOM     13  H   UNL     1     -48.519  35.425  27.401  1.00  0.00     0.066 H 
BRANCH   5  14
ATOM     14  N   UNL     1     -46.790  39.533  27.905  1.00  0.00    -0.302 N 
ATOM     15  C   UNL     1     -45.101  40.849  27.299  1.00  0.00     0.033 A 
ATOM     16  C   UNL     1     -45.424  39.648  27.899  1.00  0.00     0.019 A 
ATOM     17  C   UNL     1     -46.313  41.470  26.875  1.00  0.00     0.071 A 
ATOM     18  H   UNL     1     -44.788  38.888  28.333  1.00  0.00     0.083 H 
ATOM     19  C   UNL     1     -47.343  40.633  27.295  1.00  0.00     0.148 A 
ATOM     20  C   UNL     1     -46.705  42.622  26.173  1.00  0.00     0.137 A 
ATOM     21  N   UNL     1     -48.662  40.834  27.131  1.00  0.00    -0.218 NA
ATOM     22  N   UNL     1     -48.021  42.865  25.992  1.00  0.00    -0.219 NA
ATOM     23  C   UNL     1     -48.909  41.980  26.478  1.00  0.00     0.120 A 
ATOM     24  H   UNL     1     -49.954  42.221  26.316  1.00  0.00     0.106 H 
BRANCH  15  25
ATOM     25  C   UNL     1     -43.745  41.369  27.134  1.00  0.00     0.095 A 
ATOM     26  N   UNL     1     -42.059  42.308  26.279  1.00  0.00    -0.275 N 
ATOM     27  C   UNL     1     -41.605  41.803  27.461  1.00  0.00     0.025 A 
ATOM     28  N   UNL     1     -43.360  42.055  26.052  1.00  0.00    -0.173 NA
ATOM     29  C   UNL     1     -42.682  41.171  28.039  1.00  0.00    -0.016 A 
ATOM     30  H   UNL     1     -40.578  41.918  27.781  1.00  0.00     0.084 H 
ATOM     31  H   UNL     1     -42.695  40.635  28.978  1.00  0.00     0.066 H 
BRANCH  26  32
ATOM     32  C   UNL     1     -41.300  43.046  25.300  1.00  0.00     0.030 C 
ATOM     33  H   UNL     1     -40.300  43.249  25.691  1.00  0.00     0.048 H 
ATOM     34  H   UNL     1     -41.229  42.441  24.391  1.00  0.00     0.048 H 
ATOM     35  H   UNL     1     -41.819  43.986  25.097  1.00  0.00     0.048 H 
ENDBRANCH  26  32
ENDBRANCH  15  25
BRANCH  20  36
ATOM     36  N   UNL     1     -45.831  43.537  25.598  1.00  0.00    -0.383 N 
ATOM     37  H   UNL     1     -46.256  44.089  24.862  1.00  0.00     0.158 HD
ATOM     38  H   UNL     1     -45.370  44.071  26.327  1.00  0.00     0.158 HD
ENDBRANCH  20  36
ENDBRANCH   5  14
BRANCH   9  39
ATOM     39  O   UNL     1     -49.556  36.302  28.941  1.00  0.00    -0.387 OA
ATOM     40  H   UNL     1     -49.309  35.892  29.790  1.00  0.00     0.211 HD
ENDBRANCH   9  39
ENDBRANCH   1   4
BRANCH   1  41
ATOM     41  O   UNL     1     -46.035  34.103  28.252  1.00  0.00    -0.491 OA
BRANCH  41  42
ATOM     42  C   UNL     1     -46.465  33.416  27.152  1.00  0.00     0.121 A 
ATOM     43  C   UNL     1     -46.162  34.030  25.938  1.00  0.00    -0.019 A 
ATOM     44  C   UNL     1     -47.163  32.207  27.149  1.00  0.00     0.007 A 
ATOM     45  C   UNL     1     -46.551  33.442  24.735  1.00  0.00    -0.049 A 
ATOM     46  H   UNL     1     -45.616  34.970  25.928  1.00  0.00     0.066 H 
ATOM     47  C   UNL     1     -47.567  31.601  25.964  1.00  0.00     0.076 A 
ATOM     48  H   UNL     1     -47.420  31.691  28.068  1.00  0.00     0.069 H 
ATOM     49  C   UNL     1     -47.254  32.230  24.744  1.00  0.00     0.001 A 
ATOM     50  H   UNL     1     -46.303  33.936  23.798  1.00  0.00     0.063 H 
ATOM     51  N   UNL     1     -48.245  30.442  26.022  1.00  0.00    -0.231 NA
ATOM     52  C   UNL     1     -47.670  31.608  23.564  1.00  0.00    -0.049 A 
ATOM     53  C   UNL     1     -48.631  29.846  24.877  1.00  0.00     0.126 A 
ATOM     54  C   UNL     1     -48.369  30.407  23.632  1.00  0.00    -0.019 A 
ATOM     55  H   UNL     1     -47.464  32.052  22.594  1.00  0.00     0.063 H 
ATOM     56  H   UNL     1     -48.714  29.925  22.725  1.00  0.00     0.066 H 
BRANCH  53  57
ATOM     57  N   UNL     1     -49.369  28.642  24.929  1.00  0.00    -0.367 N 
ATOM     58  H   UNL     1     -49.999  28.614  24.132  1.00  0.00     0.162 HD
BRANCH  57  59
ATOM     59  C   UNL     1     -48.729  27.377  25.171  1.00  0.00     0.030 C 
ATOM     60  C   UNL     1     -48.352  27.182  26.660  1.00  0.00    -0.017 C 
ATOM     61  C   UNL     1     -49.720  26.199  25.327  1.00  0.00    -0.017 C 
ATOM     62  H   UNL     1     -47.895  27.187  24.485  1.00  0.00     0.053 H 
ATOM     63  C   UNL     1     -48.935  25.756  26.578  1.00  0.00     0.008 C 
ATOM     64  H   UNL     1     -48.904  27.824  27.359  1.00  0.00     0.030 H 
ATOM     65  H   UNL     1     -47.286  27.272  26.893  1.00  0.00     0.030 H 
ATOM     66  H   UNL     1     -50.751  26.497  25.559  1.00  0.00     0.030 H 
ATOM     67  H   UNL     1     -49.756  25.497  24.486  1.00  0.00     0.030 H 
ATOM     68  H   UNL     1     -49.531  25.422  27.431  1.00  0.00     0.046 H 
BRANCH  63  69
ATOM     69  N   UNL     1     -47.874  24.834  26.175  1.00  0.00    -0.328 NA
ATOM     70  H   UNL     1     -46.934  25.205  26.306  1.00  0.00     0.119 HD
ATOM     71  H   UNL     1     -47.896  23.941  26.666  1.00  0.00     0.119 HD
ENDBRANCH  63  69
ENDBRANCH  57  59
ENDBRANCH  53  57
ENDBRANCH  41  42
ENDBRANCH   1  41
TORSDOF 11
ENDMDL
MODEL 3
REMARK VINA RESULT:      -9.1      2.490      3.259
REMARK SMILES Cn1ccc(-c2cn([C@@H]3O[C@H](COc4ccc5ccc(N[C@H]6C[C@H](N)C6)nc5c4)[C@@H](O)[C@@H]3F)c3ncnc(N)c23)n1
REMARK SMILES IDX 12 1 11 4 9 5 10 6 32 7 30 9 33 10 8 14 6 15 7 16 40 17
REMARK SMILES IDX 34 19 38 20 35 21 37 22 36 23 5 25 2 26 3 27 41 28 4 29 1 32
REMARK SMILES IDX 39 36 31 39 13 41 14 42 15 43 29 44 16 45 28 47 17 49 27 51
REMARK SMILES IDX 18 52 20 53 19 54 21 57 22 59 23 60 26 61 24 63 25 69
REMARK H PARENT 12 2 12 3 9 8 32 11 11 12 30 13 7 18 36 24 3 30 4 31 1 33 1 34
REMARK H PARENT 1 35 39 37 39 38 31 40 15 46 29 48 16 50 18 55 19 56 21 58
REMARK H PARENT 22 62 23 64 23 65 26 66 26 67 24 68 25 70 25 71
REMARK Flexibility Score: inf
ROOT
ATOM      1  C   UNL     1     -46.789  35.524  26.209  1.00  0.00     0.117 C 
ATOM      2  H   UNL     1     -46.039  35.327  25.432  1.00  0.00     0.073 H 
ATOM      3  H   UNL     1     -47.351  36.381  25.823  1.00  0.00     0.073 H 
ENDROOT
BRANCH   1   4
ATOM      4  C   UNL     1     -46.140  35.894  27.550  1.00  0.00     0.123 C 
ATOM      5  C   UNL     1     -46.603  37.993  28.465  1.00  0.00     0.169 C 
ATOM      6  O   UNL     1     -45.766  37.286  27.516  1.00  0.00    -0.345 OA
ATOM      7  C   UNL     1     -47.737  37.056  28.862  1.00  0.00     0.173 C 
ATOM      8  H   UNL     1     -45.960  38.225  29.323  1.00  0.00     0.088 H 
ATOM      9  C   UNL     1     -47.074  35.705  28.751  1.00  0.00     0.119 C 
ATOM     10  F   UNL     1     -48.758  37.107  27.960  1.00  0.00    -0.239 F 
ATOM     11  H   UNL     1     -48.143  37.282  29.853  1.00  0.00     0.074 H 
ATOM     12  H   UNL     1     -45.222  35.314  27.695  1.00  0.00     0.067 H 
ATOM     13  H   UNL     1     -47.790  34.889  28.624  1.00  0.00     0.066 H 
BRANCH   5  14
ATOM     14  N   UNL     1     -47.052  39.254  27.900  1.00  0.00    -0.302 N 
ATOM     15  C   UNL     1     -48.285  41.013  27.317  1.00  0.00     0.033 A 
ATOM     16  C   UNL     1     -48.292  39.825  28.023  1.00  0.00     0.019 A 
ATOM     17  C   UNL     1     -46.975  41.200  26.784  1.00  0.00     0.071 A 
ATOM     18  H   UNL     1     -49.086  39.346  28.580  1.00  0.00     0.083 H 
ATOM     19  C   UNL     1     -46.246  40.071  27.145  1.00  0.00     0.148 A 
ATOM     20  C   UNL     1     -46.276  42.175  26.053  1.00  0.00     0.137 A 
ATOM     21  N   UNL     1     -44.964  39.806  26.837  1.00  0.00    -0.218 NA
ATOM     22  N   UNL     1     -44.989  41.946  25.716  1.00  0.00    -0.219 NA
ATOM     23  C   UNL     1     -44.418  40.794  26.111  1.00  0.00     0.120 A 
ATOM     24  H   UNL     1     -43.386  40.650  25.810  1.00  0.00     0.106 H 
BRANCH  15  25
ATOM     25  C   UNL     1     -49.430  41.905  27.162  1.00  0.00     0.095 A 
ATOM     26  N   UNL     1     -50.615  43.653  27.183  1.00  0.00    -0.275 N 
ATOM     27  C   UNL     1     -51.476  42.661  26.815  1.00  0.00     0.025 A 
ATOM     28  N   UNL     1     -49.362  43.220  27.405  1.00  0.00    -0.173 NA
ATOM     29  C   UNL     1     -50.734  41.503  26.805  1.00  0.00    -0.016 A 
ATOM     30  H   UNL     1     -52.521  42.852  26.610  1.00  0.00     0.084 H 
ATOM     31  H   UNL     1     -51.087  40.506  26.578  1.00  0.00     0.066 H 
BRANCH  26  32
ATOM     32  C   UNL     1     -50.921  45.052  27.353  1.00  0.00     0.030 C 
ATOM     33  H   UNL     1     -52.005  45.184  27.410  1.00  0.00     0.048 H 
ATOM     34  H   UNL     1     -50.455  45.397  28.280  1.00  0.00     0.048 H 
ATOM     35  H   UNL     1     -50.523  45.599  26.495  1.00  0.00     0.048 H 
ENDBRANCH  26  32
ENDBRANCH  15  25
BRANCH  20  36
ATOM     36  N   UNL     1     -46.797  43.406  25.672  1.00  0.00    -0.383 N 
ATOM     37  H   UNL     1     -47.808  43.409  25.605  1.00  0.00     0.158 HD
ATOM     38  H   UNL     1     -46.401  44.137  26.253  1.00  0.00     0.158 HD
ENDBRANCH  20  36
ENDBRANCH   5  14
BRANCH   9  39
ATOM     39  O   UNL     1     -46.324  35.452  29.945  1.00  0.00    -0.387 OA
ATOM     40  H   UNL     1     -46.963  35.313  30.668  1.00  0.00     0.211 HD
ENDBRANCH   9  39
ENDBRANCH   1   4
BRANCH   1  41
ATOM     41  O   UNL     1     -47.720  34.451  26.349  1.00  0.00    -0.491 OA
BRANCH  41  42
ATOM     42  C   UNL     1     -47.535  33.313  25.615  1.00  0.00     0.121 A 
ATOM     43  C   UNL     1     -46.310  33.251  24.953  1.00  0.00    -0.019 A 
ATOM     44  C   UNL     1     -48.441  32.260  25.474  1.00  0.00     0.007 A 
ATOM     45  C   UNL     1     -45.994  32.150  24.159  1.00  0.00    -0.049 A 
ATOM     46  H   UNL     1     -45.595  34.064  25.058  1.00  0.00     0.066 H 
ATOM     47  C   UNL     1     -48.153  31.152  24.685  1.00  0.00     0.076 A 
ATOM     48  H   UNL     1     -49.405  32.263  25.971  1.00  0.00     0.069 H 
ATOM     49  C   UNL     1     -46.912  31.100  24.022  1.00  0.00     0.001 A 
ATOM     50  H   UNL     1     -45.033  32.118  23.651  1.00  0.00     0.063 H 
ATOM     51  N   UNL     1     -49.067  30.173  24.578  1.00  0.00    -0.231 NA
ATOM     52  C   UNL     1     -46.642  29.980  23.231  1.00  0.00    -0.049 A 
ATOM     53  C   UNL     1     -48.790  29.092  23.822  1.00  0.00     0.126 A 
ATOM     54  C   UNL     1     -47.592  28.969  23.128  1.00  0.00    -0.019 A 
ATOM     55  H   UNL     1     -45.704  29.889  22.690  1.00  0.00     0.063 H 
ATOM     56  H   UNL     1     -47.402  28.104  22.502  1.00  0.00     0.066 H 
BRANCH  53  57
ATOM     57  N   UNL     1     -49.757  28.070  23.680  1.00  0.00    -0.367 N 
ATOM     58  H   UNL     1     -49.336  27.295  23.177  1.00  0.00     0.162 HD
BRANCH  57  59
ATOM     59  C   UNL     1     -50.561  27.635  24.791  1.00  0.00     0.030 C 
ATOM     60  C   UNL     1     -51.041  26.172  24.633  1.00  0.00    -0.017 C 
ATOM     61  C   UNL     1     -49.733  27.173  26.014  1.00  0.00    -0.017 C 
ATOM     62  H   UNL     1     -51.373  28.335  25.024  1.00  0.00     0.053 H 
ATOM     63  C   UNL     1     -50.635  25.925  26.102  1.00  0.00     0.008 C 
ATOM     64  H   UNL     1     -50.453  25.571  23.927  1.00  0.00     0.030 H 
ATOM     65  H   UNL     1     -52.098  26.046  24.381  1.00  0.00     0.030 H 
ATOM     66  H   UNL     1     -48.688  26.924  25.789  1.00  0.00     0.030 H 
ATOM     67  H   UNL     1     -49.738  27.853  26.872  1.00  0.00     0.030 H 
ATOM     68  H   UNL     1     -50.133  24.979  26.317  1.00  0.00     0.046 H 
BRANCH  63  69
ATOM     69  N   UNL     1     -51.778  26.222  26.964  1.00  0.00    -0.328 NA
ATOM     70  H   UNL     1     -51.609  26.976  27.628  1.00  0.00     0.119 HD
ATOM     71  H   UNL     1     -52.622  26.478  26.454  1.00  0.00     0.119 HD
ENDBRANCH  63  69
ENDBRANCH  57  59
ENDBRANCH  53  57
ENDBRANCH  41  42
ENDBRANCH   1  41
TORSDOF 11
ENDMDL
MODEL 4
REMARK VINA RESULT:      -8.9      3.250      6.323
REMARK SMILES Cn1ccc(-c2cn([C@@H]3O[C@H](COc4ccc5ccc(N[C@H]6C[C@H](N)C6)nc5c4)[C@@H](O)[C@@H]3F)c3ncnc(N)c23)n1
REMARK SMILES IDX 12 1 11 4 9 5 10 6 32 7 30 9 33 10 8 14 6 15 7 16 40 17
REMARK SMILES IDX 34 19 38 20 35 21 37 22 36 23 5 25 2 26 3 27 41 28 4 29 1 32
REMARK SMILES IDX 39 36 31 39 13 41 14 42 15 43 29 44 16 45 28 47 17 49 27 51
REMARK SMILES IDX 18 52 20 53 19 54 21 57 22 59 23 60 26 61 24 63 25 69
REMARK H PARENT 12 2 12 3 9 8 32 11 11 12 30 13 7 18 36 24 3 30 4 31 1 33 1 34
REMARK H PARENT 1 35 39 37 39 38 31 40 15 46 29 48 16 50 18 55 19 56 21 58
REMARK H PARENT 22 62 23 64 23 65 26 66 26 67 24 68 25 70 25 71
REMARK Flexibility Score: inf
ROOT
ATOM      1  C   UNL     1     -43.909  40.352  28.212  1.00  0.00     0.117 C 
ATOM      2  H   UNL     1     -43.600  40.808  29.161  1.00  0.00     0.073 H 
ATOM      3  H   UNL     1     -43.795  39.276  28.388  1.00  0.00     0.073 H 
ENDROOT
BRANCH   1   4
ATOM      4  C   UNL     1     -43.007  40.783  27.049  1.00  0.00     0.123 C 
ATOM      5  C   UNL     1     -43.617  42.669  25.812  1.00  0.00     0.169 C 
ATOM      6  O   UNL     1     -43.837  41.245  25.964  1.00  0.00    -0.345 OA
ATOM      7  C   UNL     1     -42.865  43.151  27.046  1.00  0.00     0.173 C 
ATOM      8  H   UNL     1     -43.010  42.788  24.905  1.00  0.00     0.088 H 
ATOM      9  C   UNL     1     -42.055  41.929  27.409  1.00  0.00     0.119 C 
ATOM     10  F   UNL     1     -43.721  43.417  28.073  1.00  0.00    -0.239 F 
ATOM     11  H   UNL     1     -42.270  44.048  26.854  1.00  0.00     0.074 H 
ATOM     12  H   UNL     1     -42.435  39.925  26.678  1.00  0.00     0.067 H 
ATOM     13  H   UNL     1     -41.740  41.925  28.456  1.00  0.00     0.066 H 
BRANCH   5  14
ATOM     14  N   UNL     1     -44.878  43.353  25.587  1.00  0.00    -0.302 N 
ATOM     15  C   UNL     1     -47.021  43.954  25.646  1.00  0.00     0.033 A 
ATOM     16  C   UNL     1     -46.094  43.061  26.149  1.00  0.00     0.019 A 
ATOM     17  C   UNL     1     -46.336  44.859  24.782  1.00  0.00     0.071 A 
ATOM     18  H   UNL     1     -46.217  42.240  26.843  1.00  0.00     0.083 H 
ATOM     19  C   UNL     1     -45.011  44.434  24.750  1.00  0.00     0.148 A 
ATOM     20  C   UNL     1     -46.634  46.002  24.022  1.00  0.00     0.137 A 
ATOM     21  N   UNL     1     -44.007  44.981  24.043  1.00  0.00    -0.218 NA
ATOM     22  N   UNL     1     -45.656  46.578  23.291  1.00  0.00    -0.219 NA
ATOM     23  C   UNL     1     -44.423  46.042  23.334  1.00  0.00     0.120 A 
ATOM     24  H   UNL     1     -43.672  46.534  22.725  1.00  0.00     0.106 H 
BRANCH  15  25
ATOM     25  C   UNL     1     -48.447  43.953  25.963  1.00  0.00     0.095 A 
ATOM     26  N   UNL     1     -50.502  43.474  25.907  1.00  0.00    -0.275 N 
ATOM     27  C   UNL     1     -50.413  44.487  26.815  1.00  0.00     0.025 A 
ATOM     28  N   UNL     1     -49.320  43.131  25.368  1.00  0.00    -0.173 NA
ATOM     29  C   UNL     1     -49.082  44.831  26.865  1.00  0.00    -0.016 A 
ATOM     30  H   UNL     1     -51.280  44.880  27.329  1.00  0.00     0.084 H 
ATOM     31  H   UNL     1     -48.634  45.613  27.464  1.00  0.00     0.066 H 
BRANCH  26  32
ATOM     32  C   UNL     1     -51.697  42.782  25.491  1.00  0.00     0.030 C 
ATOM     33  H   UNL     1     -52.134  42.262  26.348  1.00  0.00     0.048 H 
ATOM     34  H   UNL     1     -52.405  43.519  25.103  1.00  0.00     0.048 H 
ATOM     35  H   UNL     1     -51.426  42.061  24.715  1.00  0.00     0.048 H 
ENDBRANCH  26  32
ENDBRANCH  15  25
BRANCH  20  36
ATOM     36  N   UNL     1     -47.873  46.632  23.988  1.00  0.00    -0.383 N 
ATOM     37  H   UNL     1     -47.809  47.634  23.855  1.00  0.00     0.158 HD
ATOM     38  H   UNL     1     -48.482  46.148  23.336  1.00  0.00     0.158 HD
ENDBRANCH  20  36
ENDBRANCH   5  14
BRANCH   9  39
ATOM     39  O   UNL     1     -40.877  41.890  26.594  1.00  0.00    -0.387 OA
ATOM     40  H   UNL     1     -40.189  42.411  27.047  1.00  0.00     0.211 HD
ENDBRANCH   9  39
ENDBRANCH   1   4
BRANCH   1  41
ATOM     41  O   UNL     1     -45.289  40.577  27.924  1.00  0.00    -0.491 OA
BRANCH  41  42
ATOM     42  C   UNL     1     -46.120  39.502  27.781  1.00  0.00     0.121 A 
ATOM     43  C   UNL     1     -47.447  39.753  28.128  1.00  0.00    -0.019 A 
ATOM     44  C   UNL     1     -45.760  38.226  27.344  1.00  0.00     0.007 A 
ATOM     45  C   UNL     1     -48.401  38.742  28.040  1.00  0.00    -0.049 A 
ATOM     46  H   UNL     1     -47.740  40.744  28.467  1.00  0.00     0.066 H 
ATOM     47  C   UNL     1     -46.691  37.198  27.250  1.00  0.00     0.076 A 
ATOM     48  H   UNL     1     -44.741  37.984  27.061  1.00  0.00     0.069 H 
ATOM     49  C   UNL     1     -48.028  37.464  27.603  1.00  0.00     0.001 A 
ATOM     50  H   UNL     1     -49.432  38.957  28.313  1.00  0.00     0.063 H 
ATOM     51  N   UNL     1     -46.285  35.987  26.833  1.00  0.00    -0.231 NA
ATOM     52  C   UNL     1     -48.949  36.417  27.505  1.00  0.00    -0.049 A 
ATOM     53  C   UNL     1     -47.184  34.988  26.732  1.00  0.00     0.126 A 
ATOM     54  C   UNL     1     -48.521  35.167  27.069  1.00  0.00    -0.019 A 
ATOM     55  H   UNL     1     -49.992  36.562  27.771  1.00  0.00     0.063 H 
ATOM     56  H   UNL     1     -49.222  34.342  27.008  1.00  0.00     0.066 H 
BRANCH  53  57
ATOM     57  N   UNL     1     -46.761  33.704  26.321  1.00  0.00    -0.367 N 
ATOM     58  H   UNL     1     -46.769  33.087  27.128  1.00  0.00     0.162 HD
BRANCH  57  59
ATOM     59  C   UNL     1     -47.297  33.076  25.143  1.00  0.00     0.030 C 
ATOM     60  C   UNL     1     -46.309  32.062  24.515  1.00  0.00    -0.017 C 
ATOM     61  C   UNL     1     -48.237  31.885  25.446  1.00  0.00    -0.017 C 
ATOM     62  H   UNL     1     -47.692  33.800  24.420  1.00  0.00     0.053 H 
ATOM     63  C   UNL     1     -47.481  31.067  24.379  1.00  0.00     0.008 C 
ATOM     64  H   UNL     1     -45.528  31.703  25.197  1.00  0.00     0.030 H 
ATOM     65  H   UNL     1     -45.823  32.388  23.589  1.00  0.00     0.030 H 
ATOM     66  H   UNL     1     -48.130  31.465  26.454  1.00  0.00     0.030 H 
ATOM     67  H   UNL     1     -49.303  32.068  25.270  1.00  0.00     0.030 H 
ATOM     68  H   UNL     1     -47.269  30.026  24.628  1.00  0.00     0.046 H 
BRANCH  63  69
ATOM     69  N   UNL     1     -48.123  31.268  23.080  1.00  0.00    -0.328 NA
ATOM     70  H   UNL     1     -47.932  30.527  22.407  1.00  0.00     0.119 HD
ATOM     71  H   UNL     1     -49.138  31.347  23.131  1.00  0.00     0.119 HD
ENDBRANCH  63  69
ENDBRANCH  57  59
ENDBRANCH  53  57
ENDBRANCH  41  42
ENDBRANCH   1  41
TORSDOF 11
ENDMDL
MODEL 5
REMARK VINA RESULT:      -8.9      5.310      8.561
REMARK SMILES Cn1ccc(-c2cn([C@@H]3O[C@H](COc4ccc5ccc(N[C@H]6C[C@H](N)C6)nc5c4)[C@@H](O)[C@@H]3F)c3ncnc(N)c23)n1
REMARK SMILES IDX 12 1 11 4 9 5 10 6 32 7 30 9 33 10 8 14 6 15 7 16 40 17
REMARK SMILES IDX 34 19 38 20 35 21 37 22 36 23 5 25 2 26 3 27 41 28 4 29 1 32
REMARK SMILES IDX 39 36 31 39 13 41 14 42 15 43 29 44 16 45 28 47 17 49 27 51
REMARK SMILES IDX 18 52 20 53 19 54 21 57 22 59 23 60 26 61 24 63 25 69
REMARK H PARENT 12 2 12 3 9 8 32 11 11 12 30 13 7 18 36 24 3 30 4 31 1 33 1 34
REMARK H PARENT 1 35 39 37 39 38 31 40 15 46 29 48 16 50 18 55 19 56 21 58
REMARK H PARENT 22 62 23 64 23 65 26 66 26 67 24 68 25 70 25 71
REMARK Flexibility Score: inf
ROOT
ATOM      1  C   UNL     1     -47.588  36.638  27.263  1.00  0.00     0.117 C 
ATOM      2  H   UNL     1     -47.476  36.173  26.275  1.00  0.00     0.073 H 
ATOM      3  H   UNL     1     -47.525  37.713  27.058  1.00  0.00     0.073 H 
ENDROOT
BRANCH   1   4
ATOM      4  C   UNL     1     -46.460  36.228  28.220  1.00  0.00     0.123 C 
ATOM      5  C   UNL     1     -44.951  37.867  28.925  1.00  0.00     0.169 C 
ATOM      6  O   UNL     1     -45.260  36.939  27.855  1.00  0.00    -0.345 OA
ATOM      7  C   UNL     1     -46.175  37.949  29.827  1.00  0.00     0.173 C 
ATOM      8  H   UNL     1     -44.092  37.441  29.458  1.00  0.00     0.088 H 
ATOM      9  C   UNL     1     -46.755  36.562  29.687  1.00  0.00     0.119 C 
ATOM     10  F   UNL     1     -47.085  38.843  29.346  1.00  0.00    -0.239 F 
ATOM     11  H   UNL     1     -45.925  38.233  30.853  1.00  0.00     0.074 H 
ATOM     12  H   UNL     1     -46.249  35.158  28.115  1.00  0.00     0.067 H 
ATOM     13  H   UNL     1     -47.818  36.518  29.941  1.00  0.00     0.066 H 
BRANCH   5  14
ATOM     14  N   UNL     1     -44.537  39.147  28.377  1.00  0.00    -0.302 N 
ATOM     15  C   UNL     1     -44.369  40.978  27.123  1.00  0.00     0.033 A 
ATOM     16  C   UNL     1     -45.076  39.805  27.302  1.00  0.00     0.019 A 
ATOM     17  C   UNL     1     -43.392  41.066  28.160  1.00  0.00     0.071 A 
ATOM     18  H   UNL     1     -45.901  39.391  26.737  1.00  0.00     0.083 H 
ATOM     19  C   UNL     1     -43.511  39.895  28.902  1.00  0.00     0.148 A 
ATOM     20  C   UNL     1     -42.421  41.979  28.603  1.00  0.00     0.137 A 
ATOM     21  N   UNL     1     -42.772  39.537  29.966  1.00  0.00    -0.218 NA
ATOM     22  N   UNL     1     -41.652  41.656  29.664  1.00  0.00    -0.219 NA
ATOM     23  C   UNL     1     -41.860  40.473  30.270  1.00  0.00     0.120 A 
ATOM     24  H   UNL     1     -41.213  40.254  31.113  1.00  0.00     0.106 H 
BRANCH  15  25
ATOM     25  C   UNL     1     -44.603  41.946  26.054  1.00  0.00     0.095 A 
ATOM     26  N   UNL     1     -44.260  43.213  24.401  1.00  0.00    -0.275 N 
ATOM     27  C   UNL     1     -45.548  43.471  24.767  1.00  0.00     0.025 A 
ATOM     28  N   UNL     1     -43.658  42.291  25.171  1.00  0.00    -0.173 NA
ATOM     29  C   UNL     1     -45.798  42.667  25.855  1.00  0.00    -0.016 A 
ATOM     30  H   UNL     1     -46.161  44.196  24.248  1.00  0.00     0.084 H 
ATOM     31  H   UNL     1     -46.714  42.614  26.428  1.00  0.00     0.066 H 
BRANCH  26  32
ATOM     32  C   UNL     1     -43.524  43.821  23.320  1.00  0.00     0.030 C 
ATOM     33  H   UNL     1     -44.092  43.719  22.391  1.00  0.00     0.048 H 
ATOM     34  H   UNL     1     -43.379  44.879  23.552  1.00  0.00     0.048 H 
ATOM     35  H   UNL     1     -42.562  43.311  23.227  1.00  0.00     0.048 H 
ENDBRANCH  26  32
ENDBRANCH  15  25
BRANCH  20  36
ATOM     36  N   UNL     1     -42.206  43.237  28.053  1.00  0.00    -0.383 N 
ATOM     37  H   UNL     1     -42.371  43.994  28.707  1.00  0.00     0.158 HD
ATOM     38  H   UNL     1     -41.302  43.256  27.592  1.00  0.00     0.158 HD
ENDBRANCH  20  36
ENDBRANCH   5  14
BRANCH   9  39
ATOM     39  O   UNL     1     -46.054  35.671  30.564  1.00  0.00    -0.387 OA
ATOM     40  H   UNL     1     -46.632  35.499  31.330  1.00  0.00     0.211 HD
ENDBRANCH   9  39
ENDBRANCH   1   4
BRANCH   1  41
ATOM     41  O   UNL     1     -48.876  36.403  27.831  1.00  0.00    -0.491 OA
BRANCH  41  42
ATOM     42  C   UNL     1     -49.678  37.472  28.118  1.00  0.00     0.121 A 
ATOM     43  C   UNL     1     -50.908  37.131  28.679  1.00  0.00    -0.019 A 
ATOM     44  C   UNL     1     -49.381  38.817  27.893  1.00  0.00     0.007 A 
ATOM     45  C   UNL     1     -51.830  38.123  29.011  1.00  0.00    -0.049 A 
ATOM     46  H   UNL     1     -51.150  36.087  28.861  1.00  0.00     0.066 H 
ATOM     47  C   UNL     1     -50.284  39.826  28.211  1.00  0.00     0.076 A 
ATOM     48  H   UNL     1     -48.437  39.131  27.461  1.00  0.00     0.069 H 
ATOM     49  C   UNL     1     -51.522  39.470  28.778  1.00  0.00     0.001 A 
ATOM     50  H   UNL     1     -52.783  37.837  29.449  1.00  0.00     0.063 H 
ATOM     51  N   UNL     1     -49.947  41.103  27.964  1.00  0.00    -0.231 NA
ATOM     52  C   UNL     1     -52.417  40.497  29.088  1.00  0.00    -0.049 A 
ATOM     53  C   UNL     1     -50.815  42.087  28.278  1.00  0.00     0.126 A 
ATOM     54  C   UNL     1     -52.061  41.817  28.832  1.00  0.00    -0.019 A 
ATOM     55  H   UNL     1     -53.391  40.281  29.520  1.00  0.00     0.063 H 
ATOM     56  H   UNL     1     -52.754  42.621  29.050  1.00  0.00     0.066 H 
BRANCH  53  57
ATOM     57  N   UNL     1     -50.482  43.431  27.995  1.00  0.00    -0.367 N 
ATOM     58  H   UNL     1     -51.226  44.028  28.343  1.00  0.00     0.162 HD
BRANCH  57  59
ATOM     59  C   UNL     1     -49.174  43.958  28.278  1.00  0.00     0.030 C 
ATOM     60  C   UNL     1     -48.681  44.933  27.181  1.00  0.00    -0.017 C 
ATOM     61  C   UNL     1     -49.184  45.155  29.258  1.00  0.00    -0.017 C 
ATOM     62  H   UNL     1     -48.445  43.174  28.519  1.00  0.00     0.053 H 
ATOM     63  C   UNL     1     -48.232  45.898  28.299  1.00  0.00     0.008 C 
ATOM     64  H   UNL     1     -49.477  45.356  26.554  1.00  0.00     0.030 H 
ATOM     65  H   UNL     1     -47.903  44.544  26.517  1.00  0.00     0.030 H 
ATOM     66  H   UNL     1     -50.158  45.654  29.358  1.00  0.00     0.030 H 
ATOM     67  H   UNL     1     -48.811  44.944  30.266  1.00  0.00     0.030 H 
ATOM     68  H   UNL     1     -48.436  46.959  28.139  1.00  0.00     0.046 H 
BRANCH  63  69
ATOM     69  N   UNL     1     -46.850  45.588  28.663  1.00  0.00    -0.328 NA
ATOM     70  H   UNL     1     -46.219  46.386  28.602  1.00  0.00     0.119 HD
ATOM     71  H   UNL     1     -46.747  45.218  29.608  1.00  0.00     0.119 HD
ENDBRANCH  63  69
ENDBRANCH  57  59
ENDBRANCH  53  57
ENDBRANCH  41  42
ENDBRANCH   1  41
TORSDOF 11
ENDMDL
MODEL 6
REMARK VINA RESULT:      -8.9      1.801      2.686
REMARK SMILES Cn1ccc(-c2cn([C@@H]3O[C@H](COc4ccc5ccc(N[C@H]6C[C@H](N)C6)nc5c4)[C@@H](O)[C@@H]3F)c3ncnc(N)c23)n1
REMARK SMILES IDX 12 1 11 4 9 5 10 6 32 7 30 9 33 10 8 14 6 15 7 16 40 17
REMARK SMILES IDX 34 19 38 20 35 21 37 22 36 23 5 25 2 26 3 27 41 28 4 29 1 32
REMARK SMILES IDX 39 36 31 39 13 41 14 42 15 43 29 44 16 45 28 47 17 49 27 51
REMARK SMILES IDX 18 52 20 53 19 54 21 57 22 59 23 60 26 61 24 63 25 69
REMARK H PARENT 12 2 12 3 9 8 32 11 11 12 30 13 7 18 36 24 3 30 4 31 1 33 1 34
REMARK H PARENT 1 35 39 37 39 38 31 40 15 46 29 48 16 50 18 55 19 56 21 58
REMARK H PARENT 22 62 23 64 23 65 26 66 26 67 24 68 25 70 25 71
REMARK Flexibility Score: inf
ROOT
ATOM      1  C   UNL     1     -46.452  36.143  26.600  1.00  0.00     0.117 C 
ATOM      2  H   UNL     1     -46.212  37.052  26.034  1.00  0.00     0.073 H 
ATOM      3  H   UNL     1     -47.545  36.086  26.557  1.00  0.00     0.073 H 
ENDROOT
BRANCH   1   4
ATOM      4  C   UNL     1     -45.996  36.241  28.062  1.00  0.00     0.123 C 
ATOM      5  C   UNL     1     -45.300  38.320  28.870  1.00  0.00     0.169 C 
ATOM      6  O   UNL     1     -44.874  37.144  28.138  1.00  0.00    -0.345 OA
ATOM      7  C   UNL     1     -46.819  38.271  28.971  1.00  0.00     0.173 C 
ATOM      8  H   UNL     1     -44.833  38.247  29.860  1.00  0.00     0.088 H 
ATOM      9  C   UNL     1     -47.078  36.783  29.002  1.00  0.00     0.119 C 
ATOM     10  F   UNL     1     -47.405  38.783  27.852  1.00  0.00    -0.239 F 
ATOM     11  H   UNL     1     -47.202  38.815  29.839  1.00  0.00     0.074 H 
ATOM     12  H   UNL     1     -45.651  35.263  28.413  1.00  0.00     0.067 H 
ATOM     13  H   UNL     1     -48.095  36.523  28.696  1.00  0.00     0.066 H 
BRANCH   5  14
ATOM     14  N   UNL     1     -44.791  39.522  28.232  1.00  0.00    -0.302 N 
ATOM     15  C   UNL     1     -44.506  41.256  26.866  1.00  0.00     0.033 A 
ATOM     16  C   UNL     1     -45.311  40.168  27.141  1.00  0.00     0.019 A 
ATOM     17  C   UNL     1     -43.482  41.306  27.858  1.00  0.00     0.071 A 
ATOM     18  H   UNL     1     -46.195  39.804  26.633  1.00  0.00     0.083 H 
ATOM     19  C   UNL     1     -43.678  40.195  28.673  1.00  0.00     0.148 A 
ATOM     20  C   UNL     1     -42.411  42.145  28.210  1.00  0.00     0.137 A 
ATOM     21  N   UNL     1     -42.930  39.828  29.728  1.00  0.00    -0.218 NA
ATOM     22  N   UNL     1     -41.631  41.809  29.259  1.00  0.00    -0.219 NA
ATOM     23  C   UNL     1     -41.922  40.687  29.942  1.00  0.00     0.120 A 
ATOM     24  H   UNL     1     -41.264  40.453  30.771  1.00  0.00     0.106 H 
BRANCH  15  25
ATOM     25  C   UNL     1     -44.693  42.180  25.751  1.00  0.00     0.095 A 
ATOM     26  N   UNL     1     -45.503  43.710  24.542  1.00  0.00    -0.275 N 
ATOM     27  C   UNL     1     -44.493  43.183  23.793  1.00  0.00     0.025 A 
ATOM     28  N   UNL     1     -45.650  43.115  25.739  1.00  0.00    -0.173 NA
ATOM     29  C   UNL     1     -43.951  42.170  24.552  1.00  0.00    -0.016 A 
ATOM     30  H   UNL     1     -44.256  43.550  22.804  1.00  0.00     0.084 H 
ATOM     31  H   UNL     1     -43.139  41.513  24.273  1.00  0.00     0.066 H 
BRANCH  26  32
ATOM     32  C   UNL     1     -46.385  44.790  24.175  1.00  0.00     0.030 C 
ATOM     33  H   UNL     1     -46.829  45.220  25.077  1.00  0.00     0.048 H 
ATOM     34  H   UNL     1     -45.801  45.550  23.649  1.00  0.00     0.048 H 
ATOM     35  H   UNL     1     -47.170  44.390  23.528  1.00  0.00     0.048 H 
ENDBRANCH  26  32
ENDBRANCH  15  25
BRANCH  20  36
ATOM     36  N   UNL     1     -42.102  43.344  27.579  1.00  0.00    -0.383 N 
ATOM     37  H   UNL     1     -41.905  43.237  26.590  1.00  0.00     0.158 HD
ATOM     38  H   UNL     1     -42.806  44.038  27.805  1.00  0.00     0.158 HD
ENDBRANCH  20  36
ENDBRANCH   5  14
BRANCH   9  39
ATOM     39  O   UNL     1     -46.882  36.302  30.337  1.00  0.00    -0.387 OA
ATOM     40  H   UNL     1     -46.958  35.331  30.313  1.00  0.00     0.211 HD
ENDBRANCH   9  39
ENDBRANCH   1   4
BRANCH   1  41
ATOM     41  O   UNL     1     -45.955  34.963  25.968  1.00  0.00    -0.491 OA
BRANCH  41  42
ATOM     42  C   UNL     1     -46.826  33.952  25.674  1.00  0.00     0.121 A 
ATOM     43  C   UNL     1     -48.029  34.010  26.375  1.00  0.00    -0.019 A 
ATOM     44  C   UNL     1     -46.611  32.905  24.775  1.00  0.00     0.007 A 
ATOM     45  C   UNL     1     -49.005  33.034  26.181  1.00  0.00    -0.049 A 
ATOM     46  H   UNL     1     -48.210  34.822  27.076  1.00  0.00     0.066 H 
ATOM     47  C   UNL     1     -47.565  31.916  24.565  1.00  0.00     0.076 A 
ATOM     48  H   UNL     1     -45.691  32.819  24.206  1.00  0.00     0.069 H 
ATOM     49  C   UNL     1     -48.777  31.986  25.278  1.00  0.00     0.001 A 
ATOM     50  H   UNL     1     -49.938  33.097  26.736  1.00  0.00     0.063 H 
ATOM     51  N   UNL     1     -47.299  30.928  23.695  1.00  0.00    -0.231 NA
ATOM     52  C   UNL     1     -49.723  30.982  25.057  1.00  0.00    -0.049 A 
ATOM     53  C   UNL     1     -48.225  29.971  23.481  1.00  0.00     0.126 A 
ATOM     54  C   UNL     1     -49.442  29.964  24.152  1.00  0.00    -0.019 A 
ATOM     55  H   UNL     1     -50.673  30.980  25.585  1.00  0.00     0.063 H 
ATOM     56  H   UNL     1     -50.160  29.168  23.986  1.00  0.00     0.066 H 
BRANCH  53  57
ATOM     57  N   UNL     1     -47.942  28.911  22.589  1.00  0.00    -0.367 N 
ATOM     58  H   UNL     1     -47.724  28.081  23.133  1.00  0.00     0.162 HD
BRANCH  57  59
ATOM     59  C   UNL     1     -48.794  28.626  21.466  1.00  0.00     0.030 C 
ATOM     60  C   UNL     1     -50.292  28.594  21.855  1.00  0.00    -0.017 C 
ATOM     61  C   UNL     1     -49.106  29.864  20.592  1.00  0.00    -0.017 C 
ATOM     62  H   UNL     1     -48.473  27.738  20.906  1.00  0.00     0.053 H 
ATOM     63  C   UNL     1     -50.592  29.451  20.608  1.00  0.00     0.008 C 
ATOM     64  H   UNL     1     -50.532  29.114  22.792  1.00  0.00     0.030 H 
ATOM     65  H   UNL     1     -50.748  27.599  21.897  1.00  0.00     0.030 H 
ATOM     66  H   UNL     1     -48.930  30.828  21.087  1.00  0.00     0.030 H 
ATOM     67  H   UNL     1     -48.606  29.892  19.617  1.00  0.00     0.030 H 
ATOM     68  H   UNL     1     -51.317  30.258  20.732  1.00  0.00     0.046 H 
BRANCH  63  69
ATOM     69  N   UNL     1     -50.853  28.563  19.475  1.00  0.00    -0.328 NA
ATOM     70  H   UNL     1     -51.453  28.972  18.760  1.00  0.00     0.119 HD
ATOM     71  H   UNL     1     -50.010  28.253  18.993  1.00  0.00     0.119 HD
ENDBRANCH  63  69
ENDBRANCH  57  59
ENDBRANCH  53  57
ENDBRANCH  41  42
ENDBRANCH   1  41
TORSDOF 11
ENDMDL
MODEL 7
REMARK VINA RESULT:      -8.8      4.598      8.591
REMARK SMILES Cn1ccc(-c2cn([C@@H]3O[C@H](COc4ccc5ccc(N[C@H]6C[C@H](N)C6)nc5c4)[C@@H](O)[C@@H]3F)c3ncnc(N)c23)n1
REMARK SMILES IDX 12 1 11 4 9 5 10 6 32 7 30 9 33 10 8 14 6 15 7 16 40 17
REMARK SMILES IDX 34 19 38 20 35 21 37 22 36 23 5 25 2 26 3 27 41 28 4 29 1 32
REMARK SMILES IDX 39 36 31 39 13 41 14 42 15 43 29 44 16 45 28 47 17 49 27 51
REMARK SMILES IDX 18 52 20 53 19 54 21 57 22 59 23 60 26 61 24 63 25 69
REMARK H PARENT 12 2 12 3 9 8 32 11 11 12 30 13 7 18 36 24 3 30 4 31 1 33 1 34
REMARK H PARENT 1 35 39 37 39 38 31 40 15 46 29 48 16 50 18 55 19 56 21 58
REMARK H PARENT 22 62 23 64 23 65 26 66 26 67 24 68 25 70 25 71
REMARK Flexibility Score: inf
ROOT
ATOM      1  C   UNL     1     -43.432  43.065  25.040  1.00  0.00     0.117 C 
ATOM      2  H   UNL     1     -43.029  43.330  26.026  1.00  0.00     0.073 H 
ATOM      3  H   UNL     1     -42.565  42.668  24.500  1.00  0.00     0.073 H 
ENDROOT
BRANCH   1   4
ATOM      4  C   UNL     1     -43.986  44.289  24.299  1.00  0.00     0.123 C 
ATOM      5  C   UNL     1     -46.173  44.968  24.760  1.00  0.00     0.169 C 
ATOM      6  O   UNL     1     -45.371  44.049  23.978  1.00  0.00    -0.345 OA
ATOM      7  C   UNL     1     -45.269  45.573  25.826  1.00  0.00     0.173 C 
ATOM      8  H   UNL     1     -46.528  45.734  24.059  1.00  0.00     0.088 H 
ATOM      9  C   UNL     1     -43.930  45.578  25.128  1.00  0.00     0.119 C 
ATOM     10  F   UNL     1     -45.180  44.760  26.916  1.00  0.00    -0.239 F 
ATOM     11  H   UNL     1     -45.610  46.557  26.159  1.00  0.00     0.074 H 
ATOM     12  H   UNL     1     -43.451  44.429  23.354  1.00  0.00     0.067 H 
ATOM     13  H   UNL     1     -43.088  45.615  25.824  1.00  0.00     0.066 H 
BRANCH   5  14
ATOM     14  N   UNL     1     -47.341  44.289  25.295  1.00  0.00    -0.302 N 
ATOM     15  C   UNL     1     -48.685  42.967  26.477  1.00  0.00     0.033 A 
ATOM     16  C   UNL     1     -47.372  43.360  26.302  1.00  0.00     0.019 A 
ATOM     17  C   UNL     1     -49.494  43.721  25.576  1.00  0.00     0.071 A 
ATOM     18  H   UNL     1     -46.471  43.035  26.805  1.00  0.00     0.083 H 
ATOM     19  C   UNL     1     -48.617  44.511  24.839  1.00  0.00     0.148 A 
ATOM     20  C   UNL     1     -50.858  43.873  25.277  1.00  0.00     0.137 A 
ATOM     21  N   UNL     1     -48.939  45.369  23.855  1.00  0.00    -0.218 NA
ATOM     22  N   UNL     1     -51.224  44.719  24.290  1.00  0.00    -0.219 NA
ATOM     23  C   UNL     1     -50.263  45.400  23.641  1.00  0.00     0.120 A 
ATOM     24  H   UNL     1     -50.603  46.061  22.851  1.00  0.00     0.106 H 
BRANCH  15  25
ATOM     25  C   UNL     1     -49.141  41.956  27.428  1.00  0.00     0.095 A 
ATOM     26  N   UNL     1     -49.718  40.092  28.235  1.00  0.00    -0.275 N 
ATOM     27  C   UNL     1     -49.942  40.984  29.242  1.00  0.00     0.025 A 
ATOM     28  N   UNL     1     -49.233  40.658  27.116  1.00  0.00    -0.173 NA
ATOM     29  C   UNL     1     -49.586  42.214  28.741  1.00  0.00    -0.016 A 
ATOM     30  H   UNL     1     -50.338  40.681  30.203  1.00  0.00     0.084 H 
ATOM     31  H   UNL     1     -49.647  43.167  29.251  1.00  0.00     0.066 H 
BRANCH  26  32
ATOM     32  C   UNL     1     -49.952  38.670  28.264  1.00  0.00     0.030 C 
ATOM     33  H   UNL     1     -49.023  38.152  28.517  1.00  0.00     0.048 H 
ATOM     34  H   UNL     1     -50.712  38.460  29.021  1.00  0.00     0.048 H 
ATOM     35  H   UNL     1     -50.296  38.356  27.275  1.00  0.00     0.048 H 
ENDBRANCH  26  32
ENDBRANCH  15  25
BRANCH  20  36
ATOM     36  N   UNL     1     -51.895  43.242  25.955  1.00  0.00    -0.383 N 
ATOM     37  H   UNL     1     -51.589  42.443  26.499  1.00  0.00     0.158 HD
ATOM     38  H   UNL     1     -52.435  43.931  26.467  1.00  0.00     0.158 HD
ENDBRANCH  20  36
ENDBRANCH   5  14
BRANCH   9  39
ATOM     39  O   UNL     1     -43.851  46.728  24.277  1.00  0.00    -0.387 OA
ATOM     40  H   UNL     1     -44.718  47.174  24.305  1.00  0.00     0.211 HD
ENDBRANCH   9  39
ENDBRANCH   1   4
BRANCH   1  41
ATOM     41  O   UNL     1     -44.390  42.010  25.110  1.00  0.00    -0.491 OA
BRANCH  41  42
ATOM     42  C   UNL     1     -44.412  41.206  26.215  1.00  0.00     0.121 A 
ATOM     43  C   UNL     1     -43.375  41.442  27.116  1.00  0.00    -0.019 A 
ATOM     44  C   UNL     1     -45.344  40.206  26.496  1.00  0.00     0.007 A 
ATOM     45  C   UNL     1     -43.270  40.687  28.283  1.00  0.00    -0.049 A 
ATOM     46  H   UNL     1     -42.645  42.222  26.910  1.00  0.00     0.066 H 
ATOM     47  C   UNL     1     -45.261  39.435  27.650  1.00  0.00     0.076 A 
ATOM     48  H   UNL     1     -46.170  39.986  25.827  1.00  0.00     0.069 H 
ATOM     49  C   UNL     1     -44.209  39.683  28.553  1.00  0.00     0.001 A 
ATOM     50  H   UNL     1     -42.455  40.887  28.974  1.00  0.00     0.063 H 
ATOM     51  N   UNL     1     -46.180  38.478  27.864  1.00  0.00    -0.231 NA
ATOM     52  C   UNL     1     -44.140  38.896  29.706  1.00  0.00    -0.049 A 
ATOM     53  C   UNL     1     -46.110  37.733  28.985  1.00  0.00     0.126 A 
ATOM     54  C   UNL     1     -45.097  37.910  29.921  1.00  0.00    -0.019 A 
ATOM     55  H   UNL     1     -43.346  39.038  30.434  1.00  0.00     0.063 H 
ATOM     56  H   UNL     1     -45.043  37.281  30.802  1.00  0.00     0.066 H 
BRANCH  53  57
ATOM     57  N   UNL     1     -47.055  36.706  29.204  1.00  0.00    -0.367 N 
ATOM     58  H   UNL     1     -47.980  37.065  28.983  1.00  0.00     0.162 HD
BRANCH  57  59
ATOM     59  C   UNL     1     -46.848  35.373  28.705  1.00  0.00     0.030 C 
ATOM     60  C   UNL     1     -47.616  35.112  27.386  1.00  0.00    -0.017 C 
ATOM     61  C   UNL     1     -45.534  35.206  27.906  1.00  0.00    -0.017 C 
ATOM     62  H   UNL     1     -47.023  34.604  29.467  1.00  0.00     0.053 H 
ATOM     63  C   UNL     1     -46.336  34.465  26.817  1.00  0.00     0.008 C 
ATOM     64  H   UNL     1     -47.909  36.018  26.840  1.00  0.00     0.030 H 
ATOM     65  H   UNL     1     -48.501  34.473  27.473  1.00  0.00     0.030 H 
ATOM     66  H   UNL     1     -45.098  36.147  27.543  1.00  0.00     0.030 H 
ATOM     67  H   UNL     1     -44.742  34.643  28.412  1.00  0.00     0.030 H 
ATOM     68  H   UNL     1     -46.085  34.706  25.782  1.00  0.00     0.046 H 
BRANCH  63  69
ATOM     69  N   UNL     1     -46.351  33.035  27.126  1.00  0.00    -0.328 NA
ATOM     70  H   UNL     1     -45.430  32.601  27.116  1.00  0.00     0.119 HD
ATOM     71  H   UNL     1     -46.757  32.815  28.035  1.00  0.00     0.119 HD
ENDBRANCH  63  69
ENDBRANCH  57  59
ENDBRANCH  53  57
ENDBRANCH  41  42
ENDBRANCH   1  41
TORSDOF 11
ENDMDL
