MODEL 1
REMARK VINA RESULT:     -10.4      0.000      0.000
REMARK SMILES CNc1ccc2ccc(OC[C@H]3O[C@@H](n4cc(-c5cn(C(C)C)cn5)c5c(N)ncnc54)[C@@H](F)[C@@H]3O)cc2n1
REMARK SMILES IDX 12 1 13 2 14 3 33 4 34 5 35 6 11 11 10 14 9 15 3 16 4 17
REMARK SMILES IDX 39 18 5 19 38 21 6 22 37 24 7 25 8 27 2 30 1 32 36 36 15 38
REMARK SMILES IDX 16 39 32 40 17 41 26 43 31 44 27 45 30 46 29 47 18 49 19 50
REMARK SMILES IDX 25 51 20 52 24 54 21 56 22 58 23 62 28 66
REMARK H PARENT 12 7 14 8 33 9 35 10 11 12 11 13 4 20 5 23 37 26 7 28 8 29
REMARK H PARENT 2 31 1 33 1 34 1 35 36 37 16 42 30 48 19 53 24 55 21 57 22 59
REMARK H PARENT 22 60 22 61 23 63 23 64 23 65 28 67 28 68
REMARK Flexibility Score: inf
ROOT
ATOM      1  C   UNL     1     -45.989  36.075  28.266  1.00  0.00     0.123 C 
ATOM      2  O   UNL     1     -44.803  36.903  28.193  1.00  0.00    -0.345 OA
ATOM      3  C   UNL     1     -44.947  37.976  29.157  1.00  0.00     0.169 C 
ATOM      4  C   UNL     1     -46.375  37.930  29.688  1.00  0.00     0.173 C 
ATOM      5  F   UNL     1     -47.233  38.613  28.880  1.00  0.00    -0.239 F 
ATOM      6  C   UNL     1     -46.697  36.460  29.566  1.00  0.00     0.119 C 
ATOM      7  H   UNL     1     -45.643  35.037  28.292  1.00  0.00     0.067 H 
ATOM      8  H   UNL     1     -44.223  37.765  29.952  1.00  0.00     0.088 H 
ATOM      9  H   UNL     1     -46.462  38.331  30.702  1.00  0.00     0.074 H 
ATOM     10  H   UNL     1     -47.772  36.258  29.540  1.00  0.00     0.066 H 
ENDROOT
BRANCH   1  11
ATOM     11  C   UNL     1     -46.854  36.332  27.019  1.00  0.00     0.117 C 
ATOM     12  H   UNL     1     -46.652  37.333  26.623  1.00  0.00     0.073 H 
ATOM     13  H   UNL     1     -47.928  36.295  27.231  1.00  0.00     0.073 H 
BRANCH  11  14
ATOM     14  O   UNL     1     -46.504  35.429  25.964  1.00  0.00    -0.491 OA
BRANCH  14  15
ATOM     15  C   UNL     1     -47.212  34.270  25.811  1.00  0.00     0.121 A 
ATOM     16  C   UNL     1     -47.094  30.026  23.638  1.00  0.00     0.126 A 
ATOM     17  C   UNL     1     -48.319  29.662  24.186  1.00  0.00    -0.019 A 
ATOM     18  N   UNL     1     -46.539  31.228  23.889  1.00  0.00    -0.231 NA
ATOM     19  C   UNL     1     -48.981  30.548  25.029  1.00  0.00    -0.049 A 
ATOM     20  H   UNL     1     -48.763  28.701  23.949  1.00  0.00     0.066 H 
ATOM     21  C   UNL     1     -47.173  32.093  24.703  1.00  0.00     0.076 A 
ATOM     22  C   UNL     1     -48.408  31.792  25.305  1.00  0.00     0.001 A 
ATOM     23  H   UNL     1     -49.939  30.264  25.456  1.00  0.00     0.063 H 
ATOM     24  C   UNL     1     -46.602  33.330  24.971  1.00  0.00     0.007 A 
ATOM     25  C   UNL     1     -49.032  32.726  26.147  1.00  0.00    -0.049 A 
ATOM     26  H   UNL     1     -45.647  33.570  24.510  1.00  0.00     0.069 H 
ATOM     27  C   UNL     1     -48.434  33.962  26.401  1.00  0.00    -0.019 A 
ATOM     28  H   UNL     1     -49.989  32.496  26.610  1.00  0.00     0.063 H 
ATOM     29  H   UNL     1     -48.953  34.651  27.055  1.00  0.00     0.066 H 
BRANCH  16  30
ATOM     30  N   UNL     1     -46.466  29.114  22.769  1.00  0.00    -0.373 N 
ATOM     31  H   UNL     1     -46.461  28.197  23.204  1.00  0.00     0.161 HD
BRANCH  30  32
ATOM     32  C   UNL     1     -45.133  29.518  22.348  1.00  0.00     0.005 C 
ATOM     33  H   UNL     1     -44.683  30.126  23.138  1.00  0.00     0.045 H 
ATOM     34  H   UNL     1     -45.165  30.128  21.438  1.00  0.00     0.045 H 
ATOM     35  H   UNL     1     -44.481  28.653  22.192  1.00  0.00     0.045 H 
ENDBRANCH  30  32
ENDBRANCH  16  30
ENDBRANCH  14  15
ENDBRANCH  11  14
ENDBRANCH   1  11
BRANCH   6  36
ATOM     36  O   UNL     1     -46.144  35.762  30.688  1.00  0.00    -0.387 OA
ATOM     37  H   UNL     1     -46.522  36.144  31.501  1.00  0.00     0.211 HD
ENDBRANCH   6  36
BRANCH   3  38
ATOM     38  N   UNL     1     -44.580  39.249  28.561  1.00  0.00    -0.302 N 
ATOM     39  C   UNL     1     -45.201  39.894  27.526  1.00  0.00     0.019 A 
ATOM     40  C   UNL     1     -43.515  40.002  28.995  1.00  0.00     0.148 A 
ATOM     41  C   UNL     1     -44.512  41.065  27.278  1.00  0.00     0.033 A 
ATOM     42  H   UNL     1     -46.067  39.472  27.029  1.00  0.00     0.083 H 
ATOM     43  C   UNL     1     -43.455  41.164  28.231  1.00  0.00     0.071 A 
ATOM     44  N   UNL     1     -42.696  39.657  30.004  1.00  0.00    -0.218 NA
ATOM     45  C   UNL     1     -42.451  42.081  28.586  1.00  0.00     0.137 A 
ATOM     46  C   UNL     1     -41.762  40.595  30.222  1.00  0.00     0.120 A 
ATOM     47  N   UNL     1     -41.603  41.771  29.589  1.00  0.00    -0.219 NA
ATOM     48  H   UNL     1     -41.050  40.386  31.014  1.00  0.00     0.106 H 
BRANCH  41  49
ATOM     49  C   UNL     1     -44.828  42.011  26.218  1.00  0.00     0.091 A 
ATOM     50  C   UNL     1     -44.134  42.275  25.059  1.00  0.00     0.032 A 
ATOM     51  N   UNL     1     -45.982  42.752  26.271  1.00  0.00    -0.237 NA
ATOM     52  N   UNL     1     -44.884  43.209  24.400  1.00  0.00    -0.334 N 
ATOM     53  H   UNL     1     -43.212  41.873  24.661  1.00  0.00     0.084 H 
ATOM     54  C   UNL     1     -45.986  43.466  25.167  1.00  0.00     0.096 A 
ATOM     55  H   UNL     1     -46.758  44.168  24.879  1.00  0.00     0.104 H 
BRANCH  52  56
ATOM     56  C   UNL     1     -44.588  43.822  23.113  1.00  0.00     0.029 C 
ATOM     57  H   UNL     1     -44.810  43.065  22.351  1.00  0.00     0.053 H 
BRANCH  56  58
ATOM     58  C   UNL     1     -43.109  44.190  22.991  1.00  0.00    -0.044 C 
ATOM     59  H   UNL     1     -42.983  45.121  22.426  1.00  0.00     0.025 H 
ATOM     60  H   UNL     1     -42.539  43.410  22.474  1.00  0.00     0.025 H 
ATOM     61  H   UNL     1     -42.663  44.332  23.980  1.00  0.00     0.025 H 
ENDBRANCH  56  58
BRANCH  56  62
ATOM     62  C   UNL     1     -45.486  45.031  22.846  1.00  0.00    -0.044 C 
ATOM     63  H   UNL     1     -46.522  44.817  23.129  1.00  0.00     0.025 H 
ATOM     64  H   UNL     1     -45.474  45.293  21.782  1.00  0.00     0.025 H 
ATOM     65  H   UNL     1     -45.160  45.910  23.412  1.00  0.00     0.025 H 
ENDBRANCH  56  62
ENDBRANCH  52  56
ENDBRANCH  41  49
BRANCH  45  66
ATOM     66  N   UNL     1     -42.285  43.337  28.011  1.00  0.00    -0.383 N 
ATOM     67  H   UNL     1     -41.297  43.503  27.847  1.00  0.00     0.158 HD
ATOM     68  H   UNL     1     -42.768  44.068  28.521  1.00  0.00     0.158 HD
ENDBRANCH  45  66
ENDBRANCH   3  38
TORSDOF 12
ENDMDL
MODEL 2
REMARK VINA RESULT:      -8.9      1.779      2.398
REMARK SMILES CNc1ccc2ccc(OC[C@H]3O[C@@H](n4cc(-c5cn(C(C)C)cn5)c5c(N)ncnc54)[C@@H](F)[C@@H]3O)cc2n1
REMARK SMILES IDX 12 1 13 2 14 3 33 4 34 5 35 6 11 11 10 14 9 15 3 16 4 17
REMARK SMILES IDX 39 18 5 19 38 21 6 22 37 24 7 25 8 27 2 30 1 32 36 36 15 38
REMARK SMILES IDX 16 39 32 40 17 41 26 43 31 44 27 45 30 46 29 47 18 49 19 50
REMARK SMILES IDX 25 51 20 52 24 54 21 56 22 58 23 62 28 66
REMARK H PARENT 12 7 14 8 33 9 35 10 11 12 11 13 4 20 5 23 37 26 7 28 8 29
REMARK H PARENT 2 31 1 33 1 34 1 35 36 37 16 42 30 48 19 53 24 55 21 57 22 59
REMARK H PARENT 22 60 22 61 23 63 23 64 23 65 28 67 28 68
REMARK Flexibility Score: inf
ROOT
ATOM      1  C   UNL     1     -47.319  35.261  28.149  1.00  0.00     0.123 C 
ATOM      2  O   UNL     1     -46.839  36.404  28.896  1.00  0.00    -0.345 OA
ATOM      3  C   UNL     1     -47.296  37.603  28.222  1.00  0.00     0.169 C 
ATOM      4  C   UNL     1     -47.898  37.180  26.887  1.00  0.00     0.173 C 
ATOM      5  F   UNL     1     -46.944  37.066  25.921  1.00  0.00    -0.239 F 
ATOM      6  C   UNL     1     -48.400  35.792  27.206  1.00  0.00     0.119 C 
ATOM      7  H   UNL     1     -47.736  34.563  28.882  1.00  0.00     0.067 H 
ATOM      8  H   UNL     1     -48.058  38.044  28.877  1.00  0.00     0.088 H 
ATOM      9  H   UNL     1     -48.668  37.871  26.533  1.00  0.00     0.074 H 
ATOM     10  H   UNL     1     -48.531  35.169  26.316  1.00  0.00     0.066 H 
ENDROOT
BRANCH   1  11
ATOM     11  C   UNL     1     -46.136  34.622  27.399  1.00  0.00     0.117 C 
ATOM     12  H   UNL     1     -45.203  34.817  27.937  1.00  0.00     0.073 H 
ATOM     13  H   UNL     1     -46.001  35.030  26.391  1.00  0.00     0.073 H 
BRANCH  11  14
ATOM     14  O   UNL     1     -46.266  33.197  27.366  1.00  0.00    -0.491 OA
BRANCH  14  15
ATOM     15  C   UNL     1     -46.979  32.611  26.358  1.00  0.00     0.121 A 
ATOM     16  C   UNL     1     -46.611  31.108  21.846  1.00  0.00     0.126 A 
ATOM     17  C   UNL     1     -47.936  30.689  21.831  1.00  0.00    -0.019 A 
ATOM     18  N   UNL     1     -46.066  31.682  22.937  1.00  0.00    -0.231 NA
ATOM     19  C   UNL     1     -48.716  30.846  22.972  1.00  0.00    -0.049 A 
ATOM     20  H   UNL     1     -48.365  30.255  20.934  1.00  0.00     0.066 H 
ATOM     21  C   UNL     1     -46.813  31.839  24.045  1.00  0.00     0.076 A 
ATOM     22  C   UNL     1     -48.157  31.429  24.112  1.00  0.00     0.001 A 
ATOM     23  H   UNL     1     -49.752  30.520  22.960  1.00  0.00     0.063 H 
ATOM     24  C   UNL     1     -46.254  32.423  25.174  1.00  0.00     0.007 A 
ATOM     25  C   UNL     1     -48.896  31.614  25.291  1.00  0.00    -0.049 A 
ATOM     26  H   UNL     1     -45.215  32.743  25.132  1.00  0.00     0.069 H 
ATOM     27  C   UNL     1     -48.307  32.202  26.411  1.00  0.00    -0.019 A 
ATOM     28  H   UNL     1     -49.937  31.301  25.341  1.00  0.00     0.063 H 
ATOM     29  H   UNL     1     -48.918  32.327  27.298  1.00  0.00     0.066 H 
BRANCH  16  30
ATOM     30  N   UNL     1     -45.861  30.956  20.665  1.00  0.00    -0.373 N 
ATOM     31  H   UNL     1     -44.874  31.026  20.892  1.00  0.00     0.161 HD
BRANCH  30  32
ATOM     32  C   UNL     1     -46.236  31.877  19.602  1.00  0.00     0.005 C 
ATOM     33  H   UNL     1     -47.260  31.655  19.287  1.00  0.00     0.045 H 
ATOM     34  H   UNL     1     -45.588  31.766  18.725  1.00  0.00     0.045 H 
ATOM     35  H   UNL     1     -46.219  32.916  19.946  1.00  0.00     0.045 H 
ENDBRANCH  30  32
ENDBRANCH  16  30
ENDBRANCH  14  15
ENDBRANCH  11  14
ENDBRANCH   1  11
BRANCH   6  36
ATOM     36  O   UNL     1     -49.666  35.890  27.867  1.00  0.00    -0.387 OA
ATOM     37  H   UNL     1     -49.857  35.034  28.291  1.00  0.00     0.211 HD
ENDBRANCH   6  36
BRANCH   3  38
ATOM     38  N   UNL     1     -46.215  38.566  28.104  1.00  0.00    -0.302 N 
ATOM     39  C   UNL     1     -46.060  39.530  27.144  1.00  0.00     0.019 A 
ATOM     40  C   UNL     1     -45.170  38.636  28.993  1.00  0.00     0.148 A 
ATOM     41  C   UNL     1     -44.888  40.210  27.410  1.00  0.00     0.033 A 
ATOM     42  H   UNL     1     -46.773  39.651  26.337  1.00  0.00     0.083 H 
ATOM     43  C   UNL     1     -44.328  39.674  28.607  1.00  0.00     0.071 A 
ATOM     44  N   UNL     1     -45.021  37.833  30.062  1.00  0.00    -0.218 NA
ATOM     45  C   UNL     1     -43.232  39.922  29.450  1.00  0.00     0.137 A 
ATOM     46  C   UNL     1     -43.923  38.147  30.764  1.00  0.00     0.120 A 
ATOM     47  N   UNL     1     -43.042  39.135  30.529  1.00  0.00    -0.219 NA
ATOM     48  H   UNL     1     -43.723  37.534  31.638  1.00  0.00     0.106 H 
BRANCH  41  49
ATOM     49  C   UNL     1     -44.340  41.281  26.588  1.00  0.00     0.091 A 
ATOM     50  C   UNL     1     -45.005  42.260  25.886  1.00  0.00     0.032 A 
ATOM     51  N   UNL     1     -42.982  41.445  26.479  1.00  0.00    -0.237 NA
ATOM     52  N   UNL     1     -44.022  43.028  25.328  1.00  0.00    -0.334 N 
ATOM     53  H   UNL     1     -46.059  42.469  25.761  1.00  0.00     0.084 H 
ATOM     54  C   UNL     1     -42.821  42.501  25.713  1.00  0.00     0.096 A 
ATOM     55  H   UNL     1     -41.868  42.919  25.416  1.00  0.00     0.104 H 
BRANCH  52  56
ATOM     56  C   UNL     1     -44.199  44.204  24.487  1.00  0.00     0.029 C 
ATOM     57  H   UNL     1     -44.035  45.075  25.134  1.00  0.00     0.053 H 
BRANCH  56  58
ATOM     58  C   UNL     1     -45.622  44.292  23.935  1.00  0.00    -0.044 C 
ATOM     59  H   UNL     1     -46.285  44.805  24.642  1.00  0.00     0.025 H 
ATOM     60  H   UNL     1     -46.045  43.299  23.746  1.00  0.00     0.025 H 
ATOM     61  H   UNL     1     -45.638  44.849  22.993  1.00  0.00     0.025 H 
ENDBRANCH  56  58
BRANCH  56  62
ATOM     62  C   UNL     1     -43.163  44.253  23.365  1.00  0.00    -0.044 C 
ATOM     63  H   UNL     1     -42.547  43.347  23.361  1.00  0.00     0.025 H 
ATOM     64  H   UNL     1     -42.496  45.114  23.492  1.00  0.00     0.025 H 
ATOM     65  H   UNL     1     -43.636  44.338  22.380  1.00  0.00     0.025 H 
ENDBRANCH  56  62
ENDBRANCH  52  56
ENDBRANCH  41  49
BRANCH  45  66
ATOM     66  N   UNL     1     -42.330  40.970  29.291  1.00  0.00    -0.383 N 
ATOM     67  H   UNL     1     -42.633  41.560  28.523  1.00  0.00     0.158 HD
ATOM     68  H   UNL     1     -41.368  40.655  29.242  1.00  0.00     0.158 HD
ENDBRANCH  45  66
ENDBRANCH   3  38
TORSDOF 12
ENDMDL
MODEL 3
REMARK VINA RESULT:      -8.8      1.736      2.351
REMARK SMILES CNc1ccc2ccc(OC[C@H]3O[C@@H](n4cc(-c5cn(C(C)C)cn5)c5c(N)ncnc54)[C@@H](F)[C@@H]3O)cc2n1
REMARK SMILES IDX 12 1 13 2 14 3 33 4 34 5 35 6 11 11 10 14 9 15 3 16 4 17
REMARK SMILES IDX 39 18 5 19 38 21 6 22 37 24 7 25 8 27 2 30 1 32 36 36 15 38
REMARK SMILES IDX 16 39 32 40 17 41 26 43 31 44 27 45 30 46 29 47 18 49 19 50
REMARK SMILES IDX 25 51 20 52 24 54 21 56 22 58 23 62 28 66
REMARK H PARENT 12 7 14 8 33 9 35 10 11 12 11 13 4 20 5 23 37 26 7 28 8 29
REMARK H PARENT 2 31 1 33 1 34 1 35 36 37 16 42 30 48 19 53 24 55 21 57 22 59
REMARK H PARENT 22 60 22 61 23 63 23 64 23 65 28 67 28 68
REMARK Flexibility Score: inf
ROOT
ATOM      1  C   UNL     1     -47.294  35.748  28.711  1.00  0.00     0.123 C 
ATOM      2  O   UNL     1     -46.710  36.927  29.314  1.00  0.00    -0.345 OA
ATOM      3  C   UNL     1     -47.219  38.087  28.611  1.00  0.00     0.169 C 
ATOM      4  C   UNL     1     -47.977  37.589  27.386  1.00  0.00     0.173 C 
ATOM      5  F   UNL     1     -47.141  37.381  26.329  1.00  0.00    -0.239 F 
ATOM      6  C   UNL     1     -48.465  36.241  27.860  1.00  0.00     0.119 C 
ATOM      7  H   UNL     1     -47.638  35.114  29.535  1.00  0.00     0.067 H 
ATOM      8  H   UNL     1     -47.892  38.593  29.313  1.00  0.00     0.088 H 
ATOM      9  H   UNL     1     -48.769  38.274  27.071  1.00  0.00     0.074 H 
ATOM     10  H   UNL     1     -48.709  35.561  27.037  1.00  0.00     0.066 H 
ENDROOT
BRANCH   1  11
ATOM     11  C   UNL     1     -46.217  35.026  27.881  1.00  0.00     0.117 C 
ATOM     12  H   UNL     1     -45.244  35.113  28.375  1.00  0.00     0.073 H 
ATOM     13  H   UNL     1     -46.094  35.453  26.880  1.00  0.00     0.073 H 
BRANCH  11  14
ATOM     14  O   UNL     1     -46.484  33.621  27.814  1.00  0.00    -0.491 OA
BRANCH  14  15
ATOM     15  C   UNL     1     -46.700  33.037  26.597  1.00  0.00     0.121 A 
ATOM     16  C   UNL     1     -49.171  29.565  24.454  1.00  0.00     0.126 A 
ATOM     17  C   UNL     1     -48.616  29.873  23.218  1.00  0.00    -0.019 A 
ATOM     18  N   UNL     1     -48.833  30.246  25.568  1.00  0.00    -0.231 NA
ATOM     19  C   UNL     1     -47.706  30.921  23.118  1.00  0.00    -0.049 A 
ATOM     20  H   UNL     1     -48.879  29.295  22.338  1.00  0.00     0.066 H 
ATOM     21  C   UNL     1     -47.953  31.260  25.481  1.00  0.00     0.076 A 
ATOM     22  C   UNL     1     -47.360  31.641  24.264  1.00  0.00     0.001 A 
ATOM     23  H   UNL     1     -47.272  31.161  22.152  1.00  0.00     0.063 H 
ATOM     24  C   UNL     1     -47.608  31.970  26.624  1.00  0.00     0.007 A 
ATOM     25  C   UNL     1     -46.447  32.706  24.223  1.00  0.00    -0.049 A 
ATOM     26  H   UNL     1     -48.062  31.684  27.569  1.00  0.00     0.069 H 
ATOM     27  C   UNL     1     -46.119  33.403  25.388  1.00  0.00    -0.019 A 
ATOM     28  H   UNL     1     -45.984  32.997  23.283  1.00  0.00     0.063 H 
ATOM     29  H   UNL     1     -45.408  34.217  25.308  1.00  0.00     0.066 H 
BRANCH  16  30
ATOM     30  N   UNL     1     -50.068  28.482  24.521  1.00  0.00    -0.373 N 
ATOM     31  H   UNL     1     -49.537  27.620  24.588  1.00  0.00     0.161 HD
BRANCH  30  32
ATOM     32  C   UNL     1     -51.027  28.440  23.427  1.00  0.00     0.005 C 
ATOM     33  H   UNL     1     -51.060  27.423  23.025  1.00  0.00     0.045 H 
ATOM     34  H   UNL     1     -50.737  29.111  22.610  1.00  0.00     0.045 H 
ATOM     35  H   UNL     1     -52.037  28.688  23.769  1.00  0.00     0.045 H 
ENDBRANCH  30  32
ENDBRANCH  16  30
ENDBRANCH  14  15
ENDBRANCH  11  14
ENDBRANCH   1  11
BRANCH   6  36
ATOM     36  O   UNL     1     -49.646  36.419  28.649  1.00  0.00    -0.387 OA
ATOM     37  H   UNL     1     -49.404  36.319  29.588  1.00  0.00     0.211 HD
ENDBRANCH   6  36
BRANCH   3  38
ATOM     38  N   UNL     1     -46.140  39.010  28.302  1.00  0.00    -0.302 N 
ATOM     39  C   UNL     1     -46.106  39.946  27.304  1.00  0.00     0.019 A 
ATOM     40  C   UNL     1     -44.968  39.064  29.018  1.00  0.00     0.148 A 
ATOM     41  C   UNL     1     -44.887  40.592  27.368  1.00  0.00     0.033 A 
ATOM     42  H   UNL     1     -46.930  40.074  26.613  1.00  0.00     0.083 H 
ATOM     43  C   UNL     1     -44.165  40.064  28.479  1.00  0.00     0.071 A 
ATOM     44  N   UNL     1     -44.681  38.279  30.072  1.00  0.00    -0.218 NA
ATOM     45  C   UNL     1     -42.945  40.292  29.136  1.00  0.00     0.137 A 
ATOM     46  C   UNL     1     -43.478  38.571  30.589  1.00  0.00     0.120 A 
ATOM     47  N   UNL     1     -42.614  39.523  30.194  1.00  0.00    -0.219 NA
ATOM     48  H   UNL     1     -43.164  37.971  31.437  1.00  0.00     0.106 H 
BRANCH  41  49
ATOM     49  C   UNL     1     -44.440  41.625  26.444  1.00  0.00     0.091 A 
ATOM     50  C   UNL     1     -44.334  41.573  25.073  1.00  0.00     0.032 A 
ATOM     51  N   UNL     1     -44.103  42.872  26.908  1.00  0.00    -0.237 NA
ATOM     52  N   UNL     1     -43.910  42.818  24.701  1.00  0.00    -0.334 N 
ATOM     53  H   UNL     1     -44.537  40.783  24.362  1.00  0.00     0.084 H 
ATOM     54  C   UNL     1     -43.785  43.566  25.838  1.00  0.00     0.096 A 
ATOM     55  H   UNL     1     -43.468  44.601  25.835  1.00  0.00     0.104 H 
BRANCH  52  56
ATOM     56  C   UNL     1     -43.647  43.287  23.347  1.00  0.00     0.029 C 
ATOM     57  H   UNL     1     -43.784  42.420  22.688  1.00  0.00     0.053 H 
BRANCH  56  58
ATOM     58  C   UNL     1     -42.207  43.774  23.189  1.00  0.00    -0.044 C 
ATOM     59  H   UNL     1     -41.883  43.706  22.144  1.00  0.00     0.025 H 
ATOM     60  H   UNL     1     -41.511  43.179  23.791  1.00  0.00     0.025 H 
ATOM     61  H   UNL     1     -42.115  44.818  23.504  1.00  0.00     0.025 H 
ENDBRANCH  56  58
BRANCH  56  62
ATOM     62  C   UNL     1     -44.648  44.361  22.920  1.00  0.00    -0.044 C 
ATOM     63  H   UNL     1     -44.660  45.190  23.636  1.00  0.00     0.025 H 
ATOM     64  H   UNL     1     -45.661  43.946  22.867  1.00  0.00     0.025 H 
ATOM     65  H   UNL     1     -44.403  44.774  21.936  1.00  0.00     0.025 H 
ENDBRANCH  56  62
ENDBRANCH  52  56
ENDBRANCH  41  49
BRANCH  45  66
ATOM     66  N   UNL     1     -42.047  41.305  28.813  1.00  0.00    -0.383 N 
ATOM     67  H   UNL     1     -41.661  41.697  29.666  1.00  0.00     0.158 HD
ATOM     68  H   UNL     1     -42.435  41.979  28.164  1.00  0.00     0.158 HD
ENDBRANCH  45  66
ENDBRANCH   3  38
TORSDOF 12
ENDMDL
MODEL 4
REMARK VINA RESULT:      -8.6      4.449      8.151
REMARK SMILES CNc1ccc2ccc(OC[C@H]3O[C@@H](n4cc(-c5cn(C(C)C)cn5)c5c(N)ncnc54)[C@@H](F)[C@@H]3O)cc2n1
REMARK SMILES IDX 12 1 13 2 14 3 33 4 34 5 35 6 11 11 10 14 9 15 3 16 4 17
REMARK SMILES IDX 39 18 5 19 38 21 6 22 37 24 7 25 8 27 2 30 1 32 36 36 15 38
REMARK SMILES IDX 16 39 32 40 17 41 26 43 31 44 27 45 30 46 29 47 18 49 19 50
REMARK SMILES IDX 25 51 20 52 24 54 21 56 22 58 23 62 28 66
REMARK H PARENT 12 7 14 8 33 9 35 10 11 12 11 13 4 20 5 23 37 26 7 28 8 29
REMARK H PARENT 2 31 1 33 1 34 1 35 36 37 16 42 30 48 19 53 24 55 21 57 22 59
REMARK H PARENT 22 60 22 61 23 63 23 64 23 65 28 67 28 68
REMARK Flexibility Score: inf
ROOT
ATOM      1  C   UNL     1     -45.715  37.521  28.840  1.00  0.00     0.123 C 
ATOM      2  O   UNL     1     -46.779  38.425  29.220  1.00  0.00    -0.345 OA
ATOM      3  C   UNL     1     -47.901  38.193  28.332  1.00  0.00     0.169 C 
ATOM      4  C   UNL     1     -47.427  37.259  27.225  1.00  0.00     0.173 C 
ATOM      5  F   UNL     1     -46.835  37.947  26.208  1.00  0.00    -0.239 F 
ATOM      6  C   UNL     1     -46.354  36.468  27.933  1.00  0.00     0.119 C 
ATOM      7  H   UNL     1     -45.340  37.074  29.767  1.00  0.00     0.067 H 
ATOM      8  H   UNL     1     -48.676  37.717  28.945  1.00  0.00     0.088 H 
ATOM      9  H   UNL     1     -48.237  36.654  26.807  1.00  0.00     0.074 H 
ATOM     10  H   UNL     1     -45.637  36.007  27.246  1.00  0.00     0.066 H 
ENDROOT
BRANCH   1  11
ATOM     11  C   UNL     1     -44.607  38.322  28.133  1.00  0.00     0.117 C 
ATOM     12  H   UNL     1     -44.810  38.372  27.058  1.00  0.00     0.073 H 
ATOM     13  H   UNL     1     -43.617  37.865  28.239  1.00  0.00     0.073 H 
BRANCH  11  14
ATOM     14  O   UNL     1     -44.599  39.682  28.581  1.00  0.00    -0.491 OA
BRANCH  14  15
ATOM     15  C   UNL     1     -43.848  40.605  27.909  1.00  0.00     0.121 A 
ATOM     16  C   UNL     1     -43.733  43.198  23.908  1.00  0.00     0.126 A 
ATOM     17  C   UNL     1     -42.521  43.778  24.265  1.00  0.00    -0.019 A 
ATOM     18  N   UNL     1     -44.338  42.286  24.694  1.00  0.00    -0.231 NA
ATOM     19  C   UNL     1     -41.925  43.426  25.472  1.00  0.00    -0.049 A 
ATOM     20  H   UNL     1     -42.036  44.489  23.605  1.00  0.00     0.066 H 
ATOM     21  C   UNL     1     -43.768  41.939  25.863  1.00  0.00     0.076 A 
ATOM     22  C   UNL     1     -42.550  42.491  26.300  1.00  0.00     0.001 A 
ATOM     23  H   UNL     1     -40.977  43.877  25.750  1.00  0.00     0.063 H 
ATOM     24  C   UNL     1     -44.390  41.005  26.681  1.00  0.00     0.007 A 
ATOM     25  C   UNL     1     -41.993  42.097  27.527  1.00  0.00    -0.049 A 
ATOM     26  H   UNL     1     -45.333  40.574  26.352  1.00  0.00     0.069 H 
ATOM     27  C   UNL     1     -42.642  41.157  28.330  1.00  0.00    -0.019 A 
ATOM     28  H   UNL     1     -41.049  42.520  27.863  1.00  0.00     0.063 H 
ATOM     29  H   UNL     1     -42.174  40.882  29.268  1.00  0.00     0.066 H 
BRANCH  16  30
ATOM     30  N   UNL     1     -44.294  43.560  22.668  1.00  0.00    -0.373 N 
ATOM     31  H   UNL     1     -43.853  43.011  21.937  1.00  0.00     0.161 HD
BRANCH  30  32
ATOM     32  C   UNL     1     -44.232  44.986  22.384  1.00  0.00     0.005 C 
ATOM     33  H   UNL     1     -43.185  45.303  22.391  1.00  0.00     0.045 H 
ATOM     34  H   UNL     1     -44.761  45.572  23.144  1.00  0.00     0.045 H 
ATOM     35  H   UNL     1     -44.635  45.216  21.392  1.00  0.00     0.045 H 
ENDBRANCH  30  32
ENDBRANCH  16  30
ENDBRANCH  14  15
ENDBRANCH  11  14
ENDBRANCH   1  11
BRANCH   6  36
ATOM     36  O   UNL     1     -46.967  35.423  28.697  1.00  0.00    -0.387 OA
ATOM     37  H   UNL     1     -47.865  35.710  28.941  1.00  0.00     0.211 HD
ENDBRANCH   6  36
BRANCH   3  38
ATOM     38  N   UNL     1     -48.441  39.453  27.851  1.00  0.00    -0.302 N 
ATOM     39  C   UNL     1     -47.762  40.468  27.235  1.00  0.00     0.019 A 
ATOM     40  C   UNL     1     -49.770  39.789  27.954  1.00  0.00     0.148 A 
ATOM     41  C   UNL     1     -48.663  41.478  26.960  1.00  0.00     0.033 A 
ATOM     42  H   UNL     1     -46.695  40.414  27.055  1.00  0.00     0.083 H 
ATOM     43  C   UNL     1     -49.955  41.043  27.380  1.00  0.00     0.071 A 
ATOM     44  N   UNL     1     -50.716  39.007  28.505  1.00  0.00    -0.218 NA
ATOM     45  C   UNL     1     -51.278  41.515  27.348  1.00  0.00     0.137 A 
ATOM     46  C   UNL     1     -51.926  39.582  28.443  1.00  0.00     0.120 A 
ATOM     47  N   UNL     1     -52.256  40.765  27.896  1.00  0.00    -0.219 NA
ATOM     48  H   UNL     1     -52.745  39.019  28.880  1.00  0.00     0.106 H 
BRANCH  41  49
ATOM     49  C   UNL     1     -48.324  42.756  26.351  1.00  0.00     0.091 A 
ATOM     50  C   UNL     1     -47.194  43.523  26.520  1.00  0.00     0.032 A 
ATOM     51  N   UNL     1     -49.165  43.331  25.430  1.00  0.00    -0.237 NA
ATOM     52  N   UNL     1     -47.362  44.595  25.689  1.00  0.00    -0.334 N 
ATOM     53  H   UNL     1     -46.312  43.384  27.131  1.00  0.00     0.084 H 
ATOM     54  C   UNL     1     -48.562  44.437  25.053  1.00  0.00     0.096 A 
ATOM     55  H   UNL     1     -48.947  45.142  24.328  1.00  0.00     0.104 H 
BRANCH  52  56
ATOM     56  C   UNL     1     -46.441  45.705  25.492  1.00  0.00     0.029 C 
ATOM     57  H   UNL     1     -46.148  45.681  24.435  1.00  0.00     0.053 H 
BRANCH  56  58
ATOM     58  C   UNL     1     -45.175  45.542  26.333  1.00  0.00    -0.044 C 
ATOM     59  H   UNL     1     -44.595  46.473  26.352  1.00  0.00     0.025 H 
ATOM     60  H   UNL     1     -44.524  44.755  25.936  1.00  0.00     0.025 H 
ATOM     61  H   UNL     1     -45.427  45.281  27.365  1.00  0.00     0.025 H 
ENDBRANCH  56  58
BRANCH  56  62
ATOM     62  C   UNL     1     -47.117  47.051  25.759  1.00  0.00    -0.044 C 
ATOM     63  H   UNL     1     -46.425  47.879  25.572  1.00  0.00     0.025 H 
ATOM     64  H   UNL     1     -47.449  47.116  26.801  1.00  0.00     0.025 H 
ATOM     65  H   UNL     1     -47.993  47.198  25.117  1.00  0.00     0.025 H 
ENDBRANCH  56  62
ENDBRANCH  52  56
ENDBRANCH  41  49
BRANCH  45  66
ATOM     66  N   UNL     1     -51.684  42.697  26.737  1.00  0.00    -0.383 N 
ATOM     67  H   UNL     1     -52.287  42.479  25.951  1.00  0.00     0.158 HD
ATOM     68  H   UNL     1     -50.909  43.316  26.529  1.00  0.00     0.158 HD
ENDBRANCH  45  66
ENDBRANCH   3  38
TORSDOF 12
ENDMDL
MODEL 5
REMARK VINA RESULT:      -8.5      3.580      8.132
REMARK SMILES CNc1ccc2ccc(OC[C@H]3O[C@@H](n4cc(-c5cn(C(C)C)cn5)c5c(N)ncnc54)[C@@H](F)[C@@H]3O)cc2n1
REMARK SMILES IDX 12 1 13 2 14 3 33 4 34 5 35 6 11 11 10 14 9 15 3 16 4 17
REMARK SMILES IDX 39 18 5 19 38 21 6 22 37 24 7 25 8 27 2 30 1 32 36 36 15 38
REMARK SMILES IDX 16 39 32 40 17 41 26 43 31 44 27 45 30 46 29 47 18 49 19 50
REMARK SMILES IDX 25 51 20 52 24 54 21 56 22 58 23 62 28 66
REMARK H PARENT 12 7 14 8 33 9 35 10 11 12 11 13 4 20 5 23 37 26 7 28 8 29
REMARK H PARENT 2 31 1 33 1 34 1 35 36 37 16 42 30 48 19 53 24 55 21 57 22 59
REMARK H PARENT 22 60 22 61 23 63 23 64 23 65 28 67 28 68
REMARK Flexibility Score: inf
ROOT
ATOM      1  C   UNL     1     -46.085  35.318  28.587  1.00  0.00     0.123 C 
ATOM      2  O   UNL     1     -47.282  35.959  29.090  1.00  0.00    -0.345 OA
ATOM      3  C   UNL     1     -48.196  36.133  27.978  1.00  0.00     0.169 C 
ATOM      4  C   UNL     1     -47.441  35.782  26.701  1.00  0.00     0.173 C 
ATOM      5  F   UNL     1     -46.741  36.849  26.223  1.00  0.00    -0.239 F 
ATOM      6  C   UNL     1     -46.445  34.766  27.207  1.00  0.00     0.119 C 
ATOM      7  H   UNL     1     -45.845  34.513  29.289  1.00  0.00     0.067 H 
ATOM      8  H   UNL     1     -49.021  35.432  28.155  1.00  0.00     0.088 H 
ATOM      9  H   UNL     1     -48.100  35.417  25.908  1.00  0.00     0.074 H 
ATOM     10  H   UNL     1     -45.575  34.657  26.552  1.00  0.00     0.066 H 
ENDROOT
BRANCH   1  11
ATOM     11  C   UNL     1     -44.948  36.355  28.535  1.00  0.00     0.117 C 
ATOM     12  H   UNL     1     -44.693  36.578  27.494  1.00  0.00     0.073 H 
ATOM     13  H   UNL     1     -44.026  35.999  29.009  1.00  0.00     0.073 H 
BRANCH  11  14
ATOM     14  O   UNL     1     -45.371  37.601  29.099  1.00  0.00    -0.491 OA
BRANCH  14  15
ATOM     15  C   UNL     1     -44.566  38.699  28.978  1.00  0.00     0.121 A 
ATOM     16  C   UNL     1     -43.568  42.357  26.084  1.00  0.00     0.126 A 
ATOM     17  C   UNL     1     -42.593  42.835  26.952  1.00  0.00    -0.019 A 
ATOM     18  N   UNL     1     -44.269  41.239  26.358  1.00  0.00    -0.231 NA
ATOM     19  C   UNL     1     -42.345  42.158  28.142  1.00  0.00    -0.049 A 
ATOM     20  H   UNL     1     -42.019  43.720  26.699  1.00  0.00     0.066 H 
ATOM     21  C   UNL     1     -44.036  40.577  27.507  1.00  0.00     0.076 A 
ATOM     22  C   UNL     1     -43.076  41.005  28.441  1.00  0.00     0.001 A 
ATOM     23  H   UNL     1     -41.582  42.530  28.819  1.00  0.00     0.063 H 
ATOM     24  C   UNL     1     -44.761  39.429  27.799  1.00  0.00     0.007 A 
ATOM     25  C   UNL     1     -42.868  40.282  29.626  1.00  0.00    -0.049 A 
ATOM     26  H   UNL     1     -45.507  39.091  27.083  1.00  0.00     0.069 H 
ATOM     27  C   UNL     1     -43.613  39.132  29.894  1.00  0.00    -0.019 A 
ATOM     28  H   UNL     1     -42.121  40.610  30.346  1.00  0.00     0.063 H 
ATOM     29  H   UNL     1     -43.416  38.605  30.820  1.00  0.00     0.066 H 
BRANCH  16  30
ATOM     30  N   UNL     1     -43.772  43.053  24.878  1.00  0.00    -0.373 N 
ATOM     31  H   UNL     1     -43.118  42.706  24.185  1.00  0.00     0.161 HD
BRANCH  30  32
ATOM     32  C   UNL     1     -43.701  44.500  25.010  1.00  0.00     0.005 C 
ATOM     33  H   UNL     1     -44.006  44.778  26.024  1.00  0.00     0.045 H 
ATOM     34  H   UNL     1     -44.379  45.004  24.311  1.00  0.00     0.045 H 
ATOM     35  H   UNL     1     -42.680  44.868  24.865  1.00  0.00     0.045 H 
ENDBRANCH  30  32
ENDBRANCH  16  30
ENDBRANCH  14  15
ENDBRANCH  11  14
ENDBRANCH   1  11
BRANCH   6  36
ATOM     36  O   UNL     1     -47.085  33.489  27.306  1.00  0.00    -0.387 OA
ATOM     37  H   UNL     1     -47.705  33.399  26.560  1.00  0.00     0.211 HD
ENDBRANCH   6  36
BRANCH   3  38
ATOM     38  N   UNL     1     -48.756  37.473  27.983  1.00  0.00    -0.302 N 
ATOM     39  C   UNL     1     -48.159  38.627  27.552  1.00  0.00     0.019 A 
ATOM     40  C   UNL     1     -50.022  37.757  28.436  1.00  0.00     0.148 A 
ATOM     41  C   UNL     1     -49.046  39.666  27.752  1.00  0.00     0.033 A 
ATOM     42  H   UNL     1     -47.150  38.633  27.157  1.00  0.00     0.083 H 
ATOM     43  C   UNL     1     -50.252  39.120  28.282  1.00  0.00     0.071 A 
ATOM     44  N   UNL     1     -50.882  36.844  28.924  1.00  0.00    -0.218 NA
ATOM     45  C   UNL     1     -51.532  39.572  28.645  1.00  0.00     0.137 A 
ATOM     46  C   UNL     1     -52.052  37.404  29.265  1.00  0.00     0.120 A 
ATOM     47  N   UNL     1     -52.423  38.691  29.145  1.00  0.00    -0.219 NA
ATOM     48  H   UNL     1     -52.798  36.734  29.682  1.00  0.00     0.106 H 
BRANCH  41  49
ATOM     49  C   UNL     1     -48.768  41.067  27.468  1.00  0.00     0.091 A 
ATOM     50  C   UNL     1     -49.166  42.187  28.162  1.00  0.00     0.032 A 
ATOM     51  N   UNL     1     -47.966  41.414  26.409  1.00  0.00    -0.237 NA
ATOM     52  N   UNL     1     -48.600  43.238  27.497  1.00  0.00    -0.334 N 
ATOM     53  H   UNL     1     -49.770  42.308  29.051  1.00  0.00     0.084 H 
ATOM     54  C   UNL     1     -47.886  42.725  26.450  1.00  0.00     0.096 A 
ATOM     55  H   UNL     1     -47.327  43.340  25.756  1.00  0.00     0.104 H 
BRANCH  52  56
ATOM     56  C   UNL     1     -48.712  44.651  27.833  1.00  0.00     0.029 C 
ATOM     57  H   UNL     1     -47.939  44.852  28.586  1.00  0.00     0.053 H 
BRANCH  56  58
ATOM     58  C   UNL     1     -50.069  44.975  28.457  1.00  0.00    -0.044 C 
ATOM     59  H   UNL     1     -50.325  44.248  29.237  1.00  0.00     0.025 H 
ATOM     60  H   UNL     1     -50.872  44.957  27.712  1.00  0.00     0.025 H 
ATOM     61  H   UNL     1     -50.057  45.969  28.915  1.00  0.00     0.025 H 
ENDBRANCH  56  58
BRANCH  56  62
ATOM     62  C   UNL     1     -48.428  45.540  26.623  1.00  0.00    -0.044 C 
ATOM     63  H   UNL     1     -48.227  44.935  25.732  1.00  0.00     0.025 H 
ATOM     64  H   UNL     1     -47.553  46.174  26.806  1.00  0.00     0.025 H 
ATOM     65  H   UNL     1     -49.276  46.196  26.396  1.00  0.00     0.025 H 
ENDBRANCH  56  62
ENDBRANCH  52  56
ENDBRANCH  41  49
BRANCH  45  66
ATOM     66  N   UNL     1     -51.990  40.876  28.479  1.00  0.00    -0.383 N 
ATOM     67  H   UNL     1     -51.484  41.492  29.107  1.00  0.00     0.158 HD
ATOM     68  H   UNL     1     -53.000  40.945  28.525  1.00  0.00     0.158 HD
ENDBRANCH  45  66
ENDBRANCH   3  38
TORSDOF 12
ENDMDL
MODEL 6
REMARK VINA RESULT:      -8.5      1.845      2.568
REMARK SMILES CNc1ccc2ccc(OC[C@H]3O[C@@H](n4cc(-c5cn(C(C)C)cn5)c5c(N)ncnc54)[C@@H](F)[C@@H]3O)cc2n1
REMARK SMILES IDX 12 1 13 2 14 3 33 4 34 5 35 6 11 11 10 14 9 15 3 16 4 17
REMARK SMILES IDX 39 18 5 19 38 21 6 22 37 24 7 25 8 27 2 30 1 32 36 36 15 38
REMARK SMILES IDX 16 39 32 40 17 41 26 43 31 44 27 45 30 46 29 47 18 49 19 50
REMARK SMILES IDX 25 51 20 52 24 54 21 56 22 58 23 62 28 66
REMARK H PARENT 12 7 14 8 33 9 35 10 11 12 11 13 4 20 5 23 37 26 7 28 8 29
REMARK H PARENT 2 31 1 33 1 34 1 35 36 37 16 42 30 48 19 53 24 55 21 57 22 59
REMARK H PARENT 22 60 22 61 23 63 23 64 23 65 28 67 28 68
REMARK Flexibility Score: inf
ROOT
ATOM      1  C   UNL     1     -46.560  38.327  28.361  1.00  0.00     0.123 C 
ATOM      2  O   UNL     1     -45.850  39.581  28.503  1.00  0.00    -0.345 OA
ATOM      3  C   UNL     1     -46.476  40.551  27.628  1.00  0.00     0.169 C 
ATOM      4  C   UNL     1     -47.474  39.804  26.750  1.00  0.00     0.173 C 
ATOM      5  F   UNL     1     -46.874  39.276  25.647  1.00  0.00    -0.239 F 
ATOM      6  C   UNL     1     -47.873  38.660  27.651  1.00  0.00     0.119 C 
ATOM      7  H   UNL     1     -46.738  37.953  29.374  1.00  0.00     0.067 H 
ATOM      8  H   UNL     1     -46.985  41.265  28.286  1.00  0.00     0.088 H 
ATOM      9  H   UNL     1     -48.304  40.436  26.423  1.00  0.00     0.074 H 
ATOM     10  H   UNL     1     -48.288  37.809  27.103  1.00  0.00     0.066 H 
ENDROOT
BRANCH   1  11
ATOM     11  C   UNL     1     -45.684  37.345  27.562  1.00  0.00     0.117 C 
ATOM     12  H   UNL     1     -44.625  37.567  27.730  1.00  0.00     0.073 H 
ATOM     13  H   UNL     1     -45.845  37.414  26.480  1.00  0.00     0.073 H 
BRANCH  11  14
ATOM     14  O   UNL     1     -45.870  36.004  28.027  1.00  0.00    -0.491 OA
BRANCH  14  15
ATOM     15  C   UNL     1     -46.693  35.162  27.334  1.00  0.00     0.121 A 
ATOM     16  C   UNL     1     -46.649  31.475  24.307  1.00  0.00     0.126 A 
ATOM     17  C   UNL     1     -48.037  31.434  24.267  1.00  0.00    -0.019 A 
ATOM     18  N   UNL     1     -45.991  32.391  25.047  1.00  0.00    -0.231 NA
ATOM     19  C   UNL     1     -48.771  32.345  25.022  1.00  0.00    -0.049 A 
ATOM     20  H   UNL     1     -48.548  30.708  23.644  1.00  0.00     0.066 H 
ATOM     21  C   UNL     1     -46.692  33.276  25.779  1.00  0.00     0.076 A 
ATOM     22  C   UNL     1     -48.099  33.289  25.801  1.00  0.00     0.001 A 
ATOM     23  H   UNL     1     -49.856  32.313  24.989  1.00  0.00     0.063 H 
ATOM     24  C   UNL     1     -46.020  34.217  26.549  1.00  0.00     0.007 A 
ATOM     25  C   UNL     1     -48.786  34.232  26.581  1.00  0.00    -0.049 A 
ATOM     26  H   UNL     1     -44.933  34.213  26.539  1.00  0.00     0.069 H 
ATOM     27  C   UNL     1     -48.084  35.166  27.347  1.00  0.00    -0.019 A 
ATOM     28  H   UNL     1     -49.874  34.246  26.595  1.00  0.00     0.063 H 
ATOM     29  H   UNL     1     -48.657  35.876  27.931  1.00  0.00     0.066 H 
BRANCH  16  30
ATOM     30  N   UNL     1     -45.941  30.555  23.511  1.00  0.00    -0.373 N 
ATOM     31  H   UNL     1     -45.032  30.946  23.288  1.00  0.00     0.161 HD
BRANCH  30  32
ATOM     32  C   UNL     1     -46.656  30.134  22.316  1.00  0.00     0.005 C 
ATOM     33  H   UNL     1     -46.483  29.065  22.158  1.00  0.00     0.045 H 
ATOM     34  H   UNL     1     -46.297  30.662  21.424  1.00  0.00     0.045 H 
ATOM     35  H   UNL     1     -47.736  30.277  22.422  1.00  0.00     0.045 H 
ENDBRANCH  30  32
ENDBRANCH  16  30
ENDBRANCH  14  15
ENDBRANCH  11  14
ENDBRANCH   1  11
BRANCH   6  36
ATOM     36  O   UNL     1     -48.866  39.115  28.577  1.00  0.00    -0.387 OA
ATOM     37  H   UNL     1     -49.647  39.401  28.070  1.00  0.00     0.211 HD
ENDBRANCH   6  36
BRANCH   3  38
ATOM     38  N   UNL     1     -45.470  41.289  26.882  1.00  0.00    -0.302 N 
ATOM     39  C   UNL     1     -45.649  42.012  25.734  1.00  0.00     0.019 A 
ATOM     40  C   UNL     1     -44.152  41.360  27.266  1.00  0.00     0.148 A 
ATOM     41  C   UNL     1     -44.426  42.535  25.365  1.00  0.00     0.033 A 
ATOM     42  H   UNL     1     -46.617  42.088  25.253  1.00  0.00     0.083 H 
ATOM     43  C   UNL     1     -43.468  42.157  26.353  1.00  0.00     0.071 A 
ATOM     44  N   UNL     1     -43.640  40.764  28.357  1.00  0.00    -0.218 NA
ATOM     45  C   UNL     1     -42.110  42.384  26.632  1.00  0.00     0.137 A 
ATOM     46  C   UNL     1     -42.333  41.028  28.494  1.00  0.00     0.120 A 
ATOM     47  N   UNL     1     -41.555  41.799  27.714  1.00  0.00    -0.219 NA
ATOM     48  H   UNL     1     -41.840  40.570  29.346  1.00  0.00     0.106 H 
BRANCH  41  49
ATOM     49  C   UNL     1     -44.183  43.327  24.167  1.00  0.00     0.091 A 
ATOM     50  C   UNL     1     -45.024  44.211  23.529  1.00  0.00     0.032 A 
ATOM     51  N   UNL     1     -42.959  43.289  23.547  1.00  0.00    -0.237 NA
ATOM     52  N   UNL     1     -44.291  44.710  22.489  1.00  0.00    -0.334 N 
ATOM     53  H   UNL     1     -46.038  44.521  23.738  1.00  0.00     0.084 H 
ATOM     54  C   UNL     1     -43.056  44.127  22.539  1.00  0.00     0.096 A 
ATOM     55  H   UNL     1     -42.267  44.348  21.831  1.00  0.00     0.104 H 
BRANCH  52  56
ATOM     56  C   UNL     1     -44.724  45.692  21.504  1.00  0.00     0.029 C 
ATOM     57  H   UNL     1     -45.673  46.101  21.872  1.00  0.00     0.053 H 
BRANCH  56  58
ATOM     58  C   UNL     1     -44.987  45.047  20.143  1.00  0.00    -0.044 C 
ATOM     59  H   UNL     1     -46.063  44.988  19.940  1.00  0.00     0.025 H 
ATOM     60  H   UNL     1     -44.585  44.029  20.094  1.00  0.00     0.025 H 
ATOM     61  H   UNL     1     -44.524  45.631  19.342  1.00  0.00     0.025 H 
ENDBRANCH  56  58
BRANCH  56  62
ATOM     62  C   UNL     1     -43.730  46.848  21.389  1.00  0.00    -0.044 C 
ATOM     63  H   UNL     1     -44.048  47.700  22.000  1.00  0.00     0.025 H 
ATOM     64  H   UNL     1     -43.652  47.188  20.350  1.00  0.00     0.025 H 
ATOM     65  H   UNL     1     -42.728  46.555  21.723  1.00  0.00     0.025 H 
ENDBRANCH  56  62
ENDBRANCH  52  56
ENDBRANCH  41  49
BRANCH  45  66
ATOM     66  N   UNL     1     -41.279  43.224  25.898  1.00  0.00    -0.383 N 
ATOM     67  H   UNL     1     -41.403  44.180  26.216  1.00  0.00     0.158 HD
ATOM     68  H   UNL     1     -41.366  43.085  24.898  1.00  0.00     0.158 HD
ENDBRANCH  45  66
ENDBRANCH   3  38
TORSDOF 12
ENDMDL
MODEL 7
REMARK VINA RESULT:      -8.4      4.163      8.903
REMARK SMILES CNc1ccc2ccc(OC[C@H]3O[C@@H](n4cc(-c5cn(C(C)C)cn5)c5c(N)ncnc54)[C@@H](F)[C@@H]3O)cc2n1
REMARK SMILES IDX 12 1 13 2 14 3 33 4 34 5 35 6 11 11 10 14 9 15 3 16 4 17
REMARK SMILES IDX 39 18 5 19 38 21 6 22 37 24 7 25 8 27 2 30 1 32 36 36 15 38
REMARK SMILES IDX 16 39 32 40 17 41 26 43 31 44 27 45 30 46 29 47 18 49 19 50
REMARK SMILES IDX 25 51 20 52 24 54 21 56 22 58 23 62 28 66
REMARK H PARENT 12 7 14 8 33 9 35 10 11 12 11 13 4 20 5 23 37 26 7 28 8 29
REMARK H PARENT 2 31 1 33 1 34 1 35 36 37 16 42 30 48 19 53 24 55 21 57 22 59
REMARK H PARENT 22 60 22 61 23 63 23 64 23 65 28 67 28 68
REMARK Flexibility Score: inf
ROOT
ATOM      1  C   UNL     1     -43.778  44.948  25.427  1.00  0.00     0.123 C 
ATOM      2  O   UNL     1     -43.199  43.979  26.333  1.00  0.00    -0.345 OA
ATOM      3  C   UNL     1     -43.186  42.694  25.663  1.00  0.00     0.169 C 
ATOM      4  C   UNL     1     -43.989  42.837  24.376  1.00  0.00     0.173 C 
ATOM      5  F   UNL     1     -45.321  42.649  24.592  1.00  0.00    -0.239 F 
ATOM      6  C   UNL     1     -43.775  44.294  24.045  1.00  0.00     0.119 C 
ATOM      7  H   UNL     1     -43.127  45.828  25.454  1.00  0.00     0.067 H 
ATOM      8  H   UNL     1     -42.133  42.477  25.450  1.00  0.00     0.088 H 
ATOM      9  H   UNL     1     -43.664  42.141  23.596  1.00  0.00     0.074 H 
ATOM     10  H   UNL     1     -44.545  44.700  23.381  1.00  0.00     0.066 H 
ENDROOT
BRANCH   1  11
ATOM     11  C   UNL     1     -45.195  45.304  25.915  1.00  0.00     0.117 C 
ATOM     12  H   UNL     1     -45.170  46.236  26.488  1.00  0.00     0.073 H 
ATOM     13  H   UNL     1     -45.619  44.544  26.580  1.00  0.00     0.073 H 
BRANCH  11  14
ATOM     14  O   UNL     1     -46.063  45.562  24.806  1.00  0.00    -0.491 OA
BRANCH  14  15
ATOM     15  C   UNL     1     -47.333  45.058  24.817  1.00  0.00     0.121 A 
ATOM     16  C   UNL     1     -50.091  41.805  26.954  1.00  0.00     0.126 A 
ATOM     17  C   UNL     1     -51.190  42.165  26.182  1.00  0.00    -0.019 A 
ATOM     18  N   UNL     1     -48.895  42.408  26.802  1.00  0.00    -0.231 NA
ATOM     19  C   UNL     1     -51.062  43.183  25.243  1.00  0.00    -0.049 A 
ATOM     20  H   UNL     1     -52.136  41.648  26.299  1.00  0.00     0.066 H 
ATOM     21  C   UNL     1     -48.762  43.394  25.896  1.00  0.00     0.076 A 
ATOM     22  C   UNL     1     -49.830  43.823  25.087  1.00  0.00     0.001 A 
ATOM     23  H   UNL     1     -51.920  43.463  24.639  1.00  0.00     0.063 H 
ATOM     24  C   UNL     1     -47.534  44.024  25.741  1.00  0.00     0.007 A 
ATOM     25  C   UNL     1     -49.643  44.856  24.155  1.00  0.00    -0.049 A 
ATOM     26  H   UNL     1     -46.703  43.700  26.363  1.00  0.00     0.069 H 
ATOM     27  C   UNL     1     -48.397  45.473  24.022  1.00  0.00    -0.019 A 
ATOM     28  H   UNL     1     -50.467  45.185  23.526  1.00  0.00     0.063 H 
ATOM     29  H   UNL     1     -48.299  46.264  23.288  1.00  0.00     0.066 H 
BRANCH  16  30
ATOM     30  N   UNL     1     -50.252  40.753  27.875  1.00  0.00    -0.373 N 
ATOM     31  H   UNL     1     -51.081  40.224  27.626  1.00  0.00     0.161 HD
BRANCH  30  32
ATOM     32  C   UNL     1     -50.282  41.182  29.265  1.00  0.00     0.005 C 
ATOM     33  H   UNL     1     -49.470  40.687  29.806  1.00  0.00     0.045 H 
ATOM     34  H   UNL     1     -51.223  40.902  29.753  1.00  0.00     0.045 H 
ATOM     35  H   UNL     1     -50.124  42.261  29.356  1.00  0.00     0.045 H 
ENDBRANCH  30  32
ENDBRANCH  16  30
ENDBRANCH  14  15
ENDBRANCH  11  14
ENDBRANCH   1  11
BRANCH   6  36
ATOM     36  O   UNL     1     -42.508  44.449  23.397  1.00  0.00    -0.387 OA
ATOM     37  H   UNL     1     -41.864  44.765  24.057  1.00  0.00     0.211 HD
ENDBRANCH   6  36
BRANCH   3  38
ATOM     38  N   UNL     1     -43.673  41.651  26.550  1.00  0.00    -0.302 N 
ATOM     39  C   UNL     1     -44.724  40.801  26.337  1.00  0.00     0.019 A 
ATOM     40  C   UNL     1     -43.101  41.373  27.769  1.00  0.00     0.148 A 
ATOM     41  C   UNL     1     -44.841  39.982  27.443  1.00  0.00     0.033 A 
ATOM     42  H   UNL     1     -45.322  40.849  25.435  1.00  0.00     0.083 H 
ATOM     43  C   UNL     1     -43.789  40.312  28.349  1.00  0.00     0.071 A 
ATOM     44  N   UNL     1     -42.040  42.023  28.281  1.00  0.00    -0.218 NA
ATOM     45  C   UNL     1     -43.292  39.859  29.582  1.00  0.00     0.137 A 
ATOM     46  C   UNL     1     -41.684  41.520  29.472  1.00  0.00     0.120 A 
ATOM     47  N   UNL     1     -42.234  40.487  30.135  1.00  0.00    -0.219 NA
ATOM     48  H   UNL     1     -40.842  42.000  29.961  1.00  0.00     0.106 H 
BRANCH  41  49
ATOM     49  C   UNL     1     -45.872  38.971  27.628  1.00  0.00     0.091 A 
ATOM     50  C   UNL     1     -45.752  37.600  27.611  1.00  0.00     0.032 A 
ATOM     51  N   UNL     1     -47.163  39.341  27.911  1.00  0.00    -0.237 NA
ATOM     52  N   UNL     1     -47.007  37.130  27.879  1.00  0.00    -0.334 N 
ATOM     53  H   UNL     1     -44.901  36.951  27.453  1.00  0.00     0.084 H 
ATOM     54  C   UNL     1     -47.823  38.213  28.053  1.00  0.00     0.096 A 
ATOM     55  H   UNL     1     -48.877  38.130  28.284  1.00  0.00     0.104 H 
BRANCH  52  56
ATOM     56  C   UNL     1     -47.419  35.736  27.979  1.00  0.00     0.029 C 
ATOM     57  H   UNL     1     -48.270  35.714  28.671  1.00  0.00     0.053 H 
BRANCH  56  58
ATOM     58  C   UNL     1     -46.311  34.863  28.569  1.00  0.00    -0.044 C 
ATOM     59  H   UNL     1     -46.733  34.051  29.173  1.00  0.00     0.025 H 
ATOM     60  H   UNL     1     -45.641  35.441  29.215  1.00  0.00     0.025 H 
ATOM     61  H   UNL     1     -45.708  34.414  27.774  1.00  0.00     0.025 H 
ENDBRANCH  56  58
BRANCH  56  62
ATOM     62  C   UNL     1     -47.897  35.194  26.632  1.00  0.00    -0.044 C 
ATOM     63  H   UNL     1     -48.512  35.935  26.109  1.00  0.00     0.025 H 
ATOM     64  H   UNL     1     -48.502  34.291  26.773  1.00  0.00     0.025 H 
ATOM     65  H   UNL     1     -47.057  34.936  25.978  1.00  0.00     0.025 H 
ENDBRANCH  56  62
ENDBRANCH  52  56
ENDBRANCH  41  49
BRANCH  45  66
ATOM     66  N   UNL     1     -43.778  38.755  30.276  1.00  0.00    -0.383 N 
ATOM     67  H   UNL     1     -43.136  37.977  30.162  1.00  0.00     0.158 HD
ATOM     68  H   UNL     1     -44.747  38.552  30.059  1.00  0.00     0.158 HD
ENDBRANCH  45  66
ENDBRANCH   3  38
TORSDOF 12
ENDMDL
