MODEL 1
REMARK VINA RESULT:     -11.5      0.000      0.000
REMARK SMILES CC(=O)NC1CN(c2ccc3ccc(OCc4cncc(-n5cc(-c6ccn(C)n6)c6c(N)ncnc65)c4)cc3n2)C1
REMARK SMILES IDX 16 1 15 4 14 5 8 6 9 7 41 8 10 9 40 11 11 12 39 14 12 15
REMARK SMILES IDX 13 17 7 20 5 21 6 22 42 23 4 29 2 30 3 31 1 33 17 37 18 38
REMARK SMILES IDX 38 39 19 40 21 42 20 44 22 46 23 47 37 48 24 49 31 51 36 52
REMARK SMILES IDX 32 53 35 54 34 55 25 57 26 58 30 59 27 60 28 62 29 64 33 68
REMARK H PARENT 16 2 16 3 9 10 10 13 39 16 12 18 13 19 5 24 6 25 6 26 42 27
REMARK H PARENT 42 28 4 32 1 34 1 35 1 36 18 41 38 43 20 45 23 50 35 56 26 61
REMARK H PARENT 27 63 29 65 29 66 29 67 33 69 33 70
REMARK Flexibility Score: inf
ROOT
ATOM      1  C   UNL     1     -48.217  35.751  26.988  1.00  0.00     0.115 C 
ATOM      2  H   UNL     1     -49.218  36.126  27.231  1.00  0.00     0.076 H 
ATOM      3  H   UNL     1     -48.086  35.902  25.909  1.00  0.00     0.076 H 
ENDROOT
BRANCH   1   4
ATOM      4  O   UNL     1     -48.221  34.354  27.303  1.00  0.00    -0.489 OA
BRANCH   4   5
ATOM      5  C   UNL     1     -47.957  33.454  26.307  1.00  0.00     0.122 A 
ATOM      6  C   UNL     1     -49.029  29.929  23.298  1.00  0.00     0.129 A 
ATOM      7  C   UNL     1     -47.776  29.987  22.698  1.00  0.00    -0.019 A 
ATOM      8  N   UNL     1     -49.376  30.750  24.319  1.00  0.00    -0.231 NA
ATOM      9  C   UNL     1     -46.847  30.911  23.161  1.00  0.00    -0.049 A 
ATOM     10  H   UNL     1     -47.530  29.317  21.880  1.00  0.00     0.066 H 
ATOM     11  C   UNL     1     -48.479  31.644  24.768  1.00  0.00     0.076 A 
ATOM     12  C   UNL     1     -47.189  31.765  24.213  1.00  0.00     0.001 A 
ATOM     13  H   UNL     1     -45.866  30.960  22.696  1.00  0.00     0.063 H 
ATOM     14  C   UNL     1     -48.837  32.491  25.809  1.00  0.00     0.007 A 
ATOM     15  C   UNL     1     -46.295  32.723  24.711  1.00  0.00    -0.049 A 
ATOM     16  H   UNL     1     -49.838  32.374  26.210  1.00  0.00     0.069 H 
ATOM     17  C   UNL     1     -46.684  33.564  25.751  1.00  0.00    -0.019 A 
ATOM     18  H   UNL     1     -45.298  32.825  24.289  1.00  0.00     0.063 H 
ATOM     19  H   UNL     1     -45.989  34.311  26.130  1.00  0.00     0.066 H 
BRANCH   6  20
ATOM     20  N   UNL     1     -49.969  28.992  22.779  1.00  0.00    -0.352 N 
ATOM     21  C   UNL     1     -49.935  27.052  23.558  1.00  0.00     0.064 C 
ATOM     22  C   UNL     1     -50.838  28.288  23.720  1.00  0.00     0.041 C 
ATOM     23  C   UNL     1     -49.537  27.715  22.230  1.00  0.00     0.041 C 
ATOM     24  H   UNL     1     -50.461  26.099  23.448  1.00  0.00     0.057 H 
ATOM     25  H   UNL     1     -51.850  28.180  23.315  1.00  0.00     0.052 H 
ATOM     26  H   UNL     1     -50.889  28.737  24.716  1.00  0.00     0.052 H 
ATOM     27  H   UNL     1     -50.157  27.431  21.370  1.00  0.00     0.052 H 
ATOM     28  H   UNL     1     -48.485  27.666  21.939  1.00  0.00     0.052 H 
BRANCH  21  29
ATOM     29  N   UNL     1     -48.825  26.962  24.544  1.00  0.00    -0.350 N 
ATOM     30  C   UNL     1     -48.892  26.125  25.633  1.00  0.00     0.217 C 
ATOM     31  O   UNL     1     -49.797  25.314  25.806  1.00  0.00    -0.275 OA
ATOM     32  H   UNL     1     -48.225  27.784  24.624  1.00  0.00     0.163 HD
BRANCH  30  33
ATOM     33  C   UNL     1     -47.764  26.297  26.615  1.00  0.00     0.015 C 
ATOM     34  H   UNL     1     -48.010  25.767  27.539  1.00  0.00     0.033 H 
ATOM     35  H   UNL     1     -47.629  27.362  26.823  1.00  0.00     0.033 H 
ATOM     36  H   UNL     1     -46.826  25.892  26.224  1.00  0.00     0.033 H 
ENDBRANCH  30  33
ENDBRANCH  21  29
ENDBRANCH   6  20
ENDBRANCH   4   5
ENDBRANCH   1   4
BRANCH   1  37
ATOM     37  C   UNL     1     -47.227  36.546  27.801  1.00  0.00     0.010 A 
ATOM     38  C   UNL     1     -46.850  36.103  29.061  1.00  0.00     0.034 A 
ATOM     39  C   UNL     1     -46.619  37.714  27.318  1.00  0.00    -0.028 A 
ATOM     40  N   UNL     1     -45.964  36.746  29.846  1.00  0.00    -0.262 NA
ATOM     41  H   UNL     1     -47.261  35.195  29.493  1.00  0.00     0.084 H 
ATOM     42  C   UNL     1     -45.692  38.417  28.104  1.00  0.00     0.066 A 
ATOM     43  H   UNL     1     -46.887  38.041  26.319  1.00  0.00     0.065 H 
ATOM     44  C   UNL     1     -45.406  37.883  29.355  1.00  0.00     0.051 A 
ATOM     45  H   UNL     1     -44.721  38.339  30.060  1.00  0.00     0.086 H 
BRANCH  42  46
ATOM     46  N   UNL     1     -45.088  39.629  27.634  1.00  0.00    -0.299 N 
ATOM     47  C   UNL     1     -45.503  40.340  26.520  1.00  0.00     0.021 A 
ATOM     48  C   UNL     1     -44.004  40.318  28.180  1.00  0.00     0.150 A 
ATOM     49  C   UNL     1     -44.704  41.453  26.355  1.00  0.00     0.033 A 
ATOM     50  H   UNL     1     -46.335  40.013  25.917  1.00  0.00     0.083 H 
ATOM     51  C   UNL     1     -43.757  41.460  27.416  1.00  0.00     0.071 A 
ATOM     52  N   UNL     1     -43.291  39.948  29.264  1.00  0.00    -0.218 NA
ATOM     53  C   UNL     1     -42.706  42.292  27.847  1.00  0.00     0.137 A 
ATOM     54  C   UNL     1     -42.304  40.801  29.559  1.00  0.00     0.120 A 
ATOM     55  N   UNL     1     -41.976  41.930  28.917  1.00  0.00    -0.219 NA
ATOM     56  H   UNL     1     -41.695  40.551  30.422  1.00  0.00     0.106 H 
BRANCH  49  57
ATOM     57  C   UNL     1     -44.813  42.434  25.270  1.00  0.00     0.095 A 
ATOM     58  C   UNL     1     -43.980  42.462  24.129  1.00  0.00    -0.016 A 
ATOM     59  N   UNL     1     -45.701  43.438  25.258  1.00  0.00    -0.173 NA
ATOM     60  C   UNL     1     -44.416  43.540  23.395  1.00  0.00     0.025 A 
ATOM     61  H   UNL     1     -43.178  41.787  23.868  1.00  0.00     0.066 H 
ATOM     62  N   UNL     1     -45.442  44.085  24.107  1.00  0.00    -0.275 N 
ATOM     63  H   UNL     1     -44.088  43.949  22.450  1.00  0.00     0.084 H 
BRANCH  62  64
ATOM     64  C   UNL     1     -46.233  45.237  23.746  1.00  0.00     0.030 C 
ATOM     65  H   UNL     1     -46.246  45.924  24.594  1.00  0.00     0.048 H 
ATOM     66  H   UNL     1     -45.788  45.726  22.875  1.00  0.00     0.048 H 
ATOM     67  H   UNL     1     -47.245  44.898  23.508  1.00  0.00     0.048 H 
ENDBRANCH  62  64
ENDBRANCH  49  57
BRANCH  53  68
ATOM     68  N   UNL     1     -42.355  43.484  27.232  1.00  0.00    -0.383 N 
ATOM     69  H   UNL     1     -42.488  44.273  27.849  1.00  0.00     0.158 HD
ATOM     70  H   UNL     1     -41.458  43.426  26.743  1.00  0.00     0.158 HD
ENDBRANCH  53  68
ENDBRANCH  42  46
ENDBRANCH   1  37
TORSDOF 10
ENDMDL
MODEL 2
REMARK VINA RESULT:     -11.1      1.618      2.386
REMARK SMILES CC(=O)NC1CN(c2ccc3ccc(OCc4cncc(-n5cc(-c6ccn(C)n6)c6c(N)ncnc65)c4)cc3n2)C1
REMARK SMILES IDX 16 1 15 4 14 5 8 6 9 7 41 8 10 9 40 11 11 12 39 14 12 15
REMARK SMILES IDX 13 17 7 20 5 21 6 22 42 23 4 29 2 30 3 31 1 33 17 37 18 38
REMARK SMILES IDX 38 39 19 40 21 42 20 44 22 46 23 47 37 48 24 49 31 51 36 52
REMARK SMILES IDX 32 53 35 54 34 55 25 57 26 58 30 59 27 60 28 62 29 64 33 68
REMARK H PARENT 16 2 16 3 9 10 10 13 39 16 12 18 13 19 5 24 6 25 6 26 42 27
REMARK H PARENT 42 28 4 32 1 34 1 35 1 36 18 41 38 43 20 45 23 50 35 56 26 61
REMARK H PARENT 27 63 29 65 29 66 29 67 33 69 33 70
REMARK Flexibility Score: inf
ROOT
ATOM      1  C   UNL     1     -48.242  35.339  26.908  1.00  0.00     0.115 C 
ATOM      2  H   UNL     1     -49.181  35.571  27.424  1.00  0.00     0.076 H 
ATOM      3  H   UNL     1     -48.443  35.461  25.836  1.00  0.00     0.076 H 
ENDROOT
BRANCH   1   4
ATOM      4  O   UNL     1     -47.941  33.972  27.210  1.00  0.00    -0.489 OA
BRANCH   4   5
ATOM      5  C   UNL     1     -47.794  33.086  26.178  1.00  0.00     0.122 A 
ATOM      6  C   UNL     1     -49.247  29.690  23.181  1.00  0.00     0.129 A 
ATOM      7  C   UNL     1     -48.040  29.707  22.490  1.00  0.00    -0.019 A 
ATOM      8  N   UNL     1     -49.480  30.499  24.243  1.00  0.00    -0.231 NA
ATOM      9  C   UNL     1     -47.038  30.577  22.903  1.00  0.00    -0.049 A 
ATOM     10  H   UNL     1     -47.886  29.048  21.642  1.00  0.00     0.066 H 
ATOM     11  C   UNL     1     -48.511  31.341  24.643  1.00  0.00     0.076 A 
ATOM     12  C   UNL     1     -47.262  31.419  23.995  1.00  0.00     0.001 A 
ATOM     13  H   UNL     1     -46.093  30.594  22.366  1.00  0.00     0.063 H 
ATOM     14  C   UNL     1     -48.751  32.176  25.727  1.00  0.00     0.007 A 
ATOM     15  C   UNL     1     -46.290  32.324  24.446  1.00  0.00    -0.049 A 
ATOM     16  H   UNL     1     -49.725  32.094  26.198  1.00  0.00     0.069 H 
ATOM     17  C   UNL     1     -46.562  33.154  25.530  1.00  0.00    -0.019 A 
ATOM     18  H   UNL     1     -45.323  32.391  23.953  1.00  0.00     0.063 H 
ATOM     19  H   UNL     1     -45.807  33.859  25.872  1.00  0.00     0.066 H 
BRANCH   6  20
ATOM     20  N   UNL     1     -50.265  28.808  22.714  1.00  0.00    -0.352 N 
ATOM     21  C   UNL     1     -50.328  26.883  23.525  1.00  0.00     0.064 C 
ATOM     22  C   UNL     1     -51.141  28.178  23.698  1.00  0.00     0.041 C 
ATOM     23  C   UNL     1     -49.938  27.498  22.172  1.00  0.00     0.041 C 
ATOM     24  H   UNL     1     -50.918  25.964  23.452  1.00  0.00     0.057 H 
ATOM     25  H   UNL     1     -52.173  28.130  23.333  1.00  0.00     0.052 H 
ATOM     26  H   UNL     1     -51.126  28.644  24.688  1.00  0.00     0.052 H 
ATOM     27  H   UNL     1     -50.607  27.241  21.341  1.00  0.00     0.052 H 
ATOM     28  H   UNL     1     -48.902  27.375  21.844  1.00  0.00     0.052 H 
BRANCH  21  29
ATOM     29  N   UNL     1     -49.189  26.735  24.472  1.00  0.00    -0.350 N 
ATOM     30  C   UNL     1     -49.288  25.964  25.606  1.00  0.00     0.217 C 
ATOM     31  O   UNL     1     -50.257  25.255  25.857  1.00  0.00    -0.275 OA
ATOM     32  H   UNL     1     -48.511  27.498  24.484  1.00  0.00     0.163 HD
BRANCH  30  33
ATOM     33  C   UNL     1     -48.107  26.075  26.533  1.00  0.00     0.015 C 
ATOM     34  H   UNL     1     -48.353  25.596  27.485  1.00  0.00     0.033 H 
ATOM     35  H   UNL     1     -47.879  27.131  26.698  1.00  0.00     0.033 H 
ATOM     36  H   UNL     1     -47.223  25.583  26.118  1.00  0.00     0.033 H 
ENDBRANCH  30  33
ENDBRANCH  21  29
ENDBRANCH   6  20
ENDBRANCH   4   5
ENDBRANCH   1   4
BRANCH   1  37
ATOM     37  C   UNL     1     -47.201  36.307  27.409  1.00  0.00     0.010 A 
ATOM     38  C   UNL     1     -46.327  35.925  28.416  1.00  0.00     0.034 A 
ATOM     39  C   UNL     1     -47.038  37.589  26.863  1.00  0.00    -0.028 A 
ATOM     40  N   UNL     1     -45.361  36.723  28.912  1.00  0.00    -0.262 NA
ATOM     41  H   UNL     1     -46.377  34.941  28.873  1.00  0.00     0.084 H 
ATOM     42  C   UNL     1     -46.046  38.454  27.351  1.00  0.00     0.066 A 
ATOM     43  H   UNL     1     -47.699  37.874  26.051  1.00  0.00     0.065 H 
ATOM     44  C   UNL     1     -45.240  37.964  28.372  1.00  0.00     0.051 A 
ATOM     45  H   UNL     1     -44.452  38.539  28.843  1.00  0.00     0.086 H 
BRANCH  42  46
ATOM     46  N   UNL     1     -45.890  39.777  26.823  1.00  0.00    -0.299 N 
ATOM     47  C   UNL     1     -44.728  40.270  26.252  1.00  0.00     0.021 A 
ATOM     48  C   UNL     1     -46.838  40.801  26.772  1.00  0.00     0.150 A 
ATOM     49  C   UNL     1     -44.924  41.575  25.849  1.00  0.00     0.033 A 
ATOM     50  H   UNL     1     -43.838  39.667  26.168  1.00  0.00     0.083 H 
ATOM     51  C   UNL     1     -46.270  41.919  26.158  1.00  0.00     0.071 A 
ATOM     52  N   UNL     1     -48.100  40.740  27.245  1.00  0.00    -0.218 NA
ATOM     53  C   UNL     1     -47.103  43.042  25.999  1.00  0.00     0.137 A 
ATOM     54  C   UNL     1     -48.784  41.875  27.061  1.00  0.00     0.120 A 
ATOM     55  N   UNL     1     -48.360  43.004  26.478  1.00  0.00    -0.219 NA
ATOM     56  H   UNL     1     -49.806  41.883  27.425  1.00  0.00     0.106 H 
BRANCH  49  57
ATOM     57  C   UNL     1     -43.918  42.443  25.230  1.00  0.00     0.095 A 
ATOM     58  C   UNL     1     -42.734  42.879  25.868  1.00  0.00    -0.016 A 
ATOM     59  N   UNL     1     -44.026  42.946  23.992  1.00  0.00    -0.173 NA
ATOM     60  C   UNL     1     -42.102  43.676  24.942  1.00  0.00     0.025 A 
ATOM     61  H   UNL     1     -42.382  42.640  26.860  1.00  0.00     0.066 H 
ATOM     62  N   UNL     1     -42.909  43.681  23.843  1.00  0.00    -0.275 N 
ATOM     63  H   UNL     1     -41.170  44.221  24.977  1.00  0.00     0.084 H 
BRANCH  62  64
ATOM     64  C   UNL     1     -42.674  44.373  22.599  1.00  0.00     0.030 C 
ATOM     65  H   UNL     1     -43.173  43.821  21.799  1.00  0.00     0.048 H 
ATOM     66  H   UNL     1     -43.080  45.386  22.663  1.00  0.00     0.048 H 
ATOM     67  H   UNL     1     -41.595  44.412  22.425  1.00  0.00     0.048 H 
ENDBRANCH  62  64
ENDBRANCH  49  57
BRANCH  53  68
ATOM     68  N   UNL     1     -46.715  44.217  25.373  1.00  0.00    -0.383 N 
ATOM     69  H   UNL     1     -46.211  44.033  24.517  1.00  0.00     0.158 HD
ATOM     70  H   UNL     1     -47.471  44.906  25.326  1.00  0.00     0.158 HD
ENDBRANCH  53  68
ENDBRANCH  42  46
ENDBRANCH   1  37
TORSDOF 10
ENDMDL
MODEL 3
REMARK VINA RESULT:     -10.5      2.565     12.903
REMARK SMILES CC(=O)NC1CN(c2ccc3ccc(OCc4cncc(-n5cc(-c6ccn(C)n6)c6c(N)ncnc65)c4)cc3n2)C1
REMARK SMILES IDX 16 1 15 4 14 5 8 6 9 7 41 8 10 9 40 11 11 12 39 14 12 15
REMARK SMILES IDX 13 17 7 20 5 21 6 22 42 23 4 29 2 30 3 31 1 33 17 37 18 38
REMARK SMILES IDX 38 39 19 40 21 42 20 44 22 46 23 47 37 48 24 49 31 51 36 52
REMARK SMILES IDX 32 53 35 54 34 55 25 57 26 58 30 59 27 60 28 62 29 64 33 68
REMARK H PARENT 16 2 16 3 9 10 10 13 39 16 12 18 13 19 5 24 6 25 6 26 42 27
REMARK H PARENT 42 28 4 32 1 34 1 35 1 36 18 41 38 43 20 45 23 50 35 56 26 61
REMARK H PARENT 27 63 29 65 29 66 29 67 33 69 33 70
REMARK Flexibility Score: inf
ROOT
ATOM      1  C   UNL     1     -49.009  35.468  27.215  1.00  0.00     0.115 C 
ATOM      2  H   UNL     1     -49.471  36.121  26.465  1.00  0.00     0.076 H 
ATOM      3  H   UNL     1     -49.834  34.963  27.733  1.00  0.00     0.076 H 
ENDROOT
BRANCH   1   4
ATOM      4  O   UNL     1     -48.301  36.326  28.116  1.00  0.00    -0.489 OA
BRANCH   4   5
ATOM      5  C   UNL     1     -48.292  37.672  27.874  1.00  0.00     0.122 A 
ATOM      6  C   UNL     1     -46.418  41.747  26.288  1.00  0.00     0.129 A 
ATOM      7  C   UNL     1     -47.571  42.461  26.597  1.00  0.00    -0.019 A 
ATOM      8  N   UNL     1     -46.310  40.417  26.525  1.00  0.00    -0.231 NA
ATOM      9  C   UNL     1     -48.646  41.793  27.172  1.00  0.00    -0.049 A 
ATOM     10  H   UNL     1     -47.627  43.525  26.392  1.00  0.00     0.066 H 
ATOM     11  C   UNL     1     -47.349  39.770  27.081  1.00  0.00     0.076 A 
ATOM     12  C   UNL     1     -48.551  40.421  27.422  1.00  0.00     0.001 A 
ATOM     13  H   UNL     1     -49.549  42.346  27.415  1.00  0.00     0.063 H 
ATOM     14  C   UNL     1     -47.241  38.405  27.318  1.00  0.00     0.007 A 
ATOM     15  C   UNL     1     -49.609  39.696  27.989  1.00  0.00    -0.049 A 
ATOM     16  H   UNL     1     -46.305  37.935  27.039  1.00  0.00     0.069 H 
ATOM     17  C   UNL     1     -49.476  38.327  28.208  1.00  0.00    -0.019 A 
ATOM     18  H   UNL     1     -50.541  40.190  28.256  1.00  0.00     0.063 H 
ATOM     19  H   UNL     1     -50.302  37.768  28.642  1.00  0.00     0.066 H 
BRANCH   6  20
ATOM     20  N   UNL     1     -45.346  42.455  25.672  1.00  0.00    -0.352 N 
ATOM     21  C   UNL     1     -43.438  42.237  26.497  1.00  0.00     0.064 C 
ATOM     22  C   UNL     1     -44.167  41.701  25.252  1.00  0.00     0.041 C 
ATOM     23  C   UNL     1     -44.494  43.352  26.439  1.00  0.00     0.041 C 
ATOM     24  H   UNL     1     -42.411  42.577  26.329  1.00  0.00     0.057 H 
ATOM     25  H   UNL     1     -43.784  42.071  24.295  1.00  0.00     0.052 H 
ATOM     26  H   UNL     1     -44.316  40.619  25.192  1.00  0.00     0.052 H 
ATOM     27  H   UNL     1     -44.207  44.225  25.841  1.00  0.00     0.052 H 
ATOM     28  H   UNL     1     -44.915  43.695  27.388  1.00  0.00     0.052 H 
BRANCH  21  29
ATOM     29  N   UNL     1     -43.544  41.367  27.700  1.00  0.00    -0.350 N 
ATOM     30  C   UNL     1     -42.531  41.289  28.626  1.00  0.00     0.217 C 
ATOM     31  O   UNL     1     -41.536  42.007  28.600  1.00  0.00    -0.275 OA
ATOM     32  H   UNL     1     -44.166  40.561  27.620  1.00  0.00     0.163 HD
BRANCH  30  33
ATOM     33  C   UNL     1     -42.734  40.229  29.675  1.00  0.00     0.015 C 
ATOM     34  H   UNL     1     -41.902  40.263  30.384  1.00  0.00     0.033 H 
ATOM     35  H   UNL     1     -42.769  39.248  29.192  1.00  0.00     0.033 H 
ATOM     36  H   UNL     1     -43.665  40.383  30.228  1.00  0.00     0.033 H 
ENDBRANCH  30  33
ENDBRANCH  21  29
ENDBRANCH   6  20
ENDBRANCH   4   5
ENDBRANCH   1   4
BRANCH   1  37
ATOM     37  C   UNL     1     -48.115  34.500  26.482  1.00  0.00     0.010 A 
ATOM     38  C   UNL     1     -46.786  34.824  26.249  1.00  0.00     0.034 A 
ATOM     39  C   UNL     1     -48.559  33.240  26.053  1.00  0.00    -0.028 A 
ATOM     40  N   UNL     1     -45.919  34.012  25.613  1.00  0.00    -0.262 NA
ATOM     41  H   UNL     1     -46.365  35.771  26.571  1.00  0.00     0.084 H 
ATOM     42  C   UNL     1     -47.689  32.364  25.385  1.00  0.00     0.066 A 
ATOM     43  H   UNL     1     -49.588  32.974  26.267  1.00  0.00     0.065 H 
ATOM     44  C   UNL     1     -46.384  32.805  25.197  1.00  0.00     0.051 A 
ATOM     45  H   UNL     1     -45.624  32.229  24.684  1.00  0.00     0.086 H 
BRANCH  42  46
ATOM     46  N   UNL     1     -48.139  31.087  24.915  1.00  0.00    -0.299 N 
ATOM     47  C   UNL     1     -48.650  30.082  25.719  1.00  0.00     0.021 A 
ATOM     48  C   UNL     1     -48.159  30.611  23.602  1.00  0.00     0.150 A 
ATOM     49  C   UNL     1     -48.985  28.991  24.945  1.00  0.00     0.033 A 
ATOM     50  H   UNL     1     -48.743  30.204  26.787  1.00  0.00     0.083 H 
ATOM     51  C   UNL     1     -48.694  29.322  23.592  1.00  0.00     0.071 A 
ATOM     52  N   UNL     1     -47.724  31.273  22.510  1.00  0.00    -0.218 NA
ATOM     53  C   UNL     1     -48.814  28.699  22.336  1.00  0.00     0.137 A 
ATOM     54  C   UNL     1     -47.864  30.570  21.381  1.00  0.00     0.120 A 
ATOM     55  N   UNL     1     -48.371  29.339  21.238  1.00  0.00    -0.219 NA
ATOM     56  H   UNL     1     -47.528  31.054  20.470  1.00  0.00     0.106 H 
BRANCH  49  57
ATOM     57  C   UNL     1     -49.528  27.721  25.439  1.00  0.00     0.095 A 
ATOM     58  C   UNL     1     -48.793  26.517  25.528  1.00  0.00    -0.016 A 
ATOM     59  N   UNL     1     -50.798  27.556  25.835  1.00  0.00    -0.173 NA
ATOM     60  C   UNL     1     -49.684  25.591  26.019  1.00  0.00     0.025 A 
ATOM     61  H   UNL     1     -47.757  26.344  25.278  1.00  0.00     0.066 H 
ATOM     62  N   UNL     1     -50.860  26.259  26.188  1.00  0.00    -0.275 N 
ATOM     63  H   UNL     1     -49.577  24.542  26.257  1.00  0.00     0.084 H 
BRANCH  62  64
ATOM     64  C   UNL     1     -52.100  25.718  26.690  1.00  0.00     0.030 C 
ATOM     65  H   UNL     1     -51.941  25.390  27.719  1.00  0.00     0.048 H 
ATOM     66  H   UNL     1     -52.873  26.491  26.659  1.00  0.00     0.048 H 
ATOM     67  H   UNL     1     -52.389  24.875  26.057  1.00  0.00     0.048 H 
ENDBRANCH  62  64
ENDBRANCH  49  57
BRANCH  53  68
ATOM     68  N   UNL     1     -49.363  27.441  22.140  1.00  0.00    -0.383 N 
ATOM     69  H   UNL     1     -49.060  27.036  21.265  1.00  0.00     0.158 HD
ATOM     70  H   UNL     1     -49.296  26.848  22.971  1.00  0.00     0.158 HD
ENDBRANCH  53  68
ENDBRANCH  42  46
ENDBRANCH   1  37
TORSDOF 10
ENDMDL
MODEL 4
REMARK VINA RESULT:     -10.0      2.493     13.235
REMARK SMILES CC(=O)NC1CN(c2ccc3ccc(OCc4cncc(-n5cc(-c6ccn(C)n6)c6c(N)ncnc65)c4)cc3n2)C1
REMARK SMILES IDX 16 1 15 4 14 5 8 6 9 7 41 8 10 9 40 11 11 12 39 14 12 15
REMARK SMILES IDX 13 17 7 20 5 21 6 22 42 23 4 29 2 30 3 31 1 33 17 37 18 38
REMARK SMILES IDX 38 39 19 40 21 42 20 44 22 46 23 47 37 48 24 49 31 51 36 52
REMARK SMILES IDX 32 53 35 54 34 55 25 57 26 58 30 59 27 60 28 62 29 64 33 68
REMARK H PARENT 16 2 16 3 9 10 10 13 39 16 12 18 13 19 5 24 6 25 6 26 42 27
REMARK H PARENT 42 28 4 32 1 34 1 35 1 36 18 41 38 43 20 45 23 50 35 56 26 61
REMARK H PARENT 27 63 29 65 29 66 29 67 33 69 33 70
REMARK Flexibility Score: inf
ROOT
ATOM      1  C   UNL     1     -48.111  35.196  27.414  1.00  0.00     0.115 C 
ATOM      2  H   UNL     1     -49.151  34.964  27.671  1.00  0.00     0.076 H 
ATOM      3  H   UNL     1     -47.539  35.119  28.347  1.00  0.00     0.076 H 
ENDROOT
BRANCH   1   4
ATOM      4  O   UNL     1     -48.104  36.544  26.930  1.00  0.00    -0.489 OA
BRANCH   4   5
ATOM      5  C   UNL     1     -47.072  37.367  27.290  1.00  0.00     0.122 A 
ATOM      6  C   UNL     1     -44.140  41.076  26.760  1.00  0.00     0.129 A 
ATOM      7  C   UNL     1     -43.524  40.832  27.982  1.00  0.00    -0.019 A 
ATOM      8  N   UNL     1     -45.145  40.295  26.293  1.00  0.00    -0.231 NA
ATOM      9  C   UNL     1     -43.945  39.752  28.749  1.00  0.00    -0.049 A 
ATOM     10  H   UNL     1     -42.723  41.478  28.329  1.00  0.00     0.066 H 
ATOM     11  C   UNL     1     -45.554  39.250  27.034  1.00  0.00     0.076 A 
ATOM     12  C   UNL     1     -44.981  38.938  28.283  1.00  0.00     0.001 A 
ATOM     13  H   UNL     1     -43.466  39.558  29.705  1.00  0.00     0.063 H 
ATOM     14  C   UNL     1     -46.588  38.454  26.559  1.00  0.00     0.007 A 
ATOM     15  C   UNL     1     -45.453  37.844  29.020  1.00  0.00    -0.049 A 
ATOM     16  H   UNL     1     -47.011  38.726  25.598  1.00  0.00     0.069 H 
ATOM     17  C   UNL     1     -46.497  37.067  28.524  1.00  0.00    -0.019 A 
ATOM     18  H   UNL     1     -45.017  37.595  29.985  1.00  0.00     0.063 H 
ATOM     19  H   UNL     1     -46.865  36.223  29.103  1.00  0.00     0.066 H 
BRANCH   6  20
ATOM     20  N   UNL     1     -43.705  42.208  26.012  1.00  0.00    -0.352 N 
ATOM     21  C   UNL     1     -45.153  43.594  25.419  1.00  0.00     0.064 C 
ATOM     22  C   UNL     1     -44.059  43.539  26.500  1.00  0.00     0.041 C 
ATOM     23  C   UNL     1     -44.293  42.530  24.720  1.00  0.00     0.041 C 
ATOM     24  H   UNL     1     -45.231  44.542  24.877  1.00  0.00     0.057 H 
ATOM     25  H   UNL     1     -43.231  44.242  26.358  1.00  0.00     0.052 H 
ATOM     26  H   UNL     1     -44.389  43.570  27.542  1.00  0.00     0.052 H 
ATOM     27  H   UNL     1     -43.535  42.930  24.035  1.00  0.00     0.052 H 
ATOM     28  H   UNL     1     -44.815  41.705  24.228  1.00  0.00     0.052 H 
BRANCH  21  29
ATOM     29  N   UNL     1     -46.485  43.099  25.861  1.00  0.00    -0.350 N 
ATOM     30  C   UNL     1     -47.632  43.829  25.655  1.00  0.00     0.217 C 
ATOM     31  O   UNL     1     -47.664  44.863  24.996  1.00  0.00    -0.275 OA
ATOM     32  H   UNL     1     -46.486  42.440  26.641  1.00  0.00     0.163 HD
BRANCH  30  33
ATOM     33  C   UNL     1     -48.855  43.260  26.323  1.00  0.00     0.015 C 
ATOM     34  H   UNL     1     -48.779  43.418  27.403  1.00  0.00     0.033 H 
ATOM     35  H   UNL     1     -48.915  42.189  26.109  1.00  0.00     0.033 H 
ATOM     36  H   UNL     1     -49.769  43.742  25.968  1.00  0.00     0.033 H 
ENDBRANCH  30  33
ENDBRANCH  21  29
ENDBRANCH   6  20
ENDBRANCH   4   5
ENDBRANCH   1   4
BRANCH   1  37
ATOM     37  C   UNL     1     -47.664  34.188  26.385  1.00  0.00     0.010 A 
ATOM     38  C   UNL     1     -46.448  34.350  25.737  1.00  0.00     0.034 A 
ATOM     39  C   UNL     1     -48.414  33.043  26.076  1.00  0.00    -0.028 A 
ATOM     40  N   UNL     1     -45.971  33.491  24.816  1.00  0.00    -0.262 NA
ATOM     41  H   UNL     1     -45.803  35.200  25.940  1.00  0.00     0.084 H 
ATOM     42  C   UNL     1     -47.955  32.123  25.121  1.00  0.00     0.066 A 
ATOM     43  H   UNL     1     -49.348  32.898  26.609  1.00  0.00     0.065 H 
ATOM     44  C   UNL     1     -46.728  32.400  24.528  1.00  0.00     0.051 A 
ATOM     45  H   UNL     1     -46.274  31.777  23.767  1.00  0.00     0.086 H 
BRANCH  42  46
ATOM     46  N   UNL     1     -48.726  30.966  24.774  1.00  0.00    -0.299 N 
ATOM     47  C   UNL     1     -48.855  29.834  25.563  1.00  0.00     0.021 A 
ATOM     48  C   UNL     1     -49.481  30.748  23.620  1.00  0.00     0.150 A 
ATOM     49  C   UNL     1     -49.666  28.915  24.930  1.00  0.00     0.033 A 
ATOM     50  H   UNL     1     -48.364  29.752  26.520  1.00  0.00     0.083 H 
ATOM     51  C   UNL     1     -50.086  29.493  23.700  1.00  0.00     0.071 A 
ATOM     52  N   UNL     1     -49.606  31.599  22.580  1.00  0.00    -0.218 NA
ATOM     53  C   UNL     1     -50.913  29.122  22.623  1.00  0.00     0.137 A 
ATOM     54  C   UNL     1     -50.392  31.125  21.608  1.00  0.00     0.120 A 
ATOM     55  N   UNL     1     -51.037  29.952  21.571  1.00  0.00    -0.219 NA
ATOM     56  H   UNL     1     -50.526  31.768  20.744  1.00  0.00     0.106 H 
BRANCH  49  57
ATOM     57  C   UNL     1     -50.014  27.584  25.437  1.00  0.00     0.095 A 
ATOM     58  C   UNL     1     -49.145  26.469  25.421  1.00  0.00    -0.016 A 
ATOM     59  N   UNL     1     -51.212  27.269  25.948  1.00  0.00    -0.173 NA
ATOM     60  C   UNL     1     -49.875  25.439  25.968  1.00  0.00     0.025 A 
ATOM     61  H   UNL     1     -48.125  26.419  25.068  1.00  0.00     0.066 H 
ATOM     62  N   UNL     1     -51.095  25.967  26.268  1.00  0.00    -0.275 N 
ATOM     63  H   UNL     1     -49.628  24.406  26.164  1.00  0.00     0.084 H 
BRANCH  62  64
ATOM     64  C   UNL     1     -52.212  25.280  26.871  1.00  0.00     0.030 C 
ATOM     65  H   UNL     1     -52.843  24.884  26.072  1.00  0.00     0.048 H 
ATOM     66  H   UNL     1     -51.843  24.464  27.497  1.00  0.00     0.048 H 
ATOM     67  H   UNL     1     -52.768  25.997  27.480  1.00  0.00     0.048 H 
ENDBRANCH  62  64
ENDBRANCH  49  57
BRANCH  53  68
ATOM     68  N   UNL     1     -51.623  27.933  22.560  1.00  0.00    -0.383 N 
ATOM     69  H   UNL     1     -51.107  27.170  22.974  1.00  0.00     0.158 HD
ATOM     70  H   UNL     1     -52.599  28.042  22.848  1.00  0.00     0.158 HD
ENDBRANCH  53  68
ENDBRANCH  42  46
ENDBRANCH   1  37
TORSDOF 10
ENDMDL
MODEL 5
REMARK VINA RESULT:      -9.9      2.929     13.408
REMARK SMILES CC(=O)NC1CN(c2ccc3ccc(OCc4cncc(-n5cc(-c6ccn(C)n6)c6c(N)ncnc65)c4)cc3n2)C1
REMARK SMILES IDX 16 1 15 4 14 5 8 6 9 7 41 8 10 9 40 11 11 12 39 14 12 15
REMARK SMILES IDX 13 17 7 20 5 21 6 22 42 23 4 29 2 30 3 31 1 33 17 37 18 38
REMARK SMILES IDX 38 39 19 40 21 42 20 44 22 46 23 47 37 48 24 49 31 51 36 52
REMARK SMILES IDX 32 53 35 54 34 55 25 57 26 58 30 59 27 60 28 62 29 64 33 68
REMARK H PARENT 16 2 16 3 9 10 10 13 39 16 12 18 13 19 5 24 6 25 6 26 42 27
REMARK H PARENT 42 28 4 32 1 34 1 35 1 36 18 41 38 43 20 45 23 50 35 56 26 61
REMARK H PARENT 27 63 29 65 29 66 29 67 33 69 33 70
REMARK Flexibility Score: inf
ROOT
ATOM      1  C   UNL     1     -45.901  35.739  27.556  1.00  0.00     0.115 C 
ATOM      2  H   UNL     1     -45.310  35.095  28.218  1.00  0.00     0.076 H 
ATOM      3  H   UNL     1     -45.241  36.012  26.723  1.00  0.00     0.076 H 
ENDROOT
BRANCH   1   4
ATOM      4  O   UNL     1     -46.248  36.897  28.322  1.00  0.00    -0.489 OA
BRANCH   4   5
ATOM      5  C   UNL     1     -45.399  37.969  28.317  1.00  0.00     0.122 A 
ATOM      6  C   UNL     1     -43.388  41.858  26.454  1.00  0.00     0.129 A 
ATOM      7  C   UNL     1     -42.650  42.095  27.609  1.00  0.00    -0.019 A 
ATOM      8  N   UNL     1     -44.229  40.800  26.343  1.00  0.00    -0.231 NA
ATOM      9  C   UNL     1     -42.773  41.220  28.682  1.00  0.00    -0.049 A 
ATOM     10  H   UNL     1     -41.987  42.953  27.668  1.00  0.00     0.066 H 
ATOM     11  C   UNL     1     -44.348  39.953  27.380  1.00  0.00     0.076 A 
ATOM     12  C   UNL     1     -43.636  40.126  28.583  1.00  0.00     0.001 A 
ATOM     13  H   UNL     1     -42.198  41.402  29.586  1.00  0.00     0.063 H 
ATOM     14  C   UNL     1     -45.215  38.873  27.269  1.00  0.00     0.007 A 
ATOM     15  C   UNL     1     -43.806  39.219  29.639  1.00  0.00    -0.049 A 
ATOM     16  H   UNL     1     -45.751  38.774  26.332  1.00  0.00     0.069 H 
ATOM     17  C   UNL     1     -44.688  38.150  29.503  1.00  0.00    -0.019 A 
ATOM     18  H   UNL     1     -43.261  39.343  30.572  1.00  0.00     0.063 H 
ATOM     19  H   UNL     1     -44.822  37.452  30.327  1.00  0.00     0.066 H 
BRANCH   6  20
ATOM     20  N   UNL     1     -43.263  42.790  25.384  1.00  0.00    -0.352 N 
ATOM     21  C   UNL     1     -43.580  44.811  25.815  1.00  0.00     0.064 C 
ATOM     22  C   UNL     1     -42.353  43.921  25.552  1.00  0.00     0.041 C 
ATOM     23  C   UNL     1     -44.341  43.712  25.057  1.00  0.00     0.041 C 
ATOM     24  H   UNL     1     -43.570  45.784  25.315  1.00  0.00     0.057 H 
ATOM     25  H   UNL     1     -41.816  44.135  24.621  1.00  0.00     0.052 H 
ATOM     26  H   UNL     1     -41.635  43.811  26.370  1.00  0.00     0.052 H 
ATOM     27  H   UNL     1     -44.407  43.865  23.973  1.00  0.00     0.052 H 
ATOM     28  H   UNL     1     -45.326  43.429  25.436  1.00  0.00     0.052 H 
BRANCH  21  29
ATOM     29  N   UNL     1     -43.962  44.930  27.249  1.00  0.00    -0.350 N 
ATOM     30  C   UNL     1     -44.354  46.130  27.794  1.00  0.00     0.217 C 
ATOM     31  O   UNL     1     -44.535  47.146  27.130  1.00  0.00    -0.275 OA
ATOM     32  H   UNL     1     -43.557  44.240  27.883  1.00  0.00     0.163 HD
BRANCH  30  33
ATOM     33  C   UNL     1     -44.529  46.101  29.289  1.00  0.00     0.015 C 
ATOM     34  H   UNL     1     -44.708  45.070  29.609  1.00  0.00     0.033 H 
ATOM     35  H   UNL     1     -45.384  46.727  29.562  1.00  0.00     0.033 H 
ATOM     36  H   UNL     1     -43.640  46.473  29.806  1.00  0.00     0.033 H 
ENDBRANCH  30  33
ENDBRANCH  21  29
ENDBRANCH   6  20
ENDBRANCH   4   5
ENDBRANCH   1   4
BRANCH   1  37
ATOM     37  C   UNL     1     -47.097  34.941  27.101  1.00  0.00     0.010 A 
ATOM     38  C   UNL     1     -48.370  35.484  27.197  1.00  0.00     0.034 A 
ATOM     39  C   UNL     1     -46.980  33.665  26.529  1.00  0.00    -0.028 A 
ATOM     40  N   UNL     1     -49.488  34.844  26.803  1.00  0.00    -0.262 NA
ATOM     41  H   UNL     1     -48.539  36.475  27.609  1.00  0.00     0.084 H 
ATOM     42  C   UNL     1     -48.119  32.962  26.107  1.00  0.00     0.066 A 
ATOM     43  H   UNL     1     -45.981  33.256  26.422  1.00  0.00     0.065 H 
ATOM     44  C   UNL     1     -49.341  33.604  26.268  1.00  0.00     0.051 A 
ATOM     45  H   UNL     1     -50.292  33.161  25.996  1.00  0.00     0.086 H 
BRANCH  42  46
ATOM     46  N   UNL     1     -48.014  31.646  25.550  1.00  0.00    -0.299 N 
ATOM     47  C   UNL     1     -48.551  30.501  26.117  1.00  0.00     0.021 A 
ATOM     48  C   UNL     1     -47.381  31.259  24.368  1.00  0.00     0.150 A 
ATOM     49  C   UNL     1     -48.266  29.410  25.322  1.00  0.00     0.033 A 
ATOM     50  H   UNL     1     -49.099  30.533  27.045  1.00  0.00     0.083 H 
ATOM     51  C   UNL     1     -47.537  29.882  24.195  1.00  0.00     0.071 A 
ATOM     52  N   UNL     1     -46.711  32.069  23.523  1.00  0.00    -0.218 NA
ATOM     53  C   UNL     1     -46.978  29.325  23.030  1.00  0.00     0.137 A 
ATOM     54  C   UNL     1     -46.203  31.423  22.468  1.00  0.00     0.120 A 
ATOM     55  N   UNL     1     -46.294  30.117  22.184  1.00  0.00    -0.219 NA
ATOM     56  H   UNL     1     -45.651  32.027  21.756  1.00  0.00     0.106 H 
BRANCH  49  57
ATOM     57  C   UNL     1     -48.641  28.021  25.605  1.00  0.00     0.095 A 
ATOM     58  C   UNL     1     -49.962  27.522  25.555  1.00  0.00    -0.016 A 
ATOM     59  N   UNL     1     -47.768  27.073  25.973  1.00  0.00    -0.173 NA
ATOM     60  C   UNL     1     -49.857  26.195  25.902  1.00  0.00     0.025 A 
ATOM     61  H   UNL     1     -50.868  28.049  25.294  1.00  0.00     0.066 H 
ATOM     62  N   UNL     1     -48.532  25.977  26.137  1.00  0.00    -0.275 N 
ATOM     63  H   UNL     1     -50.596  25.413  25.995  1.00  0.00     0.084 H 
BRANCH  62  64
ATOM     64  C   UNL     1     -47.914  24.732  26.527  1.00  0.00     0.030 C 
ATOM     65  H   UNL     1     -46.868  24.756  26.215  1.00  0.00     0.048 H 
ATOM     66  H   UNL     1     -47.979  24.617  27.612  1.00  0.00     0.048 H 
ATOM     67  H   UNL     1     -48.445  23.915  26.032  1.00  0.00     0.048 H 
ENDBRANCH  62  64
ENDBRANCH  49  57
BRANCH  53  68
ATOM     68  N   UNL     1     -47.078  27.987  22.681  1.00  0.00    -0.383 N 
ATOM     69  H   UNL     1     -46.173  27.590  22.470  1.00  0.00     0.158 HD
ATOM     70  H   UNL     1     -47.679  27.458  23.318  1.00  0.00     0.158 HD
ENDBRANCH  53  68
ENDBRANCH  42  46
ENDBRANCH   1  37
TORSDOF 10
ENDMDL
MODEL 6
REMARK VINA RESULT:      -9.9      1.781      2.480
REMARK SMILES CC(=O)NC1CN(c2ccc3ccc(OCc4cncc(-n5cc(-c6ccn(C)n6)c6c(N)ncnc65)c4)cc3n2)C1
REMARK SMILES IDX 16 1 15 4 14 5 8 6 9 7 41 8 10 9 40 11 11 12 39 14 12 15
REMARK SMILES IDX 13 17 7 20 5 21 6 22 42 23 4 29 2 30 3 31 1 33 17 37 18 38
REMARK SMILES IDX 38 39 19 40 21 42 20 44 22 46 23 47 37 48 24 49 31 51 36 52
REMARK SMILES IDX 32 53 35 54 34 55 25 57 26 58 30 59 27 60 28 62 29 64 33 68
REMARK H PARENT 16 2 16 3 9 10 10 13 39 16 12 18 13 19 5 24 6 25 6 26 42 27
REMARK H PARENT 42 28 4 32 1 34 1 35 1 36 18 41 38 43 20 45 23 50 35 56 26 61
REMARK H PARENT 27 63 29 65 29 66 29 67 33 69 33 70
REMARK Flexibility Score: inf
ROOT
ATOM      1  C   UNL     1     -47.488  35.360  28.000  1.00  0.00     0.115 C 
ATOM      2  H   UNL     1     -47.259  34.371  28.415  1.00  0.00     0.076 H 
ATOM      3  H   UNL     1     -48.565  35.511  28.142  1.00  0.00     0.076 H 
ENDROOT
BRANCH   1   4
ATOM      4  O   UNL     1     -47.170  35.296  26.605  1.00  0.00    -0.489 OA
BRANCH   4   5
ATOM      5  C   UNL     1     -47.278  34.096  25.959  1.00  0.00     0.122 A 
ATOM      6  C   UNL     1     -49.622  30.332  24.235  1.00  0.00     0.129 A 
ATOM      7  C   UNL     1     -48.467  29.803  23.669  1.00  0.00    -0.019 A 
ATOM      8  N   UNL     1     -49.615  31.496  24.929  1.00  0.00    -0.231 NA
ATOM      9  C   UNL     1     -47.265  30.484  23.824  1.00  0.00    -0.049 A 
ATOM     10  H   UNL     1     -48.506  28.870  23.117  1.00  0.00     0.066 H 
ATOM     11  C   UNL     1     -48.454  32.156  25.079  1.00  0.00     0.076 A 
ATOM     12  C   UNL     1     -47.241  31.686  24.536  1.00  0.00     0.001 A 
ATOM     13  H   UNL     1     -46.360  30.075  23.384  1.00  0.00     0.063 H 
ATOM     14  C   UNL     1     -48.447  33.352  25.785  1.00  0.00     0.007 A 
ATOM     15  C   UNL     1     -46.060  32.420  24.712  1.00  0.00    -0.049 A 
ATOM     16  H   UNL     1     -49.398  33.688  26.185  1.00  0.00     0.069 H 
ATOM     17  C   UNL     1     -46.084  33.621  25.418  1.00  0.00    -0.019 A 
ATOM     18  H   UNL     1     -45.119  32.066  24.297  1.00  0.00     0.063 H 
ATOM     19  H   UNL     1     -45.166  34.190  25.546  1.00  0.00     0.066 H 
BRANCH   6  20
ATOM     20  N   UNL     1     -50.842  29.625  24.032  1.00  0.00    -0.352 N 
ATOM     21  C   UNL     1     -51.705  29.702  22.130  1.00  0.00     0.064 C 
ATOM     22  C   UNL     1     -50.912  28.660  22.938  1.00  0.00     0.041 C 
ATOM     23  C   UNL     1     -52.025  30.295  23.511  1.00  0.00     0.041 C 
ATOM     24  H   UNL     1     -52.575  29.315  21.590  1.00  0.00     0.057 H 
ATOM     25  H   UNL     1     -51.481  27.771  23.233  1.00  0.00     0.052 H 
ATOM     26  H   UNL     1     -49.941  28.355  22.537  1.00  0.00     0.052 H 
ATOM     27  H   UNL     1     -52.935  29.901  23.980  1.00  0.00     0.052 H 
ATOM     28  H   UNL     1     -52.022  31.384  23.604  1.00  0.00     0.052 H 
BRANCH  21  29
ATOM     29  N   UNL     1     -50.870  30.587  21.272  1.00  0.00    -0.350 N 
ATOM     30  C   UNL     1     -50.285  30.128  20.116  1.00  0.00     0.217 C 
ATOM     31  O   UNL     1     -50.501  29.016  19.645  1.00  0.00    -0.275 OA
ATOM     32  H   UNL     1     -50.424  31.377  21.739  1.00  0.00     0.163 HD
BRANCH  30  33
ATOM     33  C   UNL     1     -49.335  31.105  19.475  1.00  0.00     0.015 C 
ATOM     34  H   UNL     1     -49.527  31.137  18.399  1.00  0.00     0.033 H 
ATOM     35  H   UNL     1     -48.307  30.778  19.659  1.00  0.00     0.033 H 
ATOM     36  H   UNL     1     -49.461  32.113  19.879  1.00  0.00     0.033 H 
ENDBRANCH  30  33
ENDBRANCH  21  29
ENDBRANCH   6  20
ENDBRANCH   4   5
ENDBRANCH   1   4
BRANCH   1  37
ATOM     37  C   UNL     1     -46.663  36.369  28.757  1.00  0.00     0.010 A 
ATOM     38  C   UNL     1     -46.407  36.182  30.108  1.00  0.00     0.034 A 
ATOM     39  C   UNL     1     -46.089  37.491  28.140  1.00  0.00    -0.028 A 
ATOM     40  N   UNL     1     -45.670  37.028  30.855  1.00  0.00    -0.262 NA
ATOM     41  H   UNL     1     -46.798  35.326  30.650  1.00  0.00     0.084 H 
ATOM     42  C   UNL     1     -45.317  38.399  28.881  1.00  0.00     0.066 A 
ATOM     43  H   UNL     1     -46.261  37.618  27.076  1.00  0.00     0.065 H 
ATOM     44  C   UNL     1     -45.142  38.112  30.230  1.00  0.00     0.051 A 
ATOM     45  H   UNL     1     -44.581  38.743  30.909  1.00  0.00     0.086 H 
BRANCH  42  46
ATOM     46  N   UNL     1     -44.752  39.565  28.268  1.00  0.00    -0.299 N 
ATOM     47  C   UNL     1     -45.260  40.195  27.144  1.00  0.00     0.021 A 
ATOM     48  C   UNL     1     -43.621  40.283  28.663  1.00  0.00     0.150 A 
ATOM     49  C   UNL     1     -44.476  41.283  26.824  1.00  0.00     0.033 A 
ATOM     50  H   UNL     1     -46.144  39.831  26.643  1.00  0.00     0.083 H 
ATOM     51  C   UNL     1     -43.439  41.361  27.795  1.00  0.00     0.071 A 
ATOM     52  N   UNL     1     -42.817  39.988  29.705  1.00  0.00    -0.218 NA
ATOM     53  C   UNL     1     -42.351  42.212  28.067  1.00  0.00     0.137 A 
ATOM     54  C   UNL     1     -41.804  40.851  29.846  1.00  0.00     0.120 A 
ATOM     55  N   UNL     1     -41.530  41.925  29.094  1.00  0.00    -0.219 NA
ATOM     56  H   UNL     1     -41.123  40.661  30.669  1.00  0.00     0.106 H 
BRANCH  49  57
ATOM     57  C   UNL     1     -44.676  42.180  25.682  1.00  0.00     0.095 A 
ATOM     58  C   UNL     1     -44.022  42.048  24.436  1.00  0.00    -0.016 A 
ATOM     59  N   UNL     1     -45.484  43.249  25.705  1.00  0.00    -0.173 NA
ATOM     60  C   UNL     1     -44.486  43.097  23.676  1.00  0.00     0.025 A 
ATOM     61  H   UNL     1     -43.317  41.291  24.126  1.00  0.00     0.066 H 
ATOM     62  N   UNL     1     -45.355  43.778  24.474  1.00  0.00    -0.275 N 
ATOM     63  H   UNL     1     -44.274  43.400  22.661  1.00  0.00     0.084 H 
BRANCH  62  64
ATOM     64  C   UNL     1     -46.108  44.959  24.126  1.00  0.00     0.030 C 
ATOM     65  H   UNL     1     -46.990  45.006  24.769  1.00  0.00     0.048 H 
ATOM     66  H   UNL     1     -45.487  45.846  24.278  1.00  0.00     0.048 H 
ATOM     67  H   UNL     1     -46.401  44.883  23.076  1.00  0.00     0.048 H 
ENDBRANCH  62  64
ENDBRANCH  49  57
BRANCH  53  68
ATOM     68  N   UNL     1     -42.051  43.350  27.334  1.00  0.00    -0.383 N 
ATOM     69  H   UNL     1     -41.803  44.123  27.935  1.00  0.00     0.158 HD
ATOM     70  H   UNL     1     -41.426  43.158  26.546  1.00  0.00     0.158 HD
ENDBRANCH  53  68
ENDBRANCH  42  46
ENDBRANCH   1  37
TORSDOF 10
ENDMDL
MODEL 7
REMARK VINA RESULT:      -9.7      2.883     12.895
REMARK SMILES CC(=O)NC1CN(c2ccc3ccc(OCc4cncc(-n5cc(-c6ccn(C)n6)c6c(N)ncnc65)c4)cc3n2)C1
REMARK SMILES IDX 16 1 15 4 14 5 8 6 9 7 41 8 10 9 40 11 11 12 39 14 12 15
REMARK SMILES IDX 13 17 7 20 5 21 6 22 42 23 4 29 2 30 3 31 1 33 17 37 18 38
REMARK SMILES IDX 38 39 19 40 21 42 20 44 22 46 23 47 37 48 24 49 31 51 36 52
REMARK SMILES IDX 32 53 35 54 34 55 25 57 26 58 30 59 27 60 28 62 29 64 33 68
REMARK H PARENT 16 2 16 3 9 10 10 13 39 16 12 18 13 19 5 24 6 25 6 26 42 27
REMARK H PARENT 42 28 4 32 1 34 1 35 1 36 18 41 38 43 20 45 23 50 35 56 26 61
REMARK H PARENT 27 63 29 65 29 66 29 67 33 69 33 70
REMARK Flexibility Score: inf
ROOT
ATOM      1  C   UNL     1     -46.821  36.862  26.344  1.00  0.00     0.115 C 
ATOM      2  H   UNL     1     -46.045  37.083  25.601  1.00  0.00     0.076 H 
ATOM      3  H   UNL     1     -47.781  37.068  25.855  1.00  0.00     0.076 H 
ENDROOT
BRANCH   1   4
ATOM      4  O   UNL     1     -46.607  37.767  27.433  1.00  0.00    -0.489 OA
BRANCH   4   5
ATOM      5  C   UNL     1     -47.011  39.066  27.299  1.00  0.00     0.122 A 
ATOM      6  C   UNL     1     -46.703  43.521  25.658  1.00  0.00     0.129 A 
ATOM      7  C   UNL     1     -47.899  43.885  26.265  1.00  0.00    -0.019 A 
ATOM      8  N   UNL     1     -46.194  42.269  25.764  1.00  0.00    -0.231 NA
ATOM      9  C   UNL     1     -48.596  42.940  27.008  1.00  0.00    -0.049 A 
ATOM     10  H   UNL     1     -48.281  44.896  26.159  1.00  0.00     0.066 H 
ATOM     11  C   UNL     1     -46.867  41.353  26.482  1.00  0.00     0.076 A 
ATOM     12  C   UNL     1     -48.086  41.644  27.126  1.00  0.00     0.001 A 
ATOM     13  H   UNL     1     -49.532  43.220  27.485  1.00  0.00     0.063 H 
ATOM     14  C   UNL     1     -46.351  40.068  26.584  1.00  0.00     0.007 A 
ATOM     15  C   UNL     1     -48.754  40.648  27.853  1.00  0.00    -0.049 A 
ATOM     16  H   UNL     1     -45.414  39.877  26.072  1.00  0.00     0.069 H 
ATOM     17  C   UNL     1     -48.216  39.366  27.932  1.00  0.00    -0.019 A 
ATOM     18  H   UNL     1     -49.695  40.863  28.354  1.00  0.00     0.063 H 
ATOM     19  H   UNL     1     -48.741  38.594  28.493  1.00  0.00     0.066 H 
BRANCH   6  20
ATOM     20  N   UNL     1     -46.029  44.505  24.878  1.00  0.00    -0.352 N 
ATOM     21  C   UNL     1     -43.946  44.606  25.031  1.00  0.00     0.064 C 
ATOM     22  C   UNL     1     -44.949  44.071  23.994  1.00  0.00     0.041 C 
ATOM     23  C   UNL     1     -45.129  45.470  25.495  1.00  0.00     0.041 C 
ATOM     24  H   UNL     1     -43.105  45.172  24.621  1.00  0.00     0.057 H 
ATOM     25  H   UNL     1     -44.973  44.619  23.046  1.00  0.00     0.052 H 
ATOM     26  H   UNL     1     -44.930  42.996  23.794  1.00  0.00     0.052 H 
ATOM     27  H   UNL     1     -45.206  46.446  25.000  1.00  0.00     0.052 H 
ATOM     28  H   UNL     1     -45.261  45.607  26.571  1.00  0.00     0.052 H 
BRANCH  21  29
ATOM     29  N   UNL     1     -43.501  43.603  26.037  1.00  0.00    -0.350 N 
ATOM     30  C   UNL     1     -42.232  43.074  26.017  1.00  0.00     0.217 C 
ATOM     31  O   UNL     1     -41.349  43.469  25.263  1.00  0.00    -0.275 OA
ATOM     32  H   UNL     1     -44.235  43.038  26.466  1.00  0.00     0.163 HD
BRANCH  30  33
ATOM     33  C   UNL     1     -42.017  41.948  26.993  1.00  0.00     0.015 C 
ATOM     34  H   UNL     1     -42.520  41.051  26.620  1.00  0.00     0.033 H 
ATOM     35  H   UNL     1     -42.434  42.231  27.963  1.00  0.00     0.033 H 
ATOM     36  H   UNL     1     -40.954  41.721  27.118  1.00  0.00     0.033 H 
ENDBRANCH  30  33
ENDBRANCH  21  29
ENDBRANCH   6  20
ENDBRANCH   4   5
ENDBRANCH   1   4
BRANCH   1  37
ATOM     37  C   UNL     1     -46.676  35.412  26.731  1.00  0.00     0.010 A 
ATOM     38  C   UNL     1     -46.110  35.074  27.953  1.00  0.00     0.034 A 
ATOM     39  C   UNL     1     -47.136  34.364  25.920  1.00  0.00    -0.028 A 
ATOM     40  N   UNL     1     -45.955  33.806  28.380  1.00  0.00    -0.262 NA
ATOM     41  H   UNL     1     -45.751  35.831  28.644  1.00  0.00     0.084 H 
ATOM     42  C   UNL     1     -46.992  33.029  26.326  1.00  0.00     0.066 A 
ATOM     43  H   UNL     1     -47.610  34.631  24.981  1.00  0.00     0.065 H 
ATOM     44  C   UNL     1     -46.397  32.814  27.564  1.00  0.00     0.051 A 
ATOM     45  H   UNL     1     -46.216  31.831  27.980  1.00  0.00     0.086 H 
BRANCH  42  46
ATOM     46  N   UNL     1     -47.430  31.948  25.491  1.00  0.00    -0.299 N 
ATOM     47  C   UNL     1     -48.354  30.985  25.862  1.00  0.00     0.021 A 
ATOM     48  C   UNL     1     -47.036  31.656  24.184  1.00  0.00     0.150 A 
ATOM     49  C   UNL     1     -48.545  30.098  24.823  1.00  0.00     0.033 A 
ATOM     50  H   UNL     1     -48.816  30.990  26.837  1.00  0.00     0.083 H 
ATOM     51  C   UNL     1     -47.725  30.525  23.742  1.00  0.00     0.071 A 
ATOM     52  N   UNL     1     -46.129  32.339  23.456  1.00  0.00    -0.218 NA
ATOM     53  C   UNL     1     -47.466  30.104  22.424  1.00  0.00     0.137 A 
ATOM     54  C   UNL     1     -45.948  31.829  22.232  1.00  0.00     0.120 A 
ATOM     55  N   UNL     1     -46.553  30.766  21.689  1.00  0.00    -0.219 NA
ATOM     56  H   UNL     1     -45.226  32.339  21.603  1.00  0.00     0.106 H 
BRANCH  49  57
ATOM     57  C   UNL     1     -49.425  28.926  24.846  1.00  0.00     0.095 A 
ATOM     58  C   UNL     1     -50.622  28.809  24.104  1.00  0.00    -0.016 A 
ATOM     59  N   UNL     1     -49.204  27.841  25.602  1.00  0.00    -0.173 NA
ATOM     60  C   UNL     1     -51.128  27.573  24.435  1.00  0.00     0.025 A 
ATOM     61  H   UNL     1     -51.056  29.520  23.417  1.00  0.00     0.066 H 
ATOM     62  N   UNL     1     -50.247  27.037  25.325  1.00  0.00    -0.275 N 
ATOM     63  H   UNL     1     -52.017  27.049  24.115  1.00  0.00     0.084 H 
BRANCH  62  64
ATOM     64  C   UNL     1     -50.335  25.744  25.961  1.00  0.00     0.030 C 
ATOM     65  H   UNL     1     -49.347  25.481  26.344  1.00  0.00     0.048 H 
ATOM     66  H   UNL     1     -51.055  25.790  26.782  1.00  0.00     0.048 H 
ATOM     67  H   UNL     1     -50.665  25.016  25.215  1.00  0.00     0.048 H 
ENDBRANCH  62  64
ENDBRANCH  49  57
BRANCH  53  68
ATOM     68  N   UNL     1     -48.093  29.030  21.812  1.00  0.00    -0.383 N 
ATOM     69  H   UNL     1     -47.435  28.455  21.306  1.00  0.00     0.158 HD
ATOM     70  H   UNL     1     -48.746  28.548  22.436  1.00  0.00     0.158 HD
ENDBRANCH  53  68
ENDBRANCH  42  46
ENDBRANCH   1  37
TORSDOF 10
ENDMDL
