MODEL 1
REMARK VINA RESULT:     -10.4      0.000      0.000
REMARK SMILES CCc1cc(N)c2ccc(OC[C@H]3O[C@@H](n4cc(-c5ccn(C)n5)c5c(N)ncnc54)[C@@H](F)[C@@H]3O)cc2n1
REMARK SMILES IDX 12 1 11 4 10 5 3 6 4 7 38 8 5 9 37 11 7 12 36 13 8 14 9 16
REMARK SMILES IDX 2 19 1 22 6 26 13 29 14 30 34 31 15 33 32 34 33 37 35 39
REMARK SMILES IDX 16 41 17 42 31 43 18 44 25 46 30 47 26 48 29 49 28 50 19 52
REMARK SMILES IDX 20 53 24 54 21 55 22 57 23 59 27 63
REMARK H PARENT 12 2 12 3 4 10 36 15 8 17 9 18 2 20 2 21 1 23 1 24 1 25 6 27
REMARK H PARENT 6 28 13 32 34 35 15 36 32 38 35 40 17 45 29 51 20 56 21 58
REMARK H PARENT 23 60 23 61 23 62 27 64 27 65
REMARK Flexibility Score: inf
ROOT
ATOM      1  C   UNL     1     -46.965  36.155  27.099  1.00  0.00     0.117 C 
ATOM      2  H   UNL     1     -46.353  36.098  26.193  1.00  0.00     0.073 H 
ATOM      3  H   UNL     1     -47.458  37.134  27.157  1.00  0.00     0.073 H 
ENDROOT
BRANCH   1   4
ATOM      4  O   UNL     1     -47.947  35.123  27.076  1.00  0.00    -0.491 OA
BRANCH   4   5
ATOM      5  C   UNL     1     -47.728  34.080  26.224  1.00  0.00     0.121 A 
ATOM      6  C   UNL     1     -49.080  30.304  23.678  1.00  0.00     0.043 A 
ATOM      7  C   UNL     1     -47.799  30.066  23.206  1.00  0.00    -0.017 A 
ATOM      8  N   UNL     1     -49.370  31.336  24.500  1.00  0.00    -0.253 NA
ATOM      9  C   UNL     1     -46.775  30.950  23.542  1.00  0.00     0.043 A 
ATOM     10  H   UNL     1     -47.595  29.217  22.562  1.00  0.00     0.066 H 
ATOM     11  C   UNL     1     -48.380  32.159  24.881  1.00  0.00     0.076 A 
ATOM     12  C   UNL     1     -47.044  32.006  24.444  1.00  0.00     0.023 A 
ATOM     13  C   UNL     1     -48.696  33.193  25.753  1.00  0.00     0.007 A 
ATOM     14  C   UNL     1     -46.068  32.907  24.927  1.00  0.00    -0.047 A 
ATOM     15  H   UNL     1     -49.735  33.287  26.053  1.00  0.00     0.069 H 
ATOM     16  C   UNL     1     -46.413  33.935  25.800  1.00  0.00    -0.019 A 
ATOM     17  H   UNL     1     -45.025  32.821  24.638  1.00  0.00     0.063 H 
ATOM     18  H   UNL     1     -45.646  34.615  26.167  1.00  0.00     0.066 H 
BRANCH   6  19
ATOM     19  C   UNL     1     -50.212  29.379  23.318  1.00  0.00    -0.013 C 
ATOM     20  H   UNL     1     -50.022  28.379  23.726  1.00  0.00     0.033 H 
ATOM     21  H   UNL     1     -50.253  29.268  22.227  1.00  0.00     0.033 H 
BRANCH  19  22
ATOM     22  C   UNL     1     -51.547  29.905  23.821  1.00  0.00    -0.060 C 
ATOM     23  H   UNL     1     -51.536  29.985  24.912  1.00  0.00     0.023 H 
ATOM     24  H   UNL     1     -52.368  29.237  23.537  1.00  0.00     0.023 H 
ATOM     25  H   UNL     1     -51.764  30.897  23.410  1.00  0.00     0.023 H 
ENDBRANCH  19  22
ENDBRANCH   6  19
BRANCH   9  26
ATOM     26  N   UNL     1     -45.465  30.609  23.125  1.00  0.00    -0.398 N 
ATOM     27  H   UNL     1     -45.464  30.114  22.238  1.00  0.00     0.156 HD
ATOM     28  H   UNL     1     -44.896  31.449  23.045  1.00  0.00     0.156 HD
ENDBRANCH   9  26
ENDBRANCH   4   5
ENDBRANCH   1   4
BRANCH   1  29
ATOM     29  C   UNL     1     -46.057  35.998  28.328  1.00  0.00     0.123 C 
ATOM     30  O   UNL     1     -44.864  36.794  28.163  1.00  0.00    -0.345 OA
ATOM     31  C   UNL     1     -46.685  36.419  29.658  1.00  0.00     0.119 C 
ATOM     32  H   UNL     1     -45.730  34.952  28.369  1.00  0.00     0.067 H 
ATOM     33  C   UNL     1     -44.891  37.873  29.129  1.00  0.00     0.169 C 
ATOM     34  C   UNL     1     -46.226  37.846  29.861  1.00  0.00     0.173 C 
ATOM     35  H   UNL     1     -47.774  36.320  29.656  1.00  0.00     0.066 H 
ATOM     36  H   UNL     1     -44.072  37.651  29.825  1.00  0.00     0.088 H 
ATOM     37  F   UNL     1     -47.129  38.695  29.308  1.00  0.00    -0.239 F 
ATOM     38  H   UNL     1     -46.115  38.125  30.913  1.00  0.00     0.074 H 
BRANCH  31  39
ATOM     39  O   UNL     1     -46.190  35.593  30.727  1.00  0.00    -0.387 OA
ATOM     40  H   UNL     1     -45.247  35.401  30.573  1.00  0.00     0.211 HD
ENDBRANCH  31  39
BRANCH  33  41
ATOM     41  N   UNL     1     -44.579  39.142  28.495  1.00  0.00    -0.302 N 
ATOM     42  C   UNL     1     -45.222  39.726  27.437  1.00  0.00     0.019 A 
ATOM     43  C   UNL     1     -43.554  39.956  28.912  1.00  0.00     0.148 A 
ATOM     44  C   UNL     1     -44.603  40.934  27.175  1.00  0.00     0.033 A 
ATOM     45  H   UNL     1     -46.063  39.249  26.950  1.00  0.00     0.083 H 
ATOM     46  C   UNL     1     -43.554  41.105  28.126  1.00  0.00     0.071 A 
ATOM     47  N   UNL     1     -42.717  39.674  29.926  1.00  0.00    -0.218 NA
ATOM     48  C   UNL     1     -42.599  42.079  28.459  1.00  0.00     0.137 A 
ATOM     49  C   UNL     1     -41.837  40.667  30.127  1.00  0.00     0.120 A 
ATOM     50  N   UNL     1     -41.736  41.834  29.467  1.00  0.00    -0.219 NA
ATOM     51  H   UNL     1     -41.117  40.513  30.926  1.00  0.00     0.106 H 
BRANCH  44  52
ATOM     52  C   UNL     1     -44.976  41.859  26.110  1.00  0.00     0.095 A 
ATOM     53  C   UNL     1     -46.185  42.582  26.050  1.00  0.00    -0.016 A 
ATOM     54  N   UNL     1     -44.165  42.153  25.086  1.00  0.00    -0.173 NA
ATOM     55  C   UNL     1     -46.082  43.348  24.912  1.00  0.00     0.025 A 
ATOM     56  H   UNL     1     -47.014  42.557  26.745  1.00  0.00     0.066 H 
ATOM     57  N   UNL     1     -44.856  43.068  24.385  1.00  0.00    -0.275 N 
ATOM     58  H   UNL     1     -46.755  44.064  24.461  1.00  0.00     0.084 H 
BRANCH  57  59
ATOM     59  C   UNL     1     -44.264  43.648  23.204  1.00  0.00     0.030 C 
ATOM     60  H   UNL     1     -43.401  43.042  22.917  1.00  0.00     0.048 H 
ATOM     61  H   UNL     1     -43.947  44.671  23.420  1.00  0.00     0.048 H 
ATOM     62  H   UNL     1     -45.013  43.649  22.409  1.00  0.00     0.048 H 
ENDBRANCH  57  59
ENDBRANCH  44  52
BRANCH  48  63
ATOM     63  N   UNL     1     -42.489  43.321  27.846  1.00  0.00    -0.383 N 
ATOM     64  H   UNL     1     -41.626  43.769  28.137  1.00  0.00     0.158 HD
ATOM     65  H   UNL     1     -43.322  43.891  27.936  1.00  0.00     0.158 HD
ENDBRANCH  48  63
ENDBRANCH  33  41
ENDBRANCH   1  29
TORSDOF 11
ENDMDL
MODEL 2
REMARK VINA RESULT:      -9.5      1.415      2.262
REMARK SMILES CCc1cc(N)c2ccc(OC[C@H]3O[C@@H](n4cc(-c5ccn(C)n5)c5c(N)ncnc54)[C@@H](F)[C@@H]3O)cc2n1
REMARK SMILES IDX 12 1 11 4 10 5 3 6 4 7 38 8 5 9 37 11 7 12 36 13 8 14 9 16
REMARK SMILES IDX 2 19 1 22 6 26 13 29 14 30 34 31 15 33 32 34 33 37 35 39
REMARK SMILES IDX 16 41 17 42 31 43 18 44 25 46 30 47 26 48 29 49 28 50 19 52
REMARK SMILES IDX 20 53 24 54 21 55 22 57 23 59 27 63
REMARK H PARENT 12 2 12 3 4 10 36 15 8 17 9 18 2 20 2 21 1 23 1 24 1 25 6 27
REMARK H PARENT 6 28 13 32 34 35 15 36 32 38 35 40 17 45 29 51 20 56 21 58
REMARK H PARENT 23 60 23 61 23 62 27 64 27 65
REMARK Flexibility Score: inf
ROOT
ATOM      1  C   UNL     1     -45.845  35.466  27.057  1.00  0.00     0.117 C 
ATOM      2  H   UNL     1     -45.394  34.491  27.266  1.00  0.00     0.073 H 
ATOM      3  H   UNL     1     -45.075  36.169  26.713  1.00  0.00     0.073 H 
ENDROOT
BRANCH   1   4
ATOM      4  O   UNL     1     -46.846  35.323  26.053  1.00  0.00    -0.491 OA
BRANCH   4   5
ATOM      5  C   UNL     1     -47.136  34.053  25.646  1.00  0.00     0.121 A 
ATOM      6  C   UNL     1     -46.307  30.073  23.188  1.00  0.00     0.043 A 
ATOM      7  C   UNL     1     -47.461  29.457  23.647  1.00  0.00    -0.017 A 
ATOM      8  N   UNL     1     -45.946  31.317  23.574  1.00  0.00    -0.253 NA
ATOM      9  C   UNL     1     -48.256  30.115  24.584  1.00  0.00     0.043 A 
ATOM     10  H   UNL     1     -47.733  28.465  23.302  1.00  0.00     0.066 H 
ATOM     11  C   UNL     1     -46.737  31.984  24.430  1.00  0.00     0.076 A 
ATOM     12  C   UNL     1     -47.927  31.437  24.962  1.00  0.00     0.023 A 
ATOM     13  C   UNL     1     -46.363  33.274  24.786  1.00  0.00     0.007 A 
ATOM     14  C   UNL     1     -48.707  32.233  25.831  1.00  0.00    -0.047 A 
ATOM     15  H   UNL     1     -45.435  33.653  24.369  1.00  0.00     0.069 H 
ATOM     16  C   UNL     1     -48.307  33.522  26.172  1.00  0.00    -0.019 A 
ATOM     17  H   UNL     1     -49.639  31.868  26.251  1.00  0.00     0.063 H 
ATOM     18  H   UNL     1     -48.925  34.123  26.838  1.00  0.00     0.066 H 
BRANCH   6  19
ATOM     19  C   UNL     1     -45.416  29.382  22.190  1.00  0.00    -0.013 C 
ATOM     20  H   UNL     1     -44.652  30.079  21.827  1.00  0.00     0.033 H 
ATOM     21  H   UNL     1     -46.012  29.091  21.317  1.00  0.00     0.033 H 
BRANCH  19  22
ATOM     22  C   UNL     1     -44.759  28.148  22.786  1.00  0.00    -0.060 C 
ATOM     23  H   UNL     1     -45.494  27.558  23.343  1.00  0.00     0.023 H 
ATOM     24  H   UNL     1     -43.951  28.422  23.474  1.00  0.00     0.023 H 
ATOM     25  H   UNL     1     -44.332  27.509  22.005  1.00  0.00     0.023 H 
ENDBRANCH  19  22
ENDBRANCH   6  19
BRANCH   9  26
ATOM     26  N   UNL     1     -49.478  29.493  24.943  1.00  0.00    -0.398 N 
ATOM     27  H   UNL     1     -49.932  29.965  25.720  1.00  0.00     0.156 HD
ATOM     28  H   UNL     1     -50.107  29.476  24.143  1.00  0.00     0.156 HD
ENDBRANCH   9  26
ENDBRANCH   4   5
ENDBRANCH   1   4
BRANCH   1  29
ATOM     29  C   UNL     1     -46.463  36.021  28.349  1.00  0.00     0.123 C 
ATOM     30  O   UNL     1     -45.615  37.053  28.897  1.00  0.00    -0.345 OA
ATOM     31  C   UNL     1     -47.855  36.634  28.193  1.00  0.00     0.119 C 
ATOM     32  H   UNL     1     -46.478  35.208  29.086  1.00  0.00     0.067 H 
ATOM     33  C   UNL     1     -46.305  38.322  28.791  1.00  0.00     0.169 C 
ATOM     34  C   UNL     1     -47.601  38.115  28.021  1.00  0.00     0.173 C 
ATOM     35  H   UNL     1     -48.413  36.199  27.358  1.00  0.00     0.066 H 
ATOM     36  H   UNL     1     -46.521  38.614  29.826  1.00  0.00     0.088 H 
ATOM     37  F   UNL     1     -47.463  38.400  26.701  1.00  0.00    -0.239 F 
ATOM     38  H   UNL     1     -48.407  38.746  28.409  1.00  0.00     0.074 H 
BRANCH  31  39
ATOM     39  O   UNL     1     -48.635  36.410  29.380  1.00  0.00    -0.387 OA
ATOM     40  H   UNL     1     -48.073  36.547  30.165  1.00  0.00     0.211 HD
ENDBRANCH  31  39
BRANCH  33  41
ATOM     41  N   UNL     1     -45.431  39.340  28.234  1.00  0.00    -0.302 N 
ATOM     42  C   UNL     1     -45.643  40.101  27.116  1.00  0.00     0.019 A 
ATOM     43  C   UNL     1     -44.229  39.687  28.801  1.00  0.00     0.148 A 
ATOM     44  C   UNL     1     -44.563  40.951  26.967  1.00  0.00     0.033 A 
ATOM     45  H   UNL     1     -46.534  39.987  26.512  1.00  0.00     0.083 H 
ATOM     46  C   UNL     1     -43.666  40.716  28.050  1.00  0.00     0.071 A 
ATOM     47  N   UNL     1     -43.714  39.124  29.908  1.00  0.00    -0.218 NA
ATOM     48  C   UNL     1     -42.452  41.234  28.528  1.00  0.00     0.137 A 
ATOM     49  C   UNL     1     -42.543  39.686  30.246  1.00  0.00     0.120 A 
ATOM     50  N   UNL     1     -41.898  40.695  29.634  1.00  0.00    -0.219 NA
ATOM     51  H   UNL     1     -42.056  39.280  31.129  1.00  0.00     0.106 H 
BRANCH  44  52
ATOM     52  C   UNL     1     -44.392  41.915  25.885  1.00  0.00     0.095 A 
ATOM     53  C   UNL     1     -45.424  42.700  25.328  1.00  0.00    -0.016 A 
ATOM     54  N   UNL     1     -43.203  42.188  25.335  1.00  0.00    -0.173 NA
ATOM     55  C   UNL     1     -44.800  43.484  24.385  1.00  0.00     0.025 A 
ATOM     56  H   UNL     1     -46.474  42.704  25.586  1.00  0.00     0.066 H 
ATOM     57  N   UNL     1     -43.479  43.151  24.440  1.00  0.00    -0.275 N 
ATOM     58  H   UNL     1     -45.177  44.241  23.713  1.00  0.00     0.084 H 
BRANCH  57  59
ATOM     59  C   UNL     1     -42.405  43.724  23.665  1.00  0.00     0.030 C 
ATOM     60  H   UNL     1     -41.583  43.969  24.343  1.00  0.00     0.048 H 
ATOM     61  H   UNL     1     -42.759  44.629  23.165  1.00  0.00     0.048 H 
ATOM     62  H   UNL     1     -42.085  42.988  22.924  1.00  0.00     0.048 H 
ENDBRANCH  57  59
ENDBRANCH  44  52
BRANCH  48  63
ATOM     63  N   UNL     1     -41.774  42.309  27.966  1.00  0.00    -0.383 N 
ATOM     64  H   UNL     1     -42.204  43.177  28.268  1.00  0.00     0.158 HD
ATOM     65  H   UNL     1     -41.637  42.221  26.966  1.00  0.00     0.158 HD
ENDBRANCH  48  63
ENDBRANCH  33  41
ENDBRANCH   1  29
TORSDOF 11
ENDMDL
MODEL 3
REMARK VINA RESULT:      -8.8      2.557      3.313
REMARK SMILES CCc1cc(N)c2ccc(OC[C@H]3O[C@@H](n4cc(-c5ccn(C)n5)c5c(N)ncnc54)[C@@H](F)[C@@H]3O)cc2n1
REMARK SMILES IDX 12 1 11 4 10 5 3 6 4 7 38 8 5 9 37 11 7 12 36 13 8 14 9 16
REMARK SMILES IDX 2 19 1 22 6 26 13 29 14 30 34 31 15 33 32 34 33 37 35 39
REMARK SMILES IDX 16 41 17 42 31 43 18 44 25 46 30 47 26 48 29 49 28 50 19 52
REMARK SMILES IDX 20 53 24 54 21 55 22 57 23 59 27 63
REMARK H PARENT 12 2 12 3 4 10 36 15 8 17 9 18 2 20 2 21 1 23 1 24 1 25 6 27
REMARK H PARENT 6 28 13 32 34 35 15 36 32 38 35 40 17 45 29 51 20 56 21 58
REMARK H PARENT 23 60 23 61 23 62 27 64 27 65
REMARK Flexibility Score: inf
ROOT
ATOM      1  C   UNL     1     -46.829  35.511  26.126  1.00  0.00     0.117 C 
ATOM      2  H   UNL     1     -46.075  35.147  25.421  1.00  0.00     0.073 H 
ATOM      3  H   UNL     1     -47.283  36.435  25.746  1.00  0.00     0.073 H 
ENDROOT
BRANCH   1   4
ATOM      4  O   UNL     1     -47.835  34.518  26.301  1.00  0.00    -0.491 OA
BRANCH   4   5
ATOM      5  C   UNL     1     -47.643  33.324  25.667  1.00  0.00     0.121 A 
ATOM      6  C   UNL     1     -48.762  28.826  24.626  1.00  0.00     0.043 A 
ATOM      7  C   UNL     1     -47.666  28.665  23.792  1.00  0.00    -0.017 A 
ATOM      8  N   UNL     1     -49.026  29.990  25.260  1.00  0.00    -0.253 NA
ATOM      9  C   UNL     1     -46.831  29.754  23.548  1.00  0.00     0.043 A 
ATOM     10  H   UNL     1     -47.471  27.711  23.313  1.00  0.00     0.066 H 
ATOM     11  C   UNL     1     -48.193  31.028  25.081  1.00  0.00     0.076 A 
ATOM     12  C   UNL     1     -47.057  30.965  24.242  1.00  0.00     0.023 A 
ATOM     13  C   UNL     1     -48.467  32.204  25.769  1.00  0.00     0.007 A 
ATOM     14  C   UNL     1     -46.226  32.104  24.145  1.00  0.00    -0.047 A 
ATOM     15  H   UNL     1     -49.357  32.217  26.391  1.00  0.00     0.069 H 
ATOM     16  C   UNL     1     -46.524  33.270  24.846  1.00  0.00    -0.019 A 
ATOM     17  H   UNL     1     -45.331  32.102  23.531  1.00  0.00     0.063 H 
ATOM     18  H   UNL     1     -45.868  34.135  24.764  1.00  0.00     0.066 H 
BRANCH   6  19
ATOM     19  C   UNL     1     -49.694  27.675  24.895  1.00  0.00    -0.013 C 
ATOM     20  H   UNL     1     -49.563  26.901  24.130  1.00  0.00     0.033 H 
ATOM     21  H   UNL     1     -50.730  28.024  24.809  1.00  0.00     0.033 H 
BRANCH  19  22
ATOM     22  C   UNL     1     -49.473  27.087  26.279  1.00  0.00    -0.060 C 
ATOM     23  H   UNL     1     -48.957  27.808  26.919  1.00  0.00     0.023 H 
ATOM     24  H   UNL     1     -48.864  26.178  26.230  1.00  0.00     0.023 H 
ATOM     25  H   UNL     1     -50.425  26.828  26.757  1.00  0.00     0.023 H 
ENDBRANCH  19  22
ENDBRANCH   6  19
BRANCH   9  26
ATOM     26  N   UNL     1     -45.668  29.515  22.777  1.00  0.00    -0.398 N 
ATOM     27  H   UNL     1     -45.185  30.377  22.536  1.00  0.00     0.156 HD
ATOM     28  H   UNL     1     -45.033  28.903  23.285  1.00  0.00     0.156 HD
ENDBRANCH   9  26
ENDBRANCH   4   5
ENDBRANCH   1   4
BRANCH   1  29
ATOM     29  C   UNL     1     -46.151  35.823  27.469  1.00  0.00     0.123 C 
ATOM     30  O   UNL     1     -45.690  37.191  27.481  1.00  0.00    -0.345 OA
ATOM     31  C   UNL     1     -47.039  35.648  28.701  1.00  0.00     0.119 C 
ATOM     32  H   UNL     1     -45.257  35.193  27.544  1.00  0.00     0.067 H 
ATOM     33  C   UNL     1     -46.475  37.935  28.445  1.00  0.00     0.169 C 
ATOM     34  C   UNL     1     -47.579  37.034  28.981  1.00  0.00     0.173 C 
ATOM     35  H   UNL     1     -47.831  34.909  28.546  1.00  0.00     0.066 H 
ATOM     36  H   UNL     1     -45.771  38.191  29.246  1.00  0.00     0.088 H 
ATOM     37  F   UNL     1     -48.749  37.207  28.315  1.00  0.00    -0.239 F 
ATOM     38  H   UNL     1     -47.774  37.222  30.041  1.00  0.00     0.074 H 
BRANCH  31  39
ATOM     39  O   UNL     1     -46.257  35.197  29.821  1.00  0.00    -0.387 OA
ATOM     40  H   UNL     1     -46.148  34.230  29.767  1.00  0.00     0.211 HD
ENDBRANCH  31  39
BRANCH  33  41
ATOM     41  N   UNL     1     -46.944  39.185  27.873  1.00  0.00    -0.302 N 
ATOM     42  C   UNL     1     -48.199  39.725  27.964  1.00  0.00     0.019 A 
ATOM     43  C   UNL     1     -46.138  40.025  27.144  1.00  0.00     0.148 A 
ATOM     44  C   UNL     1     -48.195  40.931  27.288  1.00  0.00     0.033 A 
ATOM     45  H   UNL     1     -48.996  39.222  28.496  1.00  0.00     0.083 H 
ATOM     46  C   UNL     1     -46.879  41.147  26.782  1.00  0.00     0.071 A 
ATOM     47  N   UNL     1     -44.845  39.788  26.859  1.00  0.00    -0.218 NA
ATOM     48  C   UNL     1     -46.185  42.142  26.077  1.00  0.00     0.137 A 
ATOM     49  C   UNL     1     -44.303  40.797  26.160  1.00  0.00     0.120 A 
ATOM     50  N   UNL     1     -44.887  41.942  25.766  1.00  0.00    -0.219 NA
ATOM     51  H   UNL     1     -43.259  40.678  25.882  1.00  0.00     0.106 H 
BRANCH  44  52
ATOM     52  C   UNL     1     -49.346  41.814  27.133  1.00  0.00     0.095 A 
ATOM     53  C   UNL     1     -49.871  42.646  28.143  1.00  0.00    -0.016 A 
ATOM     54  N   UNL     1     -50.001  41.958  25.974  1.00  0.00    -0.173 NA
ATOM     55  C   UNL     1     -50.908  43.321  27.540  1.00  0.00     0.025 A 
ATOM     56  H   UNL     1     -49.535  42.749  29.165  1.00  0.00     0.066 H 
ATOM     57  N   UNL     1     -50.932  42.887  26.248  1.00  0.00    -0.275 N 
ATOM     58  H   UNL     1     -51.596  44.067  27.912  1.00  0.00     0.084 H 
BRANCH  57  59
ATOM     59  C   UNL     1     -51.822  43.326  25.201  1.00  0.00     0.030 C 
ATOM     60  H   UNL     1     -51.773  42.604  24.381  1.00  0.00     0.048 H 
ATOM     61  H   UNL     1     -51.511  44.312  24.848  1.00  0.00     0.048 H 
ATOM     62  H   UNL     1     -52.835  43.376  25.608  1.00  0.00     0.048 H 
ENDBRANCH  57  59
ENDBRANCH  44  52
BRANCH  48  63
ATOM     63  N   UNL     1     -46.725  43.364  25.695  1.00  0.00    -0.383 N 
ATOM     64  H   UNL     1     -46.037  43.890  25.166  1.00  0.00     0.158 HD
ATOM     65  H   UNL     1     -47.161  43.868  26.458  1.00  0.00     0.158 HD
ENDBRANCH  48  63
ENDBRANCH  33  41
ENDBRANCH   1  29
TORSDOF 11
ENDMDL
MODEL 4
REMARK VINA RESULT:      -8.4      3.516      8.351
REMARK SMILES CCc1cc(N)c2ccc(OC[C@H]3O[C@@H](n4cc(-c5ccn(C)n5)c5c(N)ncnc54)[C@@H](F)[C@@H]3O)cc2n1
REMARK SMILES IDX 12 1 11 4 10 5 3 6 4 7 38 8 5 9 37 11 7 12 36 13 8 14 9 16
REMARK SMILES IDX 2 19 1 22 6 26 13 29 14 30 34 31 15 33 32 34 33 37 35 39
REMARK SMILES IDX 16 41 17 42 31 43 18 44 25 46 30 47 26 48 29 49 28 50 19 52
REMARK SMILES IDX 20 53 24 54 21 55 22 57 23 59 27 63
REMARK H PARENT 12 2 12 3 4 10 36 15 8 17 9 18 2 20 2 21 1 23 1 24 1 25 6 27
REMARK H PARENT 6 28 13 32 34 35 15 36 32 38 35 40 17 45 29 51 20 56 21 58
REMARK H PARENT 23 60 23 61 23 62 27 64 27 65
REMARK Flexibility Score: inf
ROOT
ATOM      1  C   UNL     1     -45.214  35.967  28.749  1.00  0.00     0.117 C 
ATOM      2  H   UNL     1     -44.689  36.155  27.806  1.00  0.00     0.073 H 
ATOM      3  H   UNL     1     -44.532  35.500  29.471  1.00  0.00     0.073 H 
ENDROOT
BRANCH   1   4
ATOM      4  O   UNL     1     -45.702  37.197  29.276  1.00  0.00    -0.491 OA
BRANCH   4   5
ATOM      5  C   UNL     1     -44.910  38.298  29.112  1.00  0.00     0.121 A 
ATOM      6  C   UNL     1     -43.481  42.215  26.837  1.00  0.00     0.043 A 
ATOM      7  C   UNL     1     -42.473  42.474  27.753  1.00  0.00    -0.017 A 
ATOM      8  N   UNL     1     -44.317  41.160  26.956  1.00  0.00    -0.253 NA
ATOM      9  C   UNL     1     -42.346  41.653  28.872  1.00  0.00     0.043 A 
ATOM     10  H   UNL     1     -41.806  43.319  27.618  1.00  0.00     0.066 H 
ATOM     11  C   UNL     1     -44.163  40.327  27.998  1.00  0.00     0.076 A 
ATOM     12  C   UNL     1     -43.174  40.514  28.990  1.00  0.00     0.023 A 
ATOM     13  C   UNL     1     -45.014  39.231  28.081  1.00  0.00     0.007 A 
ATOM     14  C   UNL     1     -43.074  39.562  30.031  1.00  0.00    -0.047 A 
ATOM     15  H   UNL     1     -45.769  39.132  27.308  1.00  0.00     0.069 H 
ATOM     16  C   UNL     1     -43.941  38.473  30.091  1.00  0.00    -0.019 A 
ATOM     17  H   UNL     1     -42.320  39.648  30.807  1.00  0.00     0.063 H 
ATOM     18  H   UNL     1     -43.844  37.747  30.896  1.00  0.00     0.066 H 
BRANCH   6  19
ATOM     19  C   UNL     1     -43.658  43.094  25.626  1.00  0.00    -0.013 C 
ATOM     20  H   UNL     1     -42.711  43.588  25.381  1.00  0.00     0.033 H 
ATOM     21  H   UNL     1     -44.373  43.891  25.863  1.00  0.00     0.033 H 
BRANCH  19  22
ATOM     22  C   UNL     1     -44.162  42.303  24.430  1.00  0.00    -0.060 C 
ATOM     23  H   UNL     1     -43.422  41.555  24.131  1.00  0.00     0.023 H 
ATOM     24  H   UNL     1     -44.348  42.959  23.572  1.00  0.00     0.023 H 
ATOM     25  H   UNL     1     -45.097  41.782  24.663  1.00  0.00     0.023 H 
ENDBRANCH  19  22
ENDBRANCH   6  19
BRANCH   9  26
ATOM     26  N   UNL     1     -41.239  41.892  29.724  1.00  0.00    -0.398 N 
ATOM     27  H   UNL     1     -41.481  42.498  30.503  1.00  0.00     0.156 HD
ATOM     28  H   UNL     1     -40.879  41.009  30.081  1.00  0.00     0.156 HD
ENDBRANCH   9  26
ENDBRANCH   4   5
ENDBRANCH   1   4
BRANCH   1  29
ATOM     29  C   UNL     1     -46.379  35.000  28.490  1.00  0.00     0.123 C 
ATOM     30  O   UNL     1     -47.617  35.589  28.945  1.00  0.00    -0.345 OA
ATOM     31  C   UNL     1     -46.589  34.614  27.026  1.00  0.00     0.119 C 
ATOM     32  H   UNL     1     -46.215  34.108  29.106  1.00  0.00     0.067 H 
ATOM     33  C   UNL     1     -48.446  35.870  27.791  1.00  0.00     0.169 C 
ATOM     34  C   UNL     1     -47.651  35.569  26.528  1.00  0.00     0.173 C 
ATOM     35  H   UNL     1     -45.665  34.665  26.442  1.00  0.00     0.066 H 
ATOM     36  H   UNL     1     -49.295  35.182  27.877  1.00  0.00     0.088 H 
ATOM     37  F   UNL     1     -47.058  36.680  26.020  1.00  0.00    -0.239 F 
ATOM     38  H   UNL     1     -48.285  35.149  25.742  1.00  0.00     0.074 H 
BRANCH  31  39
ATOM     39  O   UNL     1     -47.071  33.261  26.931  1.00  0.00    -0.387 OA
ATOM     40  H   UNL     1     -46.346  32.647  27.147  1.00  0.00     0.211 HD
ENDBRANCH  31  39
BRANCH  33  41
ATOM     41  N   UNL     1     -48.982  37.219  27.857  1.00  0.00    -0.302 N 
ATOM     42  C   UNL     1     -48.443  38.358  27.321  1.00  0.00     0.019 A 
ATOM     43  C   UNL     1     -50.163  37.526  28.487  1.00  0.00     0.148 A 
ATOM     44  C   UNL     1     -49.294  39.409  27.609  1.00  0.00     0.033 A 
ATOM     45  H   UNL     1     -47.505  38.342  26.781  1.00  0.00     0.083 H 
ATOM     46  C   UNL     1     -50.409  38.887  28.329  1.00  0.00     0.071 A 
ATOM     47  N   UNL     1     -50.943  36.636  29.126  1.00  0.00    -0.218 NA
ATOM     48  C   UNL     1     -51.615  39.362  28.868  1.00  0.00     0.137 A 
ATOM     49  C   UNL     1     -52.049  37.215  29.618  1.00  0.00     0.120 A 
ATOM     50  N   UNL     1     -52.425  38.503  29.521  1.00  0.00    -0.219 NA
ATOM     51  H   UNL     1     -52.730  36.564  30.157  1.00  0.00     0.106 H 
BRANCH  44  52
ATOM     52  C   UNL     1     -49.072  40.800  27.230  1.00  0.00     0.095 A 
ATOM     53  C   UNL     1     -47.809  41.413  27.095  1.00  0.00    -0.016 A 
ATOM     54  N   UNL     1     -50.070  41.637  26.919  1.00  0.00    -0.173 NA
ATOM     55  C   UNL     1     -48.082  42.697  26.683  1.00  0.00     0.025 A 
ATOM     56  H   UNL     1     -46.834  40.977  27.265  1.00  0.00     0.066 H 
ATOM     57  N   UNL     1     -49.439  42.773  26.578  1.00  0.00    -0.275 N 
ATOM     58  H   UNL     1     -47.436  43.530  26.445  1.00  0.00     0.084 H 
BRANCH  57  59
ATOM     59  C   UNL     1     -50.215  43.910  26.146  1.00  0.00     0.030 C 
ATOM     60  H   UNL     1     -51.220  43.564  25.888  1.00  0.00     0.048 H 
ATOM     61  H   UNL     1     -49.741  44.363  25.272  1.00  0.00     0.048 H 
ATOM     62  H   UNL     1     -50.256  44.631  26.965  1.00  0.00     0.048 H 
ENDBRANCH  57  59
ENDBRANCH  44  52
BRANCH  48  63
ATOM     63  N   UNL     1     -52.075  40.668  28.748  1.00  0.00    -0.383 N 
ATOM     64  H   UNL     1     -53.018  40.731  29.118  1.00  0.00     0.158 HD
ATOM     65  H   UNL     1     -51.948  41.057  27.822  1.00  0.00     0.158 HD
ENDBRANCH  48  63
ENDBRANCH  33  41
ENDBRANCH   1  29
TORSDOF 11
ENDMDL
MODEL 5
REMARK VINA RESULT:      -8.4      1.766      2.810
REMARK SMILES CCc1cc(N)c2ccc(OC[C@H]3O[C@@H](n4cc(-c5ccn(C)n5)c5c(N)ncnc54)[C@@H](F)[C@@H]3O)cc2n1
REMARK SMILES IDX 12 1 11 4 10 5 3 6 4 7 38 8 5 9 37 11 7 12 36 13 8 14 9 16
REMARK SMILES IDX 2 19 1 22 6 26 13 29 14 30 34 31 15 33 32 34 33 37 35 39
REMARK SMILES IDX 16 41 17 42 31 43 18 44 25 46 30 47 26 48 29 49 28 50 19 52
REMARK SMILES IDX 20 53 24 54 21 55 22 57 23 59 27 63
REMARK H PARENT 12 2 12 3 4 10 36 15 8 17 9 18 2 20 2 21 1 23 1 24 1 25 6 27
REMARK H PARENT 6 28 13 32 34 35 15 36 32 38 35 40 17 45 29 51 20 56 21 58
REMARK H PARENT 23 60 23 61 23 62 27 64 27 65
REMARK Flexibility Score: inf
ROOT
ATOM      1  C   UNL     1     -45.680  36.939  27.414  1.00  0.00     0.117 C 
ATOM      2  H   UNL     1     -44.633  37.250  27.493  1.00  0.00     0.073 H 
ATOM      3  H   UNL     1     -46.010  36.994  26.368  1.00  0.00     0.073 H 
ENDROOT
BRANCH   1   4
ATOM      4  O   UNL     1     -45.816  35.603  27.890  1.00  0.00    -0.491 OA
BRANCH   4   5
ATOM      5  C   UNL     1     -46.462  34.718  27.074  1.00  0.00     0.121 A 
ATOM      6  C   UNL     1     -46.628  31.348  23.731  1.00  0.00     0.043 A 
ATOM      7  C   UNL     1     -48.012  31.274  23.765  1.00  0.00    -0.017 A 
ATOM      8  N   UNL     1     -45.926  32.180  24.531  1.00  0.00    -0.253 NA
ATOM      9  C   UNL     1     -48.711  32.042  24.694  1.00  0.00     0.043 A 
ATOM     10  H   UNL     1     -48.546  30.609  23.094  1.00  0.00     0.066 H 
ATOM     11  C   UNL     1     -46.594  32.970  25.388  1.00  0.00     0.076 A 
ATOM     12  C   UNL     1     -48.002  32.958  25.504  1.00  0.00     0.023 A 
ATOM     13  C   UNL     1     -45.853  33.842  26.177  1.00  0.00     0.007 A 
ATOM     14  C   UNL     1     -48.613  33.851  26.414  1.00  0.00    -0.047 A 
ATOM     15  H   UNL     1     -44.773  33.810  26.070  1.00  0.00     0.069 H 
ATOM     16  C   UNL     1     -47.846  34.713  27.194  1.00  0.00    -0.019 A 
ATOM     17  H   UNL     1     -49.691  33.896  26.528  1.00  0.00     0.063 H 
ATOM     18  H   UNL     1     -48.334  35.399  27.884  1.00  0.00     0.066 H 
BRANCH   6  19
ATOM     19  C   UNL     1     -45.840  30.517  22.752  1.00  0.00    -0.013 C 
ATOM     20  H   UNL     1     -44.769  30.714  22.872  1.00  0.00     0.033 H 
ATOM     21  H   UNL     1     -46.101  30.822  21.731  1.00  0.00     0.033 H 
BRANCH  19  22
ATOM     22  C   UNL     1     -46.122  29.033  22.922  1.00  0.00    -0.060 C 
ATOM     23  H   UNL     1     -46.027  28.517  21.963  1.00  0.00     0.023 H 
ATOM     24  H   UNL     1     -47.136  28.864  23.301  1.00  0.00     0.023 H 
ATOM     25  H   UNL     1     -45.420  28.573  23.627  1.00  0.00     0.023 H 
ENDBRANCH  19  22
ENDBRANCH   6  19
BRANCH   9  26
ATOM     26  N   UNL     1     -50.125  32.013  24.620  1.00  0.00    -0.398 N 
ATOM     27  H   UNL     1     -50.468  32.332  23.718  1.00  0.00     0.156 HD
ATOM     28  H   UNL     1     -50.463  31.069  24.795  1.00  0.00     0.156 HD
ENDBRANCH   9  26
ENDBRANCH   4   5
ENDBRANCH   1   4
BRANCH   1  29
ATOM     29  C   UNL     1     -46.550  37.891  28.247  1.00  0.00     0.123 C 
ATOM     30  O   UNL     1     -45.834  39.120  28.497  1.00  0.00    -0.345 OA
ATOM     31  C   UNL     1     -47.882  38.283  27.606  1.00  0.00     0.119 C 
ATOM     32  H   UNL     1     -46.714  37.423  29.225  1.00  0.00     0.067 H 
ATOM     33  C   UNL     1     -46.491  40.192  27.778  1.00  0.00     0.169 C 
ATOM     34  C   UNL     1     -47.602  39.602  26.921  1.00  0.00     0.173 C 
ATOM     35  H   UNL     1     -48.257  37.519  26.918  1.00  0.00     0.066 H 
ATOM     36  H   UNL     1     -46.914  40.838  28.556  1.00  0.00     0.088 H 
ATOM     37  F   UNL     1     -47.198  39.372  25.645  1.00  0.00    -0.239 F 
ATOM     38  H   UNL     1     -48.471  40.265  26.874  1.00  0.00     0.074 H 
BRANCH  31  39
ATOM     39  O   UNL     1     -48.889  38.466  28.618  1.00  0.00    -0.387 OA
ATOM     40  H   UNL     1     -49.652  38.931  28.230  1.00  0.00     0.211 HD
ENDBRANCH  31  39
BRANCH  33  41
ATOM     41  N   UNL     1     -45.523  40.988  27.042  1.00  0.00    -0.302 N 
ATOM     42  C   UNL     1     -45.733  41.707  25.896  1.00  0.00     0.019 A 
ATOM     43  C   UNL     1     -44.216  41.133  27.438  1.00  0.00     0.148 A 
ATOM     44  C   UNL     1     -44.544  42.324  25.555  1.00  0.00     0.033 A 
ATOM     45  H   UNL     1     -46.699  41.729  25.409  1.00  0.00     0.083 H 
ATOM     46  C   UNL     1     -43.574  41.987  26.546  1.00  0.00     0.071 A 
ATOM     47  N   UNL     1     -43.676  40.549  28.523  1.00  0.00    -0.218 NA
ATOM     48  C   UNL     1     -42.235  42.292  26.838  1.00  0.00     0.137 A 
ATOM     49  C   UNL     1     -42.389  40.896  28.679  1.00  0.00     0.120 A 
ATOM     50  N   UNL     1     -41.654  41.724  27.915  1.00  0.00    -0.219 NA
ATOM     51  H   UNL     1     -41.876  40.458  29.531  1.00  0.00     0.106 H 
BRANCH  44  52
ATOM     52  C   UNL     1     -44.339  43.170  24.384  1.00  0.00     0.095 A 
ATOM     53  C   UNL     1     -45.283  44.082  23.867  1.00  0.00    -0.016 A 
ATOM     54  N   UNL     1     -43.189  43.198  23.700  1.00  0.00    -0.173 NA
ATOM     55  C   UNL     1     -44.648  44.682  22.804  1.00  0.00     0.025 A 
ATOM     56  H   UNL     1     -46.283  44.282  24.225  1.00  0.00     0.066 H 
ATOM     57  N   UNL     1     -43.401  44.132  22.758  1.00  0.00    -0.275 N 
ATOM     58  H   UNL     1     -44.968  45.446  22.111  1.00  0.00     0.084 H 
BRANCH  57  59
ATOM     59  C   UNL     1     -42.341  44.460  21.837  1.00  0.00     0.030 C 
ATOM     60  H   UNL     1     -42.763  44.511  20.829  1.00  0.00     0.048 H 
ATOM     61  H   UNL     1     -41.568  43.689  21.880  1.00  0.00     0.048 H 
ATOM     62  H   UNL     1     -41.920  45.427  22.125  1.00  0.00     0.048 H 
ENDBRANCH  57  59
ENDBRANCH  44  52
BRANCH  48  63
ATOM     63  N   UNL     1     -41.450  43.181  26.115  1.00  0.00    -0.383 N 
ATOM     64  H   UNL     1     -40.482  42.876  26.138  1.00  0.00     0.158 HD
ATOM     65  H   UNL     1     -41.603  44.150  26.366  1.00  0.00     0.158 HD
ENDBRANCH  48  63
ENDBRANCH  33  41
ENDBRANCH   1  29
TORSDOF 11
ENDMDL
MODEL 6
REMARK VINA RESULT:      -8.2      4.987      8.934
REMARK SMILES CCc1cc(N)c2ccc(OC[C@H]3O[C@@H](n4cc(-c5ccn(C)n5)c5c(N)ncnc54)[C@@H](F)[C@@H]3O)cc2n1
REMARK SMILES IDX 12 1 11 4 10 5 3 6 4 7 38 8 5 9 37 11 7 12 36 13 8 14 9 16
REMARK SMILES IDX 2 19 1 22 6 26 13 29 14 30 34 31 15 33 32 34 33 37 35 39
REMARK SMILES IDX 16 41 17 42 31 43 18 44 25 46 30 47 26 48 29 49 28 50 19 52
REMARK SMILES IDX 20 53 24 54 21 55 22 57 23 59 27 63
REMARK H PARENT 12 2 12 3 4 10 36 15 8 17 9 18 2 20 2 21 1 23 1 24 1 25 6 27
REMARK H PARENT 6 28 13 32 34 35 15 36 32 38 35 40 17 45 29 51 20 56 21 58
REMARK H PARENT 23 60 23 61 23 62 27 64 27 65
REMARK Flexibility Score: inf
ROOT
ATOM      1  C   UNL     1     -46.512  44.371  24.809  1.00  0.00     0.117 C 
ATOM      2  H   UNL     1     -46.631  43.284  24.760  1.00  0.00     0.073 H 
ATOM      3  H   UNL     1     -46.853  44.829  23.871  1.00  0.00     0.073 H 
ENDROOT
BRANCH   1   4
ATOM      4  O   UNL     1     -47.275  44.884  25.898  1.00  0.00    -0.491 OA
BRANCH   4   5
ATOM      5  C   UNL     1     -47.961  43.977  26.654  1.00  0.00     0.121 A 
ATOM      6  C   UNL     1     -50.838  42.709  30.216  1.00  0.00     0.043 A 
ATOM      7  C   UNL     1     -50.736  41.359  29.919  1.00  0.00    -0.017 A 
ATOM      8  N   UNL     1     -50.209  43.660  29.490  1.00  0.00    -0.253 NA
ATOM      9  C   UNL     1     -50.007  40.961  28.801  1.00  0.00     0.043 A 
ATOM     10  H   UNL     1     -51.238  40.619  30.534  1.00  0.00     0.066 H 
ATOM     11  C   UNL     1     -49.453  43.283  28.446  1.00  0.00     0.076 A 
ATOM     12  C   UNL     1     -49.297  41.933  28.059  1.00  0.00     0.023 A 
ATOM     13  C   UNL     1     -48.790  44.277  27.735  1.00  0.00     0.007 A 
ATOM     14  C   UNL     1     -48.454  41.637  26.964  1.00  0.00    -0.047 A 
ATOM     15  H   UNL     1     -48.947  45.302  28.054  1.00  0.00     0.069 H 
ATOM     16  C   UNL     1     -47.802  42.653  26.268  1.00  0.00    -0.019 A 
ATOM     17  H   UNL     1     -48.285  40.616  26.637  1.00  0.00     0.063 H 
ATOM     18  H   UNL     1     -47.150  42.405  25.432  1.00  0.00     0.066 H 
BRANCH   6  19
ATOM     19  C   UNL     1     -51.634  43.174  31.406  1.00  0.00    -0.013 C 
ATOM     20  H   UNL     1     -52.204  42.337  31.824  1.00  0.00     0.033 H 
ATOM     21  H   UNL     1     -52.369  43.919  31.077  1.00  0.00     0.033 H 
BRANCH  19  22
ATOM     22  C   UNL     1     -50.740  43.785  32.474  1.00  0.00    -0.060 C 
ATOM     23  H   UNL     1     -51.133  44.757  32.786  1.00  0.00     0.023 H 
ATOM     24  H   UNL     1     -49.722  43.934  32.100  1.00  0.00     0.023 H 
ATOM     25  H   UNL     1     -50.682  43.142  33.359  1.00  0.00     0.023 H 
ENDBRANCH  19  22
ENDBRANCH   6  19
BRANCH   9  26
ATOM     26  N   UNL     1     -49.844  39.568  28.599  1.00  0.00    -0.398 N 
ATOM     27  H   UNL     1     -50.735  39.090  28.499  1.00  0.00     0.156 HD
ATOM     28  H   UNL     1     -49.275  39.401  27.772  1.00  0.00     0.156 HD
ENDBRANCH   9  26
ENDBRANCH   4   5
ENDBRANCH   1   4
BRANCH   1  29
ATOM     29  C   UNL     1     -45.025  44.706  24.998  1.00  0.00     0.123 C 
ATOM     30  O   UNL     1     -44.555  44.164  26.251  1.00  0.00    -0.345 OA
ATOM     31  C   UNL     1     -44.095  44.169  23.911  1.00  0.00     0.119 C 
ATOM     32  H   UNL     1     -44.937  45.796  25.079  1.00  0.00     0.067 H 
ATOM     33  C   UNL     1     -43.611  43.101  25.970  1.00  0.00     0.169 C 
ATOM     34  C   UNL     1     -43.574  42.862  24.467  1.00  0.00     0.173 C 
ATOM     35  H   UNL     1     -44.601  44.048  22.948  1.00  0.00     0.066 H 
ATOM     36  H   UNL     1     -42.643  43.482  26.317  1.00  0.00     0.088 H 
ATOM     37  F   UNL     1     -44.396  41.850  24.089  1.00  0.00    -0.239 F 
ATOM     38  H   UNL     1     -42.566  42.610  24.123  1.00  0.00     0.074 H 
BRANCH  31  39
ATOM     39  O   UNL     1     -42.999  45.076  23.697  1.00  0.00    -0.387 OA
ATOM     40  H   UNL     1     -43.017  45.767  24.385  1.00  0.00     0.211 HD
ENDBRANCH  31  39
BRANCH  33  41
ATOM     41  N   UNL     1     -43.914  41.920  26.759  1.00  0.00    -0.302 N 
ATOM     42  C   UNL     1     -44.849  40.956  26.493  1.00  0.00     0.019 A 
ATOM     43  C   UNL     1     -43.253  41.607  27.922  1.00  0.00     0.148 A 
ATOM     44  C   UNL     1     -44.783  40.009  27.498  1.00  0.00     0.033 A 
ATOM     45  H   UNL     1     -45.487  41.009  25.620  1.00  0.00     0.083 H 
ATOM     46  C   UNL     1     -43.751  40.399  28.402  1.00  0.00     0.071 A 
ATOM     47  N   UNL     1     -42.279  42.352  28.473  1.00  0.00    -0.218 NA
ATOM     48  C   UNL     1     -43.140  39.899  29.564  1.00  0.00     0.137 A 
ATOM     49  C   UNL     1     -41.797  41.784  29.589  1.00  0.00     0.120 A 
ATOM     50  N   UNL     1     -42.161  40.618  30.151  1.00  0.00    -0.219 NA
ATOM     51  H   UNL     1     -41.008  42.329  30.101  1.00  0.00     0.106 H 
BRANCH  44  52
ATOM     52  C   UNL     1     -45.629  38.824  27.596  1.00  0.00     0.095 A 
ATOM     53  C   UNL     1     -46.561  38.411  26.622  1.00  0.00    -0.016 A 
ATOM     54  N   UNL     1     -45.564  37.968  28.624  1.00  0.00    -0.173 NA
ATOM     55  C   UNL     1     -47.085  37.236  27.112  1.00  0.00     0.025 A 
ATOM     56  H   UNL     1     -46.810  38.895  25.688  1.00  0.00     0.066 H 
ATOM     57  N   UNL     1     -46.447  37.010  28.295  1.00  0.00    -0.275 N 
ATOM     58  H   UNL     1     -47.824  36.555  26.714  1.00  0.00     0.084 H 
BRANCH  57  59
ATOM     59  C   UNL     1     -46.624  35.881  29.176  1.00  0.00     0.030 C 
ATOM     60  H   UNL     1     -47.376  36.143  29.926  1.00  0.00     0.048 H 
ATOM     61  H   UNL     1     -45.676  35.646  29.663  1.00  0.00     0.048 H 
ATOM     62  H   UNL     1     -46.959  35.028  28.579  1.00  0.00     0.048 H 
ENDBRANCH  57  59
ENDBRANCH  44  52
BRANCH  48  63
ATOM     63  N   UNL     1     -43.441  38.677  30.153  1.00  0.00    -0.383 N 
ATOM     64  H   UNL     1     -43.756  38.025  29.442  1.00  0.00     0.158 HD
ATOM     65  H   UNL     1     -44.045  38.757  30.962  1.00  0.00     0.158 HD
ENDBRANCH  48  63
ENDBRANCH  33  41
ENDBRANCH   1  29
TORSDOF 11
ENDMDL
MODEL 7
REMARK VINA RESULT:      -8.2      4.781      8.370
REMARK SMILES CCc1cc(N)c2ccc(OC[C@H]3O[C@@H](n4cc(-c5ccn(C)n5)c5c(N)ncnc54)[C@@H](F)[C@@H]3O)cc2n1
REMARK SMILES IDX 12 1 11 4 10 5 3 6 4 7 38 8 5 9 37 11 7 12 36 13 8 14 9 16
REMARK SMILES IDX 2 19 1 22 6 26 13 29 14 30 34 31 15 33 32 34 33 37 35 39
REMARK SMILES IDX 16 41 17 42 31 43 18 44 25 46 30 47 26 48 29 49 28 50 19 52
REMARK SMILES IDX 20 53 24 54 21 55 22 57 23 59 27 63
REMARK H PARENT 12 2 12 3 4 10 36 15 8 17 9 18 2 20 2 21 1 23 1 24 1 25 6 27
REMARK H PARENT 6 28 13 32 34 35 15 36 32 38 35 40 17 45 29 51 20 56 21 58
REMARK H PARENT 23 60 23 61 23 62 27 64 27 65
REMARK Flexibility Score: inf
ROOT
ATOM      1  C   UNL     1     -43.519  43.377  27.245  1.00  0.00     0.117 C 
ATOM      2  H   UNL     1     -44.467  43.245  27.778  1.00  0.00     0.073 H 
ATOM      3  H   UNL     1     -42.805  43.920  27.879  1.00  0.00     0.073 H 
ENDROOT
BRANCH   1   4
ATOM      4  O   UNL     1     -42.983  42.103  26.902  1.00  0.00    -0.491 OA
BRANCH   4   5
ATOM      5  C   UNL     1     -43.554  41.012  27.493  1.00  0.00     0.121 A 
ATOM      6  C   UNL     1     -46.481  37.272  27.607  1.00  0.00     0.043 A 
ATOM      7  C   UNL     1     -46.126  36.936  28.904  1.00  0.00    -0.017 A 
ATOM      8  N   UNL     1     -45.934  38.321  26.954  1.00  0.00    -0.253 NA
ATOM      9  C   UNL     1     -45.128  37.666  29.547  1.00  0.00     0.043 A 
ATOM     10  H   UNL     1     -46.599  36.099  29.407  1.00  0.00     0.066 H 
ATOM     11  C   UNL     1     -45.015  39.070  27.586  1.00  0.00     0.076 A 
ATOM     12  C   UNL     1     -44.580  38.799  28.903  1.00  0.00     0.023 A 
ATOM     13  C   UNL     1     -44.491  40.163  26.906  1.00  0.00     0.007 A 
ATOM     14  C   UNL     1     -43.631  39.666  29.492  1.00  0.00    -0.047 A 
ATOM     15  H   UNL     1     -44.839  40.327  25.892  1.00  0.00     0.069 H 
ATOM     16  C   UNL     1     -43.121  40.754  28.788  1.00  0.00    -0.019 A 
ATOM     17  H   UNL     1     -43.278  39.515  30.507  1.00  0.00     0.063 H 
ATOM     18  H   UNL     1     -42.397  41.415  29.260  1.00  0.00     0.066 H 
BRANCH   6  19
ATOM     19  C   UNL     1     -47.542  36.492  26.876  1.00  0.00    -0.013 C 
ATOM     20  H   UNL     1     -47.126  35.544  26.515  1.00  0.00     0.033 H 
ATOM     21  H   UNL     1     -47.853  37.054  25.988  1.00  0.00     0.033 H 
BRANCH  19  22
ATOM     22  C   UNL     1     -48.752  36.231  27.758  1.00  0.00    -0.060 C 
ATOM     23  H   UNL     1     -49.594  36.852  27.439  1.00  0.00     0.023 H 
ATOM     24  H   UNL     1     -48.536  36.464  28.807  1.00  0.00     0.023 H 
ATOM     25  H   UNL     1     -49.064  35.182  27.705  1.00  0.00     0.023 H 
ENDBRANCH  19  22
ENDBRANCH   6  19
BRANCH   9  26
ATOM     26  N   UNL     1     -44.874  37.353  30.905  1.00  0.00    -0.398 N 
ATOM     27  H   UNL     1     -44.565  36.392  31.024  1.00  0.00     0.156 HD
ATOM     28  H   UNL     1     -44.169  37.984  31.280  1.00  0.00     0.156 HD
ENDBRANCH   9  26
ENDBRANCH   4   5
ENDBRANCH   1   4
BRANCH   1  29
ATOM     29  C   UNL     1     -43.769  44.208  25.977  1.00  0.00     0.123 C 
ATOM     30  O   UNL     1     -44.891  43.665  25.248  1.00  0.00    -0.345 OA
ATOM     31  C   UNL     1     -44.076  45.686  26.218  1.00  0.00     0.119 C 
ATOM     32  H   UNL     1     -42.893  44.095  25.328  1.00  0.00     0.067 H 
ATOM     33  C   UNL     1     -45.982  44.618  25.303  1.00  0.00     0.169 C 
ATOM     34  C   UNL     1     -45.586  45.766  26.220  1.00  0.00     0.173 C 
ATOM     35  H   UNL     1     -43.630  46.060  27.145  1.00  0.00     0.066 H 
ATOM     36  H   UNL     1     -46.096  44.977  24.273  1.00  0.00     0.088 H 
ATOM     37  F   UNL     1     -46.047  45.592  27.485  1.00  0.00    -0.239 F 
ATOM     38  H   UNL     1     -45.975  46.724  25.859  1.00  0.00     0.074 H 
BRANCH  31  39
ATOM     39  O   UNL     1     -43.548  46.486  25.146  1.00  0.00    -0.387 OA
ATOM     40  H   UNL     1     -44.249  47.076  24.811  1.00  0.00     0.211 HD
ENDBRANCH  31  39
BRANCH  33  41
ATOM     41  N   UNL     1     -47.225  43.959  25.666  1.00  0.00    -0.302 N 
ATOM     42  C   UNL     1     -47.396  42.933  26.556  1.00  0.00     0.019 A 
ATOM     43  C   UNL     1     -48.442  44.316  25.140  1.00  0.00     0.148 A 
ATOM     44  C   UNL     1     -48.744  42.631  26.604  1.00  0.00     0.033 A 
ATOM     45  H   UNL     1     -46.560  42.496  27.086  1.00  0.00     0.083 H 
ATOM     46  C   UNL     1     -49.426  43.523  25.725  1.00  0.00     0.071 A 
ATOM     47  N   UNL     1     -48.627  45.285  24.226  1.00  0.00    -0.218 NA
ATOM     48  C   UNL     1     -50.748  43.798  25.340  1.00  0.00     0.137 A 
ATOM     49  C   UNL     1     -49.926  45.432  23.921  1.00  0.00     0.120 A 
ATOM     50  N   UNL     1     -50.978  44.760  24.422  1.00  0.00    -0.219 NA
ATOM     51  H   UNL     1     -50.160  46.193  23.182  1.00  0.00     0.106 H 
BRANCH  44  52
ATOM     52  C   UNL     1     -49.344  41.581  27.421  1.00  0.00     0.095 A 
ATOM     53  C   UNL     1     -48.844  40.268  27.549  1.00  0.00    -0.016 A 
ATOM     54  N   UNL     1     -50.425  41.782  28.184  1.00  0.00    -0.173 NA
ATOM     55  C   UNL     1     -49.691  39.654  28.442  1.00  0.00     0.025 A 
ATOM     56  H   UNL     1     -47.980  39.833  27.065  1.00  0.00     0.066 H 
ATOM     57  N   UNL     1     -50.603  40.602  28.801  1.00  0.00    -0.275 N 
ATOM     58  H   UNL     1     -49.704  38.654  28.852  1.00  0.00     0.084 H 
BRANCH  57  59
ATOM     59  C   UNL     1     -51.682  40.454  29.747  1.00  0.00     0.030 C 
ATOM     60  H   UNL     1     -52.173  39.494  29.564  1.00  0.00     0.048 H 
ATOM     61  H   UNL     1     -52.397  41.270  29.614  1.00  0.00     0.048 H 
ATOM     62  H   UNL     1     -51.263  40.485  30.756  1.00  0.00     0.048 H 
ENDBRANCH  57  59
ENDBRANCH  44  52
BRANCH  48  63
ATOM     63  N   UNL     1     -51.872  43.172  25.866  1.00  0.00    -0.383 N 
ATOM     64  H   UNL     1     -52.680  43.775  25.755  1.00  0.00     0.158 HD
ATOM     65  H   UNL     1     -51.730  42.808  26.800  1.00  0.00     0.158 HD
ENDBRANCH  48  63
ENDBRANCH  33  41
ENDBRANCH   1  29
TORSDOF 11
ENDMDL
