MODEL 1
REMARK VINA RESULT:     -10.7      0.000      0.000
REMARK SMILES CCc1cc(NC)c2ccc(OC[C@H]3O[C@@H](n4cc(-c5ccn(C)n5)c5c(N)ncnc54)[C@@H](F)[C@@H]3O)cc2n1
REMARK SMILES IDX 13 1 12 4 11 5 3 6 4 7 39 8 5 9 38 11 8 12 37 13 9 14 10 16
REMARK SMILES IDX 2 19 1 22 6 26 7 28 14 32 15 33 35 34 16 36 33 37 34 40
REMARK SMILES IDX 36 42 17 44 18 45 32 46 19 47 26 49 31 50 27 51 30 52 29 53
REMARK SMILES IDX 20 55 21 56 25 57 22 58 23 60 24 62 28 66
REMARK H PARENT 13 2 13 3 4 10 37 15 9 17 10 18 2 20 2 21 1 23 1 24 1 25 6 27
REMARK H PARENT 7 29 7 30 7 31 14 35 35 38 16 39 33 41 36 43 18 48 30 54 21 59
REMARK H PARENT 22 61 24 63 24 64 24 65 28 67 28 68
REMARK Flexibility Score: inf
ROOT
ATOM      1  C   UNL     1     -47.214  36.472  27.168  1.00  0.00     0.117 C 
ATOM      2  H   UNL     1     -46.674  36.667  26.235  1.00  0.00     0.073 H 
ATOM      3  H   UNL     1     -47.790  37.354  27.473  1.00  0.00     0.073 H 
ENDROOT
BRANCH   1   4
ATOM      4  O   UNL     1     -48.115  35.376  26.971  1.00  0.00    -0.491 OA
BRANCH   4   5
ATOM      5  C   UNL     1     -47.681  34.344  26.188  1.00  0.00     0.121 A 
ATOM      6  C   UNL     1     -48.997  30.108  24.480  1.00  0.00     0.043 A 
ATOM      7  C   UNL     1     -47.804  29.925  23.791  1.00  0.00    -0.017 A 
ATOM      8  N   UNL     1     -49.232  31.191  25.250  1.00  0.00    -0.253 NA
ATOM      9  C   UNL     1     -46.787  30.877  23.894  1.00  0.00     0.045 A 
ATOM     10  H   UNL     1     -47.685  29.030  23.193  1.00  0.00     0.066 H 
ATOM     11  C   UNL     1     -48.296  32.148  25.317  1.00  0.00     0.076 A 
ATOM     12  C   UNL     1     -47.057  32.059  24.644  1.00  0.00     0.024 A 
ATOM     13  C   UNL     1     -48.573  33.275  26.078  1.00  0.00     0.007 A 
ATOM     14  C   UNL     1     -46.163  33.153  24.750  1.00  0.00    -0.047 A 
ATOM     15  H   UNL     1     -49.526  33.326  26.601  1.00  0.00     0.069 H 
ATOM     16  C   UNL     1     -46.470  34.282  25.515  1.00  0.00    -0.019 A 
ATOM     17  H   UNL     1     -45.215  33.143  24.219  1.00  0.00     0.063 H 
ATOM     18  H   UNL     1     -45.740  35.082  25.559  1.00  0.00     0.066 H 
BRANCH   6  19
ATOM     19  C   UNL     1     -50.085  29.069  24.419  1.00  0.00    -0.013 C 
ATOM     20  H   UNL     1     -50.397  28.915  23.380  1.00  0.00     0.033 H 
ATOM     21  H   UNL     1     -50.966  29.439  24.957  1.00  0.00     0.033 H 
BRANCH  19  22
ATOM     22  C   UNL     1     -49.636  27.752  25.033  1.00  0.00    -0.060 C 
ATOM     23  H   UNL     1     -50.070  27.611  26.028  1.00  0.00     0.023 H 
ATOM     24  H   UNL     1     -48.546  27.711  25.132  1.00  0.00     0.023 H 
ATOM     25  H   UNL     1     -49.950  26.914  24.401  1.00  0.00     0.023 H 
ENDBRANCH  19  22
ENDBRANCH   6  19
BRANCH   9  26
ATOM     26  N   UNL     1     -45.571  30.747  23.192  1.00  0.00    -0.388 N 
ATOM     27  H   UNL     1     -44.781  30.925  23.808  1.00  0.00     0.160 HD
BRANCH  26  28
ATOM     28  C   UNL     1     -45.338  29.591  22.342  1.00  0.00     0.003 C 
ATOM     29  H   UNL     1     -45.691  28.670  22.816  1.00  0.00     0.045 H 
ATOM     30  H   UNL     1     -44.280  29.495  22.079  1.00  0.00     0.045 H 
ATOM     31  H   UNL     1     -45.904  29.712  21.412  1.00  0.00     0.045 H 
ENDBRANCH  26  28
ENDBRANCH   9  26
ENDBRANCH   4   5
ENDBRANCH   1   4
BRANCH   1  32
ATOM     32  C   UNL     1     -46.230  36.087  28.285  1.00  0.00     0.123 C 
ATOM     33  O   UNL     1     -45.001  36.828  28.103  1.00  0.00    -0.345 OA
ATOM     34  C   UNL     1     -46.741  36.458  29.678  1.00  0.00     0.119 C 
ATOM     35  H   UNL     1     -45.974  35.024  28.216  1.00  0.00     0.067 H 
ATOM     36  C   UNL     1     -44.959  37.881  29.099  1.00  0.00     0.169 C 
ATOM     37  C   UNL     1     -46.310  37.900  29.805  1.00  0.00     0.173 C 
ATOM     38  H   UNL     1     -47.822  36.324  29.785  1.00  0.00     0.066 H 
ATOM     39  H   UNL     1     -44.152  37.612  29.791  1.00  0.00     0.088 H 
ATOM     40  F   UNL     1     -47.215  38.667  29.134  1.00  0.00    -0.239 F 
ATOM     41  H   UNL     1     -46.244  38.264  30.834  1.00  0.00     0.074 H 
BRANCH  34  42
ATOM     42  O   UNL     1     -46.098  35.681  30.694  1.00  0.00    -0.387 OA
ATOM     43  H   UNL     1     -46.354  36.046  31.561  1.00  0.00     0.211 HD
ENDBRANCH  34  42
BRANCH  36  44
ATOM     44  N   UNL     1     -44.600  39.148  28.483  1.00  0.00    -0.302 N 
ATOM     45  C   UNL     1     -45.196  39.748  27.405  1.00  0.00     0.019 A 
ATOM     46  C   UNL     1     -43.567  39.936  28.930  1.00  0.00     0.148 A 
ATOM     47  C   UNL     1     -44.558  40.953  27.182  1.00  0.00     0.033 A 
ATOM     48  H   UNL     1     -46.029  39.289  26.887  1.00  0.00     0.083 H 
ATOM     49  C   UNL     1     -43.492  41.068  28.124  1.00  0.00     0.071 A 
ATOM     50  N   UNL     1     -42.772  39.636  29.972  1.00  0.00    -0.218 NA
ATOM     51  C   UNL     1     -42.448  41.963  28.414  1.00  0.00     0.137 A 
ATOM     52  C   UNL     1     -41.837  40.579  30.166  1.00  0.00     0.120 A 
ATOM     53  N   UNL     1     -41.630  41.700  29.453  1.00  0.00    -0.219 NA
ATOM     54  H   UNL     1     -41.158  40.414  30.996  1.00  0.00     0.106 H 
BRANCH  47  55
ATOM     55  C   UNL     1     -44.922  41.920  26.151  1.00  0.00     0.095 A 
ATOM     56  C   UNL     1     -44.221  42.125  24.943  1.00  0.00    -0.016 A 
ATOM     57  N   UNL     1     -45.950  42.764  26.280  1.00  0.00    -0.173 NA
ATOM     58  C   UNL     1     -44.895  43.146  24.313  1.00  0.00     0.025 A 
ATOM     59  H   UNL     1     -43.342  41.607  24.585  1.00  0.00     0.066 H 
ATOM     60  N   UNL     1     -45.911  43.497  25.153  1.00  0.00    -0.275 N 
ATOM     61  H   UNL     1     -44.730  43.645  23.369  1.00  0.00     0.084 H 
BRANCH  60  62
ATOM     62  C   UNL     1     -46.889  44.537  24.951  1.00  0.00     0.030 C 
ATOM     63  H   UNL     1     -47.380  44.392  23.986  1.00  0.00     0.048 H 
ATOM     64  H   UNL     1     -46.374  45.501  24.966  1.00  0.00     0.048 H 
ATOM     65  H   UNL     1     -47.625  44.479  25.756  1.00  0.00     0.048 H 
ENDBRANCH  60  62
ENDBRANCH  47  55
BRANCH  51  66
ATOM     66  N   UNL     1     -42.155  43.104  27.676  1.00  0.00    -0.383 N 
ATOM     67  H   UNL     1     -42.997  43.656  27.557  1.00  0.00     0.158 HD
ATOM     68  H   UNL     1     -41.350  43.611  28.024  1.00  0.00     0.158 HD
ENDBRANCH  51  66
ENDBRANCH  36  44
ENDBRANCH   1  32
TORSDOF 12
ENDMDL
MODEL 2
REMARK VINA RESULT:     -10.4      0.834      2.143
REMARK SMILES CCc1cc(NC)c2ccc(OC[C@H]3O[C@@H](n4cc(-c5ccn(C)n5)c5c(N)ncnc54)[C@@H](F)[C@@H]3O)cc2n1
REMARK SMILES IDX 13 1 12 4 11 5 3 6 4 7 39 8 5 9 38 11 8 12 37 13 9 14 10 16
REMARK SMILES IDX 2 19 1 22 6 26 7 28 14 32 15 33 35 34 16 36 33 37 34 40
REMARK SMILES IDX 36 42 17 44 18 45 32 46 19 47 26 49 31 50 27 51 30 52 29 53
REMARK SMILES IDX 20 55 21 56 25 57 22 58 23 60 24 62 28 66
REMARK H PARENT 13 2 13 3 4 10 37 15 9 17 10 18 2 20 2 21 1 23 1 24 1 25 6 27
REMARK H PARENT 7 29 7 30 7 31 14 35 35 38 16 39 33 41 36 43 18 48 30 54 21 59
REMARK H PARENT 22 61 24 63 24 64 24 65 28 67 28 68
REMARK Flexibility Score: inf
ROOT
ATOM      1  C   UNL     1     -47.119  36.375  27.203  1.00  0.00     0.117 C 
ATOM      2  H   UNL     1     -47.133  37.457  27.032  1.00  0.00     0.073 H 
ATOM      3  H   UNL     1     -48.124  36.007  27.443  1.00  0.00     0.073 H 
ENDROOT
BRANCH   1   4
ATOM      4  O   UNL     1     -46.656  35.716  26.019  1.00  0.00    -0.491 OA
BRANCH   4   5
ATOM      5  C   UNL     1     -47.110  34.448  25.792  1.00  0.00     0.121 A 
ATOM      6  C   UNL     1     -46.295  30.579  23.153  1.00  0.00     0.043 A 
ATOM      7  C   UNL     1     -47.337  29.865  23.732  1.00  0.00    -0.017 A 
ATOM      8  N   UNL     1     -46.020  31.859  23.481  1.00  0.00    -0.253 NA
ATOM      9  C   UNL     1     -48.158  30.479  24.682  1.00  0.00     0.045 A 
ATOM     10  H   UNL     1     -47.500  28.842  23.419  1.00  0.00     0.066 H 
ATOM     11  C   UNL     1     -46.755  32.450  24.434  1.00  0.00     0.076 A 
ATOM     12  C   UNL     1     -47.827  31.805  25.088  1.00  0.00     0.024 A 
ATOM     13  C   UNL     1     -46.430  33.752  24.789  1.00  0.00     0.007 A 
ATOM     14  C   UNL     1     -48.503  32.512  26.112  1.00  0.00    -0.047 A 
ATOM     15  H   UNL     1     -45.608  34.241  24.270  1.00  0.00     0.069 H 
ATOM     16  C   UNL     1     -48.150  33.820  26.459  1.00  0.00    -0.019 A 
ATOM     17  H   UNL     1     -49.311  32.041  26.667  1.00  0.00     0.063 H 
ATOM     18  H   UNL     1     -48.711  34.307  27.248  1.00  0.00     0.066 H 
BRANCH   6  19
ATOM     19  C   UNL     1     -45.431  29.949  22.093  1.00  0.00    -0.013 C 
ATOM     20  H   UNL     1     -44.668  30.662  21.760  1.00  0.00     0.033 H 
ATOM     21  H   UNL     1     -46.048  29.722  21.215  1.00  0.00     0.033 H 
BRANCH  19  22
ATOM     22  C   UNL     1     -44.774  28.672  22.592  1.00  0.00    -0.060 C 
ATOM     23  H   UNL     1     -45.431  27.807  22.448  1.00  0.00     0.023 H 
ATOM     24  H   UNL     1     -44.535  28.738  23.658  1.00  0.00     0.023 H 
ATOM     25  H   UNL     1     -43.843  28.487  22.047  1.00  0.00     0.023 H 
ENDBRANCH  19  22
ENDBRANCH   6  19
BRANCH   9  26
ATOM     26  N   UNL     1     -49.211  29.786  25.315  1.00  0.00    -0.388 N 
ATOM     27  H   UNL     1     -50.112  30.119  24.978  1.00  0.00     0.160 HD
BRANCH  26  28
ATOM     28  C   UNL     1     -49.178  28.337  25.413  1.00  0.00     0.003 C 
ATOM     29  H   UNL     1     -48.747  28.011  26.364  1.00  0.00     0.045 H 
ATOM     30  H   UNL     1     -48.625  27.893  24.579  1.00  0.00     0.045 H 
ATOM     31  H   UNL     1     -50.203  27.953  25.375  1.00  0.00     0.045 H 
ENDBRANCH  26  28
ENDBRANCH   9  26
ENDBRANCH   4   5
ENDBRANCH   1   4
BRANCH   1  32
ATOM     32  C   UNL     1     -46.155  36.028  28.351  1.00  0.00     0.123 C 
ATOM     33  O   UNL     1     -44.937  36.790  28.186  1.00  0.00    -0.345 OA
ATOM     34  C   UNL     1     -46.708  36.412  29.725  1.00  0.00     0.119 C 
ATOM     35  H   UNL     1     -45.878  34.970  28.307  1.00  0.00     0.067 H 
ATOM     36  C   UNL     1     -44.940  37.860  29.164  1.00  0.00     0.169 C 
ATOM     37  C   UNL     1     -46.307  37.865  29.836  1.00  0.00     0.173 C 
ATOM     38  H   UNL     1     -47.789  36.260  29.807  1.00  0.00     0.066 H 
ATOM     39  H   UNL     1     -44.145  37.619  29.880  1.00  0.00     0.088 H 
ATOM     40  F   UNL     1     -47.210  38.602  29.130  1.00  0.00    -0.239 F 
ATOM     41  H   UNL     1     -46.274  38.248  30.860  1.00  0.00     0.074 H 
BRANCH  34  42
ATOM     42  O   UNL     1     -46.076  35.667  30.769  1.00  0.00    -0.387 OA
ATOM     43  H   UNL     1     -46.549  35.849  31.601  1.00  0.00     0.211 HD
ENDBRANCH  34  42
BRANCH  36  44
ATOM     44  N   UNL     1     -44.590  39.123  28.535  1.00  0.00    -0.302 N 
ATOM     45  C   UNL     1     -45.199  39.714  27.458  1.00  0.00     0.019 A 
ATOM     46  C   UNL     1     -43.554  39.917  28.964  1.00  0.00     0.148 A 
ATOM     47  C   UNL     1     -44.565  40.919  27.220  1.00  0.00     0.033 A 
ATOM     48  H   UNL     1     -46.037  39.249  26.953  1.00  0.00     0.083 H 
ATOM     49  C   UNL     1     -43.490  41.042  28.149  1.00  0.00     0.071 A 
ATOM     50  N   UNL     1     -42.747  39.626  30.000  1.00  0.00    -0.218 NA
ATOM     51  C   UNL     1     -42.445  41.942  28.421  1.00  0.00     0.137 A 
ATOM     52  C   UNL     1     -41.812  40.572  30.176  1.00  0.00     0.120 A 
ATOM     53  N   UNL     1     -41.615  41.688  29.453  1.00  0.00    -0.219 NA
ATOM     54  H   UNL     1     -41.124  40.415  31.001  1.00  0.00     0.106 H 
BRANCH  47  55
ATOM     55  C   UNL     1     -44.943  41.877  26.185  1.00  0.00     0.095 A 
ATOM     56  C   UNL     1     -46.196  42.517  26.086  1.00  0.00    -0.016 A 
ATOM     57  N   UNL     1     -44.134  42.206  25.172  1.00  0.00    -0.173 NA
ATOM     58  C   UNL     1     -46.110  43.289  24.950  1.00  0.00     0.025 A 
ATOM     59  H   UNL     1     -47.047  42.425  26.747  1.00  0.00     0.066 H 
ATOM     60  N   UNL     1     -44.866  43.062  24.438  1.00  0.00    -0.275 N 
ATOM     61  H   UNL     1     -46.818  43.950  24.471  1.00  0.00     0.084 H 
BRANCH  60  62
ATOM     62  C   UNL     1     -44.302  43.625  23.236  1.00  0.00     0.030 C 
ATOM     63  H   UNL     1     -43.214  43.537  23.269  1.00  0.00     0.048 H 
ATOM     64  H   UNL     1     -44.590  44.678  23.182  1.00  0.00     0.048 H 
ATOM     65  H   UNL     1     -44.696  43.072  22.380  1.00  0.00     0.048 H 
ENDBRANCH  60  62
ENDBRANCH  47  55
BRANCH  51  66
ATOM     66  N   UNL     1     -42.162  43.078  27.671  1.00  0.00    -0.383 N 
ATOM     67  H   UNL     1     -42.375  43.905  28.216  1.00  0.00     0.158 HD
ATOM     68  H   UNL     1     -41.240  43.062  27.251  1.00  0.00     0.158 HD
ENDBRANCH  51  66
ENDBRANCH  36  44
ENDBRANCH   1  32
TORSDOF 12
ENDMDL
MODEL 3
REMARK VINA RESULT:      -8.8      2.239      3.015
REMARK SMILES CCc1cc(NC)c2ccc(OC[C@H]3O[C@@H](n4cc(-c5ccn(C)n5)c5c(N)ncnc54)[C@@H](F)[C@@H]3O)cc2n1
REMARK SMILES IDX 13 1 12 4 11 5 3 6 4 7 39 8 5 9 38 11 8 12 37 13 9 14 10 16
REMARK SMILES IDX 2 19 1 22 6 26 7 28 14 32 15 33 35 34 16 36 33 37 34 40
REMARK SMILES IDX 36 42 17 44 18 45 32 46 19 47 26 49 31 50 27 51 30 52 29 53
REMARK SMILES IDX 20 55 21 56 25 57 22 58 23 60 24 62 28 66
REMARK H PARENT 13 2 13 3 4 10 37 15 9 17 10 18 2 20 2 21 1 23 1 24 1 25 6 27
REMARK H PARENT 7 29 7 30 7 31 14 35 35 38 16 39 33 41 36 43 18 48 30 54 21 59
REMARK H PARENT 22 61 24 63 24 64 24 65 28 67 28 68
REMARK Flexibility Score: inf
ROOT
ATOM      1  C   UNL     1     -46.894  35.357  26.225  1.00  0.00     0.117 C 
ATOM      2  H   UNL     1     -46.201  35.218  25.388  1.00  0.00     0.073 H 
ATOM      3  H   UNL     1     -47.547  36.219  26.048  1.00  0.00     0.073 H 
ENDROOT
BRANCH   1   4
ATOM      4  O   UNL     1     -47.704  34.184  26.365  1.00  0.00    -0.491 OA
BRANCH   4   5
ATOM      5  C   UNL     1     -47.422  33.128  25.544  1.00  0.00     0.121 A 
ATOM      6  C   UNL     1     -48.872  28.742  24.426  1.00  0.00     0.043 A 
ATOM      7  C   UNL     1     -47.885  28.573  23.463  1.00  0.00    -0.017 A 
ATOM      8  N   UNL     1     -48.969  29.856  25.181  1.00  0.00    -0.253 NA
ATOM      9  C   UNL     1     -46.934  29.577  23.258  1.00  0.00     0.045 A 
ATOM     10  H   UNL     1     -47.868  27.651  22.896  1.00  0.00     0.066 H 
ATOM     11  C   UNL     1     -48.105  30.858  24.961  1.00  0.00     0.076 A 
ATOM     12  C   UNL     1     -47.076  30.787  23.997  1.00  0.00     0.024 A 
ATOM     13  C   UNL     1     -48.247  32.014  25.716  1.00  0.00     0.007 A 
ATOM     14  C   UNL     1     -46.251  31.925  23.820  1.00  0.00    -0.047 A 
ATOM     15  H   UNL     1     -49.038  32.052  26.463  1.00  0.00     0.069 H 
ATOM     16  C   UNL     1     -46.421  33.082  24.586  1.00  0.00    -0.019 A 
ATOM     17  H   UNL     1     -45.470  31.928  23.064  1.00  0.00     0.063 H 
ATOM     18  H   UNL     1     -45.753  33.916  24.405  1.00  0.00     0.066 H 
BRANCH   6  19
ATOM     19  C   UNL     1     -49.876  27.651  24.694  1.00  0.00    -0.013 C 
ATOM     20  H   UNL     1     -50.449  27.440  23.784  1.00  0.00     0.033 H 
ATOM     21  H   UNL     1     -50.598  28.003  25.441  1.00  0.00     0.033 H 
BRANCH  19  22
ATOM     22  C   UNL     1     -49.204  26.384  25.198  1.00  0.00    -0.060 C 
ATOM     23  H   UNL     1     -48.838  25.773  24.367  1.00  0.00     0.023 H 
ATOM     24  H   UNL     1     -49.897  25.773  25.785  1.00  0.00     0.023 H 
ATOM     25  H   UNL     1     -48.351  26.637  25.837  1.00  0.00     0.023 H 
ENDBRANCH  19  22
ENDBRANCH   6  19
BRANCH   9  26
ATOM     26  N   UNL     1     -45.931  29.461  22.273  1.00  0.00    -0.388 N 
ATOM     27  H   UNL     1     -45.692  30.376  21.896  1.00  0.00     0.160 HD
BRANCH  26  28
ATOM     28  C   UNL     1     -44.745  28.661  22.528  1.00  0.00     0.003 C 
ATOM     29  H   UNL     1     -43.846  29.283  22.578  1.00  0.00     0.045 H 
ATOM     30  H   UNL     1     -44.619  27.881  21.771  1.00  0.00     0.045 H 
ATOM     31  H   UNL     1     -44.850  28.168  23.501  1.00  0.00     0.045 H 
ENDBRANCH  26  28
ENDBRANCH   9  26
ENDBRANCH   4   5
ENDBRANCH   1   4
BRANCH   1  32
ATOM     32  C   UNL     1     -46.115  35.558  27.536  1.00  0.00     0.123 C 
ATOM     33  O   UNL     1     -45.623  36.918  27.583  1.00  0.00    -0.345 OA
ATOM     34  C   UNL     1     -46.992  35.385  28.777  1.00  0.00     0.119 C 
ATOM     35  H   UNL     1     -45.240  34.901  27.562  1.00  0.00     0.067 H 
ATOM     36  C   UNL     1     -46.439  37.659  28.525  1.00  0.00     0.169 C 
ATOM     37  C   UNL     1     -47.599  36.759  28.935  1.00  0.00     0.173 C 
ATOM     38  H   UNL     1     -47.742  34.597  28.663  1.00  0.00     0.066 H 
ATOM     39  H   UNL     1     -45.789  37.884  29.380  1.00  0.00     0.088 H 
ATOM     40  F   UNL     1     -48.642  36.857  28.062  1.00  0.00    -0.239 F 
ATOM     41  H   UNL     1     -47.970  36.978  29.941  1.00  0.00     0.074 H 
BRANCH  34  42
ATOM     42  O   UNL     1     -46.205  35.081  29.934  1.00  0.00    -0.387 OA
ATOM     43  H   UNL     1     -46.357  35.780  30.595  1.00  0.00     0.211 HD
ENDBRANCH  34  42
BRANCH  36  44
ATOM     44  N   UNL     1     -46.854  38.927  27.949  1.00  0.00    -0.302 N 
ATOM     45  C   UNL     1     -48.119  39.455  27.920  1.00  0.00     0.019 A 
ATOM     46  C   UNL     1     -45.985  39.793  27.330  1.00  0.00     0.148 A 
ATOM     47  C   UNL     1     -48.049  40.692  27.307  1.00  0.00     0.033 A 
ATOM     48  H   UNL     1     -48.965  38.928  28.344  1.00  0.00     0.083 H 
ATOM     49  C   UNL     1     -46.701  40.902  26.891  1.00  0.00     0.071 A 
ATOM     50  N   UNL     1     -44.666  39.575  27.181  1.00  0.00    -0.218 NA
ATOM     51  C   UNL     1     -45.966  41.871  26.186  1.00  0.00     0.137 A 
ATOM     52  C   UNL     1     -44.072  40.582  26.521  1.00  0.00     0.120 A 
ATOM     53  N   UNL     1     -44.640  41.692  26.018  1.00  0.00    -0.219 NA
ATOM     54  H   UNL     1     -43.002  40.486  26.367  1.00  0.00     0.106 H 
BRANCH  47  55
ATOM     55  C   UNL     1     -49.175  41.602  27.119  1.00  0.00     0.095 A 
ATOM     56  C   UNL     1     -50.119  41.945  28.111  1.00  0.00    -0.016 A 
ATOM     57  N   UNL     1     -49.460  42.169  25.942  1.00  0.00    -0.173 NA
ATOM     58  C   UNL     1     -51.006  42.785  27.478  1.00  0.00     0.025 A 
ATOM     59  H   UNL     1     -50.152  41.620  29.142  1.00  0.00     0.066 H 
ATOM     60  N   UNL     1     -50.574  42.880  26.187  1.00  0.00    -0.275 N 
ATOM     61  H   UNL     1     -51.891  43.297  27.829  1.00  0.00     0.084 H 
BRANCH  60  62
ATOM     62  C   UNL     1     -51.184  43.631  25.118  1.00  0.00     0.030 C 
ATOM     63  H   UNL     1     -50.720  44.617  25.055  1.00  0.00     0.048 H 
ATOM     64  H   UNL     1     -52.251  43.733  25.334  1.00  0.00     0.048 H 
ATOM     65  H   UNL     1     -51.031  43.086  24.183  1.00  0.00     0.048 H 
ENDBRANCH  60  62
ENDBRANCH  47  55
BRANCH  51  66
ATOM     66  N   UNL     1     -46.511  43.005  25.597  1.00  0.00    -0.383 N 
ATOM     67  H   UNL     1     -46.917  42.760  24.701  1.00  0.00     0.158 HD
ATOM     68  H   UNL     1     -47.118  43.527  26.219  1.00  0.00     0.158 HD
ENDBRANCH  51  66
ENDBRANCH  36  44
ENDBRANCH   1  32
TORSDOF 12
ENDMDL
MODEL 4
REMARK VINA RESULT:      -8.7      1.708      2.949
REMARK SMILES CCc1cc(NC)c2ccc(OC[C@H]3O[C@@H](n4cc(-c5ccn(C)n5)c5c(N)ncnc54)[C@@H](F)[C@@H]3O)cc2n1
REMARK SMILES IDX 13 1 12 4 11 5 3 6 4 7 39 8 5 9 38 11 8 12 37 13 9 14 10 16
REMARK SMILES IDX 2 19 1 22 6 26 7 28 14 32 15 33 35 34 16 36 33 37 34 40
REMARK SMILES IDX 36 42 17 44 18 45 32 46 19 47 26 49 31 50 27 51 30 52 29 53
REMARK SMILES IDX 20 55 21 56 25 57 22 58 23 60 24 62 28 66
REMARK H PARENT 13 2 13 3 4 10 37 15 9 17 10 18 2 20 2 21 1 23 1 24 1 25 6 27
REMARK H PARENT 7 29 7 30 7 31 14 35 35 38 16 39 33 41 36 43 18 48 30 54 21 59
REMARK H PARENT 22 61 24 63 24 64 24 65 28 67 28 68
REMARK Flexibility Score: inf
ROOT
ATOM      1  C   UNL     1     -46.021  34.924  27.276  1.00  0.00     0.117 C 
ATOM      2  H   UNL     1     -45.049  35.296  27.618  1.00  0.00     0.073 H 
ATOM      3  H   UNL     1     -46.207  35.220  26.237  1.00  0.00     0.073 H 
ENDROOT
BRANCH   1   4
ATOM      4  O   UNL     1     -46.034  33.494  27.359  1.00  0.00    -0.491 OA
BRANCH   4   5
ATOM      5  C   UNL     1     -46.773  32.821  26.427  1.00  0.00     0.121 A 
ATOM      6  C   UNL     1     -46.626  31.219  21.954  1.00  0.00     0.043 A 
ATOM      7  C   UNL     1     -47.902  30.674  22.022  1.00  0.00    -0.017 A 
ATOM      8  N   UNL     1     -46.070  31.898  22.980  1.00  0.00    -0.253 NA
ATOM      9  C   UNL     1     -48.667  30.833  23.181  1.00  0.00     0.045 A 
ATOM     10  H   UNL     1     -48.284  30.143  21.159  1.00  0.00     0.066 H 
ATOM     11  C   UNL     1     -46.760  32.012  24.124  1.00  0.00     0.076 A 
ATOM     12  C   UNL     1     -48.058  31.483  24.294  1.00  0.00     0.024 A 
ATOM     13  C   UNL     1     -46.155  32.675  25.182  1.00  0.00     0.007 A 
ATOM     14  C   UNL     1     -48.672  31.624  25.562  1.00  0.00    -0.047 A 
ATOM     15  H   UNL     1     -45.159  33.088  25.035  1.00  0.00     0.069 H 
ATOM     16  C   UNL     1     -48.038  32.287  26.617  1.00  0.00    -0.019 A 
ATOM     17  H   UNL     1     -49.656  31.200  25.749  1.00  0.00     0.063 H 
ATOM     18  H   UNL     1     -48.565  32.366  27.561  1.00  0.00     0.066 H 
BRANCH   6  19
ATOM     19  C   UNL     1     -45.807  31.099  20.697  1.00  0.00    -0.013 C 
ATOM     20  H   UNL     1     -45.813  30.061  20.344  1.00  0.00     0.033 H 
ATOM     21  H   UNL     1     -44.761  31.343  20.923  1.00  0.00     0.033 H 
BRANCH  19  22
ATOM     22  C   UNL     1     -46.316  32.027  19.606  1.00  0.00    -0.060 C 
ATOM     23  H   UNL     1     -47.344  32.346  19.806  1.00  0.00     0.023 H 
ATOM     24  H   UNL     1     -46.301  31.537  18.627  1.00  0.00     0.023 H 
ATOM     25  H   UNL     1     -45.687  32.922  19.546  1.00  0.00     0.023 H 
ENDBRANCH  19  22
ENDBRANCH   6  19
BRANCH   9  26
ATOM     26  N   UNL     1     -49.956  30.275  23.304  1.00  0.00    -0.388 N 
ATOM     27  H   UNL     1     -50.657  30.903  22.916  1.00  0.00     0.160 HD
BRANCH  26  28
ATOM     28  C   UNL     1     -50.196  28.896  22.913  1.00  0.00     0.003 C 
ATOM     29  H   UNL     1     -49.806  28.692  21.911  1.00  0.00     0.045 H 
ATOM     30  H   UNL     1     -51.261  28.647  22.959  1.00  0.00     0.045 H 
ATOM     31  H   UNL     1     -49.668  28.232  23.606  1.00  0.00     0.045 H 
ENDBRANCH  26  28
ENDBRANCH   9  26
ENDBRANCH   4   5
ENDBRANCH   1   4
BRANCH   1  32
ATOM     32  C   UNL     1     -47.146  35.465  28.176  1.00  0.00     0.123 C 
ATOM     33  O   UNL     1     -46.650  36.609  28.910  1.00  0.00    -0.345 OA
ATOM     34  C   UNL     1     -48.351  35.967  27.379  1.00  0.00     0.119 C 
ATOM     35  H   UNL     1     -47.435  34.712  28.917  1.00  0.00     0.067 H 
ATOM     36  C   UNL     1     -47.216  37.804  28.316  1.00  0.00     0.169 C 
ATOM     37  C   UNL     1     -47.946  37.384  27.046  1.00  0.00     0.173 C 
ATOM     38  H   UNL     1     -48.557  35.362  26.491  1.00  0.00     0.066 H 
ATOM     39  H   UNL     1     -47.912  38.212  29.059  1.00  0.00     0.088 H 
ATOM     40  F   UNL     1     -47.103  37.336  25.976  1.00  0.00    -0.239 F 
ATOM     41  H   UNL     1     -48.781  38.047  26.799  1.00  0.00     0.074 H 
BRANCH  34  42
ATOM     42  O   UNL     1     -49.535  35.991  28.183  1.00  0.00    -0.387 OA
ATOM     43  H   UNL     1     -50.295  35.788  27.608  1.00  0.00     0.211 HD
ENDBRANCH  34  42
BRANCH  36  44
ATOM     44  N   UNL     1     -46.181  38.800  28.096  1.00  0.00    -0.302 N 
ATOM     45  C   UNL     1     -46.119  39.729  27.091  1.00  0.00     0.019 A 
ATOM     46  C   UNL     1     -45.082  38.936  28.910  1.00  0.00     0.148 A 
ATOM     47  C   UNL     1     -44.984  40.494  27.287  1.00  0.00     0.033 A 
ATOM     48  H   UNL     1     -46.882  39.791  26.325  1.00  0.00     0.083 H 
ATOM     49  C   UNL     1     -44.294  39.973  28.422  1.00  0.00     0.071 A 
ATOM     50  N   UNL     1     -44.833  38.175  29.991  1.00  0.00    -0.218 NA
ATOM     51  C   UNL     1     -43.095  40.215  29.114  1.00  0.00     0.137 A 
ATOM     52  C   UNL     1     -43.678  38.521  30.581  1.00  0.00     0.120 A 
ATOM     53  N   UNL     1     -42.808  39.475  30.205  1.00  0.00    -0.219 NA
ATOM     54  H   UNL     1     -43.408  37.958  31.468  1.00  0.00     0.106 H 
BRANCH  47  55
ATOM     55  C   UNL     1     -44.578  41.624  26.458  1.00  0.00     0.095 A 
ATOM     56  C   UNL     1     -44.302  41.563  25.075  1.00  0.00    -0.016 A 
ATOM     57  N   UNL     1     -44.369  42.848  26.954  1.00  0.00    -0.173 NA
ATOM     58  C   UNL     1     -43.925  42.841  24.734  1.00  0.00     0.025 A 
ATOM     59  H   UNL     1     -44.363  40.705  24.420  1.00  0.00     0.066 H 
ATOM     60  N   UNL     1     -43.973  43.566  25.889  1.00  0.00    -0.275 N 
ATOM     61  H   UNL     1     -43.621  43.277  23.792  1.00  0.00     0.084 H 
BRANCH  60  62
ATOM     62  C   UNL     1     -43.644  44.960  26.057  1.00  0.00     0.030 C 
ATOM     63  H   UNL     1     -44.420  45.448  26.650  1.00  0.00     0.048 H 
ATOM     64  H   UNL     1     -43.585  45.421  25.067  1.00  0.00     0.048 H 
ATOM     65  H   UNL     1     -42.683  45.027  26.572  1.00  0.00     0.048 H 
ENDBRANCH  60  62
ENDBRANCH  47  55
BRANCH  51  66
ATOM     66  N   UNL     1     -42.136  41.147  28.736  1.00  0.00    -0.383 N 
ATOM     67  H   UNL     1     -41.555  41.378  29.534  1.00  0.00     0.158 HD
ATOM     68  H   UNL     1     -41.633  40.887  27.896  1.00  0.00     0.158 HD
ENDBRANCH  51  66
ENDBRANCH  36  44
ENDBRANCH   1  32
TORSDOF 12
ENDMDL
MODEL 5
REMARK VINA RESULT:      -8.2      2.143      3.381
REMARK SMILES CCc1cc(NC)c2ccc(OC[C@H]3O[C@@H](n4cc(-c5ccn(C)n5)c5c(N)ncnc54)[C@@H](F)[C@@H]3O)cc2n1
REMARK SMILES IDX 13 1 12 4 11 5 3 6 4 7 39 8 5 9 38 11 8 12 37 13 9 14 10 16
REMARK SMILES IDX 2 19 1 22 6 26 7 28 14 32 15 33 35 34 16 36 33 37 34 40
REMARK SMILES IDX 36 42 17 44 18 45 32 46 19 47 26 49 31 50 27 51 30 52 29 53
REMARK SMILES IDX 20 55 21 56 25 57 22 58 23 60 24 62 28 66
REMARK H PARENT 13 2 13 3 4 10 37 15 9 17 10 18 2 20 2 21 1 23 1 24 1 25 6 27
REMARK H PARENT 7 29 7 30 7 31 14 35 35 38 16 39 33 41 36 43 18 48 30 54 21 59
REMARK H PARENT 22 61 24 63 24 64 24 65 28 67 28 68
REMARK Flexibility Score: inf
ROOT
ATOM      1  C   UNL     1     -46.555  35.316  26.526  1.00  0.00     0.117 C 
ATOM      2  H   UNL     1     -45.868  34.772  25.868  1.00  0.00     0.073 H 
ATOM      3  H   UNL     1     -46.875  36.255  26.059  1.00  0.00     0.073 H 
ENDROOT
BRANCH   1   4
ATOM      4  O   UNL     1     -47.709  34.506  26.776  1.00  0.00    -0.491 OA
BRANCH   4   5
ATOM      5  C   UNL     1     -47.782  33.306  26.127  1.00  0.00     0.121 A 
ATOM      6  C   UNL     1     -46.211  31.016  22.269  1.00  0.00     0.043 A 
ATOM      7  C   UNL     1     -46.892  29.847  22.586  1.00  0.00    -0.017 A 
ATOM      8  N   UNL     1     -46.296  32.133  23.021  1.00  0.00    -0.253 NA
ATOM      9  C   UNL     1     -47.716  29.805  23.715  1.00  0.00     0.045 A 
ATOM     10  H   UNL     1     -46.778  28.989  21.936  1.00  0.00     0.066 H 
ATOM     11  C   UNL     1     -47.032  32.100  24.141  1.00  0.00     0.076 A 
ATOM     12  C   UNL     1     -47.751  30.956  24.554  1.00  0.00     0.024 A 
ATOM     13  C   UNL     1     -47.073  33.244  24.925  1.00  0.00     0.007 A 
ATOM     14  C   UNL     1     -48.457  31.022  25.780  1.00  0.00    -0.047 A 
ATOM     15  H   UNL     1     -46.523  34.122  24.590  1.00  0.00     0.069 H 
ATOM     16  C   UNL     1     -48.474  32.184  26.557  1.00  0.00    -0.019 A 
ATOM     17  H   UNL     1     -48.994  30.154  26.155  1.00  0.00     0.063 H 
ATOM     18  H   UNL     1     -49.038  32.171  27.483  1.00  0.00     0.066 H 
BRANCH   6  19
ATOM     19  C   UNL     1     -45.358  31.093  21.031  1.00  0.00    -0.013 C 
ATOM     20  H   UNL     1     -45.049  30.087  20.726  1.00  0.00     0.033 H 
ATOM     21  H   UNL     1     -44.437  31.644  21.263  1.00  0.00     0.033 H 
BRANCH  19  22
ATOM     22  C   UNL     1     -46.087  31.787  19.891  1.00  0.00    -0.060 C 
ATOM     23  H   UNL     1     -46.030  31.199  18.969  1.00  0.00     0.023 H 
ATOM     24  H   UNL     1     -45.658  32.773  19.687  1.00  0.00     0.023 H 
ATOM     25  H   UNL     1     -47.143  31.923  20.145  1.00  0.00     0.023 H 
ENDBRANCH  19  22
ENDBRANCH   6  19
BRANCH   9  26
ATOM     26  N   UNL     1     -48.405  28.633  24.090  1.00  0.00    -0.388 N 
ATOM     27  H   UNL     1     -48.836  28.749  25.005  1.00  0.00     0.160 HD
BRANCH  26  28
ATOM     28  C   UNL     1     -49.305  27.983  23.153  1.00  0.00     0.003 C 
ATOM     29  H   UNL     1     -50.104  28.658  22.831  1.00  0.00     0.045 H 
ATOM     30  H   UNL     1     -49.735  27.071  23.579  1.00  0.00     0.045 H 
ATOM     31  H   UNL     1     -48.743  27.699  22.257  1.00  0.00     0.045 H 
ENDBRANCH  26  28
ENDBRANCH   9  26
ENDBRANCH   4   5
ENDBRANCH   1   4
BRANCH   1  32
ATOM     32  C   UNL     1     -45.878  35.614  27.875  1.00  0.00     0.123 C 
ATOM     33  O   UNL     1     -45.369  36.968  27.854  1.00  0.00    -0.345 OA
ATOM     34  C   UNL     1     -46.853  35.550  29.052  1.00  0.00     0.119 C 
ATOM     35  H   UNL     1     -45.018  34.953  28.023  1.00  0.00     0.067 H 
ATOM     36  C   UNL     1     -46.245  37.790  28.667  1.00  0.00     0.169 C 
ATOM     37  C   UNL     1     -47.448  36.938  29.052  1.00  0.00     0.173 C 
ATOM     38  H   UNL     1     -47.605  34.762  28.940  1.00  0.00     0.066 H 
ATOM     39  H   UNL     1     -45.660  38.076  29.550  1.00  0.00     0.088 H 
ATOM     40  F   UNL     1     -48.416  36.977  28.093  1.00  0.00    -0.239 F 
ATOM     41  H   UNL     1     -47.893  37.240  30.005  1.00  0.00     0.074 H 
BRANCH  34  42
ATOM     42  O   UNL     1     -46.165  35.331  30.288  1.00  0.00    -0.387 OA
ATOM     43  H   UNL     1     -46.397  34.442  30.611  1.00  0.00     0.211 HD
ENDBRANCH  34  42
BRANCH  36  44
ATOM     44  N   UNL     1     -46.592  39.012  27.961  1.00  0.00    -0.302 N 
ATOM     45  C   UNL     1     -47.845  39.523  27.747  1.00  0.00     0.019 A 
ATOM     46  C   UNL     1     -45.658  39.844  27.393  1.00  0.00     0.148 A 
ATOM     47  C   UNL     1     -47.708  40.717  27.064  1.00  0.00     0.033 A 
ATOM     48  H   UNL     1     -48.735  39.017  28.103  1.00  0.00     0.083 H 
ATOM     49  C   UNL     1     -46.320  40.914  26.798  1.00  0.00     0.071 A 
ATOM     50  N   UNL     1     -44.330  39.632  27.416  1.00  0.00    -0.218 NA
ATOM     51  C   UNL     1     -45.510  41.841  26.121  1.00  0.00     0.137 A 
ATOM     52  C   UNL     1     -43.665  40.598  26.764  1.00  0.00     0.120 A 
ATOM     53  N   UNL     1     -44.172  41.666  26.123  1.00  0.00    -0.219 NA
ATOM     54  H   UNL     1     -42.584  40.505  26.745  1.00  0.00     0.106 H 
BRANCH  47  55
ATOM     55  C   UNL     1     -48.806  41.600  26.684  1.00  0.00     0.095 A 
ATOM     56  C   UNL     1     -50.172  41.357  26.940  1.00  0.00    -0.016 A 
ATOM     57  N   UNL     1     -48.622  42.727  25.988  1.00  0.00    -0.173 NA
ATOM     58  C   UNL     1     -50.833  42.423  26.374  1.00  0.00     0.025 A 
ATOM     59  H   UNL     1     -50.615  40.518  27.460  1.00  0.00     0.066 H 
ATOM     60  N   UNL     1     -49.866  43.205  25.812  1.00  0.00    -0.275 N 
ATOM     61  H   UNL     1     -51.882  42.673  26.314  1.00  0.00     0.084 H 
BRANCH  60  62
ATOM     62  C   UNL     1     -50.056  44.432  25.078  1.00  0.00     0.030 C 
ATOM     63  H   UNL     1     -49.390  44.444  24.213  1.00  0.00     0.048 H 
ATOM     64  H   UNL     1     -49.822  45.269  25.741  1.00  0.00     0.048 H 
ATOM     65  H   UNL     1     -51.096  44.479  24.750  1.00  0.00     0.048 H 
ENDBRANCH  60  62
ENDBRANCH  47  55
BRANCH  51  66
ATOM     66  N   UNL     1     -45.984  42.928  25.396  1.00  0.00    -0.383 N 
ATOM     67  H   UNL     1     -45.384  43.729  25.554  1.00  0.00     0.158 HD
ATOM     68  H   UNL     1     -46.170  42.712  24.424  1.00  0.00     0.158 HD
ENDBRANCH  51  66
ENDBRANCH  36  44
ENDBRANCH   1  32
TORSDOF 12
ENDMDL
MODEL 6
REMARK VINA RESULT:      -8.1      1.746      3.400
REMARK SMILES CCc1cc(NC)c2ccc(OC[C@H]3O[C@@H](n4cc(-c5ccn(C)n5)c5c(N)ncnc54)[C@@H](F)[C@@H]3O)cc2n1
REMARK SMILES IDX 13 1 12 4 11 5 3 6 4 7 39 8 5 9 38 11 8 12 37 13 9 14 10 16
REMARK SMILES IDX 2 19 1 22 6 26 7 28 14 32 15 33 35 34 16 36 33 37 34 40
REMARK SMILES IDX 36 42 17 44 18 45 32 46 19 47 26 49 31 50 27 51 30 52 29 53
REMARK SMILES IDX 20 55 21 56 25 57 22 58 23 60 24 62 28 66
REMARK H PARENT 13 2 13 3 4 10 37 15 9 17 10 18 2 20 2 21 1 23 1 24 1 25 6 27
REMARK H PARENT 7 29 7 30 7 31 14 35 35 38 16 39 33 41 36 43 18 48 30 54 21 59
REMARK H PARENT 22 61 24 63 24 64 24 65 28 67 28 68
REMARK Flexibility Score: inf
ROOT
ATOM      1  C   UNL     1     -46.025  35.303  28.071  1.00  0.00     0.117 C 
ATOM      2  H   UNL     1     -45.117  35.578  28.618  1.00  0.00     0.073 H 
ATOM      3  H   UNL     1     -45.970  35.647  27.031  1.00  0.00     0.073 H 
ENDROOT
BRANCH   1   4
ATOM      4  O   UNL     1     -46.168  33.878  28.080  1.00  0.00    -0.491 OA
BRANCH   4   5
ATOM      5  C   UNL     1     -46.451  33.271  26.889  1.00  0.00     0.121 A 
ATOM      6  C   UNL     1     -48.767  29.569  25.011  1.00  0.00     0.043 A 
ATOM      7  C   UNL     1     -48.407  29.900  23.710  1.00  0.00    -0.017 A 
ATOM      8  N   UNL     1     -48.349  30.275  26.082  1.00  0.00    -0.253 NA
ATOM      9  C   UNL     1     -47.569  30.994  23.477  1.00  0.00     0.045 A 
ATOM     10  H   UNL     1     -48.779  29.287  22.899  1.00  0.00     0.066 H 
ATOM     11  C   UNL     1     -47.594  31.364  25.880  1.00  0.00     0.076 A 
ATOM     12  C   UNL     1     -47.186  31.788  24.596  1.00  0.00     0.024 A 
ATOM     13  C   UNL     1     -47.210  32.103  26.991  1.00  0.00     0.007 A 
ATOM     14  C   UNL     1     -46.427  32.980  24.500  1.00  0.00    -0.047 A 
ATOM     15  H   UNL     1     -47.522  31.759  27.975  1.00  0.00     0.069 H 
ATOM     16  C   UNL     1     -46.062  33.713  25.633  1.00  0.00    -0.019 A 
ATOM     17  H   UNL     1     -46.123  33.363  23.529  1.00  0.00     0.063 H 
ATOM     18  H   UNL     1     -45.476  34.613  25.492  1.00  0.00     0.066 H 
BRANCH   6  19
ATOM     19  C   UNL     1     -49.630  28.366  25.284  1.00  0.00    -0.013 C 
ATOM     20  H   UNL     1     -49.821  27.822  24.352  1.00  0.00     0.033 H 
ATOM     21  H   UNL     1     -50.608  28.701  25.653  1.00  0.00     0.033 H 
BRANCH  19  22
ATOM     22  C   UNL     1     -48.994  27.442  26.310  1.00  0.00    -0.060 C 
ATOM     23  H   UNL     1     -48.695  26.492  25.856  1.00  0.00     0.023 H 
ATOM     24  H   UNL     1     -49.686  27.220  27.129  1.00  0.00     0.023 H 
ATOM     25  H   UNL     1     -48.101  27.911  26.739  1.00  0.00     0.023 H 
ENDBRANCH  19  22
ENDBRANCH   6  19
BRANCH   9  26
ATOM     26  N   UNL     1     -47.198  31.383  22.172  1.00  0.00    -0.388 N 
ATOM     27  H   UNL     1     -46.192  31.518  22.112  1.00  0.00     0.160 HD
BRANCH  26  28
ATOM     28  C   UNL     1     -47.712  30.660  21.021  1.00  0.00     0.003 C 
ATOM     29  H   UNL     1     -47.802  29.589  21.228  1.00  0.00     0.045 H 
ATOM     30  H   UNL     1     -47.086  30.819  20.137  1.00  0.00     0.045 H 
ATOM     31  H   UNL     1     -48.717  31.029  20.788  1.00  0.00     0.045 H 
ENDBRANCH  26  28
ENDBRANCH   9  26
ENDBRANCH   4   5
ENDBRANCH   1   4
BRANCH   1  32
ATOM     32  C   UNL     1     -47.264  35.911  28.751  1.00  0.00     0.123 C 
ATOM     33  O   UNL     1     -46.919  37.218  29.268  1.00  0.00    -0.345 OA
ATOM     34  C   UNL     1     -48.422  36.137  27.778  1.00  0.00     0.119 C 
ATOM     35  H   UNL     1     -47.566  35.300  29.607  1.00  0.00     0.067 H 
ATOM     36  C   UNL     1     -47.511  38.216  28.398  1.00  0.00     0.169 C 
ATOM     37  C   UNL     1     -48.090  37.488  27.190  1.00  0.00     0.173 C 
ATOM     38  H   UNL     1     -48.503  35.350  27.021  1.00  0.00     0.066 H 
ATOM     39  H   UNL     1     -48.300  38.702  28.985  1.00  0.00     0.088 H 
ATOM     40  F   UNL     1     -47.150  37.302  26.221  1.00  0.00    -0.239 F 
ATOM     41  H   UNL     1     -48.942  38.012  26.749  1.00  0.00     0.074 H 
BRANCH  34  42
ATOM     42  O   UNL     1     -49.674  36.217  28.466  1.00  0.00    -0.387 OA
ATOM     43  H   UNL     1     -50.371  35.891  27.868  1.00  0.00     0.211 HD
ENDBRANCH  34  42
BRANCH  36  44
ATOM     44  N   UNL     1     -46.533  39.235  28.057  1.00  0.00    -0.302 N 
ATOM     45  C   UNL     1     -45.209  39.269  28.408  1.00  0.00     0.019 A 
ATOM     46  C   UNL     1     -46.833  40.345  27.304  1.00  0.00     0.148 A 
ATOM     47  C   UNL     1     -44.647  40.398  27.841  1.00  0.00     0.033 A 
ATOM     48  H   UNL     1     -44.761  38.493  29.017  1.00  0.00     0.083 H 
ATOM     49  C   UNL     1     -45.681  41.112  27.166  1.00  0.00     0.071 A 
ATOM     50  N   UNL     1     -48.050  40.621  26.801  1.00  0.00    -0.218 NA
ATOM     51  C   UNL     1     -45.825  42.319  26.461  1.00  0.00     0.137 A 
ATOM     52  C   UNL     1     -48.051  41.781  26.125  1.00  0.00     0.120 A 
ATOM     53  N   UNL     1     -47.028  42.632  25.938  1.00  0.00    -0.219 NA
ATOM     54  H   UNL     1     -48.997  42.072  25.680  1.00  0.00     0.106 H 
BRANCH  47  55
ATOM     55  C   UNL     1     -43.241  40.776  27.938  1.00  0.00     0.095 A 
ATOM     56  C   UNL     1     -42.500  40.859  29.137  1.00  0.00    -0.016 A 
ATOM     57  N   UNL     1     -42.515  41.145  26.877  1.00  0.00    -0.173 NA
ATOM     58  C   UNL     1     -41.250  41.286  28.751  1.00  0.00     0.025 A 
ATOM     59  H   UNL     1     -42.833  40.644  30.143  1.00  0.00     0.066 H 
ATOM     60  N   UNL     1     -41.313  41.449  27.397  1.00  0.00    -0.275 N 
ATOM     61  H   UNL     1     -40.352  41.494  29.315  1.00  0.00     0.084 H 
BRANCH  60  62
ATOM     62  C   UNL     1     -40.259  41.906  26.526  1.00  0.00     0.030 C 
ATOM     63  H   UNL     1     -39.708  41.045  26.140  1.00  0.00     0.048 H 
ATOM     64  H   UNL     1     -39.590  42.550  27.102  1.00  0.00     0.048 H 
ATOM     65  H   UNL     1     -40.711  42.459  25.699  1.00  0.00     0.048 H 
ENDBRANCH  60  62
ENDBRANCH  47  55
BRANCH  51  66
ATOM     66  N   UNL     1     -44.817  43.260  26.287  1.00  0.00    -0.383 N 
ATOM     67  H   UNL     1     -44.712  43.805  27.135  1.00  0.00     0.158 HD
ATOM     68  H   UNL     1     -43.959  42.867  25.917  1.00  0.00     0.158 HD
ENDBRANCH  51  66
ENDBRANCH  36  44
ENDBRANCH   1  32
TORSDOF 12
ENDMDL
MODEL 7
REMARK VINA RESULT:      -8.1      4.454      8.002
REMARK SMILES CCc1cc(NC)c2ccc(OC[C@H]3O[C@@H](n4cc(-c5ccn(C)n5)c5c(N)ncnc54)[C@@H](F)[C@@H]3O)cc2n1
REMARK SMILES IDX 13 1 12 4 11 5 3 6 4 7 39 8 5 9 38 11 8 12 37 13 9 14 10 16
REMARK SMILES IDX 2 19 1 22 6 26 7 28 14 32 15 33 35 34 16 36 33 37 34 40
REMARK SMILES IDX 36 42 17 44 18 45 32 46 19 47 26 49 31 50 27 51 30 52 29 53
REMARK SMILES IDX 20 55 21 56 25 57 22 58 23 60 24 62 28 66
REMARK H PARENT 13 2 13 3 4 10 37 15 9 17 10 18 2 20 2 21 1 23 1 24 1 25 6 27
REMARK H PARENT 7 29 7 30 7 31 14 35 35 38 16 39 33 41 36 43 18 48 30 54 21 59
REMARK H PARENT 22 61 24 63 24 64 24 65 28 67 28 68
REMARK Flexibility Score: inf
ROOT
ATOM      1  C   UNL     1     -48.555  37.770  28.091  1.00  0.00     0.117 C 
ATOM      2  H   UNL     1     -48.748  38.102  29.117  1.00  0.00     0.073 H 
ATOM      3  H   UNL     1     -49.458  37.335  27.648  1.00  0.00     0.073 H 
ENDROOT
BRANCH   1   4
ATOM      4  O   UNL     1     -48.148  38.894  27.301  1.00  0.00    -0.491 OA
BRANCH   4   5
ATOM      5  C   UNL     1     -48.582  40.127  27.699  1.00  0.00     0.121 A 
ATOM      6  C   UNL     1     -49.196  44.579  26.150  1.00  0.00     0.043 A 
ATOM      7  C   UNL     1     -49.701  45.019  27.367  1.00  0.00    -0.017 A 
ATOM      8  N   UNL     1     -48.770  43.313  25.955  1.00  0.00    -0.253 NA
ATOM      9  C   UNL     1     -49.769  44.140  28.452  1.00  0.00     0.045 A 
ATOM     10  H   UNL     1     -50.023  46.049  27.451  1.00  0.00     0.066 H 
ATOM     11  C   UNL     1     -48.881  42.435  26.962  1.00  0.00     0.076 A 
ATOM     12  C   UNL     1     -49.392  42.783  28.232  1.00  0.00     0.024 A 
ATOM     13  C   UNL     1     -48.479  41.127  26.730  1.00  0.00     0.007 A 
ATOM     14  C   UNL     1     -49.506  41.761  29.205  1.00  0.00    -0.047 A 
ATOM     15  H   UNL     1     -48.076  40.875  25.751  1.00  0.00     0.069 H 
ATOM     16  C   UNL     1     -49.104  40.448  28.944  1.00  0.00    -0.019 A 
ATOM     17  H   UNL     1     -49.928  41.976  30.184  1.00  0.00     0.063 H 
ATOM     18  H   UNL     1     -49.212  39.714  29.734  1.00  0.00     0.066 H 
BRANCH   6  19
ATOM     19  C   UNL     1     -49.071  45.524  24.985  1.00  0.00    -0.013 C 
ATOM     20  H   UNL     1     -48.585  46.453  25.308  1.00  0.00     0.033 H 
ATOM     21  H   UNL     1     -50.074  45.803  24.639  1.00  0.00     0.033 H 
BRANCH  19  22
ATOM     22  C   UNL     1     -48.296  44.898  23.837  1.00  0.00    -0.060 C 
ATOM     23  H   UNL     1     -47.743  45.656  23.272  1.00  0.00     0.023 H 
ATOM     24  H   UNL     1     -48.966  44.383  23.140  1.00  0.00     0.023 H 
ATOM     25  H   UNL     1     -47.577  44.166  24.220  1.00  0.00     0.023 H 
ENDBRANCH  19  22
ENDBRANCH   6  19
BRANCH   9  26
ATOM     26  N   UNL     1     -50.299  44.535  29.698  1.00  0.00    -0.388 N 
ATOM     27  H   UNL     1     -49.815  45.359  30.048  1.00  0.00     0.160 HD
BRANCH  26  28
ATOM     28  C   UNL     1     -51.737  44.640  29.880  1.00  0.00     0.003 C 
ATOM     29  H   UNL     1     -52.274  44.424  28.951  1.00  0.00     0.045 H 
ATOM     30  H   UNL     1     -52.021  45.627  30.257  1.00  0.00     0.045 H 
ATOM     31  H   UNL     1     -52.058  43.896  30.618  1.00  0.00     0.045 H 
ENDBRANCH  26  28
ENDBRANCH   9  26
ENDBRANCH   4   5
ENDBRANCH   1   4
BRANCH   1  32
ATOM     32  C   UNL     1     -47.418  36.735  28.069  1.00  0.00     0.123 C 
ATOM     33  O   UNL     1     -46.302  37.280  27.327  1.00  0.00    -0.345 OA
ATOM     34  C   UNL     1     -46.879  36.419  29.465  1.00  0.00     0.119 C 
ATOM     35  H   UNL     1     -47.738  35.829  27.543  1.00  0.00     0.067 H 
ATOM     36  C   UNL     1     -45.275  37.665  28.276  1.00  0.00     0.169 C 
ATOM     37  C   UNL     1     -45.864  37.518  29.674  1.00  0.00     0.173 C 
ATOM     38  H   UNL     1     -47.660  36.408  30.231  1.00  0.00     0.066 H 
ATOM     39  H   UNL     1     -44.442  36.969  28.120  1.00  0.00     0.088 H 
ATOM     40  F   UNL     1     -46.537  38.641  30.053  1.00  0.00    -0.239 F 
ATOM     41  H   UNL     1     -45.106  37.298  30.431  1.00  0.00     0.074 H 
BRANCH  34  42
ATOM     42  O   UNL     1     -46.214  35.152  29.494  1.00  0.00    -0.387 OA
ATOM     43  H   UNL     1     -45.774  35.060  30.359  1.00  0.00     0.211 HD
ENDBRANCH  34  42
BRANCH  36  44
ATOM     44  N   UNL     1     -44.787  39.002  27.980  1.00  0.00    -0.302 N 
ATOM     45  C   UNL     1     -45.182  39.825  26.958  1.00  0.00     0.019 A 
ATOM     46  C   UNL     1     -43.822  39.633  28.727  1.00  0.00     0.148 A 
ATOM     47  C   UNL     1     -44.485  41.013  27.075  1.00  0.00     0.033 A 
ATOM     48  H   UNL     1     -45.930  39.519  26.237  1.00  0.00     0.083 H 
ATOM     49  C   UNL     1     -43.586  40.889  28.177  1.00  0.00     0.071 A 
ATOM     50  N   UNL     1     -43.217  39.098  29.802  1.00  0.00    -0.218 NA
ATOM     51  C   UNL     1     -42.581  41.653  28.794  1.00  0.00     0.137 A 
ATOM     52  C   UNL     1     -42.302  39.934  30.319  1.00  0.00     0.120 A 
ATOM     53  N   UNL     1     -41.952  41.155  29.878  1.00  0.00    -0.219 NA
ATOM     54  H   UNL     1     -41.774  39.579  31.198  1.00  0.00     0.106 H 
BRANCH  47  55
ATOM     55  C   UNL     1     -44.649  42.174  26.206  1.00  0.00     0.095 A 
ATOM     56  C   UNL     1     -44.433  42.185  24.812  1.00  0.00    -0.016 A 
ATOM     57  N   UNL     1     -44.976  43.385  26.669  1.00  0.00    -0.173 NA
ATOM     58  C   UNL     1     -44.667  43.485  24.428  1.00  0.00     0.025 A 
ATOM     59  H   UNL     1     -44.140  41.361  24.175  1.00  0.00     0.066 H 
ATOM     60  N   UNL     1     -44.979  44.161  25.572  1.00  0.00    -0.275 N 
ATOM     61  H   UNL     1     -44.625  43.972  23.465  1.00  0.00     0.084 H 
BRANCH  60  62
ATOM     62  C   UNL     1     -45.286  45.564  25.697  1.00  0.00     0.030 C 
ATOM     63  H   UNL     1     -45.545  45.969  24.717  1.00  0.00     0.048 H 
ATOM     64  H   UNL     1     -44.405  46.076  26.092  1.00  0.00     0.048 H 
ATOM     65  H   UNL     1     -46.133  45.671  26.380  1.00  0.00     0.048 H 
ENDBRANCH  60  62
ENDBRANCH  47  55
BRANCH  51  66
ATOM     66  N   UNL     1     -42.142  42.893  28.345  1.00  0.00    -0.383 N 
ATOM     67  H   UNL     1     -41.388  42.765  27.680  1.00  0.00     0.158 HD
ATOM     68  H   UNL     1     -42.894  43.498  28.036  1.00  0.00     0.158 HD
ENDBRANCH  51  66
ENDBRANCH  36  44
ENDBRANCH   1  32
TORSDOF 12
ENDMDL
