MODEL 1
REMARK VINA RESULT:     -10.1      0.000      0.000
REMARK SMILES Cn1ccc(-c2cn(-c3cncc(CNC(=O)Cc4cccc(N5CCC5)n4)c3)c3ncnc(N)c23)n1
REMARK SMILES IDX 14 1 13 4 9 5 10 6 29 7 11 8 12 11 8 13 6 14 7 15 36 16
REMARK SMILES IDX 30 18 34 19 31 20 33 21 32 22 5 24 2 25 3 26 37 27 4 28 1 31
REMARK SMILES IDX 35 35 15 38 16 39 17 41 18 42 19 45 20 46 28 47 21 48 23 50
REMARK SMILES IDX 22 51 24 54 25 55 27 56 26 57
REMARK H PARENT 14 2 14 3 10 9 29 10 12 12 7 17 32 23 3 29 4 30 1 32 1 33 1 34
REMARK H PARENT 35 36 35 37 15 40 18 43 18 44 20 49 21 52 22 53 25 58 25 59
REMARK H PARENT 27 60 27 61 26 62 26 63
REMARK Flexibility Score: inf
ROOT
ATOM      1  C   UNL     1     -46.095  31.880  23.658  1.00  0.00     0.044 C 
ATOM      2  H   UNL     1     -46.489  32.038  22.649  1.00  0.00     0.054 H 
ATOM      3  H   UNL     1     -45.135  32.403  23.727  1.00  0.00     0.054 H 
ENDROOT
BRANCH   1   4
ATOM      4  C   UNL     1     -47.047  32.415  24.692  1.00  0.00    -0.008 A 
ATOM      5  C   UNL     1     -47.781  34.207  26.169  1.00  0.00     0.066 A 
ATOM      6  C   UNL     1     -48.754  33.326  26.631  1.00  0.00     0.051 A 
ATOM      7  C   UNL     1     -46.932  33.731  25.167  1.00  0.00    -0.030 A 
ATOM      8  N   UNL     1     -48.911  32.054  26.183  1.00  0.00    -0.262 NA
ATOM      9  H   UNL     1     -49.462  33.581  27.413  1.00  0.00     0.086 H 
ATOM     10  H   UNL     1     -46.167  34.356  24.717  1.00  0.00     0.065 H 
ATOM     11  C   UNL     1     -48.056  31.629  25.229  1.00  0.00     0.032 A 
ATOM     12  H   UNL     1     -48.211  30.603  24.906  1.00  0.00     0.084 H 
BRANCH   5  13
ATOM     13  N   UNL     1     -47.653  35.524  26.719  1.00  0.00    -0.299 N 
ATOM     14  C   UNL     1     -46.736  37.488  27.335  1.00  0.00     0.033 A 
ATOM     15  C   UNL     1     -46.489  36.268  26.742  1.00  0.00     0.021 A 
ATOM     16  C   UNL     1     -48.116  37.549  27.650  1.00  0.00     0.071 A 
ATOM     17  H   UNL     1     -45.549  35.885  26.372  1.00  0.00     0.083 H 
ATOM     18  C   UNL     1     -48.653  36.310  27.298  1.00  0.00     0.150 A 
ATOM     19  C   UNL     1     -49.014  38.496  28.176  1.00  0.00     0.137 A 
ATOM     20  N   UNL     1     -49.942  35.961  27.458  1.00  0.00    -0.218 NA
ATOM     21  N   UNL     1     -50.307  38.160  28.344  1.00  0.00    -0.219 NA
ATOM     22  C   UNL     1     -50.695  36.926  27.990  1.00  0.00     0.120 A 
ATOM     23  H   UNL     1     -51.745  36.686  28.140  1.00  0.00     0.106 H 
BRANCH  14  24
ATOM     24  C   UNL     1     -45.729  38.518  27.570  1.00  0.00     0.095 A 
ATOM     25  N   UNL     1     -44.205  39.635  28.512  1.00  0.00    -0.275 N 
ATOM     26  C   UNL     1     -44.494  40.339  27.381  1.00  0.00     0.025 A 
ATOM     27  N   UNL     1     -44.947  38.522  28.656  1.00  0.00    -0.173 NA
ATOM     28  C   UNL     1     -45.497  39.641  26.749  1.00  0.00    -0.016 A 
ATOM     29  H   UNL     1     -43.989  41.261  27.130  1.00  0.00     0.084 H 
ATOM     30  H   UNL     1     -45.997  39.911  25.828  1.00  0.00     0.066 H 
BRANCH  25  31
ATOM     31  C   UNL     1     -43.228  39.973  29.519  1.00  0.00     0.030 C 
ATOM     32  H   UNL     1     -43.433  40.987  29.870  1.00  0.00     0.048 H 
ATOM     33  H   UNL     1     -43.317  39.256  30.339  1.00  0.00     0.048 H 
ATOM     34  H   UNL     1     -42.226  39.923  29.086  1.00  0.00     0.048 H 
ENDBRANCH  25  31
ENDBRANCH  14  24
BRANCH  19  35
ATOM     35  N   UNL     1     -48.680  39.804  28.504  1.00  0.00    -0.383 N 
ATOM     36  H   UNL     1     -48.147  40.284  27.790  1.00  0.00     0.158 HD
ATOM     37  H   UNL     1     -49.505  40.293  28.835  1.00  0.00     0.158 HD
ENDBRANCH  19  35
ENDBRANCH   5  13
ENDBRANCH   1   4
BRANCH   1  38
ATOM     38  N   UNL     1     -45.921  30.450  23.821  1.00  0.00    -0.352 N 
ATOM     39  C   UNL     1     -46.052  29.584  22.749  1.00  0.00     0.226 C 
ATOM     40  H   UNL     1     -45.437  30.134  24.649  1.00  0.00     0.163 HD
ATOM     41  O   UNL     1     -46.510  29.932  21.664  1.00  0.00    -0.275 OA
BRANCH  39  42
ATOM     42  C   UNL     1     -45.568  28.174  23.023  1.00  0.00     0.069 C 
ATOM     43  H   UNL     1     -44.572  28.248  23.475  1.00  0.00     0.043 H 
ATOM     44  H   UNL     1     -45.441  27.621  22.085  1.00  0.00     0.043 H 
BRANCH  42  45
ATOM     45  C   UNL     1     -46.502  27.413  23.929  1.00  0.00     0.052 A 
ATOM     46  C   UNL     1     -46.018  26.449  24.808  1.00  0.00    -0.040 A 
ATOM     47  N   UNL     1     -47.816  27.742  23.869  1.00  0.00    -0.235 NA
ATOM     48  C   UNL     1     -46.916  25.796  25.641  1.00  0.00    -0.057 A 
ATOM     49  H   UNL     1     -44.965  26.197  24.851  1.00  0.00     0.064 H 
ATOM     50  C   UNL     1     -48.694  27.091  24.669  1.00  0.00     0.128 A 
ATOM     51  C   UNL     1     -48.267  26.120  25.571  1.00  0.00    -0.019 A 
ATOM     52  H   UNL     1     -46.572  25.032  26.332  1.00  0.00     0.062 H 
ATOM     53  H   UNL     1     -48.977  25.616  26.216  1.00  0.00     0.066 H 
BRANCH  50  54
ATOM     54  N   UNL     1     -50.059  27.422  24.583  1.00  0.00    -0.356 N 
ATOM     55  C   UNL     1     -51.112  26.894  25.403  1.00  0.00     0.021 C 
ATOM     56  C   UNL     1     -50.842  27.296  23.385  1.00  0.00     0.021 C 
ATOM     57  C   UNL     1     -52.075  27.332  24.294  1.00  0.00    -0.018 C 
ATOM     58  H   UNL     1     -51.040  25.811  25.550  1.00  0.00     0.049 H 
ATOM     59  H   UNL     1     -51.223  27.409  26.360  1.00  0.00     0.049 H 
ATOM     60  H   UNL     1     -50.728  28.140  22.701  1.00  0.00     0.049 H 
ATOM     61  H   UNL     1     -50.682  26.347  22.864  1.00  0.00     0.049 H 
ATOM     62  H   UNL     1     -52.503  28.331  24.437  1.00  0.00     0.030 H 
ATOM     63  H   UNL     1     -52.870  26.625  24.047  1.00  0.00     0.030 H 
ENDBRANCH  50  54
ENDBRANCH  42  45
ENDBRANCH  39  42
ENDBRANCH   1  38
TORSDOF 9
ENDMDL
MODEL 2
REMARK VINA RESULT:      -9.7      2.475      4.849
REMARK SMILES Cn1ccc(-c2cn(-c3cncc(CNC(=O)Cc4cccc(N5CCC5)n4)c3)c3ncnc(N)c23)n1
REMARK SMILES IDX 14 1 13 4 9 5 10 6 29 7 11 8 12 11 8 13 6 14 7 15 36 16
REMARK SMILES IDX 30 18 34 19 31 20 33 21 32 22 5 24 2 25 3 26 37 27 4 28 1 31
REMARK SMILES IDX 35 35 15 38 16 39 17 41 18 42 19 45 20 46 28 47 21 48 23 50
REMARK SMILES IDX 22 51 24 54 25 55 27 56 26 57
REMARK H PARENT 14 2 14 3 10 9 29 10 12 12 7 17 32 23 3 29 4 30 1 32 1 33 1 34
REMARK H PARENT 35 36 35 37 15 40 18 43 18 44 20 49 21 52 22 53 25 58 25 59
REMARK H PARENT 27 60 27 61 26 62 26 63
REMARK Flexibility Score: inf
ROOT
ATOM      1  C   UNL     1     -46.318  34.177  27.324  1.00  0.00     0.044 C 
ATOM      2  H   UNL     1     -45.223  34.187  27.302  1.00  0.00     0.054 H 
ATOM      3  H   UNL     1     -46.628  33.575  28.185  1.00  0.00     0.054 H 
ENDROOT
BRANCH   1   4
ATOM      4  C   UNL     1     -46.862  35.572  27.450  1.00  0.00    -0.008 A 
ATOM      5  C   UNL     1     -46.530  37.986  27.429  1.00  0.00     0.066 A 
ATOM      6  C   UNL     1     -47.876  38.097  27.764  1.00  0.00     0.051 A 
ATOM      7  C   UNL     1     -46.036  36.690  27.254  1.00  0.00    -0.030 A 
ATOM      8  N   UNL     1     -48.712  37.043  27.942  1.00  0.00    -0.262 NA
ATOM      9  H   UNL     1     -48.367  39.050  27.934  1.00  0.00     0.086 H 
ATOM     10  H   UNL     1     -45.009  36.503  26.955  1.00  0.00     0.065 H 
ATOM     11  C   UNL     1     -48.187  35.809  27.783  1.00  0.00     0.032 A 
ATOM     12  H   UNL     1     -48.889  34.995  27.943  1.00  0.00     0.084 H 
BRANCH   5  13
ATOM     13  N   UNL     1     -45.700  39.146  27.296  1.00  0.00    -0.299 N 
ATOM     14  C   UNL     1     -44.873  41.085  26.500  1.00  0.00     0.033 A 
ATOM     15  C   UNL     1     -45.830  40.110  26.315  1.00  0.00     0.021 A 
ATOM     16  C   UNL     1     -44.144  40.764  27.672  1.00  0.00     0.071 A 
ATOM     17  H   UNL     1     -46.564  40.037  25.525  1.00  0.00     0.083 H 
ATOM     18  C   UNL     1     -44.646  39.542  28.122  1.00  0.00     0.150 A 
ATOM     19  C   UNL     1     -43.123  41.348  28.444  1.00  0.00     0.137 A 
ATOM     20  N   UNL     1     -44.200  38.886  29.208  1.00  0.00    -0.218 NA
ATOM     21  N   UNL     1     -42.665  40.701  29.533  1.00  0.00    -0.219 NA
ATOM     22  C   UNL     1     -43.213  39.518  29.848  1.00  0.00     0.120 A 
ATOM     23  H   UNL     1     -42.820  39.021  30.731  1.00  0.00     0.106 H 
BRANCH  14  24
ATOM     24  C   UNL     1     -44.682  42.239  25.627  1.00  0.00     0.095 A 
ATOM     25  N   UNL     1     -43.762  43.610  24.311  1.00  0.00    -0.275 N 
ATOM     26  C   UNL     1     -44.983  44.157  24.574  1.00  0.00     0.025 A 
ATOM     27  N   UNL     1     -43.549  42.442  24.945  1.00  0.00    -0.173 NA
ATOM     28  C   UNL     1     -45.605  43.290  25.443  1.00  0.00    -0.016 A 
ATOM     29  H   UNL     1     -45.298  45.098  24.146  1.00  0.00     0.084 H 
ATOM     30  H   UNL     1     -46.585  43.405  25.887  1.00  0.00     0.066 H 
BRANCH  25  31
ATOM     31  C   UNL     1     -42.731  44.157  23.463  1.00  0.00     0.030 C 
ATOM     32  H   UNL     1     -43.108  44.184  22.438  1.00  0.00     0.048 H 
ATOM     33  H   UNL     1     -42.496  45.165  23.813  1.00  0.00     0.048 H 
ATOM     34  H   UNL     1     -41.841  43.526  23.517  1.00  0.00     0.048 H 
ENDBRANCH  25  31
ENDBRANCH  14  24
BRANCH  19  35
ATOM     35  N   UNL     1     -42.561  42.594  28.199  1.00  0.00    -0.383 N 
ATOM     36  H   UNL     1     -43.234  43.307  27.946  1.00  0.00     0.158 HD
ATOM     37  H   UNL     1     -41.931  42.839  28.955  1.00  0.00     0.158 HD
ENDBRANCH  19  35
ENDBRANCH   5  13
ENDBRANCH   1   4
BRANCH   1  38
ATOM     38  N   UNL     1     -46.756  33.572  26.081  1.00  0.00    -0.352 N 
ATOM     39  C   UNL     1     -47.446  32.373  26.071  1.00  0.00     0.226 C 
ATOM     40  H   UNL     1     -46.796  34.167  25.266  1.00  0.00     0.163 HD
ATOM     41  O   UNL     1     -47.555  31.658  27.064  1.00  0.00    -0.275 OA
BRANCH  39  42
ATOM     42  C   UNL     1     -48.072  32.024  24.735  1.00  0.00     0.069 C 
ATOM     43  H   UNL     1     -47.752  32.783  24.011  1.00  0.00     0.043 H 
ATOM     44  H   UNL     1     -49.164  32.091  24.791  1.00  0.00     0.043 H 
BRANCH  42  45
ATOM     45  C   UNL     1     -47.679  30.647  24.261  1.00  0.00     0.052 A 
ATOM     46  C   UNL     1     -46.629  30.472  23.364  1.00  0.00    -0.040 A 
ATOM     47  N   UNL     1     -48.370  29.602  24.778  1.00  0.00    -0.235 NA
ATOM     48  C   UNL     1     -46.290  29.183  22.980  1.00  0.00    -0.057 A 
ATOM     49  H   UNL     1     -46.081  31.315  22.960  1.00  0.00     0.064 H 
ATOM     50  C   UNL     1     -48.050  28.345  24.388  1.00  0.00     0.128 A 
ATOM     51  C   UNL     1     -47.006  28.108  23.497  1.00  0.00    -0.019 A 
ATOM     52  H   UNL     1     -45.481  29.012  22.275  1.00  0.00     0.062 H 
ATOM     53  H   UNL     1     -46.750  27.097  23.203  1.00  0.00     0.066 H 
BRANCH  50  54
ATOM     54  N   UNL     1     -48.787  27.267  24.912  1.00  0.00    -0.356 N 
ATOM     55  C   UNL     1     -50.029  26.762  24.400  1.00  0.00     0.021 C 
ATOM     56  C   UNL     1     -49.244  27.192  26.272  1.00  0.00     0.021 C 
ATOM     57  C   UNL     1     -50.245  26.140  25.784  1.00  0.00    -0.018 C 
ATOM     58  H   UNL     1     -50.738  27.553  24.135  1.00  0.00     0.049 H 
ATOM     59  H   UNL     1     -49.909  26.056  23.575  1.00  0.00     0.049 H 
ATOM     60  H   UNL     1     -48.480  26.838  26.968  1.00  0.00     0.049 H 
ATOM     61  H   UNL     1     -49.693  28.125  26.627  1.00  0.00     0.049 H 
ATOM     62  H   UNL     1     -49.893  25.105  25.873  1.00  0.00     0.030 H 
ATOM     63  H   UNL     1     -51.256  26.219  26.190  1.00  0.00     0.030 H 
ENDBRANCH  50  54
ENDBRANCH  42  45
ENDBRANCH  39  42
ENDBRANCH   1  38
TORSDOF 9
ENDMDL
MODEL 3
REMARK VINA RESULT:      -9.6      2.670     11.244
REMARK SMILES Cn1ccc(-c2cn(-c3cncc(CNC(=O)Cc4cccc(N5CCC5)n4)c3)c3ncnc(N)c23)n1
REMARK SMILES IDX 14 1 13 4 9 5 10 6 29 7 11 8 12 11 8 13 6 14 7 15 36 16
REMARK SMILES IDX 30 18 34 19 31 20 33 21 32 22 5 24 2 25 3 26 37 27 4 28 1 31
REMARK SMILES IDX 35 35 15 38 16 39 17 41 18 42 19 45 20 46 28 47 21 48 23 50
REMARK SMILES IDX 22 51 24 54 25 55 27 56 26 57
REMARK H PARENT 14 2 14 3 10 9 29 10 12 12 7 17 32 23 3 29 4 30 1 32 1 33 1 34
REMARK H PARENT 35 36 35 37 15 40 18 43 18 44 20 49 21 52 22 53 25 58 25 59
REMARK H PARENT 27 60 27 61 26 62 26 63
REMARK Flexibility Score: inf
ROOT
ATOM      1  C   UNL     1     -45.599  34.814  27.369  1.00  0.00     0.044 C 
ATOM      2  H   UNL     1     -45.144  34.214  28.164  1.00  0.00     0.054 H 
ATOM      3  H   UNL     1     -44.908  34.819  26.519  1.00  0.00     0.054 H 
ENDROOT
BRANCH   1   4
ATOM      4  C   UNL     1     -46.921  34.233  26.952  1.00  0.00    -0.008 A 
ATOM      5  C   UNL     1     -48.231  32.405  26.015  1.00  0.00     0.066 A 
ATOM      6  C   UNL     1     -49.339  33.240  26.133  1.00  0.00     0.051 A 
ATOM      7  C   UNL     1     -47.011  32.923  26.456  1.00  0.00    -0.030 A 
ATOM      8  N   UNL     1     -49.298  34.504  26.627  1.00  0.00    -0.262 NA
ATOM      9  H   UNL     1     -50.336  32.950  25.815  1.00  0.00     0.086 H 
ATOM     10  H   UNL     1     -46.098  32.336  26.439  1.00  0.00     0.065 H 
ATOM     11  C   UNL     1     -48.095  34.970  27.022  1.00  0.00     0.032 A 
ATOM     12  H   UNL     1     -48.106  35.988  27.402  1.00  0.00     0.084 H 
BRANCH   5  13
ATOM     13  N   UNL     1     -48.347  31.096  25.447  1.00  0.00    -0.299 N 
ATOM     14  C   UNL     1     -48.591  28.860  25.296  1.00  0.00     0.033 A 
ATOM     15  C   UNL     1     -48.502  29.926  26.166  1.00  0.00     0.021 A 
ATOM     16  C   UNL     1     -48.549  29.370  23.975  1.00  0.00     0.071 A 
ATOM     17  H   UNL     1     -48.507  29.907  27.247  1.00  0.00     0.083 H 
ATOM     18  C   UNL     1     -48.357  30.748  24.094  1.00  0.00     0.150 A 
ATOM     19  C   UNL     1     -48.665  28.862  22.668  1.00  0.00     0.137 A 
ATOM     20  N   UNL     1     -48.245  31.597  23.056  1.00  0.00    -0.218 NA
ATOM     21  N   UNL     1     -48.552  29.700  21.620  1.00  0.00    -0.219 NA
ATOM     22  C   UNL     1     -48.342  31.002  21.865  1.00  0.00     0.120 A 
ATOM     23  H   UNL     1     -48.255  31.651  20.998  1.00  0.00     0.106 H 
BRANCH  14  24
ATOM     24  C   UNL     1     -48.718  27.464  25.702  1.00  0.00     0.095 A 
ATOM     25  N   UNL     1     -48.199  25.528  26.365  1.00  0.00    -0.275 N 
ATOM     26  C   UNL     1     -49.529  25.444  26.074  1.00  0.00     0.025 A 
ATOM     27  N   UNL     1     -47.677  26.748  26.143  1.00  0.00    -0.173 NA
ATOM     28  C   UNL     1     -49.896  26.691  25.624  1.00  0.00    -0.016 A 
ATOM     29  H   UNL     1     -50.089  24.527  26.192  1.00  0.00     0.084 H 
ATOM     30  H   UNL     1     -50.875  26.997  25.281  1.00  0.00     0.066 H 
BRANCH  25  31
ATOM     31  C   UNL     1     -47.350  24.471  26.857  1.00  0.00     0.030 C 
ATOM     32  H   UNL     1     -47.854  23.516  26.683  1.00  0.00     0.048 H 
ATOM     33  H   UNL     1     -46.403  24.510  26.315  1.00  0.00     0.048 H 
ATOM     34  H   UNL     1     -47.175  24.611  27.926  1.00  0.00     0.048 H 
ENDBRANCH  25  31
ENDBRANCH  14  24
BRANCH  19  35
ATOM     35  N   UNL     1     -48.939  27.537  22.358  1.00  0.00    -0.383 N 
ATOM     36  H   UNL     1     -48.150  26.914  22.477  1.00  0.00     0.158 HD
ATOM     37  H   UNL     1     -49.795  27.248  22.820  1.00  0.00     0.158 HD
ENDBRANCH  19  35
ENDBRANCH   5  13
ENDBRANCH   1   4
BRANCH   1  38
ATOM     38  N   UNL     1     -45.777  36.151  27.902  1.00  0.00    -0.352 N 
ATOM     39  C   UNL     1     -46.121  36.356  29.226  1.00  0.00     0.226 C 
ATOM     40  H   UNL     1     -45.379  36.915  27.375  1.00  0.00     0.163 HD
ATOM     41  O   UNL     1     -46.487  35.448  29.967  1.00  0.00    -0.275 OA
BRANCH  39  42
ATOM     42  C   UNL     1     -45.993  37.794  29.688  1.00  0.00     0.069 C 
ATOM     43  H   UNL     1     -45.033  37.890  30.209  1.00  0.00     0.043 H 
ATOM     44  H   UNL     1     -46.768  38.033  30.425  1.00  0.00     0.043 H 
BRANCH  42  45
ATOM     45  C   UNL     1     -46.071  38.773  28.544  1.00  0.00     0.052 A 
ATOM     46  C   UNL     1     -47.278  39.021  27.897  1.00  0.00    -0.040 A 
ATOM     47  N   UNL     1     -44.926  39.417  28.210  1.00  0.00    -0.235 NA
ATOM     48  C   UNL     1     -47.302  39.951  26.868  1.00  0.00    -0.057 A 
ATOM     49  H   UNL     1     -48.189  38.504  28.175  1.00  0.00     0.064 H 
ATOM     50  C   UNL     1     -44.947  40.311  27.193  1.00  0.00     0.128 A 
ATOM     51  C   UNL     1     -46.126  40.604  26.513  1.00  0.00    -0.019 A 
ATOM     52  H   UNL     1     -48.226  40.162  26.336  1.00  0.00     0.062 H 
ATOM     53  H   UNL     1     -46.133  41.331  25.709  1.00  0.00     0.066 H 
BRANCH  50  54
ATOM     54  N   UNL     1     -43.749  40.957  26.838  1.00  0.00    -0.356 N 
ATOM     55  C   UNL     1     -42.632  41.207  27.703  1.00  0.00     0.021 C 
ATOM     56  C   UNL     1     -43.685  42.276  26.271  1.00  0.00     0.021 C 
ATOM     57  C   UNL     1     -42.218  42.297  26.709  1.00  0.00    -0.018 C 
ATOM     58  H   UNL     1     -42.927  41.573  28.692  1.00  0.00     0.049 H 
ATOM     59  H   UNL     1     -41.948  40.360  27.792  1.00  0.00     0.049 H 
ATOM     60  H   UNL     1     -43.863  42.294  25.193  1.00  0.00     0.049 H 
ATOM     61  H   UNL     1     -44.330  42.997  26.785  1.00  0.00     0.049 H 
ATOM     62  H   UNL     1     -41.512  41.961  25.940  1.00  0.00     0.030 H 
ATOM     63  H   UNL     1     -41.864  43.233  27.147  1.00  0.00     0.030 H 
ENDBRANCH  50  54
ENDBRANCH  42  45
ENDBRANCH  39  42
ENDBRANCH   1  38
TORSDOF 9
ENDMDL
MODEL 4
REMARK VINA RESULT:      -9.6      1.255      2.196
REMARK SMILES Cn1ccc(-c2cn(-c3cncc(CNC(=O)Cc4cccc(N5CCC5)n4)c3)c3ncnc(N)c23)n1
REMARK SMILES IDX 14 1 13 4 9 5 10 6 29 7 11 8 12 11 8 13 6 14 7 15 36 16
REMARK SMILES IDX 30 18 34 19 31 20 33 21 32 22 5 24 2 25 3 26 37 27 4 28 1 31
REMARK SMILES IDX 35 35 15 38 16 39 17 41 18 42 19 45 20 46 28 47 21 48 23 50
REMARK SMILES IDX 22 51 24 54 25 55 27 56 26 57
REMARK H PARENT 14 2 14 3 10 9 29 10 12 12 7 17 32 23 3 29 4 30 1 32 1 33 1 34
REMARK H PARENT 35 36 35 37 15 40 18 43 18 44 20 49 21 52 22 53 25 58 25 59
REMARK H PARENT 27 60 27 61 26 62 26 63
REMARK Flexibility Score: inf
ROOT
ATOM      1  C   UNL     1     -46.357  32.327  24.523  1.00  0.00     0.044 C 
ATOM      2  H   UNL     1     -45.679  32.984  23.968  1.00  0.00     0.054 H 
ATOM      3  H   UNL     1     -45.746  31.684  25.166  1.00  0.00     0.054 H 
ENDROOT
BRANCH   1   4
ATOM      4  C   UNL     1     -47.311  33.132  25.361  1.00  0.00    -0.008 A 
ATOM      5  C   UNL     1     -47.871  35.178  26.559  1.00  0.00     0.066 A 
ATOM      6  C   UNL     1     -49.044  34.538  26.950  1.00  0.00     0.051 A 
ATOM      7  C   UNL     1     -47.010  34.452  25.732  1.00  0.00    -0.030 A 
ATOM      8  N   UNL     1     -49.381  33.272  26.596  1.00  0.00    -0.262 NA
ATOM      9  H   UNL     1     -49.782  34.999  27.599  1.00  0.00     0.086 H 
ATOM     10  H   UNL     1     -46.090  34.879  25.344  1.00  0.00     0.065 H 
ATOM     11  C   UNL     1     -48.510  32.600  25.813  1.00  0.00     0.032 A 
ATOM     12  H   UNL     1     -48.815  31.589  25.561  1.00  0.00     0.084 H 
BRANCH   5  13
ATOM     13  N   UNL     1     -47.566  36.504  27.006  1.00  0.00    -0.299 N 
ATOM     14  C   UNL     1     -46.399  38.382  27.445  1.00  0.00     0.033 A 
ATOM     15  C   UNL     1     -46.323  37.103  26.935  1.00  0.00     0.021 A 
ATOM     16  C   UNL     1     -47.748  38.630  27.802  1.00  0.00     0.071 A 
ATOM     17  H   UNL     1     -45.451  36.585  26.561  1.00  0.00     0.083 H 
ATOM     18  C   UNL     1     -48.440  37.442  27.561  1.00  0.00     0.150 A 
ATOM     19  C   UNL     1     -48.504  39.711  28.289  1.00  0.00     0.137 A 
ATOM     20  N   UNL     1     -49.754  37.263  27.790  1.00  0.00    -0.218 NA
ATOM     21  N   UNL     1     -49.819  39.545  28.526  1.00  0.00    -0.219 NA
ATOM     22  C   UNL     1     -50.365  38.345  28.277  1.00  0.00     0.120 A 
ATOM     23  H   UNL     1     -51.428  38.244  28.480  1.00  0.00     0.106 H 
BRANCH  14  24
ATOM     24  C   UNL     1     -45.268  39.296  27.569  1.00  0.00     0.095 A 
ATOM     25  N   UNL     1     -43.630  40.335  28.401  1.00  0.00    -0.275 N 
ATOM     26  C   UNL     1     -43.799  40.895  27.169  1.00  0.00     0.025 A 
ATOM     27  N   UNL     1     -44.516  39.361  28.674  1.00  0.00    -0.173 NA
ATOM     28  C   UNL     1     -44.872  40.246  26.604  1.00  0.00    -0.016 A 
ATOM     29  H   UNL     1     -43.170  41.697  26.808  1.00  0.00     0.084 H 
ATOM     30  H   UNL     1     -45.312  40.438  25.635  1.00  0.00     0.066 H 
BRANCH  25  31
ATOM     31  C   UNL     1     -42.637  40.690  29.386  1.00  0.00     0.030 C 
ATOM     32  H   UNL     1     -43.100  40.636  30.375  1.00  0.00     0.048 H 
ATOM     33  H   UNL     1     -41.809  39.982  29.311  1.00  0.00     0.048 H 
ATOM     34  H   UNL     1     -42.280  41.705  29.196  1.00  0.00     0.048 H 
ENDBRANCH  25  31
ENDBRANCH  14  24
BRANCH  19  35
ATOM     35  N   UNL     1     -48.005  40.988  28.509  1.00  0.00    -0.383 N 
ATOM     36  H   UNL     1     -48.697  41.648  28.843  1.00  0.00     0.158 HD
ATOM     37  H   UNL     1     -47.156  40.932  29.061  1.00  0.00     0.158 HD
ENDBRANCH  19  35
ENDBRANCH   5  13
ENDBRANCH   1   4
BRANCH   1  38
ATOM     38  N   UNL     1     -47.080  31.544  23.541  1.00  0.00    -0.352 N 
ATOM     39  C   UNL     1     -46.459  30.535  22.828  1.00  0.00     0.226 C 
ATOM     40  H   UNL     1     -48.089  31.559  23.590  1.00  0.00     0.163 HD
ATOM     41  O   UNL     1     -45.242  30.372  22.829  1.00  0.00    -0.275 OA
BRANCH  39  42
ATOM     42  C   UNL     1     -47.407  29.638  22.058  1.00  0.00     0.069 C 
ATOM     43  H   UNL     1     -46.801  28.922  21.492  1.00  0.00     0.043 H 
ATOM     44  H   UNL     1     -47.971  30.217  21.318  1.00  0.00     0.043 H 
BRANCH  42  45
ATOM     45  C   UNL     1     -48.370  28.912  22.964  1.00  0.00     0.052 A 
ATOM     46  C   UNL     1     -49.721  29.245  22.985  1.00  0.00    -0.040 A 
ATOM     47  N   UNL     1     -47.862  27.906  23.718  1.00  0.00    -0.235 NA
ATOM     48  C   UNL     1     -50.571  28.529  23.816  1.00  0.00    -0.057 A 
ATOM     49  H   UNL     1     -50.118  30.049  22.375  1.00  0.00     0.064 H 
ATOM     50  C   UNL     1     -48.688  27.220  24.541  1.00  0.00     0.128 A 
ATOM     51  C   UNL     1     -50.050  27.505  24.602  1.00  0.00    -0.019 A 
ATOM     52  H   UNL     1     -51.629  28.769  23.863  1.00  0.00     0.062 H 
ATOM     53  H   UNL     1     -50.704  26.940  25.255  1.00  0.00     0.066 H 
BRANCH  50  54
ATOM     54  N   UNL     1     -48.148  26.193  25.338  1.00  0.00    -0.356 N 
ATOM     55  C   UNL     1     -48.456  25.939  26.716  1.00  0.00     0.021 C 
ATOM     56  C   UNL     1     -46.741  25.997  25.550  1.00  0.00     0.021 C 
ATOM     57  C   UNL     1     -47.132  25.170  26.778  1.00  0.00    -0.018 C 
ATOM     58  H   UNL     1     -48.489  26.849  27.324  1.00  0.00     0.049 H 
ATOM     59  H   UNL     1     -49.359  25.342  26.861  1.00  0.00     0.049 H 
ATOM     60  H   UNL     1     -46.251  25.450  24.741  1.00  0.00     0.049 H 
ATOM     61  H   UNL     1     -46.206  26.927  25.772  1.00  0.00     0.049 H 
ATOM     62  H   UNL     1     -47.225  24.094  26.587  1.00  0.00     0.030 H 
ATOM     63  H   UNL     1     -46.528  25.332  27.674  1.00  0.00     0.030 H 
ENDBRANCH  50  54
ENDBRANCH  42  45
ENDBRANCH  39  42
ENDBRANCH   1  38
TORSDOF 9
ENDMDL
MODEL 5
REMARK VINA RESULT:      -9.3      2.869      6.068
REMARK SMILES Cn1ccc(-c2cn(-c3cncc(CNC(=O)Cc4cccc(N5CCC5)n4)c3)c3ncnc(N)c23)n1
REMARK SMILES IDX 14 1 13 4 9 5 10 6 29 7 11 8 12 11 8 13 6 14 7 15 36 16
REMARK SMILES IDX 30 18 34 19 31 20 33 21 32 22 5 24 2 25 3 26 37 27 4 28 1 31
REMARK SMILES IDX 35 35 15 38 16 39 17 41 18 42 19 45 20 46 28 47 21 48 23 50
REMARK SMILES IDX 22 51 24 54 25 55 27 56 26 57
REMARK H PARENT 14 2 14 3 10 9 29 10 12 12 7 17 32 23 3 29 4 30 1 32 1 33 1 34
REMARK H PARENT 35 36 35 37 15 40 18 43 18 44 20 49 21 52 22 53 25 58 25 59
REMARK H PARENT 27 60 27 61 26 62 26 63
REMARK Flexibility Score: inf
ROOT
ATOM      1  C   UNL     1     -45.539  34.547  27.680  1.00  0.00     0.044 C 
ATOM      2  H   UNL     1     -44.651  34.578  27.040  1.00  0.00     0.054 H 
ATOM      3  H   UNL     1     -45.411  33.720  28.387  1.00  0.00     0.054 H 
ENDROOT
BRANCH   1   4
ATOM      4  C   UNL     1     -45.704  35.841  28.428  1.00  0.00    -0.008 A 
ATOM      5  C   UNL     1     -45.361  38.247  28.601  1.00  0.00     0.066 A 
ATOM      6  C   UNL     1     -45.955  38.164  29.857  1.00  0.00     0.051 A 
ATOM      7  C   UNL     1     -45.260  37.054  27.880  1.00  0.00    -0.030 A 
ATOM      8  N   UNL     1     -46.416  37.015  30.414  1.00  0.00    -0.262 NA
ATOM      9  H   UNL     1     -46.079  39.022  30.511  1.00  0.00     0.086 H 
ATOM     10  H   UNL     1     -44.846  37.023  26.876  1.00  0.00     0.065 H 
ATOM     11  C   UNL     1     -46.279  35.884  29.690  1.00  0.00     0.032 A 
ATOM     12  H   UNL     1     -46.653  34.987  30.176  1.00  0.00     0.084 H 
BRANCH   5  13
ATOM     13  N   UNL     1     -44.863  39.491  28.097  1.00  0.00    -0.299 N 
ATOM     14  C   UNL     1     -44.685  41.356  26.844  1.00  0.00     0.033 A 
ATOM     15  C   UNL     1     -45.414  40.204  27.049  1.00  0.00     0.021 A 
ATOM     16  C   UNL     1     -43.669  41.411  27.829  1.00  0.00     0.071 A 
ATOM     17  H   UNL     1     -46.265  39.844  26.487  1.00  0.00     0.083 H 
ATOM     18  C   UNL     1     -43.773  40.230  28.565  1.00  0.00     0.150 A 
ATOM     19  C   UNL     1     -42.665  42.313  28.228  1.00  0.00     0.137 A 
ATOM     20  N   UNL     1     -42.969  39.892  29.589  1.00  0.00    -0.218 NA
ATOM     21  N   UNL     1     -41.851  41.987  29.249  1.00  0.00    -0.219 NA
ATOM     22  C   UNL     1     -42.036  40.808  29.861  1.00  0.00     0.120 A 
ATOM     23  H   UNL     1     -41.362  40.575  30.681  1.00  0.00     0.106 H 
BRANCH  14  24
ATOM     24  C   UNL     1     -44.951  42.333  25.792  1.00  0.00     0.095 A 
ATOM     25  N   UNL     1     -44.666  43.570  24.105  1.00  0.00    -0.275 N 
ATOM     26  C   UNL     1     -45.898  43.914  24.577  1.00  0.00     0.025 A 
ATOM     27  N   UNL     1     -44.063  42.611  24.830  1.00  0.00    -0.173 NA
ATOM     28  C   UNL     1     -46.109  43.132  25.689  1.00  0.00    -0.016 A 
ATOM     29  H   UNL     1     -46.504  44.677  24.107  1.00  0.00     0.084 H 
ATOM     30  H   UNL     1     -46.974  43.143  26.338  1.00  0.00     0.066 H 
BRANCH  25  31
ATOM     31  C   UNL     1     -43.989  44.127  22.959  1.00  0.00     0.030 C 
ATOM     32  H   UNL     1     -44.199  45.199  22.923  1.00  0.00     0.048 H 
ATOM     33  H   UNL     1     -42.917  43.949  23.074  1.00  0.00     0.048 H 
ATOM     34  H   UNL     1     -44.353  43.643  22.050  1.00  0.00     0.048 H 
ENDBRANCH  25  31
ENDBRANCH  14  24
BRANCH  19  35
ATOM     35  N   UNL     1     -42.465  43.569  27.670  1.00  0.00    -0.383 N 
ATOM     36  H   UNL     1     -42.424  44.319  28.348  1.00  0.00     0.158 HD
ATOM     37  H   UNL     1     -41.690  43.532  27.016  1.00  0.00     0.158 HD
ENDBRANCH  19  35
ENDBRANCH   5  13
ENDBRANCH   1   4
BRANCH   1  38
ATOM     38  N   UNL     1     -46.675  34.317  26.809  1.00  0.00    -0.352 N 
ATOM     39  C   UNL     1     -47.329  33.098  26.789  1.00  0.00     0.226 C 
ATOM     40  H   UNL     1     -47.143  35.130  26.435  1.00  0.00     0.163 HD
ATOM     41  O   UNL     1     -46.884  32.095  27.340  1.00  0.00    -0.275 OA
BRANCH  39  42
ATOM     42  C   UNL     1     -48.650  33.110  26.046  1.00  0.00     0.069 C 
ATOM     43  H   UNL     1     -48.775  34.108  25.610  1.00  0.00     0.043 H 
ATOM     44  H   UNL     1     -49.485  32.970  26.741  1.00  0.00     0.043 H 
BRANCH  42  45
ATOM     45  C   UNL     1     -48.711  32.055  24.971  1.00  0.00     0.052 A 
ATOM     46  C   UNL     1     -49.921  31.711  24.374  1.00  0.00    -0.040 A 
ATOM     47  N   UNL     1     -47.535  31.494  24.595  1.00  0.00    -0.235 NA
ATOM     48  C   UNL     1     -49.920  30.753  23.370  1.00  0.00    -0.057 A 
ATOM     49  H   UNL     1     -50.855  32.169  24.679  1.00  0.00     0.064 H 
ATOM     50  C   UNL     1     -47.538  30.546  23.628  1.00  0.00     0.128 A 
ATOM     51  C   UNL     1     -48.717  30.165  22.993  1.00  0.00    -0.019 A 
ATOM     52  H   UNL     1     -50.848  30.456  22.891  1.00  0.00     0.062 H 
ATOM     53  H   UNL     1     -48.705  29.415  22.211  1.00  0.00     0.066 H 
BRANCH  50  54
ATOM     54  N   UNL     1     -46.316  29.953  23.261  1.00  0.00    -0.356 N 
ATOM     55  C   UNL     1     -45.588  30.195  22.049  1.00  0.00     0.021 C 
ATOM     56  C   UNL     1     -46.105  28.534  23.179  1.00  0.00     0.021 C 
ATOM     57  C   UNL     1     -44.889  28.856  22.305  1.00  0.00    -0.018 C 
ATOM     58  H   UNL     1     -46.227  30.219  21.160  1.00  0.00     0.049 H 
ATOM     59  H   UNL     1     -44.948  31.080  22.091  1.00  0.00     0.049 H 
ATOM     60  H   UNL     1     -45.891  28.070  24.145  1.00  0.00     0.049 H 
ATOM     61  H   UNL     1     -46.915  28.007  22.664  1.00  0.00     0.049 H 
ATOM     62  H   UNL     1     -43.945  28.937  22.857  1.00  0.00     0.030 H 
ATOM     63  H   UNL     1     -44.748  28.216  21.430  1.00  0.00     0.030 H 
ENDBRANCH  50  54
ENDBRANCH  42  45
ENDBRANCH  39  42
ENDBRANCH   1  38
TORSDOF 9
ENDMDL
MODEL 6
REMARK VINA RESULT:      -9.3      2.771      4.789
REMARK SMILES Cn1ccc(-c2cn(-c3cncc(CNC(=O)Cc4cccc(N5CCC5)n4)c3)c3ncnc(N)c23)n1
REMARK SMILES IDX 14 1 13 4 9 5 10 6 29 7 11 8 12 11 8 13 6 14 7 15 36 16
REMARK SMILES IDX 30 18 34 19 31 20 33 21 32 22 5 24 2 25 3 26 37 27 4 28 1 31
REMARK SMILES IDX 35 35 15 38 16 39 17 41 18 42 19 45 20 46 28 47 21 48 23 50
REMARK SMILES IDX 22 51 24 54 25 55 27 56 26 57
REMARK H PARENT 14 2 14 3 10 9 29 10 12 12 7 17 32 23 3 29 4 30 1 32 1 33 1 34
REMARK H PARENT 35 36 35 37 15 40 18 43 18 44 20 49 21 52 22 53 25 58 25 59
REMARK H PARENT 27 60 27 61 26 62 26 63
REMARK Flexibility Score: inf
ROOT
ATOM      1  C   UNL     1     -45.962  34.506  27.176  1.00  0.00     0.044 C 
ATOM      2  H   UNL     1     -45.435  34.673  26.231  1.00  0.00     0.054 H 
ATOM      3  H   UNL     1     -45.381  33.782  27.758  1.00  0.00     0.054 H 
ENDROOT
BRANCH   1   4
ATOM      4  C   UNL     1     -46.100  35.791  27.945  1.00  0.00    -0.008 A 
ATOM      5  C   UNL     1     -46.068  38.225  28.025  1.00  0.00     0.066 A 
ATOM      6  C   UNL     1     -46.284  38.107  29.396  1.00  0.00     0.051 A 
ATOM      7  C   UNL     1     -45.997  37.033  27.300  1.00  0.00    -0.030 A 
ATOM      8  N   UNL     1     -46.410  36.926  30.053  1.00  0.00    -0.262 NA
ATOM      9  H   UNL     1     -46.347  38.962  30.062  1.00  0.00     0.086 H 
ATOM     10  H   UNL     1     -45.870  37.024  26.222  1.00  0.00     0.065 H 
ATOM     11  C   UNL     1     -46.314  35.799  29.315  1.00  0.00     0.032 A 
ATOM     12  H   UNL     1     -46.413  34.878  29.882  1.00  0.00     0.084 H 
BRANCH   5  13
ATOM     13  N   UNL     1     -45.906  39.508  27.409  1.00  0.00    -0.299 N 
ATOM     14  C   UNL     1     -44.931  41.268  26.393  1.00  0.00     0.033 A 
ATOM     15  C   UNL     1     -44.714  40.017  26.930  1.00  0.00     0.021 A 
ATOM     16  C   UNL     1     -46.318  41.545  26.480  1.00  0.00     0.071 A 
ATOM     17  H   UNL     1     -43.777  39.485  27.024  1.00  0.00     0.083 H 
ATOM     18  C   UNL     1     -46.892  40.462  27.147  1.00  0.00     0.150 A 
ATOM     19  C   UNL     1     -47.195  42.566  26.069  1.00  0.00     0.137 A 
ATOM     20  N   UNL     1     -48.200  40.351  27.444  1.00  0.00    -0.218 NA
ATOM     21  N   UNL     1     -48.505  42.470  26.361  1.00  0.00    -0.219 NA
ATOM     22  C   UNL     1     -48.931  41.389  27.031  1.00  0.00     0.120 A 
ATOM     23  H   UNL     1     -49.994  41.343  27.252  1.00  0.00     0.106 H 
BRANCH  14  24
ATOM     24  C   UNL     1     -43.891  42.125  25.832  1.00  0.00     0.095 A 
ATOM     25  N   UNL     1     -42.809  43.297  24.450  1.00  0.00    -0.275 N 
ATOM     26  C   UNL     1     -42.019  43.263  25.561  1.00  0.00     0.025 A 
ATOM     27  N   UNL     1     -43.956  42.607  24.585  1.00  0.00    -0.173 NA
ATOM     28  C   UNL     1     -42.693  42.491  26.479  1.00  0.00    -0.016 A 
ATOM     29  H   UNL     1     -41.061  43.762  25.604  1.00  0.00     0.084 H 
ATOM     30  H   UNL     1     -42.362  42.225  27.474  1.00  0.00     0.066 H 
BRANCH  25  31
ATOM     31  C   UNL     1     -42.527  43.970  23.205  1.00  0.00     0.030 C 
ATOM     32  H   UNL     1     -43.297  43.692  22.482  1.00  0.00     0.048 H 
ATOM     33  H   UNL     1     -42.540  45.048  23.386  1.00  0.00     0.048 H 
ATOM     34  H   UNL     1     -41.544  43.664  22.840  1.00  0.00     0.048 H 
ENDBRANCH  25  31
ENDBRANCH  14  24
BRANCH  19  35
ATOM     35  N   UNL     1     -46.819  43.676  25.324  1.00  0.00    -0.383 N 
ATOM     36  H   UNL     1     -47.598  44.231  24.991  1.00  0.00     0.158 HD
ATOM     37  H   UNL     1     -46.099  44.192  25.819  1.00  0.00     0.158 HD
ENDBRANCH  19  35
ENDBRANCH   5  13
ENDBRANCH   1   4
BRANCH   1  38
ATOM     38  N   UNL     1     -47.268  33.973  26.840  1.00  0.00    -0.352 N 
ATOM     39  C   UNL     1     -47.406  32.903  25.974  1.00  0.00     0.226 C 
ATOM     40  H   UNL     1     -48.035  34.210  27.453  1.00  0.00     0.163 HD
ATOM     41  O   UNL     1     -46.478  32.473  25.295  1.00  0.00    -0.275 OA
BRANCH  39  42
ATOM     42  C   UNL     1     -48.794  32.295  25.949  1.00  0.00     0.069 C 
ATOM     43  H   UNL     1     -49.498  33.089  25.674  1.00  0.00     0.043 H 
ATOM     44  H   UNL     1     -49.085  31.956  26.949  1.00  0.00     0.043 H 
BRANCH  42  45
ATOM     45  C   UNL     1     -48.897  31.143  24.981  1.00  0.00     0.052 A 
ATOM     46  C   UNL     1     -49.072  31.367  23.619  1.00  0.00    -0.040 A 
ATOM     47  N   UNL     1     -48.773  29.896  25.498  1.00  0.00    -0.235 NA
ATOM     48  C   UNL     1     -49.134  30.274  22.766  1.00  0.00    -0.057 A 
ATOM     49  H   UNL     1     -49.166  32.369  23.215  1.00  0.00     0.064 H 
ATOM     50  C   UNL     1     -48.851  28.830  24.668  1.00  0.00     0.128 A 
ATOM     51  C   UNL     1     -49.021  28.992  23.296  1.00  0.00    -0.019 A 
ATOM     52  H   UNL     1     -49.279  30.414  21.699  1.00  0.00     0.062 H 
ATOM     53  H   UNL     1     -49.069  28.131  22.639  1.00  0.00     0.066 H 
BRANCH  50  54
ATOM     54  N   UNL     1     -48.744  27.538  25.216  1.00  0.00    -0.356 N 
ATOM     55  C   UNL     1     -49.729  26.497  25.131  1.00  0.00     0.021 C 
ATOM     56  C   UNL     1     -48.494  27.273  26.606  1.00  0.00     0.021 C 
ATOM     57  C   UNL     1     -49.039  25.866  26.344  1.00  0.00    -0.018 C 
ATOM     58  H   UNL     1     -50.748  26.854  25.313  1.00  0.00     0.049 H 
ATOM     59  H   UNL     1     -49.679  25.922  24.203  1.00  0.00     0.049 H 
ATOM     60  H   UNL     1     -47.437  27.334  26.876  1.00  0.00     0.049 H 
ATOM     61  H   UNL     1     -49.104  27.886  27.277  1.00  0.00     0.049 H 
ATOM     62  H   UNL     1     -48.272  25.124  26.093  1.00  0.00     0.030 H 
ATOM     63  H   UNL     1     -49.703  25.461  27.113  1.00  0.00     0.030 H 
ENDBRANCH  50  54
ENDBRANCH  42  45
ENDBRANCH  39  42
ENDBRANCH   1  38
TORSDOF 9
ENDMDL
MODEL 7
REMARK VINA RESULT:      -9.2      1.998      4.103
REMARK SMILES Cn1ccc(-c2cn(-c3cncc(CNC(=O)Cc4cccc(N5CCC5)n4)c3)c3ncnc(N)c23)n1
REMARK SMILES IDX 14 1 13 4 9 5 10 6 29 7 11 8 12 11 8 13 6 14 7 15 36 16
REMARK SMILES IDX 30 18 34 19 31 20 33 21 32 22 5 24 2 25 3 26 37 27 4 28 1 31
REMARK SMILES IDX 35 35 15 38 16 39 17 41 18 42 19 45 20 46 28 47 21 48 23 50
REMARK SMILES IDX 22 51 24 54 25 55 27 56 26 57
REMARK H PARENT 14 2 14 3 10 9 29 10 12 12 7 17 32 23 3 29 4 30 1 32 1 33 1 34
REMARK H PARENT 35 36 35 37 15 40 18 43 18 44 20 49 21 52 22 53 25 58 25 59
REMARK H PARENT 27 60 27 61 26 62 26 63
REMARK Flexibility Score: inf
ROOT
ATOM      1  C   UNL     1     -48.091  33.066  25.950  1.00  0.00     0.044 C 
ATOM      2  H   UNL     1     -47.360  33.164  25.140  1.00  0.00     0.054 H 
ATOM      3  H   UNL     1     -47.644  32.435  26.726  1.00  0.00     0.054 H 
ENDROOT
BRANCH   1   4
ATOM      4  C   UNL     1     -48.440  34.412  26.520  1.00  0.00    -0.008 A 
ATOM      5  C   UNL     1     -47.793  36.669  27.171  1.00  0.00     0.066 A 
ATOM      6  C   UNL     1     -49.096  36.826  27.636  1.00  0.00     0.051 A 
ATOM      7  C   UNL     1     -47.484  35.438  26.588  1.00  0.00    -0.030 A 
ATOM      8  N   UNL     1     -50.055  35.867  27.570  1.00  0.00    -0.262 NA
ATOM      9  H   UNL     1     -49.448  37.734  28.116  1.00  0.00     0.086 H 
ATOM     10  H   UNL     1     -46.506  35.234  26.162  1.00  0.00     0.065 H 
ATOM     11  C   UNL     1     -49.705  34.687  27.017  1.00  0.00     0.032 A 
ATOM     12  H   UNL     1     -50.500  33.946  26.993  1.00  0.00     0.084 H 
BRANCH   5  13
ATOM     13  N   UNL     1     -46.825  37.715  27.312  1.00  0.00    -0.299 N 
ATOM     14  C   UNL     1     -45.671  39.609  26.908  1.00  0.00     0.033 A 
ATOM     15  C   UNL     1     -46.696  38.800  26.465  1.00  0.00     0.021 A 
ATOM     16  C   UNL     1     -45.165  39.053  28.110  1.00  0.00     0.071 A 
ATOM     17  H   UNL     1     -47.309  38.923  25.583  1.00  0.00     0.083 H 
ATOM     18  C   UNL     1     -45.865  37.864  28.316  1.00  0.00     0.150 A 
ATOM     19  C   UNL     1     -44.209  39.396  29.083  1.00  0.00     0.137 A 
ATOM     20  N   UNL     1     -45.664  37.027  29.349  1.00  0.00    -0.218 NA
ATOM     21  N   UNL     1     -43.995  38.567  30.122  1.00  0.00    -0.219 NA
ATOM     22  C   UNL     1     -44.716  37.438  30.194  1.00  0.00     0.120 A 
ATOM     23  H   UNL     1     -44.518  36.790  31.044  1.00  0.00     0.106 H 
BRANCH  14  24
ATOM     24  C   UNL     1     -45.221  40.824  26.237  1.00  0.00     0.095 A 
ATOM     25  N   UNL     1     -45.258  42.741  25.354  1.00  0.00    -0.275 N 
ATOM     26  C   UNL     1     -43.990  42.290  25.136  1.00  0.00     0.025 A 
ATOM     27  N   UNL     1     -46.033  41.866  26.019  1.00  0.00    -0.173 NA
ATOM     28  C   UNL     1     -43.937  41.032  25.690  1.00  0.00    -0.016 A 
ATOM     29  H   UNL     1     -43.252  42.875  24.607  1.00  0.00     0.084 H 
ATOM     30  H   UNL     1     -43.092  40.356  25.692  1.00  0.00     0.066 H 
BRANCH  25  31
ATOM     31  C   UNL     1     -45.810  44.009  24.943  1.00  0.00     0.030 C 
ATOM     32  H   UNL     1     -45.927  43.998  23.856  1.00  0.00     0.048 H 
ATOM     33  H   UNL     1     -46.779  44.137  25.432  1.00  0.00     0.048 H 
ATOM     34  H   UNL     1     -45.133  44.815  25.237  1.00  0.00     0.048 H 
ENDBRANCH  25  31
ENDBRANCH  14  24
BRANCH  19  35
ATOM     35  N   UNL     1     -43.477  40.577  29.089  1.00  0.00    -0.383 N 
ATOM     36  H   UNL     1     -42.696  40.580  28.444  1.00  0.00     0.158 HD
ATOM     37  H   UNL     1     -44.106  41.369  29.015  1.00  0.00     0.158 HD
ENDBRANCH  19  35
ENDBRANCH   5  13
ENDBRANCH   1   4
BRANCH   1  38
ATOM     38  N   UNL     1     -49.266  32.437  25.380  1.00  0.00    -0.352 N 
ATOM     39  C   UNL     1     -49.196  31.721  24.198  1.00  0.00     0.226 C 
ATOM     40  H   UNL     1     -50.057  32.295  25.992  1.00  0.00     0.163 HD
ATOM     41  O   UNL     1     -48.209  31.738  23.467  1.00  0.00    -0.275 OA
BRANCH  39  42
ATOM     42  C   UNL     1     -50.432  30.900  23.890  1.00  0.00     0.069 C 
ATOM     43  H   UNL     1     -50.784  31.192  22.894  1.00  0.00     0.043 H 
ATOM     44  H   UNL     1     -51.241  31.145  24.588  1.00  0.00     0.043 H 
BRANCH  42  45
ATOM     45  C   UNL     1     -50.162  29.418  23.939  1.00  0.00     0.052 A 
ATOM     46  C   UNL     1     -50.909  28.529  23.170  1.00  0.00    -0.040 A 
ATOM     47  N   UNL     1     -49.142  29.006  24.731  1.00  0.00    -0.235 NA
ATOM     48  C   UNL     1     -50.603  27.177  23.230  1.00  0.00    -0.057 A 
ATOM     49  H   UNL     1     -51.720  28.869  22.537  1.00  0.00     0.064 H 
ATOM     50  C   UNL     1     -48.856  27.685  24.802  1.00  0.00     0.128 A 
ATOM     51  C   UNL     1     -49.566  26.750  24.053  1.00  0.00    -0.019 A 
ATOM     52  H   UNL     1     -51.173  26.457  22.650  1.00  0.00     0.062 H 
ATOM     53  H   UNL     1     -49.320  25.696  24.108  1.00  0.00     0.066 H 
BRANCH  50  54
ATOM     54  N   UNL     1     -47.810  27.264  25.645  1.00  0.00    -0.356 N 
ATOM     55  C   UNL     1     -46.837  26.254  25.347  1.00  0.00     0.021 C 
ATOM     56  C   UNL     1     -48.004  26.774  26.981  1.00  0.00     0.021 C 
ATOM     57  C   UNL     1     -46.609  26.151  26.859  1.00  0.00    -0.018 C 
ATOM     58  H   UNL     1     -47.271  25.361  24.884  1.00  0.00     0.049 H 
ATOM     59  H   UNL     1     -45.989  26.620  24.763  1.00  0.00     0.049 H 
ATOM     60  H   UNL     1     -48.109  27.568  27.724  1.00  0.00     0.049 H 
ATOM     61  H   UNL     1     -48.824  26.053  27.061  1.00  0.00     0.049 H 
ATOM     62  H   UNL     1     -45.797  26.783  27.237  1.00  0.00     0.030 H 
ATOM     63  H   UNL     1     -46.502  25.140  27.257  1.00  0.00     0.030 H 
ENDBRANCH  50  54
ENDBRANCH  42  45
ENDBRANCH  39  42
ENDBRANCH   1  38
TORSDOF 9
ENDMDL
