MODEL 1
REMARK VINA RESULT:     -10.8      0.000      0.000
REMARK SMILES CC(C)c1cc(N)c2ccc(CCc3cncc(-n4cc(C5CCCC5)c5c(N)ncnc54)c3)cc2n1
REMARK SMILES IDX 12 1 11 4 4 5 5 6 37 7 6 8 36 10 8 11 35 12 9 13 10 15 2 18
REMARK SMILES IDX 1 20 3 24 7 28 13 31 14 34 15 35 34 36 16 37 18 39 17 41
REMARK SMILES IDX 19 43 20 44 33 45 21 46 27 48 32 49 28 50 31 51 30 52 22 54
REMARK SMILES IDX 23 55 26 56 24 58 25 61 29 68
REMARK H PARENT 12 2 12 3 5 9 35 14 9 16 10 17 2 19 1 21 1 22 1 23 3 25 3 26
REMARK H PARENT 3 27 7 29 7 30 13 32 13 33 15 38 34 40 17 42 20 47 31 53 22 57
REMARK H PARENT 23 59 23 60 26 62 26 63 24 64 24 65 25 66 25 67 29 69 29 70
REMARK Flexibility Score: inf
ROOT
ATOM      1  C   UNL     1     -46.323  35.805  28.035  1.00  0.00    -0.024 C 
ATOM      2  H   UNL     1     -45.602  35.550  28.824  1.00  0.00     0.032 H 
ATOM      3  H   UNL     1     -47.313  35.724  28.504  1.00  0.00     0.032 H 
ENDROOT
BRANCH   1   4
ATOM      4  C   UNL     1     -46.073  37.232  27.612  1.00  0.00    -0.045 A 
ATOM      5  C   UNL     1     -43.323  41.114  27.937  1.00  0.00     0.046 A 
ATOM      6  C   UNL     1     -44.122  41.842  27.067  1.00  0.00    -0.017 A 
ATOM      7  N   UNL     1     -43.616  39.841  28.286  1.00  0.00    -0.252 NA
ATOM      8  C   UNL     1     -45.290  41.267  26.567  1.00  0.00     0.043 A 
ATOM      9  H   UNL     1     -43.860  42.858  26.793  1.00  0.00     0.066 H 
ATOM     10  C   UNL     1     -44.710  39.259  27.768  1.00  0.00     0.073 A 
ATOM     11  C   UNL     1     -45.584  39.918  26.879  1.00  0.00     0.023 A 
ATOM     12  C   UNL     1     -44.975  37.941  28.120  1.00  0.00    -0.032 A 
ATOM     13  C   UNL     1     -46.691  39.202  26.360  1.00  0.00    -0.050 A 
ATOM     14  H   UNL     1     -44.295  37.458  28.820  1.00  0.00     0.065 H 
ATOM     15  C   UNL     1     -46.930  37.876  26.723  1.00  0.00    -0.058 A 
ATOM     16  H   UNL     1     -47.381  39.671  25.666  1.00  0.00     0.063 H 
ATOM     17  H   UNL     1     -47.791  37.357  26.307  1.00  0.00     0.063 H 
BRANCH   5  18
ATOM     18  C   UNL     1     -42.072  41.732  28.527  1.00  0.00    -0.004 C 
ATOM     19  H   UNL     1     -42.256  42.797  28.722  1.00  0.00     0.036 H 
BRANCH  18  20
ATOM     20  C   UNL     1     -41.718  41.074  29.862  1.00  0.00    -0.057 C 
ATOM     21  H   UNL     1     -42.246  41.563  30.686  1.00  0.00     0.024 H 
ATOM     22  H   UNL     1     -42.000  40.016  29.862  1.00  0.00     0.024 H 
ATOM     23  H   UNL     1     -40.644  41.132  30.071  1.00  0.00     0.024 H 
ENDBRANCH  18  20
BRANCH  18  24
ATOM     24  C   UNL     1     -40.905  41.634  27.545  1.00  0.00    -0.057 C 
ATOM     25  H   UNL     1     -40.514  42.630  27.308  1.00  0.00     0.024 H 
ATOM     26  H   UNL     1     -40.080  41.038  27.951  1.00  0.00     0.024 H 
ATOM     27  H   UNL     1     -41.222  41.167  26.606  1.00  0.00     0.024 H 
ENDBRANCH  18  24
ENDBRANCH   5  18
BRANCH   8  28
ATOM     28  N   UNL     1     -46.007  42.007  25.597  1.00  0.00    -0.398 N 
ATOM     29  H   UNL     1     -45.417  42.194  24.789  1.00  0.00     0.156 HD
ATOM     30  H   UNL     1     -46.857  41.540  25.298  1.00  0.00     0.156 HD
ENDBRANCH   8  28
ENDBRANCH   1   4
BRANCH   1  31
ATOM     31  C   UNL     1     -46.186  34.794  26.889  1.00  0.00    -0.022 C 
ATOM     32  H   UNL     1     -45.455  34.027  27.177  1.00  0.00     0.032 H 
ATOM     33  H   UNL     1     -45.768  35.282  26.000  1.00  0.00     0.032 H 
BRANCH  31  34
ATOM     34  C   UNL     1     -47.475  34.101  26.535  1.00  0.00    -0.027 A 
ATOM     35  C   UNL     1     -48.703  34.683  26.820  1.00  0.00     0.030 A 
ATOM     36  C   UNL     1     -47.483  32.842  25.917  1.00  0.00    -0.032 A 
ATOM     37  N   UNL     1     -49.889  34.117  26.521  1.00  0.00    -0.262 NA
ATOM     38  H   UNL     1     -48.773  35.649  27.313  1.00  0.00     0.084 H 
ATOM     39  C   UNL     1     -48.696  32.213  25.600  1.00  0.00     0.066 A 
ATOM     40  H   UNL     1     -46.525  32.392  25.678  1.00  0.00     0.065 H 
ATOM     41  C   UNL     1     -49.862  32.899  25.923  1.00  0.00     0.051 A 
ATOM     42  H   UNL     1     -50.855  32.504  25.747  1.00  0.00     0.086 H 
BRANCH  39  43
ATOM     43  N   UNL     1     -48.723  30.921  24.984  1.00  0.00    -0.299 N 
ATOM     44  C   UNL     1     -48.505  29.721  25.645  1.00  0.00     0.015 A 
ATOM     45  C   UNL     1     -48.968  30.610  23.647  1.00  0.00     0.150 A 
ATOM     46  C   UNL     1     -48.596  28.658  24.765  1.00  0.00    -0.013 A 
ATOM     47  H   UNL     1     -48.317  29.699  26.707  1.00  0.00     0.083 H 
ATOM     48  C   UNL     1     -48.920  29.225  23.490  1.00  0.00     0.065 A 
ATOM     49  N   UNL     1     -49.198  31.491  22.653  1.00  0.00    -0.218 NA
ATOM     50  C   UNL     1     -49.174  28.731  22.197  1.00  0.00     0.136 A 
ATOM     51  C   UNL     1     -49.399  30.905  21.469  1.00  0.00     0.120 A 
ATOM     52  N   UNL     1     -49.410  29.593  21.193  1.00  0.00    -0.219 NA
ATOM     53  H   UNL     1     -49.581  31.570  20.630  1.00  0.00     0.106 H 
BRANCH  46  54
ATOM     54  C   UNL     1     -48.405  27.205  25.089  1.00  0.00    -0.014 C 
ATOM     55  C   UNL     1     -46.966  26.692  24.996  1.00  0.00    -0.046 C 
ATOM     56  C   UNL     1     -48.838  26.838  26.516  1.00  0.00    -0.046 C 
ATOM     57  H   UNL     1     -48.995  26.605  24.384  1.00  0.00     0.035 H 
ATOM     58  C   UNL     1     -47.027  25.386  25.773  1.00  0.00    -0.053 C 
ATOM     59  H   UNL     1     -46.249  27.368  25.474  1.00  0.00     0.027 H 
ATOM     60  H   UNL     1     -46.646  26.540  23.959  1.00  0.00     0.027 H 
ATOM     61  C   UNL     1     -47.895  25.726  26.977  1.00  0.00    -0.053 C 
ATOM     62  H   UNL     1     -49.881  26.500  26.529  1.00  0.00     0.027 H 
ATOM     63  H   UNL     1     -48.772  27.690  27.204  1.00  0.00     0.027 H 
ATOM     64  H   UNL     1     -47.510  24.609  25.169  1.00  0.00     0.027 H 
ATOM     65  H   UNL     1     -46.037  25.025  26.063  1.00  0.00     0.027 H 
ATOM     66  H   UNL     1     -47.269  26.093  27.799  1.00  0.00     0.027 H 
ATOM     67  H   UNL     1     -48.439  24.851  27.344  1.00  0.00     0.027 H 
ENDBRANCH  46  54
BRANCH  50  68
ATOM     68  N   UNL     1     -49.229  27.382  21.864  1.00  0.00    -0.383 N 
ATOM     69  H   UNL     1     -49.025  27.195  20.893  1.00  0.00     0.158 HD
ATOM     70  H   UNL     1     -48.671  26.855  22.527  1.00  0.00     0.158 HD
ENDBRANCH  50  68
ENDBRANCH  39  43
ENDBRANCH  31  34
ENDBRANCH   1  31
TORSDOF 10
ENDMDL
MODEL 2
REMARK VINA RESULT:     -10.1      1.612      2.442
REMARK SMILES CC(C)c1cc(N)c2ccc(CCc3cncc(-n4cc(C5CCCC5)c5c(N)ncnc54)c3)cc2n1
REMARK SMILES IDX 12 1 11 4 4 5 5 6 37 7 6 8 36 10 8 11 35 12 9 13 10 15 2 18
REMARK SMILES IDX 1 20 3 24 7 28 13 31 14 34 15 35 34 36 16 37 18 39 17 41
REMARK SMILES IDX 19 43 20 44 33 45 21 46 27 48 32 49 28 50 31 51 30 52 22 54
REMARK SMILES IDX 23 55 26 56 24 58 25 61 29 68
REMARK H PARENT 12 2 12 3 5 9 35 14 9 16 10 17 2 19 1 21 1 22 1 23 3 25 3 26
REMARK H PARENT 3 27 7 29 7 30 13 32 13 33 15 38 34 40 17 42 20 47 31 53 22 57
REMARK H PARENT 23 59 23 60 26 62 26 63 24 64 24 65 25 66 25 67 29 69 29 70
REMARK Flexibility Score: inf
ROOT
ATOM      1  C   UNL     1     -48.283  36.614  26.954  1.00  0.00    -0.024 C 
ATOM      2  H   UNL     1     -49.216  37.092  27.281  1.00  0.00     0.032 H 
ATOM      3  H   UNL     1     -48.295  36.665  25.857  1.00  0.00     0.032 H 
ENDROOT
BRANCH   1   4
ATOM      4  C   UNL     1     -47.127  37.423  27.491  1.00  0.00    -0.045 A 
ATOM      5  C   UNL     1     -44.234  41.176  26.959  1.00  0.00     0.046 A 
ATOM      6  C   UNL     1     -43.530  40.890  28.120  1.00  0.00    -0.017 A 
ATOM      7  N   UNL     1     -45.253  40.397  26.527  1.00  0.00    -0.252 NA
ATOM      8  C   UNL     1     -43.844  39.741  28.845  1.00  0.00     0.043 A 
ATOM      9  H   UNL     1     -42.725  41.535  28.453  1.00  0.00     0.066 H 
ATOM     10  C   UNL     1     -45.599  39.319  27.248  1.00  0.00     0.073 A 
ATOM     11  C   UNL     1     -44.941  38.945  28.438  1.00  0.00     0.023 A 
ATOM     12  C   UNL     1     -46.666  38.551  26.798  1.00  0.00    -0.032 A 
ATOM     13  C   UNL     1     -45.409  37.809  29.143  1.00  0.00    -0.050 A 
ATOM     14  H   UNL     1     -47.149  38.850  25.869  1.00  0.00     0.065 H 
ATOM     15  C   UNL     1     -46.488  37.059  28.675  1.00  0.00    -0.058 A 
ATOM     16  H   UNL     1     -44.935  37.495  30.068  1.00  0.00     0.063 H 
ATOM     17  H   UNL     1     -46.820  36.190  29.240  1.00  0.00     0.063 H 
BRANCH   5  18
ATOM     18  C   UNL     1     -43.883  42.394  26.131  1.00  0.00    -0.004 C 
ATOM     19  H   UNL     1     -44.419  43.265  26.528  1.00  0.00     0.036 H 
BRANCH  18  20
ATOM     20  C   UNL     1     -42.386  42.696  26.215  1.00  0.00    -0.057 C 
ATOM     21  H   UNL     1     -42.212  43.777  26.248  1.00  0.00     0.024 H 
ATOM     22  H   UNL     1     -41.949  42.257  27.118  1.00  0.00     0.024 H 
ATOM     23  H   UNL     1     -41.841  42.296  25.353  1.00  0.00     0.024 H 
ENDBRANCH  18  20
BRANCH  18  24
ATOM     24  C   UNL     1     -44.319  42.204  24.677  1.00  0.00    -0.057 C 
ATOM     25  H   UNL     1     -43.856  41.308  24.249  1.00  0.00     0.024 H 
ATOM     26  H   UNL     1     -45.406  42.093  24.589  1.00  0.00     0.024 H 
ATOM     27  H   UNL     1     -44.020  43.061  24.064  1.00  0.00     0.024 H 
ENDBRANCH  18  24
ENDBRANCH   5  18
BRANCH   8  28
ATOM     28  N   UNL     1     -43.175  39.556  30.079  1.00  0.00    -0.398 N 
ATOM     29  H   UNL     1     -42.758  40.432  30.389  1.00  0.00     0.156 HD
ATOM     30  H   UNL     1     -43.785  39.193  30.805  1.00  0.00     0.156 HD
ENDBRANCH   8  28
ENDBRANCH   1   4
BRANCH   1  31
ATOM     31  C   UNL     1     -48.279  35.154  27.425  1.00  0.00    -0.022 C 
ATOM     32  H   UNL     1     -49.304  34.864  27.691  1.00  0.00     0.032 H 
ATOM     33  H   UNL     1     -47.695  35.054  28.348  1.00  0.00     0.032 H 
BRANCH  31  34
ATOM     34  C   UNL     1     -47.773  34.184  26.390  1.00  0.00    -0.027 A 
ATOM     35  C   UNL     1     -46.677  34.494  25.595  1.00  0.00     0.030 A 
ATOM     36  C   UNL     1     -48.394  32.944  26.185  1.00  0.00    -0.032 A 
ATOM     37  N   UNL     1     -46.172  33.666  24.659  1.00  0.00    -0.262 NA
ATOM     38  H   UNL     1     -46.158  35.443  25.688  1.00  0.00     0.084 H 
ATOM     39  C   UNL     1     -47.907  32.058  25.211  1.00  0.00     0.066 A 
ATOM     40  H   UNL     1     -49.240  32.693  26.815  1.00  0.00     0.065 H 
ATOM     41  C   UNL     1     -46.796  32.473  24.485  1.00  0.00     0.051 A 
ATOM     42  H   UNL     1     -46.346  31.884  23.695  1.00  0.00     0.086 H 
BRANCH  39  43
ATOM     43  N   UNL     1     -48.538  30.795  24.977  1.00  0.00    -0.299 N 
ATOM     44  C   UNL     1     -47.994  29.562  25.303  1.00  0.00     0.015 A 
ATOM     45  C   UNL     1     -49.783  30.549  24.400  1.00  0.00     0.150 A 
ATOM     46  C   UNL     1     -48.852  28.539  24.942  1.00  0.00    -0.013 A 
ATOM     47  H   UNL     1     -47.033  29.491  25.789  1.00  0.00     0.083 H 
ATOM     48  C   UNL     1     -50.012  29.173  24.389  1.00  0.00     0.065 A 
ATOM     49  N   UNL     1     -50.633  31.475  23.912  1.00  0.00    -0.218 NA
ATOM     50  C   UNL     1     -51.245  28.746  23.861  1.00  0.00     0.136 A 
ATOM     51  C   UNL     1     -51.756  30.947  23.416  1.00  0.00     0.120 A 
ATOM     52  N   UNL     1     -52.107  29.654  23.374  1.00  0.00    -0.219 NA
ATOM     53  H   UNL     1     -52.473  31.649  23.002  1.00  0.00     0.106 H 
BRANCH  46  54
ATOM     54  C   UNL     1     -48.617  27.067  25.111  1.00  0.00    -0.014 C 
ATOM     55  C   UNL     1     -47.149  26.639  25.191  1.00  0.00    -0.046 C 
ATOM     56  C   UNL     1     -49.240  26.494  26.391  1.00  0.00    -0.046 C 
ATOM     57  H   UNL     1     -49.048  26.538  24.250  1.00  0.00     0.035 H 
ATOM     58  C   UNL     1     -47.242  25.241  25.780  1.00  0.00    -0.053 C 
ATOM     59  H   UNL     1     -46.563  27.279  25.859  1.00  0.00     0.027 H 
ATOM     60  H   UNL     1     -46.662  26.642  24.210  1.00  0.00     0.027 H 
ATOM     61  C   UNL     1     -48.307  25.375  26.859  1.00  0.00    -0.053 C 
ATOM     62  H   UNL     1     -50.247  26.108  26.192  1.00  0.00     0.027 H 
ATOM     63  H   UNL     1     -49.340  27.249  27.181  1.00  0.00     0.027 H 
ATOM     64  H   UNL     1     -47.570  24.528  25.014  1.00  0.00     0.027 H 
ATOM     65  H   UNL     1     -46.286  24.891  26.181  1.00  0.00     0.027 H 
ATOM     66  H   UNL     1     -47.843  25.660  27.811  1.00  0.00     0.027 H 
ATOM     67  H   UNL     1     -48.841  24.435  27.021  1.00  0.00     0.027 H 
ENDBRANCH  46  54
BRANCH  50  68
ATOM     68  N   UNL     1     -51.671  27.422  23.824  1.00  0.00    -0.383 N 
ATOM     69  H   UNL     1     -50.933  26.754  23.994  1.00  0.00     0.158 HD
ATOM     70  H   UNL     1     -52.486  27.321  24.421  1.00  0.00     0.158 HD
ENDBRANCH  50  68
ENDBRANCH  39  43
ENDBRANCH  31  34
ENDBRANCH   1  31
TORSDOF 10
ENDMDL
MODEL 3
REMARK VINA RESULT:     -10.1      2.055     12.229
REMARK SMILES CC(C)c1cc(N)c2ccc(CCc3cncc(-n4cc(C5CCCC5)c5c(N)ncnc54)c3)cc2n1
REMARK SMILES IDX 12 1 11 4 4 5 5 6 37 7 6 8 36 10 8 11 35 12 9 13 10 15 2 18
REMARK SMILES IDX 1 20 3 24 7 28 13 31 14 34 15 35 34 36 16 37 18 39 17 41
REMARK SMILES IDX 19 43 20 44 33 45 21 46 27 48 32 49 28 50 31 51 30 52 22 54
REMARK SMILES IDX 23 55 26 56 24 58 25 61 29 68
REMARK H PARENT 12 2 12 3 5 9 35 14 9 16 10 17 2 19 1 21 1 22 1 23 3 25 3 26
REMARK H PARENT 3 27 7 29 7 30 13 32 13 33 15 38 34 40 17 42 20 47 31 53 22 57
REMARK H PARENT 23 59 23 60 26 62 26 63 24 64 24 65 25 66 25 67 29 69 29 70
REMARK Flexibility Score: inf
ROOT
ATOM      1  C   UNL     1     -48.579  34.804  26.860  1.00  0.00    -0.024 C 
ATOM      2  H   UNL     1     -49.012  35.575  26.209  1.00  0.00     0.032 H 
ATOM      3  H   UNL     1     -49.417  34.412  27.451  1.00  0.00     0.032 H 
ENDROOT
BRANCH   1   4
ATOM      4  C   UNL     1     -48.015  33.710  25.985  1.00  0.00    -0.045 A 
ATOM      5  C   UNL     1     -48.624  29.428  23.980  1.00  0.00     0.046 A 
ATOM      6  C   UNL     1     -47.378  29.454  23.371  1.00  0.00    -0.017 A 
ATOM      7  N   UNL     1     -49.062  30.438  24.767  1.00  0.00    -0.252 NA
ATOM      8  C   UNL     1     -46.524  30.530  23.608  1.00  0.00     0.043 A 
ATOM      9  H   UNL     1     -47.055  28.638  22.735  1.00  0.00     0.066 H 
ATOM     10  C   UNL     1     -48.268  31.504  24.957  1.00  0.00     0.073 A 
ATOM     11  C   UNL     1     -46.985  31.621  24.385  1.00  0.00     0.023 A 
ATOM     12  C   UNL     1     -48.750  32.541  25.747  1.00  0.00    -0.032 A 
ATOM     13  C   UNL     1     -46.242  32.804  24.619  1.00  0.00    -0.050 A 
ATOM     14  H   UNL     1     -49.737  32.422  26.192  1.00  0.00     0.065 H 
ATOM     15  C   UNL     1     -46.752  33.835  25.409  1.00  0.00    -0.058 A 
ATOM     16  H   UNL     1     -45.255  32.936  24.187  1.00  0.00     0.063 H 
ATOM     17  H   UNL     1     -46.154  34.729  25.570  1.00  0.00     0.063 H 
BRANCH   5  18
ATOM     18  C   UNL     1     -49.554  28.249  23.773  1.00  0.00    -0.004 C 
ATOM     19  H   UNL     1     -49.049  27.500  23.148  1.00  0.00     0.036 H 
BRANCH  18  20
ATOM     20  C   UNL     1     -49.894  27.583  25.108  1.00  0.00    -0.057 C 
ATOM     21  H   UNL     1     -50.948  27.741  25.359  1.00  0.00     0.024 H 
ATOM     22  H   UNL     1     -49.716  26.503  25.062  1.00  0.00     0.024 H 
ATOM     23  H   UNL     1     -49.290  27.985  25.928  1.00  0.00     0.024 H 
ENDBRANCH  18  20
BRANCH  18  24
ATOM     24  C   UNL     1     -50.824  28.684  23.042  1.00  0.00    -0.057 C 
ATOM     25  H   UNL     1     -50.632  28.803  21.970  1.00  0.00     0.024 H 
ATOM     26  H   UNL     1     -51.631  27.951  23.158  1.00  0.00     0.024 H 
ATOM     27  H   UNL     1     -51.188  29.643  23.426  1.00  0.00     0.024 H 
ENDBRANCH  18  24
ENDBRANCH   5  18
BRANCH   8  28
ATOM     28  N   UNL     1     -45.314  30.565  22.875  1.00  0.00    -0.398 N 
ATOM     29  H   UNL     1     -45.436  31.100  22.018  1.00  0.00     0.156 HD
ATOM     30  H   UNL     1     -44.542  30.949  23.411  1.00  0.00     0.156 HD
ENDBRANCH   8  28
ENDBRANCH   1   4
BRANCH   1  31
ATOM     31  C   UNL     1     -47.533  35.454  27.776  1.00  0.00    -0.022 C 
ATOM     32  H   UNL     1     -46.531  35.172  27.426  1.00  0.00     0.032 H 
ATOM     33  H   UNL     1     -47.616  35.053  28.793  1.00  0.00     0.032 H 
BRANCH  31  34
ATOM     34  C   UNL     1     -47.609  36.958  27.810  1.00  0.00    -0.027 A 
ATOM     35  C   UNL     1     -48.824  37.609  27.981  1.00  0.00     0.030 A 
ATOM     36  C   UNL     1     -46.464  37.752  27.660  1.00  0.00    -0.032 A 
ATOM     37  N   UNL     1     -48.956  38.950  28.029  1.00  0.00    -0.262 NA
ATOM     38  H   UNL     1     -49.754  37.058  28.087  1.00  0.00     0.084 H 
ATOM     39  C   UNL     1     -46.559  39.152  27.692  1.00  0.00     0.066 A 
ATOM     40  H   UNL     1     -45.511  37.246  27.543  1.00  0.00     0.065 H 
ATOM     41  C   UNL     1     -47.828  39.690  27.881  1.00  0.00     0.051 A 
ATOM     42  H   UNL     1     -48.028  40.754  27.901  1.00  0.00     0.086 H 
BRANCH  39  43
ATOM     43  N   UNL     1     -45.403  39.978  27.524  1.00  0.00    -0.299 N 
ATOM     44  C   UNL     1     -45.211  40.876  26.484  1.00  0.00     0.015 A 
ATOM     45  C   UNL     1     -44.275  40.055  28.340  1.00  0.00     0.150 A 
ATOM     46  C   UNL     1     -43.990  41.513  26.611  1.00  0.00    -0.013 A 
ATOM     47  H   UNL     1     -45.967  41.016  25.727  1.00  0.00     0.083 H 
ATOM     48  C   UNL     1     -43.402  41.008  27.815  1.00  0.00     0.065 A 
ATOM     49  N   UNL     1     -44.041  39.323  29.448  1.00  0.00    -0.218 NA
ATOM     50  C   UNL     1     -42.214  41.236  28.535  1.00  0.00     0.136 A 
ATOM     51  C   UNL     1     -42.872  39.610  30.029  1.00  0.00     0.120 A 
ATOM     52  N   UNL     1     -41.965  40.520  29.645  1.00  0.00    -0.219 NA
ATOM     53  H   UNL     1     -42.629  39.043  30.923  1.00  0.00     0.106 H 
BRANCH  46  54
ATOM     54  C   UNL     1     -43.411  42.537  25.679  1.00  0.00    -0.014 C 
ATOM     55  C   UNL     1     -44.039  42.588  24.283  1.00  0.00    -0.046 C 
ATOM     56  C   UNL     1     -43.542  43.976  26.197  1.00  0.00    -0.046 C 
ATOM     57  H   UNL     1     -42.345  42.319  25.531  1.00  0.00     0.035 H 
ATOM     58  C   UNL     1     -43.579  43.940  23.761  1.00  0.00    -0.053 C 
ATOM     59  H   UNL     1     -45.134  42.562  24.316  1.00  0.00     0.027 H 
ATOM     60  H   UNL     1     -43.702  41.763  23.646  1.00  0.00     0.027 H 
ATOM     61  C   UNL     1     -43.732  44.860  24.963  1.00  0.00    -0.053 C 
ATOM     62  H   UNL     1     -42.646  44.268  26.756  1.00  0.00     0.027 H 
ATOM     63  H   UNL     1     -44.395  44.099  26.877  1.00  0.00     0.027 H 
ATOM     64  H   UNL     1     -42.527  43.890  23.456  1.00  0.00     0.027 H 
ATOM     65  H   UNL     1     -44.166  44.278  22.902  1.00  0.00     0.027 H 
ATOM     66  H   UNL     1     -44.738  45.297  24.976  1.00  0.00     0.027 H 
ATOM     67  H   UNL     1     -43.015  45.686  24.935  1.00  0.00     0.027 H 
ENDBRANCH  46  54
BRANCH  50  68
ATOM     68  N   UNL     1     -41.258  42.188  28.199  1.00  0.00    -0.383 N 
ATOM     69  H   UNL     1     -41.099  42.270  27.205  1.00  0.00     0.158 HD
ATOM     70  H   UNL     1     -41.480  43.059  28.669  1.00  0.00     0.158 HD
ENDBRANCH  50  68
ENDBRANCH  39  43
ENDBRANCH  31  34
ENDBRANCH   1  31
TORSDOF 10
ENDMDL
MODEL 4
REMARK VINA RESULT:     -10.0      1.802      2.651
REMARK SMILES CC(C)c1cc(N)c2ccc(CCc3cncc(-n4cc(C5CCCC5)c5c(N)ncnc54)c3)cc2n1
REMARK SMILES IDX 12 1 11 4 4 5 5 6 37 7 6 8 36 10 8 11 35 12 9 13 10 15 2 18
REMARK SMILES IDX 1 20 3 24 7 28 13 31 14 34 15 35 34 36 16 37 18 39 17 41
REMARK SMILES IDX 19 43 20 44 33 45 21 46 27 48 32 49 28 50 31 51 30 52 22 54
REMARK SMILES IDX 23 55 26 56 24 58 25 61 29 68
REMARK H PARENT 12 2 12 3 5 9 35 14 9 16 10 17 2 19 1 21 1 22 1 23 3 25 3 26
REMARK H PARENT 3 27 7 29 7 30 13 32 13 33 15 38 34 40 17 42 20 47 31 53 22 57
REMARK H PARENT 23 59 23 60 26 62 26 63 24 64 24 65 25 66 25 67 29 69 29 70
REMARK Flexibility Score: inf
ROOT
ATOM      1  C   UNL     1     -47.034  37.410  27.314  1.00  0.00    -0.024 C 
ATOM      2  H   UNL     1     -47.668  37.320  28.206  1.00  0.00     0.032 H 
ATOM      3  H   UNL     1     -47.691  37.796  26.524  1.00  0.00     0.032 H 
ENDROOT
BRANCH   1   4
ATOM      4  C   UNL     1     -45.946  38.414  27.609  1.00  0.00    -0.045 A 
ATOM      5  C   UNL     1     -43.505  42.255  26.188  1.00  0.00     0.046 A 
ATOM      6  C   UNL     1     -42.716  42.266  27.329  1.00  0.00    -0.017 A 
ATOM      7  N   UNL     1     -44.454  41.315  25.980  1.00  0.00    -0.252 NA
ATOM      8  C   UNL     1     -42.867  41.253  28.275  1.00  0.00     0.043 A 
ATOM      9  H   UNL     1     -41.968  43.038  27.479  1.00  0.00     0.066 H 
ATOM     10  C   UNL     1     -44.645  40.366  26.911  1.00  0.00     0.073 A 
ATOM     11  C   UNL     1     -43.891  40.292  28.101  1.00  0.00     0.023 A 
ATOM     12  C   UNL     1     -45.645  39.427  26.688  1.00  0.00    -0.032 A 
ATOM     13  C   UNL     1     -44.197  39.273  29.036  1.00  0.00    -0.050 A 
ATOM     14  H   UNL     1     -46.204  39.495  25.756  1.00  0.00     0.065 H 
ATOM     15  C   UNL     1     -45.212  38.346  28.792  1.00  0.00    -0.058 A 
ATOM     16  H   UNL     1     -43.646  39.189  29.967  1.00  0.00     0.063 H 
ATOM     17  H   UNL     1     -45.419  37.575  29.530  1.00  0.00     0.063 H 
BRANCH   5  18
ATOM     18  C   UNL     1     -43.329  43.321  25.125  1.00  0.00    -0.004 C 
ATOM     19  H   UNL     1     -43.783  44.257  25.477  1.00  0.00     0.036 H 
BRANCH  18  20
ATOM     20  C   UNL     1     -41.846  43.594  24.868  1.00  0.00    -0.057 C 
ATOM     21  H   UNL     1     -41.720  44.240  23.993  1.00  0.00     0.024 H 
ATOM     22  H   UNL     1     -41.387  44.096  25.726  1.00  0.00     0.024 H 
ATOM     23  H   UNL     1     -41.288  42.669  24.685  1.00  0.00     0.024 H 
ENDBRANCH  18  20
BRANCH  18  24
ATOM     24  C   UNL     1     -44.040  42.917  23.833  1.00  0.00    -0.057 C 
ATOM     25  H   UNL     1     -43.405  42.258  23.232  1.00  0.00     0.024 H 
ATOM     26  H   UNL     1     -44.979  42.387  24.033  1.00  0.00     0.024 H 
ATOM     27  H   UNL     1     -44.278  43.798  23.226  1.00  0.00     0.024 H 
ENDBRANCH  18  24
ENDBRANCH   5  18
BRANCH   8  28
ATOM     28  N   UNL     1     -42.120  41.373  29.472  1.00  0.00    -0.398 N 
ATOM     29  H   UNL     1     -41.951  42.354  29.685  1.00  0.00     0.156 HD
ATOM     30  H   UNL     1     -42.571  40.924  30.262  1.00  0.00     0.156 HD
ENDBRANCH   8  28
ENDBRANCH   1   4
BRANCH   1  31
ATOM     31  C   UNL     1     -46.500  36.021  26.940  1.00  0.00    -0.022 C 
ATOM     32  H   UNL     1     -45.885  35.643  27.768  1.00  0.00     0.032 H 
ATOM     33  H   UNL     1     -45.824  36.093  26.079  1.00  0.00     0.032 H 
BRANCH  31  34
ATOM     34  C   UNL     1     -47.581  35.011  26.661  1.00  0.00    -0.027 A 
ATOM     35  C   UNL     1     -48.905  35.269  26.993  1.00  0.00     0.030 A 
ATOM     36  C   UNL     1     -47.290  33.774  26.068  1.00  0.00    -0.032 A 
ATOM     37  N   UNL     1     -49.917  34.409  26.761  1.00  0.00    -0.262 NA
ATOM     38  H   UNL     1     -49.199  36.199  27.470  1.00  0.00     0.084 H 
ATOM     39  C   UNL     1     -48.314  32.846  25.821  1.00  0.00     0.066 A 
ATOM     40  H   UNL     1     -46.260  33.576  25.793  1.00  0.00     0.065 H 
ATOM     41  C   UNL     1     -49.602  33.221  26.186  1.00  0.00     0.051 A 
ATOM     42  H   UNL     1     -50.467  32.580  26.064  1.00  0.00     0.086 H 
BRANCH  39  43
ATOM     43  N   UNL     1     -48.033  31.572  25.232  1.00  0.00    -0.299 N 
ATOM     44  C   UNL     1     -48.547  30.362  25.673  1.00  0.00     0.015 A 
ATOM     45  C   UNL     1     -47.222  31.293  24.132  1.00  0.00     0.150 A 
ATOM     46  C   UNL     1     -48.078  29.320  24.892  1.00  0.00    -0.013 A 
ATOM     47  H   UNL     1     -49.229  30.321  26.507  1.00  0.00     0.083 H 
ATOM     48  C   UNL     1     -47.252  29.920  23.887  1.00  0.00     0.065 A 
ATOM     49  N   UNL     1     -46.506  32.187  23.422  1.00  0.00    -0.218 NA
ATOM     50  C   UNL     1     -46.503  29.462  22.787  1.00  0.00     0.136 A 
ATOM     51  C   UNL     1     -45.818  31.631  22.420  1.00  0.00     0.120 A 
ATOM     52  N   UNL     1     -45.787  30.339  22.063  1.00  0.00    -0.219 NA
ATOM     53  H   UNL     1     -45.216  32.306  21.819  1.00  0.00     0.106 H 
BRANCH  46  54
ATOM     54  C   UNL     1     -48.388  27.862  25.061  1.00  0.00    -0.014 C 
ATOM     55  C   UNL     1     -48.774  27.429  26.478  1.00  0.00    -0.046 C 
ATOM     56  C   UNL     1     -49.563  27.386  24.195  1.00  0.00    -0.046 C 
ATOM     57  H   UNL     1     -47.500  27.277  24.788  1.00  0.00     0.035 H 
ATOM     58  C   UNL     1     -49.429  26.077  26.246  1.00  0.00    -0.053 C 
ATOM     59  H   UNL     1     -49.496  28.110  26.941  1.00  0.00     0.027 H 
ATOM     60  H   UNL     1     -47.905  27.359  27.141  1.00  0.00     0.027 H 
ATOM     61  C   UNL     1     -50.275  26.296  25.000  1.00  0.00    -0.053 C 
ATOM     62  H   UNL     1     -49.204  26.995  23.236  1.00  0.00     0.027 H 
ATOM     63  H   UNL     1     -50.267  28.195  23.964  1.00  0.00     0.027 H 
ATOM     64  H   UNL     1     -48.664  25.314  26.053  1.00  0.00     0.027 H 
ATOM     65  H   UNL     1     -50.026  25.749  27.101  1.00  0.00     0.027 H 
ATOM     66  H   UNL     1     -51.276  26.643  25.282  1.00  0.00     0.027 H 
ATOM     67  H   UNL     1     -50.396  25.373  24.425  1.00  0.00     0.027 H 
ENDBRANCH  46  54
BRANCH  50  68
ATOM     68  N   UNL     1     -46.462  28.141  22.354  1.00  0.00    -0.383 N 
ATOM     69  H   UNL     1     -45.603  27.894  21.884  1.00  0.00     0.158 HD
ATOM     70  H   UNL     1     -46.717  27.533  23.126  1.00  0.00     0.158 HD
ENDBRANCH  50  68
ENDBRANCH  39  43
ENDBRANCH  31  34
ENDBRANCH   1  31
TORSDOF 10
ENDMDL
MODEL 5
REMARK VINA RESULT:      -9.8      1.805      2.489
REMARK SMILES CC(C)c1cc(N)c2ccc(CCc3cncc(-n4cc(C5CCCC5)c5c(N)ncnc54)c3)cc2n1
REMARK SMILES IDX 12 1 11 4 4 5 5 6 37 7 6 8 36 10 8 11 35 12 9 13 10 15 2 18
REMARK SMILES IDX 1 20 3 24 7 28 13 31 14 34 15 35 34 36 16 37 18 39 17 41
REMARK SMILES IDX 19 43 20 44 33 45 21 46 27 48 32 49 28 50 31 51 30 52 22 54
REMARK SMILES IDX 23 55 26 56 24 58 25 61 29 68
REMARK H PARENT 12 2 12 3 5 9 35 14 9 16 10 17 2 19 1 21 1 22 1 23 3 25 3 26
REMARK H PARENT 3 27 7 29 7 30 13 32 13 33 15 38 34 40 17 42 20 47 31 53 22 57
REMARK H PARENT 23 59 23 60 26 62 26 63 24 64 24 65 25 66 25 67 29 69 29 70
REMARK Flexibility Score: inf
ROOT
ATOM      1  C   UNL     1     -47.457  37.159  28.216  1.00  0.00    -0.024 C 
ATOM      2  H   UNL     1     -46.707  36.554  28.745  1.00  0.00     0.032 H 
ATOM      3  H   UNL     1     -48.199  37.438  28.976  1.00  0.00     0.032 H 
ENDROOT
BRANCH   1   4
ATOM      4  C   UNL     1     -46.774  38.398  27.688  1.00  0.00    -0.045 A 
ATOM      5  C   UNL     1     -43.047  41.362  27.919  1.00  0.00     0.046 A 
ATOM      6  C   UNL     1     -43.538  42.175  26.909  1.00  0.00    -0.017 A 
ATOM      7  N   UNL     1     -43.720  40.272  28.356  1.00  0.00    -0.252 NA
ATOM      8  C   UNL     1     -44.785  41.897  26.352  1.00  0.00     0.043 A 
ATOM      9  H   UNL     1     -42.975  43.037  26.568  1.00  0.00     0.066 H 
ATOM     10  C   UNL     1     -44.896  39.964  27.788  1.00  0.00     0.073 A 
ATOM     11  C   UNL     1     -45.479  40.732  26.758  1.00  0.00     0.023 A 
ATOM     12  C   UNL     1     -45.555  38.825  28.234  1.00  0.00    -0.032 A 
ATOM     13  C   UNL     1     -46.707  40.298  26.201  1.00  0.00    -0.050 A 
ATOM     14  H   UNL     1     -45.095  38.257  29.040  1.00  0.00     0.065 H 
ATOM     15  C   UNL     1     -47.345  39.146  26.661  1.00  0.00    -0.058 A 
ATOM     16  H   UNL     1     -47.182  40.856  25.400  1.00  0.00     0.063 H 
ATOM     17  H   UNL     1     -48.289  38.843  26.212  1.00  0.00     0.063 H 
BRANCH   5  18
ATOM     18  C   UNL     1     -41.714  41.669  28.571  1.00  0.00    -0.004 C 
ATOM     19  H   UNL     1     -41.658  42.745  28.783  1.00  0.00     0.036 H 
BRANCH  18  20
ATOM     20  C   UNL     1     -41.576  40.929  29.902  1.00  0.00    -0.057 C 
ATOM     21  H   UNL     1     -42.560  40.647  30.291  1.00  0.00     0.024 H 
ATOM     22  H   UNL     1     -40.987  40.013  29.781  1.00  0.00     0.024 H 
ATOM     23  H   UNL     1     -41.080  41.545  30.661  1.00  0.00     0.024 H 
ENDBRANCH  18  20
BRANCH  18  24
ATOM     24  C   UNL     1     -40.559  41.320  27.631  1.00  0.00    -0.057 C 
ATOM     25  H   UNL     1     -39.596  41.460  28.134  1.00  0.00     0.024 H 
ATOM     26  H   UNL     1     -40.611  40.279  27.292  1.00  0.00     0.024 H 
ATOM     27  H   UNL     1     -40.570  41.960  26.743  1.00  0.00     0.024 H 
ENDBRANCH  18  24
ENDBRANCH   5  18
BRANCH   8  28
ATOM     28  N   UNL     1     -45.189  42.687  25.249  1.00  0.00    -0.398 N 
ATOM     29  H   UNL     1     -46.156  42.984  25.363  1.00  0.00     0.156 HD
ATOM     30  H   UNL     1     -44.596  43.500  25.112  1.00  0.00     0.156 HD
ENDBRANCH   8  28
ENDBRANCH   1   4
BRANCH   1  31
ATOM     31  C   UNL     1     -48.104  36.303  27.120  1.00  0.00    -0.022 C 
ATOM     32  H   UNL     1     -47.937  36.785  26.148  1.00  0.00     0.032 H 
ATOM     33  H   UNL     1     -49.192  36.273  27.253  1.00  0.00     0.032 H 
BRANCH  31  34
ATOM     34  C   UNL     1     -47.559  34.901  27.045  1.00  0.00    -0.027 A 
ATOM     35  C   UNL     1     -46.553  34.477  27.904  1.00  0.00     0.030 A 
ATOM     36  C   UNL     1     -48.037  33.980  26.102  1.00  0.00    -0.032 A 
ATOM     37  N   UNL     1     -46.031  33.234  27.891  1.00  0.00    -0.262 NA
ATOM     38  H   UNL     1     -46.124  35.142  28.648  1.00  0.00     0.084 H 
ATOM     39  C   UNL     1     -47.512  32.680  26.047  1.00  0.00     0.066 A 
ATOM     40  H   UNL     1     -48.834  34.303  25.441  1.00  0.00     0.065 H 
ATOM     41  C   UNL     1     -46.516  32.367  26.967  1.00  0.00     0.051 A 
ATOM     42  H   UNL     1     -46.021  31.404  27.006  1.00  0.00     0.086 H 
BRANCH  39  43
ATOM     43  N   UNL     1     -47.977  31.732  25.081  1.00  0.00    -0.299 N 
ATOM     44  C   UNL     1     -49.119  30.957  25.214  1.00  0.00     0.015 A 
ATOM     45  C   UNL     1     -47.406  31.406  23.852  1.00  0.00     0.150 A 
ATOM     46  C   UNL     1     -49.285  30.141  24.109  1.00  0.00    -0.013 A 
ATOM     47  H   UNL     1     -49.753  31.049  26.082  1.00  0.00     0.083 H 
ATOM     48  C   UNL     1     -48.203  30.449  23.223  1.00  0.00     0.065 A 
ATOM     49  N   UNL     1     -46.262  31.910  23.345  1.00  0.00    -0.218 NA
ATOM     50  C   UNL     1     -47.784  30.023  21.949  1.00  0.00     0.136 A 
ATOM     51  C   UNL     1     -45.956  31.411  22.143  1.00  0.00     0.120 A 
ATOM     52  N   UNL     1     -46.650  30.517  21.425  1.00  0.00    -0.219 NA
ATOM     53  H   UNL     1     -45.039  31.777  21.692  1.00  0.00     0.106 H 
BRANCH  46  54
ATOM     54  C   UNL     1     -50.387  29.148  23.885  1.00  0.00    -0.014 C 
ATOM     55  C   UNL     1     -51.225  29.366  22.622  1.00  0.00    -0.046 C 
ATOM     56  C   UNL     1     -49.886  27.703  23.751  1.00  0.00    -0.046 C 
ATOM     57  H   UNL     1     -51.084  29.194  24.732  1.00  0.00     0.035 H 
ATOM     58  C   UNL     1     -51.919  28.025  22.447  1.00  0.00    -0.053 C 
ATOM     59  H   UNL     1     -50.608  29.576  21.742  1.00  0.00     0.027 H 
ATOM     60  H   UNL     1     -51.940  30.188  22.736  1.00  0.00     0.027 H 
ATOM     61  C   UNL     1     -50.827  27.012  22.762  1.00  0.00    -0.053 C 
ATOM     62  H   UNL     1     -49.898  27.198  24.724  1.00  0.00     0.027 H 
ATOM     63  H   UNL     1     -48.854  27.651  23.379  1.00  0.00     0.027 H 
ATOM     64  H   UNL     1     -52.741  27.927  23.165  1.00  0.00     0.027 H 
ATOM     65  H   UNL     1     -52.329  27.894  21.441  1.00  0.00     0.027 H 
ATOM     66  H   UNL     1     -50.276  26.757  21.849  1.00  0.00     0.027 H 
ATOM     67  H   UNL     1     -51.240  26.084  23.168  1.00  0.00     0.027 H 
ENDBRANCH  46  54
BRANCH  50  68
ATOM     68  N   UNL     1     -48.483  29.124  21.149  1.00  0.00    -0.383 N 
ATOM     69  H   UNL     1     -48.746  28.275  21.628  1.00  0.00     0.158 HD
ATOM     70  H   UNL     1     -49.247  29.612  20.693  1.00  0.00     0.158 HD
ENDBRANCH  50  68
ENDBRANCH  39  43
ENDBRANCH  31  34
ENDBRANCH   1  31
TORSDOF 10
ENDMDL
MODEL 6
REMARK VINA RESULT:      -9.6      2.309      3.413
REMARK SMILES CC(C)c1cc(N)c2ccc(CCc3cncc(-n4cc(C5CCCC5)c5c(N)ncnc54)c3)cc2n1
REMARK SMILES IDX 12 1 11 4 4 5 5 6 37 7 6 8 36 10 8 11 35 12 9 13 10 15 2 18
REMARK SMILES IDX 1 20 3 24 7 28 13 31 14 34 15 35 34 36 16 37 18 39 17 41
REMARK SMILES IDX 19 43 20 44 33 45 21 46 27 48 32 49 28 50 31 51 30 52 22 54
REMARK SMILES IDX 23 55 26 56 24 58 25 61 29 68
REMARK H PARENT 12 2 12 3 5 9 35 14 9 16 10 17 2 19 1 21 1 22 1 23 3 25 3 26
REMARK H PARENT 3 27 7 29 7 30 13 32 13 33 15 38 34 40 17 42 20 47 31 53 22 57
REMARK H PARENT 23 59 23 60 26 62 26 63 24 64 24 65 25 66 25 67 29 69 29 70
REMARK Flexibility Score: inf
ROOT
ATOM      1  C   UNL     1     -46.453  36.959  28.155  1.00  0.00    -0.024 C 
ATOM      2  H   UNL     1     -46.229  36.193  28.910  1.00  0.00     0.032 H 
ATOM      3  H   UNL     1     -47.469  37.306  28.381  1.00  0.00     0.032 H 
ENDROOT
BRANCH   1   4
ATOM      4  C   UNL     1     -45.473  38.094  28.331  1.00  0.00    -0.045 A 
ATOM      5  C   UNL     1     -43.648  42.152  26.617  1.00  0.00     0.046 A 
ATOM      6  C   UNL     1     -42.771  42.293  27.683  1.00  0.00    -0.017 A 
ATOM      7  N   UNL     1     -44.491  41.099  26.515  1.00  0.00    -0.252 NA
ATOM      8  C   UNL     1     -42.716  41.299  28.659  1.00  0.00     0.043 A 
ATOM      9  H   UNL     1     -42.113  43.152  27.749  1.00  0.00     0.066 H 
ATOM     10  C   UNL     1     -44.485  40.164  27.479  1.00  0.00     0.073 A 
ATOM     11  C   UNL     1     -43.627  40.218  28.597  1.00  0.00     0.023 A 
ATOM     12  C   UNL     1     -45.378  39.106  27.366  1.00  0.00    -0.032 A 
ATOM     13  C   UNL     1     -43.725  39.199  29.577  1.00  0.00    -0.050 A 
ATOM     14  H   UNL     1     -46.019  39.077  26.486  1.00  0.00     0.065 H 
ATOM     15  C   UNL     1     -44.637  38.151  29.444  1.00  0.00    -0.058 A 
ATOM     16  H   UNL     1     -43.089  39.211  30.457  1.00  0.00     0.063 H 
ATOM     17  H   UNL     1     -44.684  37.384  30.214  1.00  0.00     0.063 H 
BRANCH   5  18
ATOM     18  C   UNL     1     -43.696  43.196  25.521  1.00  0.00    -0.004 C 
ATOM     19  H   UNL     1     -44.495  43.916  25.745  1.00  0.00     0.036 H 
BRANCH  18  20
ATOM     20  C   UNL     1     -42.381  43.974  25.452  1.00  0.00    -0.057 C 
ATOM     21  H   UNL     1     -42.572  45.052  25.410  1.00  0.00     0.024 H 
ATOM     22  H   UNL     1     -41.763  43.776  26.335  1.00  0.00     0.024 H 
ATOM     23  H   UNL     1     -41.794  43.703  24.568  1.00  0.00     0.024 H 
ENDBRANCH  18  20
BRANCH  18  24
ATOM     24  C   UNL     1     -44.017  42.551  24.172  1.00  0.00    -0.057 C 
ATOM     25  H   UNL     1     -43.498  41.591  24.070  1.00  0.00     0.024 H 
ATOM     26  H   UNL     1     -45.091  42.364  24.055  1.00  0.00     0.024 H 
ATOM     27  H   UNL     1     -43.699  43.194  23.345  1.00  0.00     0.024 H 
ENDBRANCH  18  24
ENDBRANCH   5  18
BRANCH   8  28
ATOM     28  N   UNL     1     -41.888  41.545  29.781  1.00  0.00    -0.398 N 
ATOM     29  H   UNL     1     -42.190  42.390  30.263  1.00  0.00     0.156 HD
ATOM     30  H   UNL     1     -41.871  40.767  30.433  1.00  0.00     0.156 HD
ENDBRANCH   8  28
ENDBRANCH   1   4
BRANCH   1  31
ATOM     31  C   UNL     1     -46.400  36.316  26.763  1.00  0.00    -0.022 C 
ATOM     32  H   UNL     1     -45.442  36.570  26.290  1.00  0.00     0.032 H 
ATOM     33  H   UNL     1     -47.173  36.747  26.115  1.00  0.00     0.032 H 
BRANCH  31  34
ATOM     34  C   UNL     1     -46.527  34.815  26.783  1.00  0.00    -0.027 A 
ATOM     35  C   UNL     1     -46.109  34.077  27.882  1.00  0.00     0.030 A 
ATOM     36  C   UNL     1     -47.059  34.112  25.693  1.00  0.00    -0.032 A 
ATOM     37  N   UNL     1     -46.203  32.735  27.964  1.00  0.00    -0.262 NA
ATOM     38  H   UNL     1     -45.671  34.554  28.755  1.00  0.00     0.084 H 
ATOM     39  C   UNL     1     -47.163  32.713  25.733  1.00  0.00     0.066 A 
ATOM     40  H   UNL     1     -47.401  34.687  24.840  1.00  0.00     0.065 H 
ATOM     41  C   UNL     1     -46.723  32.083  26.892  1.00  0.00     0.051 A 
ATOM     42  H   UNL     1     -46.734  31.009  27.029  1.00  0.00     0.086 H 
BRANCH  39  43
ATOM     43  N   UNL     1     -47.689  31.977  24.623  1.00  0.00    -0.299 N 
ATOM     44  C   UNL     1     -48.956  31.417  24.570  1.00  0.00     0.015 A 
ATOM     45  C   UNL     1     -47.065  31.686  23.411  1.00  0.00     0.150 A 
ATOM     46  C   UNL     1     -49.153  30.770  23.363  1.00  0.00    -0.013 A 
ATOM     47  H   UNL     1     -49.647  31.530  25.391  1.00  0.00     0.083 H 
ATOM     48  C   UNL     1     -47.951  30.966  22.609  1.00  0.00     0.065 A 
ATOM     49  N   UNL     1     -45.807  32.021  23.061  1.00  0.00    -0.218 NA
ATOM     50  C   UNL     1     -47.490  30.609  21.328  1.00  0.00     0.136 A 
ATOM     51  C   UNL     1     -45.476  31.607  21.834  1.00  0.00     0.120 A 
ATOM     52  N   UNL     1     -46.240  30.939  20.958  1.00  0.00    -0.219 NA
ATOM     53  H   UNL     1     -44.469  31.844  21.504  1.00  0.00     0.106 H 
BRANCH  46  54
ATOM     54  C   UNL     1     -50.383  30.027  22.933  1.00  0.00    -0.014 C 
ATOM     55  C   UNL     1     -50.271  28.500  22.949  1.00  0.00    -0.046 C 
ATOM     56  C   UNL     1     -51.608  30.318  23.810  1.00  0.00    -0.046 C 
ATOM     57  H   UNL     1     -50.623  30.309  21.899  1.00  0.00     0.035 H 
ATOM     58  C   UNL     1     -51.725  28.059  22.904  1.00  0.00    -0.053 C 
ATOM     59  H   UNL     1     -49.804  28.125  23.866  1.00  0.00     0.027 H 
ATOM     60  H   UNL     1     -49.697  28.117  22.098  1.00  0.00     0.027 H 
ATOM     61  C   UNL     1     -52.423  29.023  23.853  1.00  0.00    -0.053 C 
ATOM     62  H   UNL     1     -52.199  31.140  23.389  1.00  0.00     0.027 H 
ATOM     63  H   UNL     1     -51.331  30.615  24.829  1.00  0.00     0.027 H 
ATOM     64  H   UNL     1     -52.124  28.175  21.889  1.00  0.00     0.027 H 
ATOM     65  H   UNL     1     -51.856  27.015  23.202  1.00  0.00     0.027 H 
ATOM     66  H   UNL     1     -52.415  28.619  24.872  1.00  0.00     0.027 H 
ATOM     67  H   UNL     1     -53.467  29.185  23.571  1.00  0.00     0.027 H 
ENDBRANCH  46  54
BRANCH  50  68
ATOM     68  N   UNL     1     -48.252  29.947  20.371  1.00  0.00    -0.383 N 
ATOM     69  H   UNL     1     -47.770  29.175  19.932  1.00  0.00     0.158 HD
ATOM     70  H   UNL     1     -49.155  29.716  20.770  1.00  0.00     0.158 HD
ENDBRANCH  50  68
ENDBRANCH  39  43
ENDBRANCH  31  34
ENDBRANCH   1  31
TORSDOF 10
ENDMDL
MODEL 7
REMARK VINA RESULT:      -9.3      2.082     12.099
REMARK SMILES CC(C)c1cc(N)c2ccc(CCc3cncc(-n4cc(C5CCCC5)c5c(N)ncnc54)c3)cc2n1
REMARK SMILES IDX 12 1 11 4 4 5 5 6 37 7 6 8 36 10 8 11 35 12 9 13 10 15 2 18
REMARK SMILES IDX 1 20 3 24 7 28 13 31 14 34 15 35 34 36 16 37 18 39 17 41
REMARK SMILES IDX 19 43 20 44 33 45 21 46 27 48 32 49 28 50 31 51 30 52 22 54
REMARK SMILES IDX 23 55 26 56 24 58 25 61 29 68
REMARK H PARENT 12 2 12 3 5 9 35 14 9 16 10 17 2 19 1 21 1 22 1 23 3 25 3 26
REMARK H PARENT 3 27 7 29 7 30 13 32 13 33 15 38 34 40 17 42 20 47 31 53 22 57
REMARK H PARENT 23 59 23 60 26 62 26 63 24 64 24 65 25 66 25 67 29 69 29 70
REMARK Flexibility Score: inf
ROOT
ATOM      1  C   UNL     1     -47.588  33.608  26.968  1.00  0.00    -0.024 C 
ATOM      2  H   UNL     1     -48.575  33.989  27.264  1.00  0.00     0.032 H 
ATOM      3  H   UNL     1     -47.100  33.299  27.902  1.00  0.00     0.032 H 
ENDROOT
BRANCH   1   4
ATOM      4  C   UNL     1     -47.795  32.406  26.078  1.00  0.00    -0.045 A 
ATOM      5  C   UNL     1     -47.637  30.565  21.683  1.00  0.00     0.046 A 
ATOM      6  C   UNL     1     -48.068  29.318  22.111  1.00  0.00    -0.017 A 
ATOM      7  N   UNL     1     -47.488  31.605  22.535  1.00  0.00    -0.252 NA
ATOM      8  C   UNL     1     -48.406  29.134  23.451  1.00  0.00     0.043 A 
ATOM      9  H   UNL     1     -48.169  28.496  21.410  1.00  0.00     0.066 H 
ATOM     10  C   UNL     1     -47.758  31.423  23.837  1.00  0.00     0.073 A 
ATOM     11  C   UNL     1     -48.205  30.194  24.366  1.00  0.00     0.023 A 
ATOM     12  C   UNL     1     -47.570  32.498  24.697  1.00  0.00    -0.032 A 
ATOM     13  C   UNL     1     -48.426  30.097  25.762  1.00  0.00    -0.050 A 
ATOM     14  H   UNL     1     -47.240  33.441  24.264  1.00  0.00     0.065 H 
ATOM     15  C   UNL     1     -48.223  31.190  26.606  1.00  0.00    -0.058 A 
ATOM     16  H   UNL     1     -48.761  29.166  26.208  1.00  0.00     0.063 H 
ATOM     17  H   UNL     1     -48.405  31.081  27.673  1.00  0.00     0.063 H 
BRANCH   5  18
ATOM     18  C   UNL     1     -47.306  30.802  20.223  1.00  0.00    -0.004 C 
ATOM     19  H   UNL     1     -47.042  29.845  19.755  1.00  0.00     0.036 H 
BRANCH  18  20
ATOM     20  C   UNL     1     -48.516  31.364  19.475  1.00  0.00    -0.057 C 
ATOM     21  H   UNL     1     -49.361  30.670  19.533  1.00  0.00     0.024 H 
ATOM     22  H   UNL     1     -48.834  32.319  19.907  1.00  0.00     0.024 H 
ATOM     23  H   UNL     1     -48.295  31.535  18.416  1.00  0.00     0.024 H 
ENDBRANCH  18  20
BRANCH  18  24
ATOM     24  C   UNL     1     -46.101  31.733  20.086  1.00  0.00    -0.057 C 
ATOM     25  H   UNL     1     -45.168  31.189  20.272  1.00  0.00     0.024 H 
ATOM     26  H   UNL     1     -46.037  32.172  19.084  1.00  0.00     0.024 H 
ATOM     27  H   UNL     1     -46.158  32.556  20.807  1.00  0.00     0.024 H 
ENDBRANCH  18  24
ENDBRANCH   5  18
BRANCH   8  28
ATOM     28  N   UNL     1     -48.730  27.817  23.858  1.00  0.00    -0.398 N 
ATOM     29  H   UNL     1     -49.740  27.684  23.848  1.00  0.00     0.156 HD
ATOM     30  H   UNL     1     -48.286  27.109  23.282  1.00  0.00     0.156 HD
ENDBRANCH   8  28
ENDBRANCH   1   4
BRANCH   1  31
ATOM     31  C   UNL     1     -46.799  34.738  26.296  1.00  0.00    -0.022 C 
ATOM     32  H   UNL     1     -47.052  34.761  25.228  1.00  0.00     0.032 H 
ATOM     33  H   UNL     1     -45.723  34.530  26.340  1.00  0.00     0.032 H 
BRANCH  31  34
ATOM     34  C   UNL     1     -47.081  36.101  26.872  1.00  0.00    -0.027 A 
ATOM     35  C   UNL     1     -48.328  36.410  27.400  1.00  0.00     0.030 A 
ATOM     36  C   UNL     1     -46.104  37.106  26.886  1.00  0.00    -0.032 A 
ATOM     37  N   UNL     1     -48.639  37.607  27.937  1.00  0.00    -0.262 NA
ATOM     38  H   UNL     1     -49.138  35.685  27.407  1.00  0.00     0.084 H 
ATOM     39  C   UNL     1     -46.391  38.369  27.425  1.00  0.00     0.066 A 
ATOM     40  H   UNL     1     -45.124  36.862  26.489  1.00  0.00     0.065 H 
ATOM     41  C   UNL     1     -47.671  38.558  27.936  1.00  0.00     0.051 A 
ATOM     42  H   UNL     1     -48.013  39.495  28.356  1.00  0.00     0.086 H 
BRANCH  39  43
ATOM     43  N   UNL     1     -45.410  39.412  27.433  1.00  0.00    -0.299 N 
ATOM     44  C   UNL     1     -45.308  40.414  26.479  1.00  0.00     0.015 A 
ATOM     45  C   UNL     1     -44.398  39.633  28.365  1.00  0.00     0.150 A 
ATOM     46  C   UNL     1     -44.253  41.260  26.773  1.00  0.00    -0.013 A 
ATOM     47  H   UNL     1     -46.006  40.472  25.659  1.00  0.00     0.083 H 
ATOM     48  C   UNL     1     -43.688  40.776  27.997  1.00  0.00     0.065 A 
ATOM     49  N   UNL     1     -44.124  38.869  29.441  1.00  0.00    -0.218 NA
ATOM     50  C   UNL     1     -42.637  41.164  28.850  1.00  0.00     0.136 A 
ATOM     51  C   UNL     1     -43.091  39.324  30.158  1.00  0.00     0.120 A 
ATOM     52  N   UNL     1     -42.352  40.418  29.931  1.00  0.00    -0.219 NA
ATOM     53  H   UNL     1     -42.822  38.740  31.033  1.00  0.00     0.106 H 
BRANCH  46  54
ATOM     54  C   UNL     1     -43.808  42.449  25.975  1.00  0.00    -0.014 C 
ATOM     55  C   UNL     1     -44.222  42.448  24.501  1.00  0.00    -0.046 C 
ATOM     56  C   UNL     1     -44.352  43.781  26.511  1.00  0.00    -0.046 C 
ATOM     57  H   UNL     1     -42.710  42.494  25.989  1.00  0.00     0.035 H 
ATOM     58  C   UNL     1     -44.028  43.901  24.099  1.00  0.00    -0.053 C 
ATOM     59  H   UNL     1     -45.272  42.168  24.362  1.00  0.00     0.027 H 
ATOM     60  H   UNL     1     -43.610  41.768  23.899  1.00  0.00     0.027 H 
ATOM     61  C   UNL     1     -44.567  44.679  25.291  1.00  0.00    -0.053 C 
ATOM     62  H   UNL     1     -43.641  44.235  27.213  1.00  0.00     0.027 H 
ATOM     63  H   UNL     1     -45.298  43.658  27.054  1.00  0.00     0.027 H 
ATOM     64  H   UNL     1     -42.961  44.116  23.961  1.00  0.00     0.027 H 
ATOM     65  H   UNL     1     -44.548  44.151  23.170  1.00  0.00     0.027 H 
ATOM     66  H   UNL     1     -45.640  44.869  25.161  1.00  0.00     0.027 H 
ATOM     67  H   UNL     1     -44.072  45.648  25.401  1.00  0.00     0.027 H 
ENDBRANCH  46  54
BRANCH  50  68
ATOM     68  N   UNL     1     -41.862  42.307  28.678  1.00  0.00    -0.383 N 
ATOM     69  H   UNL     1     -41.570  42.733  29.546  1.00  0.00     0.158 HD
ATOM     70  H   UNL     1     -41.109  42.101  28.029  1.00  0.00     0.158 HD
ENDBRANCH  50  68
ENDBRANCH  39  43
ENDBRANCH  31  34
ENDBRANCH   1  31
TORSDOF 10
ENDMDL
