MODEL 1
REMARK VINA RESULT:     -11.2      0.000      0.000
REMARK SMILES O=C(NCc1ccc2cc(CN3CC(C(F)(F)F)C3)[nH]c2c1)c1cc(=O)n2ccccc2n1
REMARK SMILES IDX 5 1 6 2 7 3 8 4 9 5 10 6 20 7 21 8 22 9 4 15 3 18 1 19 2 20
REMARK SMILES IDX 23 22 24 23 33 24 25 25 32 27 26 28 27 29 31 30 28 31 30 32
REMARK SMILES IDX 29 34 11 38 12 41 13 42 19 43 14 44 15 50 16 51 17 52 18 53
REMARK H PARENT 6 10 7 11 9 12 20 13 22 14 4 16 4 17 3 21 24 26 31 33 28 35
REMARK H PARENT 30 36 29 37 11 39 11 40 13 45 13 46 19 47 19 48 14 49
REMARK Flexibility Score: inf
ROOT
ATOM      1  C   UNL     1     -47.872  34.837  26.704  1.00  0.00    -0.027 A 
ATOM      2  C   UNL     1     -46.605  34.709  26.121  1.00  0.00    -0.057 A 
ATOM      3  C   UNL     1     -46.299  33.631  25.280  1.00  0.00    -0.052 A 
ATOM      4  C   UNL     1     -47.281  32.656  25.027  1.00  0.00    -0.000 A 
ATOM      5  C   UNL     1     -47.314  31.464  24.254  1.00  0.00    -0.032 A 
ATOM      6  C   UNL     1     -48.558  30.882  24.410  1.00  0.00     0.030 A 
ATOM      7  N   UNL     1     -49.296  31.726  25.207  1.00  0.00    -0.357 N 
ATOM      8  C   UNL     1     -48.533  32.794  25.618  1.00  0.00     0.046 A 
ATOM      9  C   UNL     1     -48.859  33.866  26.458  1.00  0.00    -0.033 A 
ATOM     10  H   UNL     1     -45.835  35.453  26.321  1.00  0.00     0.063 H 
ATOM     11  H   UNL     1     -45.313  33.550  24.834  1.00  0.00     0.063 H 
ATOM     12  H   UNL     1     -46.503  31.066  23.658  1.00  0.00     0.065 H 
ATOM     13  H   UNL     1     -50.260  31.579  25.476  1.00  0.00     0.166 HD
ATOM     14  H   UNL     1     -49.842  33.945  26.913  1.00  0.00     0.065 H 
ENDROOT
BRANCH   1  15
ATOM     15  C   UNL     1     -48.169  35.984  27.634  1.00  0.00     0.043 C 
ATOM     16  H   UNL     1     -48.273  35.627  28.667  1.00  0.00     0.054 H 
ATOM     17  H   UNL     1     -49.116  36.470  27.372  1.00  0.00     0.054 H 
BRANCH  15  18
ATOM     18  N   UNL     1     -47.124  36.971  27.576  1.00  0.00    -0.347 N 
ATOM     19  O   UNL     1     -46.512  36.801  29.782  1.00  0.00    -0.268 OA
ATOM     20  C   UNL     1     -46.400  37.331  28.683  1.00  0.00     0.270 C 
ATOM     21  H   UNL     1     -47.005  37.540  26.743  1.00  0.00     0.164 HD
BRANCH  20  22
ATOM     22  C   UNL     1     -45.449  38.470  28.404  1.00  0.00     0.136 A 
ATOM     23  C   UNL     1     -45.651  39.152  27.275  1.00  0.00     0.035 A 
ATOM     24  N   UNL     1     -44.447  38.731  29.312  1.00  0.00    -0.225 NA
ATOM     25  C   UNL     1     -44.749  40.269  26.967  1.00  0.00     0.258 A 
ATOM     26  H   UNL     1     -46.442  38.936  26.568  1.00  0.00     0.071 H 
ATOM     27  C   UNL     1     -43.653  39.720  29.036  1.00  0.00     0.140 A 
ATOM     28  O   UNL     1     -44.929  40.904  25.929  1.00  0.00    -0.269 OA
ATOM     29  N   UNL     1     -43.750  40.514  27.899  1.00  0.00    -0.268 N 
ATOM     30  C   UNL     1     -42.556  40.043  29.992  1.00  0.00    -0.019 A 
ATOM     31  C   UNL     1     -42.858  41.557  27.676  1.00  0.00     0.014 A 
ATOM     32  C   UNL     1     -41.722  41.056  29.735  1.00  0.00    -0.057 A 
ATOM     33  H   UNL     1     -42.472  39.430  30.882  1.00  0.00     0.066 H 
ATOM     34  C   UNL     1     -41.875  41.841  28.539  1.00  0.00    -0.045 A 
ATOM     35  H   UNL     1     -42.992  42.136  26.766  1.00  0.00     0.082 H 
ATOM     36  H   UNL     1     -40.917  41.306  30.419  1.00  0.00     0.062 H 
ATOM     37  H   UNL     1     -41.183  42.657  28.355  1.00  0.00     0.064 H 
ENDBRANCH  20  22
ENDBRANCH  15  18
ENDBRANCH   1  15
BRANCH   6  38
ATOM     38  C   UNL     1     -49.137  29.628  23.836  1.00  0.00     0.039 C 
ATOM     39  H   UNL     1     -48.448  29.248  23.070  1.00  0.00     0.050 H 
ATOM     40  H   UNL     1     -50.057  29.879  23.292  1.00  0.00     0.050 H 
BRANCH  38  41
ATOM     41  N   UNL     1     -49.447  28.524  24.755  1.00  0.00    -0.296 NA
ATOM     42  C   UNL     1     -48.984  27.204  24.294  1.00  0.00     0.011 C 
ATOM     43  C   UNL     1     -48.590  28.444  25.946  1.00  0.00     0.011 C 
ATOM     44  C   UNL     1     -47.833  27.264  25.313  1.00  0.00     0.080 C 
ATOM     45  H   UNL     1     -48.689  27.115  23.244  1.00  0.00     0.044 H 
ATOM     46  H   UNL     1     -49.720  26.414  24.487  1.00  0.00     0.044 H 
ATOM     47  H   UNL     1     -49.157  28.185  26.850  1.00  0.00     0.044 H 
ATOM     48  H   UNL     1     -47.986  29.323  26.193  1.00  0.00     0.044 H 
ATOM     49  H   UNL     1     -46.878  27.562  24.864  1.00  0.00     0.042 H 
BRANCH  44  50
ATOM     50  C   UNL     1     -47.659  26.057  26.178  1.00  0.00     0.394 C 
ATOM     51  F   UNL     1     -46.951  26.368  27.287  1.00  0.00    -0.171 F 
ATOM     52  F   UNL     1     -47.013  25.056  25.538  1.00  0.00    -0.171 F 
ATOM     53  F   UNL     1     -48.864  25.586  26.575  1.00  0.00    -0.171 F 
ENDBRANCH  44  50
ENDBRANCH  38  41
ENDBRANCH   6  38
TORSDOF 6
ENDMDL
MODEL 2
REMARK VINA RESULT:     -10.3      1.868      2.983
REMARK SMILES O=C(NCc1ccc2cc(CN3CC(C(F)(F)F)C3)[nH]c2c1)c1cc(=O)n2ccccc2n1
REMARK SMILES IDX 5 1 6 2 7 3 8 4 9 5 10 6 20 7 21 8 22 9 4 15 3 18 1 19 2 20
REMARK SMILES IDX 23 22 24 23 33 24 25 25 32 27 26 28 27 29 31 30 28 31 30 32
REMARK SMILES IDX 29 34 11 38 12 41 13 42 19 43 14 44 15 50 16 51 17 52 18 53
REMARK H PARENT 6 10 7 11 9 12 20 13 22 14 4 16 4 17 3 21 24 26 31 33 28 35
REMARK H PARENT 30 36 29 37 11 39 11 40 13 45 13 46 19 47 19 48 14 49
REMARK Flexibility Score: inf
ROOT
ATOM      1  C   UNL     1     -46.636  35.671  28.579  1.00  0.00    -0.027 A 
ATOM      2  C   UNL     1     -47.879  36.057  28.061  1.00  0.00    -0.057 A 
ATOM      3  C   UNL     1     -48.499  35.323  27.041  1.00  0.00    -0.052 A 
ATOM      4  C   UNL     1     -47.854  34.186  26.521  1.00  0.00    -0.000 A 
ATOM      5  C   UNL     1     -48.177  33.240  25.511  1.00  0.00    -0.032 A 
ATOM      6  C   UNL     1     -47.130  32.343  25.408  1.00  0.00     0.030 A 
ATOM      7  N   UNL     1     -46.213  32.687  26.374  1.00  0.00    -0.357 N 
ATOM      8  C   UNL     1     -46.615  33.820  27.042  1.00  0.00     0.046 A 
ATOM      9  C   UNL     1     -45.983  34.538  28.064  1.00  0.00    -0.033 A 
ATOM     10  H   UNL     1     -48.382  36.942  28.449  1.00  0.00     0.063 H 
ATOM     11  H   UNL     1     -49.465  35.634  26.655  1.00  0.00     0.063 H 
ATOM     12  H   UNL     1     -49.078  33.229  24.911  1.00  0.00     0.065 H 
ATOM     13  H   UNL     1     -45.350  32.194  26.560  1.00  0.00     0.166 HD
ATOM     14  H   UNL     1     -45.012  34.235  28.446  1.00  0.00     0.065 H 
ENDROOT
BRANCH   1  15
ATOM     15  C   UNL     1     -45.970  36.495  29.650  1.00  0.00     0.043 C 
ATOM     16  H   UNL     1     -45.280  35.878  30.239  1.00  0.00     0.054 H 
ATOM     17  H   UNL     1     -46.708  36.900  30.352  1.00  0.00     0.054 H 
BRANCH  15  18
ATOM     18  N   UNL     1     -45.248  37.596  29.070  1.00  0.00    -0.347 N 
ATOM     19  O   UNL     1     -44.226  38.261  31.015  1.00  0.00    -0.268 OA
ATOM     20  C   UNL     1     -44.457  38.424  29.822  1.00  0.00     0.270 C 
ATOM     21  H   UNL     1     -45.434  37.881  28.113  1.00  0.00     0.164 HD
BRANCH  20  22
ATOM     22  C   UNL     1     -43.903  39.577  29.020  1.00  0.00     0.136 A 
ATOM     23  C   UNL     1     -42.853  40.215  29.541  1.00  0.00     0.035 A 
ATOM     24  N   UNL     1     -44.503  39.898  27.823  1.00  0.00    -0.225 NA
ATOM     25  C   UNL     1     -42.282  41.342  28.791  1.00  0.00     0.258 A 
ATOM     26  H   UNL     1     -42.390  39.954  30.484  1.00  0.00     0.071 H 
ATOM     27  C   UNL     1     -43.995  40.893  27.163  1.00  0.00     0.140 A 
ATOM     28  O   UNL     1     -41.313  41.934  29.263  1.00  0.00    -0.269 OA
ATOM     29  N   UNL     1     -42.903  41.642  27.587  1.00  0.00    -0.268 N 
ATOM     30  C   UNL     1     -44.609  41.274  25.860  1.00  0.00    -0.019 A 
ATOM     31  C   UNL     1     -42.417  42.696  26.820  1.00  0.00     0.014 A 
ATOM     32  C   UNL     1     -44.107  42.295  25.157  1.00  0.00    -0.057 A 
ATOM     33  H   UNL     1     -45.460  40.696  25.520  1.00  0.00     0.066 H 
ATOM     34  C   UNL     1     -42.974  43.032  25.650  1.00  0.00    -0.045 A 
ATOM     35  H   UNL     1     -41.561  43.239  27.212  1.00  0.00     0.082 H 
ATOM     36  H   UNL     1     -44.541  42.587  24.206  1.00  0.00     0.062 H 
ATOM     37  H   UNL     1     -42.588  43.857  25.060  1.00  0.00     0.064 H 
ENDBRANCH  20  22
ENDBRANCH  15  18
ENDBRANCH   1  15
BRANCH   6  38
ATOM     38  C   UNL     1     -46.936  31.157  24.518  1.00  0.00     0.039 C 
ATOM     39  H   UNL     1     -46.178  30.504  24.970  1.00  0.00     0.050 H 
ATOM     40  H   UNL     1     -46.494  31.493  23.571  1.00  0.00     0.050 H 
BRANCH  38  41
ATOM     41  N   UNL     1     -48.111  30.333  24.197  1.00  0.00    -0.296 NA
ATOM     42  C   UNL     1     -47.800  28.925  23.902  1.00  0.00     0.011 C 
ATOM     43  C   UNL     1     -48.934  29.943  25.349  1.00  0.00     0.011 C 
ATOM     44  C   UNL     1     -48.338  28.527  25.287  1.00  0.00     0.080 C 
ATOM     45  H   UNL     1     -46.753  28.673  23.705  1.00  0.00     0.044 H 
ATOM     46  H   UNL     1     -48.385  28.537  23.059  1.00  0.00     0.044 H 
ATOM     47  H   UNL     1     -50.009  29.992  25.129  1.00  0.00     0.044 H 
ATOM     48  H   UNL     1     -48.779  30.487  26.287  1.00  0.00     0.044 H 
ATOM     49  H   UNL     1     -47.543  28.366  26.025  1.00  0.00     0.042 H 
BRANCH  44  50
ATOM     50  C   UNL     1     -49.320  27.400  25.311  1.00  0.00     0.394 C 
ATOM     51  F   UNL     1     -50.354  27.657  24.478  1.00  0.00    -0.171 F 
ATOM     52  F   UNL     1     -49.823  27.184  26.546  1.00  0.00    -0.171 F 
ATOM     53  F   UNL     1     -48.730  26.255  24.897  1.00  0.00    -0.171 F 
ENDBRANCH  44  50
ENDBRANCH  38  41
ENDBRANCH   6  38
TORSDOF 6
ENDMDL
MODEL 3
REMARK VINA RESULT:     -10.1      2.948      3.716
REMARK SMILES O=C(NCc1ccc2cc(CN3CC(C(F)(F)F)C3)[nH]c2c1)c1cc(=O)n2ccccc2n1
REMARK SMILES IDX 5 1 6 2 7 3 8 4 9 5 10 6 20 7 21 8 22 9 4 15 3 18 1 19 2 20
REMARK SMILES IDX 23 22 24 23 33 24 25 25 32 27 26 28 27 29 31 30 28 31 30 32
REMARK SMILES IDX 29 34 11 38 12 41 13 42 19 43 14 44 15 50 16 51 17 52 18 53
REMARK H PARENT 6 10 7 11 9 12 20 13 22 14 4 16 4 17 3 21 24 26 31 33 28 35
REMARK H PARENT 30 36 29 37 11 39 11 40 13 45 13 46 19 47 19 48 14 49
REMARK Flexibility Score: inf
ROOT
ATOM      1  C   UNL     1     -48.009  35.332  26.760  1.00  0.00    -0.027 A 
ATOM      2  C   UNL     1     -46.704  35.288  26.253  1.00  0.00    -0.057 A 
ATOM      3  C   UNL     1     -46.226  34.157  25.578  1.00  0.00    -0.052 A 
ATOM      4  C   UNL     1     -47.071  33.042  25.420  1.00  0.00    -0.000 A 
ATOM      5  C   UNL     1     -46.919  31.765  24.815  1.00  0.00    -0.032 A 
ATOM      6  C   UNL     1     -48.094  31.059  24.998  1.00  0.00     0.030 A 
ATOM      7  N   UNL     1     -48.970  31.901  25.642  1.00  0.00    -0.357 N 
ATOM      8  C   UNL     1     -48.362  33.100  25.936  1.00  0.00     0.046 A 
ATOM      9  C   UNL     1     -48.859  34.223  26.609  1.00  0.00    -0.033 A 
ATOM     10  H   UNL     1     -46.039  36.141  26.381  1.00  0.00     0.063 H 
ATOM     11  H   UNL     1     -45.214  34.141  25.188  1.00  0.00     0.063 H 
ATOM     12  H   UNL     1     -46.035  31.397  24.312  1.00  0.00     0.065 H 
ATOM     13  H   UNL     1     -49.924  31.672  25.889  1.00  0.00     0.166 HD
ATOM     14  H   UNL     1     -49.869  34.238  27.008  1.00  0.00     0.065 H 
ENDROOT
BRANCH   1  15
ATOM     15  C   UNL     1     -48.491  36.544  27.514  1.00  0.00     0.043 C 
ATOM     16  H   UNL     1     -49.167  36.251  28.327  1.00  0.00     0.054 H 
ATOM     17  H   UNL     1     -49.057  37.217  26.860  1.00  0.00     0.054 H 
BRANCH  15  18
ATOM     18  N   UNL     1     -47.380  37.277  28.062  1.00  0.00    -0.347 N 
ATOM     19  O   UNL     1     -47.240  38.807  26.356  1.00  0.00    -0.268 OA
ATOM     20  C   UNL     1     -46.813  38.338  27.405  1.00  0.00     0.270 C 
ATOM     21  H   UNL     1     -46.887  36.925  28.877  1.00  0.00     0.164 HD
BRANCH  20  22
ATOM     22  C   UNL     1     -45.589  38.867  28.112  1.00  0.00     0.136 A 
ATOM     23  C   UNL     1     -45.276  38.290  29.274  1.00  0.00     0.035 A 
ATOM     24  N   UNL     1     -44.881  39.895  27.530  1.00  0.00    -0.225 NA
ATOM     25  C   UNL     1     -44.091  38.773  29.994  1.00  0.00     0.258 A 
ATOM     26  H   UNL     1     -45.841  37.483  29.722  1.00  0.00     0.071 H 
ATOM     27  C   UNL     1     -43.834  40.318  28.168  1.00  0.00     0.140 A 
ATOM     28  O   UNL     1     -43.795  38.246  31.065  1.00  0.00    -0.269 OA
ATOM     29  N   UNL     1     -43.394  39.807  29.384  1.00  0.00    -0.268 N 
ATOM     30  C   UNL     1     -43.035  41.426  27.574  1.00  0.00    -0.019 A 
ATOM     31  C   UNL     1     -42.259  40.316  30.006  1.00  0.00     0.014 A 
ATOM     32  C   UNL     1     -41.950  41.884  28.209  1.00  0.00    -0.057 A 
ATOM     33  H   UNL     1     -43.369  41.832  26.626  1.00  0.00     0.066 H 
ATOM     34  C   UNL     1     -41.546  41.312  29.466  1.00  0.00    -0.045 A 
ATOM     35  H   UNL     1     -41.973  39.869  30.955  1.00  0.00     0.082 H 
ATOM     36  H   UNL     1     -41.355  42.690  27.792  1.00  0.00     0.062 H 
ATOM     37  H   UNL     1     -40.662  41.704  29.960  1.00  0.00     0.064 H 
ENDBRANCH  20  22
ENDBRANCH  15  18
ENDBRANCH   1  15
BRANCH   6  38
ATOM     38  C   UNL     1     -48.487  29.679  24.575  1.00  0.00     0.039 C 
ATOM     39  H   UNL     1     -49.210  29.287  25.302  1.00  0.00     0.050 H 
ATOM     40  H   UNL     1     -47.613  29.020  24.659  1.00  0.00     0.050 H 
BRANCH  38  41
ATOM     41  N   UNL     1     -49.054  29.502  23.230  1.00  0.00    -0.296 NA
ATOM     42  C   UNL     1     -49.512  30.750  22.598  1.00  0.00     0.011 C 
ATOM     43  C   UNL     1     -48.069  29.286  22.162  1.00  0.00     0.011 C 
ATOM     44  C   UNL     1     -48.268  30.737  21.694  1.00  0.00     0.080 C 
ATOM     45  H   UNL     1     -49.626  31.627  23.243  1.00  0.00     0.044 H 
ATOM     46  H   UNL     1     -50.462  30.622  22.065  1.00  0.00     0.044 H 
ATOM     47  H   UNL     1     -48.399  28.527  21.439  1.00  0.00     0.044 H 
ATOM     48  H   UNL     1     -47.051  29.015  22.461  1.00  0.00     0.044 H 
ATOM     49  H   UNL     1     -47.477  31.410  22.044  1.00  0.00     0.042 H 
BRANCH  44  50
ATOM     50  C   UNL     1     -48.518  30.926  20.232  1.00  0.00     0.394 C 
ATOM     51  F   UNL     1     -47.377  31.285  19.600  1.00  0.00    -0.171 F 
ATOM     52  F   UNL     1     -49.446  31.879  19.988  1.00  0.00    -0.171 F 
ATOM     53  F   UNL     1     -48.952  29.772  19.676  1.00  0.00    -0.171 F 
ENDBRANCH  44  50
ENDBRANCH  38  41
ENDBRANCH   6  38
TORSDOF 6
ENDMDL
MODEL 4
REMARK VINA RESULT:     -10.1      3.067      4.804
REMARK SMILES O=C(NCc1ccc2cc(CN3CC(C(F)(F)F)C3)[nH]c2c1)c1cc(=O)n2ccccc2n1
REMARK SMILES IDX 5 1 6 2 7 3 8 4 9 5 10 6 20 7 21 8 22 9 4 15 3 18 1 19 2 20
REMARK SMILES IDX 23 22 24 23 33 24 25 25 32 27 26 28 27 29 31 30 28 31 30 32
REMARK SMILES IDX 29 34 11 38 12 41 13 42 19 43 14 44 15 50 16 51 17 52 18 53
REMARK H PARENT 6 10 7 11 9 12 20 13 22 14 4 16 4 17 3 21 24 26 31 33 28 35
REMARK H PARENT 30 36 29 37 11 39 11 40 13 45 13 46 19 47 19 48 14 49
REMARK Flexibility Score: inf
ROOT
ATOM      1  C   UNL     1     -45.698  37.567  28.518  1.00  0.00    -0.027 A 
ATOM      2  C   UNL     1     -47.016  37.997  28.316  1.00  0.00    -0.057 A 
ATOM      3  C   UNL     1     -47.967  37.161  27.716  1.00  0.00    -0.052 A 
ATOM      4  C   UNL     1     -47.585  35.873  27.297  1.00  0.00    -0.000 A 
ATOM      5  C   UNL     1     -48.264  34.797  26.665  1.00  0.00    -0.032 A 
ATOM      6  C   UNL     1     -47.358  33.773  26.462  1.00  0.00     0.030 A 
ATOM      7  N   UNL     1     -46.165  34.182  27.012  1.00  0.00    -0.357 N 
ATOM      8  C   UNL     1     -46.269  35.464  27.498  1.00  0.00     0.046 A 
ATOM      9  C   UNL     1     -45.306  36.283  28.100  1.00  0.00    -0.033 A 
ATOM     10  H   UNL     1     -47.318  38.996  28.626  1.00  0.00     0.063 H 
ATOM     11  H   UNL     1     -48.984  37.509  27.571  1.00  0.00     0.063 H 
ATOM     12  H   UNL     1     -49.307  34.782  26.375  1.00  0.00     0.065 H 
ATOM     13  H   UNL     1     -45.317  33.630  27.041  1.00  0.00     0.166 HD
ATOM     14  H   UNL     1     -44.285  35.941  28.238  1.00  0.00     0.065 H 
ENDROOT
BRANCH   1  15
ATOM     15  C   UNL     1     -44.681  38.494  29.132  1.00  0.00     0.043 C 
ATOM     16  H   UNL     1     -43.776  37.943  29.414  1.00  0.00     0.054 H 
ATOM     17  H   UNL     1     -45.070  38.953  30.049  1.00  0.00     0.054 H 
BRANCH  15  18
ATOM     18  N   UNL     1     -44.332  39.546  28.215  1.00  0.00    -0.347 N 
ATOM     19  O   UNL     1     -42.779  40.545  29.579  1.00  0.00    -0.268 OA
ATOM     20  C   UNL     1     -43.426  40.523  28.538  1.00  0.00     0.270 C 
ATOM     21  H   UNL     1     -44.869  39.681  27.364  1.00  0.00     0.164 HD
BRANCH  20  22
ATOM     22  C   UNL     1     -43.316  41.584  27.470  1.00  0.00     0.136 A 
ATOM     23  C   UNL     1     -42.098  41.807  26.975  1.00  0.00     0.035 A 
ATOM     24  N   UNL     1     -44.458  42.248  27.079  1.00  0.00    -0.225 NA
ATOM     25  C   UNL     1     -41.948  42.830  25.932  1.00  0.00     0.258 A 
ATOM     26  H   UNL     1     -41.207  41.278  27.291  1.00  0.00     0.071 H 
ATOM     27  C   UNL     1     -44.321  43.150  26.156  1.00  0.00     0.140 A 
ATOM     28  O   UNL     1     -40.828  43.041  25.469  1.00  0.00    -0.269 OA
ATOM     29  N   UNL     1     -43.113  43.482  25.553  1.00  0.00    -0.268 N 
ATOM     30  C   UNL     1     -45.530  43.892  25.698  1.00  0.00    -0.019 A 
ATOM     31  C   UNL     1     -43.050  44.463  24.569  1.00  0.00     0.014 A 
ATOM     32  C   UNL     1     -45.419  44.828  24.749  1.00  0.00    -0.057 A 
ATOM     33  H   UNL     1     -46.476  43.641  26.162  1.00  0.00     0.066 H 
ATOM     34  C   UNL     1     -44.140  45.126  24.163  1.00  0.00    -0.045 A 
ATOM     35  H   UNL     1     -42.072  44.672  24.141  1.00  0.00     0.082 H 
ATOM     36  H   UNL     1     -46.288  45.378  24.402  1.00  0.00     0.062 H 
ATOM     37  H   UNL     1     -44.079  45.891  23.395  1.00  0.00     0.064 H 
ENDBRANCH  20  22
ENDBRANCH  15  18
ENDBRANCH   1  15
BRANCH   6  38
ATOM     38  C   UNL     1     -47.523  32.422  25.843  1.00  0.00     0.039 C 
ATOM     39  H   UNL     1     -48.494  32.014  26.155  1.00  0.00     0.050 H 
ATOM     40  H   UNL     1     -46.777  31.741  26.275  1.00  0.00     0.050 H 
BRANCH  38  41
ATOM     41  N   UNL     1     -47.434  32.314  24.380  1.00  0.00    -0.296 NA
ATOM     42  C   UNL     1     -46.137  31.823  23.887  1.00  0.00     0.011 C 
ATOM     43  C   UNL     1     -48.130  31.160  23.795  1.00  0.00     0.011 C 
ATOM     44  C   UNL     1     -46.778  30.455  23.597  1.00  0.00     0.080 C 
ATOM     45  H   UNL     1     -45.300  31.819  24.593  1.00  0.00     0.044 H 
ATOM     46  H   UNL     1     -45.798  32.363  22.995  1.00  0.00     0.044 H 
ATOM     47  H   UNL     1     -48.648  31.416  22.862  1.00  0.00     0.044 H 
ATOM     48  H   UNL     1     -48.856  30.636  24.426  1.00  0.00     0.044 H 
ATOM     49  H   UNL     1     -46.568  29.710  24.374  1.00  0.00     0.042 H 
BRANCH  44  50
ATOM     50  C   UNL     1     -46.527  29.888  22.237  1.00  0.00     0.394 C 
ATOM     51  F   UNL     1     -46.340  30.880  21.338  1.00  0.00    -0.171 F 
ATOM     52  F   UNL     1     -47.552  29.120  21.803  1.00  0.00    -0.171 F 
ATOM     53  F   UNL     1     -45.411  29.123  22.246  1.00  0.00    -0.171 F 
ENDBRANCH  44  50
ENDBRANCH  38  41
ENDBRANCH   6  38
TORSDOF 6
ENDMDL
MODEL 5
REMARK VINA RESULT:      -9.9      1.538      2.230
REMARK SMILES O=C(NCc1ccc2cc(CN3CC(C(F)(F)F)C3)[nH]c2c1)c1cc(=O)n2ccccc2n1
REMARK SMILES IDX 5 1 6 2 7 3 8 4 9 5 10 6 20 7 21 8 22 9 4 15 3 18 1 19 2 20
REMARK SMILES IDX 23 22 24 23 33 24 25 25 32 27 26 28 27 29 31 30 28 31 30 32
REMARK SMILES IDX 29 34 11 38 12 41 13 42 19 43 14 44 15 50 16 51 17 52 18 53
REMARK H PARENT 6 10 7 11 9 12 20 13 22 14 4 16 4 17 3 21 24 26 31 33 28 35
REMARK H PARENT 30 36 29 37 11 39 11 40 13 45 13 46 19 47 19 48 14 49
REMARK Flexibility Score: inf
ROOT
ATOM      1  C   UNL     1     -46.564  34.725  27.493  1.00  0.00    -0.027 A 
ATOM      2  C   UNL     1     -47.910  35.086  27.360  1.00  0.00    -0.057 A 
ATOM      3  C   UNL     1     -48.789  34.332  26.571  1.00  0.00    -0.052 A 
ATOM      4  C   UNL     1     -48.304  33.199  25.892  1.00  0.00    -0.000 A 
ATOM      5  C   UNL     1     -48.893  32.238  25.027  1.00  0.00    -0.032 A 
ATOM      6  C   UNL     1     -47.906  31.355  24.628  1.00  0.00     0.030 A 
ATOM      7  N   UNL     1     -46.753  31.723  25.280  1.00  0.00    -0.357 N 
ATOM      8  C   UNL     1     -46.961  32.857  26.030  1.00  0.00     0.046 A 
ATOM      9  C   UNL     1     -46.070  33.596  26.817  1.00  0.00    -0.033 A 
ATOM     10  H   UNL     1     -48.293  35.968  27.872  1.00  0.00     0.063 H 
ATOM     11  H   UNL     1     -49.830  34.624  26.482  1.00  0.00     0.063 H 
ATOM     12  H   UNL     1     -49.929  32.207  24.717  1.00  0.00     0.065 H 
ATOM     13  H   UNL     1     -45.865  31.244  25.208  1.00  0.00     0.166 HD
ATOM     14  H   UNL     1     -45.025  33.311  26.900  1.00  0.00     0.065 H 
ENDROOT
BRANCH   1  15
ATOM     15  C   UNL     1     -45.628  35.570  28.317  1.00  0.00     0.043 C 
ATOM     16  H   UNL     1     -44.626  35.125  28.343  1.00  0.00     0.054 H 
ATOM     17  H   UNL     1     -45.970  35.639  29.356  1.00  0.00     0.054 H 
BRANCH  15  18
ATOM     18  N   UNL     1     -45.542  36.903  27.782  1.00  0.00    -0.347 N 
ATOM     19  O   UNL     1     -44.694  37.870  29.684  1.00  0.00    -0.268 OA
ATOM     20  C   UNL     1     -45.114  37.965  28.537  1.00  0.00     0.270 C 
ATOM     21  H   UNL     1     -45.949  37.118  26.876  1.00  0.00     0.164 HD
BRANCH  20  22
ATOM     22  C   UNL     1     -45.228  39.278  27.801  1.00  0.00     0.136 A 
ATOM     23  C   UNL     1     -46.420  39.565  27.274  1.00  0.00     0.035 A 
ATOM     24  N   UNL     1     -44.116  40.087  27.717  1.00  0.00    -0.225 NA
ATOM     25  C   UNL     1     -46.573  40.834  26.552  1.00  0.00     0.258 A 
ATOM     26  H   UNL     1     -47.286  38.920  27.346  1.00  0.00     0.071 H 
ATOM     27  C   UNL     1     -44.256  41.208  27.079  1.00  0.00     0.140 A 
ATOM     28  O   UNL     1     -47.669  41.107  26.064  1.00  0.00    -0.269 OA
ATOM     29  N   UNL     1     -45.440  41.632  26.485  1.00  0.00    -0.268 N 
ATOM     30  C   UNL     1     -43.081  42.118  26.967  1.00  0.00    -0.019 A 
ATOM     31  C   UNL     1     -45.508  42.851  25.817  1.00  0.00     0.014 A 
ATOM     32  C   UNL     1     -43.196  43.280  26.315  1.00  0.00    -0.057 A 
ATOM     33  H   UNL     1     -42.155  41.797  27.427  1.00  0.00     0.066 H 
ATOM     34  C   UNL     1     -44.448  43.662  25.720  1.00  0.00    -0.045 A 
ATOM     35  H   UNL     1     -46.465  43.118  25.375  1.00  0.00     0.082 H 
ATOM     36  H   UNL     1     -42.351  43.956  26.222  1.00  0.00     0.062 H 
ATOM     37  H   UNL     1     -44.513  44.611  25.196  1.00  0.00     0.064 H 
ENDBRANCH  20  22
ENDBRANCH  15  18
ENDBRANCH   1  15
BRANCH   6  38
ATOM     38  C   UNL     1     -47.961  30.161  23.727  1.00  0.00     0.039 C 
ATOM     39  H   UNL     1     -46.940  29.779  23.596  1.00  0.00     0.050 H 
ATOM     40  H   UNL     1     -48.275  30.487  22.726  1.00  0.00     0.050 H 
BRANCH  38  41
ATOM     41  N   UNL     1     -48.820  29.036  24.122  1.00  0.00    -0.296 NA
ATOM     42  C   UNL     1     -48.292  27.713  23.749  1.00  0.00     0.011 C 
ATOM     43  C   UNL     1     -48.775  28.686  25.548  1.00  0.00     0.011 C 
ATOM     44  C   UNL     1     -47.897  27.468  25.215  1.00  0.00     0.080 C 
ATOM     45  H   UNL     1     -47.474  27.685  23.022  1.00  0.00     0.044 H 
ATOM     46  H   UNL     1     -49.076  27.043  23.372  1.00  0.00     0.044 H 
ATOM     47  H   UNL     1     -49.767  28.434  25.946  1.00  0.00     0.044 H 
ATOM     48  H   UNL     1     -48.337  29.419  26.234  1.00  0.00     0.044 H 
ATOM     49  H   UNL     1     -46.832  27.645  25.407  1.00  0.00     0.042 H 
BRANCH  44  50
ATOM     50  C   UNL     1     -48.333  26.165  25.804  1.00  0.00     0.394 C 
ATOM     51  F   UNL     1     -47.441  25.192  25.511  1.00  0.00    -0.171 F 
ATOM     52  F   UNL     1     -49.542  25.773  25.345  1.00  0.00    -0.171 F 
ATOM     53  F   UNL     1     -48.412  26.261  27.151  1.00  0.00    -0.171 F 
ENDBRANCH  44  50
ENDBRANCH  38  41
ENDBRANCH   6  38
TORSDOF 6
ENDMDL
MODEL 6
REMARK VINA RESULT:      -9.9      5.967     12.023
REMARK SMILES O=C(NCc1ccc2cc(CN3CC(C(F)(F)F)C3)[nH]c2c1)c1cc(=O)n2ccccc2n1
REMARK SMILES IDX 5 1 6 2 7 3 8 4 9 5 10 6 20 7 21 8 22 9 4 15 3 18 1 19 2 20
REMARK SMILES IDX 23 22 24 23 33 24 25 25 32 27 26 28 27 29 31 30 28 31 30 32
REMARK SMILES IDX 29 34 11 38 12 41 13 42 19 43 14 44 15 50 16 51 17 52 18 53
REMARK H PARENT 6 10 7 11 9 12 20 13 22 14 4 16 4 17 3 21 24 26 31 33 28 35
REMARK H PARENT 30 36 29 37 11 39 11 40 13 45 13 46 19 47 19 48 14 49
REMARK Flexibility Score: inf
ROOT
ATOM      1  C   UNL     1     -47.862  34.152  26.526  1.00  0.00    -0.027 A 
ATOM      2  C   UNL     1     -46.773  33.572  27.189  1.00  0.00    -0.057 A 
ATOM      3  C   UNL     1     -45.792  34.362  27.802  1.00  0.00    -0.052 A 
ATOM      4  C   UNL     1     -45.899  35.764  27.739  1.00  0.00    -0.000 A 
ATOM      5  C   UNL     1     -45.109  36.839  28.228  1.00  0.00    -0.032 A 
ATOM      6  C   UNL     1     -45.696  38.024  27.826  1.00  0.00     0.030 A 
ATOM      7  N   UNL     1     -46.854  37.691  27.163  1.00  0.00    -0.357 N 
ATOM      8  C   UNL     1     -46.984  36.325  27.071  1.00  0.00     0.046 A 
ATOM      9  C   UNL     1     -47.976  35.551  26.455  1.00  0.00    -0.033 A 
ATOM     10  H   UNL     1     -46.675  32.488  27.233  1.00  0.00     0.063 H 
ATOM     11  H   UNL     1     -44.958  33.895  28.315  1.00  0.00     0.063 H 
ATOM     12  H   UNL     1     -44.194  36.751  28.800  1.00  0.00     0.065 H 
ATOM     13  H   UNL     1     -47.514  38.352  26.775  1.00  0.00     0.166 HD
ATOM     14  H   UNL     1     -48.807  36.016  25.933  1.00  0.00     0.065 H 
ENDROOT
BRANCH   1  15
ATOM     15  C   UNL     1     -48.885  33.285  25.841  1.00  0.00     0.043 C 
ATOM     16  H   UNL     1     -49.138  33.690  24.854  1.00  0.00     0.054 H 
ATOM     17  H   UNL     1     -49.818  33.247  26.415  1.00  0.00     0.054 H 
BRANCH  15  18
ATOM     18  N   UNL     1     -48.395  31.940  25.691  1.00  0.00    -0.347 N 
ATOM     19  O   UNL     1     -49.160  31.645  23.547  1.00  0.00    -0.268 OA
ATOM     20  C   UNL     1     -48.614  31.208  24.553  1.00  0.00     0.270 C 
ATOM     21  H   UNL     1     -48.011  31.445  26.490  1.00  0.00     0.164 HD
BRANCH  20  22
ATOM     22  C   UNL     1     -48.116  29.788  24.676  1.00  0.00     0.136 A 
ATOM     23  C   UNL     1     -47.112  29.437  23.871  1.00  0.00     0.035 A 
ATOM     24  N   UNL     1     -48.717  28.954  25.593  1.00  0.00    -0.225 NA
ATOM     25  C   UNL     1     -46.596  28.065  23.961  1.00  0.00     0.258 A 
ATOM     26  H   UNL     1     -46.648  30.102  23.153  1.00  0.00     0.071 H 
ATOM     27  C   UNL     1     -48.257  27.743  25.670  1.00  0.00     0.140 A 
ATOM     28  O   UNL     1     -45.670  27.733  23.223  1.00  0.00    -0.269 OA
ATOM     29  N   UNL     1     -47.216  27.247  24.894  1.00  0.00    -0.268 N 
ATOM     30  C   UNL     1     -48.874  26.806  26.652  1.00  0.00    -0.019 A 
ATOM     31  C   UNL     1     -46.781  25.933  25.037  1.00  0.00     0.014 A 
ATOM     32  C   UNL     1     -48.421  25.552  26.753  1.00  0.00    -0.057 A 
ATOM     33  H   UNL     1     -49.685  27.184  27.261  1.00  0.00     0.066 H 
ATOM     34  C   UNL     1     -47.340  25.097  25.920  1.00  0.00    -0.045 A 
ATOM     35  H   UNL     1     -45.962  25.611  24.398  1.00  0.00     0.082 H 
ATOM     36  H   UNL     1     -48.857  24.855  27.462  1.00  0.00     0.062 H 
ATOM     37  H   UNL     1     -46.993  24.073  26.024  1.00  0.00     0.064 H 
ENDBRANCH  20  22
ENDBRANCH  15  18
ENDBRANCH   1  15
BRANCH   6  38
ATOM     38  C   UNL     1     -45.295  39.447  28.055  1.00  0.00     0.039 C 
ATOM     39  H   UNL     1     -45.200  39.611  29.136  1.00  0.00     0.050 H 
ATOM     40  H   UNL     1     -46.118  40.102  27.739  1.00  0.00     0.050 H 
BRANCH  38  41
ATOM     41  N   UNL     1     -44.066  39.932  27.412  1.00  0.00    -0.296 NA
ATOM     42  C   UNL     1     -44.283  40.606  26.122  1.00  0.00     0.011 C 
ATOM     43  C   UNL     1     -43.499  41.157  27.993  1.00  0.00     0.011 C 
ATOM     44  C   UNL     1     -44.044  41.964  26.803  1.00  0.00     0.080 C 
ATOM     45  H   UNL     1     -45.260  40.475  25.645  1.00  0.00     0.044 H 
ATOM     46  H   UNL     1     -43.526  40.332  25.376  1.00  0.00     0.044 H 
ATOM     47  H   UNL     1     -42.403  41.121  28.051  1.00  0.00     0.044 H 
ATOM     48  H   UNL     1     -43.858  41.459  28.982  1.00  0.00     0.044 H 
ATOM     49  H   UNL     1     -44.974  42.495  27.039  1.00  0.00     0.042 H 
BRANCH  44  50
ATOM     50  C   UNL     1     -43.070  42.875  26.127  1.00  0.00     0.394 C 
ATOM     51  F   UNL     1     -43.483  43.161  24.872  1.00  0.00    -0.171 F 
ATOM     52  F   UNL     1     -41.833  42.335  26.046  1.00  0.00    -0.171 F 
ATOM     53  F   UNL     1     -42.970  44.042  26.805  1.00  0.00    -0.171 F 
ENDBRANCH  44  50
ENDBRANCH  38  41
ENDBRANCH   6  38
TORSDOF 6
ENDMDL
MODEL 7
REMARK VINA RESULT:      -9.9      5.431     11.645
REMARK SMILES O=C(NCc1ccc2cc(CN3CC(C(F)(F)F)C3)[nH]c2c1)c1cc(=O)n2ccccc2n1
REMARK SMILES IDX 5 1 6 2 7 3 8 4 9 5 10 6 20 7 21 8 22 9 4 15 3 18 1 19 2 20
REMARK SMILES IDX 23 22 24 23 33 24 25 25 32 27 26 28 27 29 31 30 28 31 30 32
REMARK SMILES IDX 29 34 11 38 12 41 13 42 19 43 14 44 15 50 16 51 17 52 18 53
REMARK H PARENT 6 10 7 11 9 12 20 13 22 14 4 16 4 17 3 21 24 26 31 33 28 35
REMARK H PARENT 30 36 29 37 11 39 11 40 13 45 13 46 19 47 19 48 14 49
REMARK Flexibility Score: inf
ROOT
ATOM      1  C   UNL     1     -46.857  33.461  25.367  1.00  0.00    -0.027 A 
ATOM      2  C   UNL     1     -48.200  33.634  25.724  1.00  0.00    -0.057 A 
ATOM      3  C   UNL     1     -48.569  34.499  26.762  1.00  0.00    -0.052 A 
ATOM      4  C   UNL     1     -47.570  35.196  27.466  1.00  0.00    -0.000 A 
ATOM      5  C   UNL     1     -47.582  36.119  28.545  1.00  0.00    -0.032 A 
ATOM      6  C   UNL     1     -46.273  36.451  28.845  1.00  0.00     0.030 A 
ATOM      7  N   UNL     1     -45.478  35.800  27.932  1.00  0.00    -0.357 N 
ATOM      8  C   UNL     1     -46.239  35.008  27.103  1.00  0.00     0.046 A 
ATOM      9  C   UNL     1     -45.851  34.151  26.066  1.00  0.00    -0.033 A 
ATOM     10  H   UNL     1     -48.980  33.090  25.193  1.00  0.00     0.063 H 
ATOM     11  H   UNL     1     -49.615  34.623  27.022  1.00  0.00     0.063 H 
ATOM     12  H   UNL     1     -48.459  36.489  29.060  1.00  0.00     0.065 H 
ATOM     13  H   UNL     1     -44.470  35.870  27.882  1.00  0.00     0.166 HD
ATOM     14  H   UNL     1     -44.804  34.017  25.809  1.00  0.00     0.065 H 
ENDROOT
BRANCH   1  15
ATOM     15  C   UNL     1     -46.478  32.499  24.272  1.00  0.00     0.043 C 
ATOM     16  H   UNL     1     -45.388  32.451  24.158  1.00  0.00     0.054 H 
ATOM     17  H   UNL     1     -46.882  32.822  23.305  1.00  0.00     0.054 H 
BRANCH  15  18
ATOM     18  N   UNL     1     -46.985  31.182  24.554  1.00  0.00    -0.347 N 
ATOM     19  O   UNL     1     -48.242  30.995  22.642  1.00  0.00    -0.268 OA
ATOM     20  C   UNL     1     -47.871  30.549  23.722  1.00  0.00     0.270 C 
ATOM     21  H   UNL     1     -46.820  30.754  25.460  1.00  0.00     0.164 HD
BRANCH  20  22
ATOM     22  C   UNL     1     -48.355  29.235  24.286  1.00  0.00     0.136 A 
ATOM     23  C   UNL     1     -49.676  29.048  24.312  1.00  0.00     0.035 A 
ATOM     24  N   UNL     1     -47.423  28.325  24.735  1.00  0.00    -0.225 NA
ATOM     25  C   UNL     1     -50.188  27.782  24.852  1.00  0.00     0.258 A 
ATOM     26  H   UNL     1     -50.399  29.772  23.957  1.00  0.00     0.071 H 
ATOM     27  C   UNL     1     -47.881  27.208  25.210  1.00  0.00     0.140 A 
ATOM     28  O   UNL     1     -51.405  27.601  24.878  1.00  0.00    -0.269 OA
ATOM     29  N   UNL     1     -49.230  26.882  25.294  1.00  0.00    -0.268 N 
ATOM     30  C   UNL     1     -46.909  26.191  25.703  1.00  0.00    -0.019 A 
ATOM     31  C   UNL     1     -49.639  25.660  25.817  1.00  0.00     0.014 A 
ATOM     32  C   UNL     1     -47.351  25.030  26.199  1.00  0.00    -0.057 A 
ATOM     33  H   UNL     1     -45.855  26.435  25.642  1.00  0.00     0.066 H 
ATOM     34  C   UNL     1     -48.761  24.752  26.259  1.00  0.00    -0.045 A 
ATOM     35  H   UNL     1     -50.710  25.472  25.853  1.00  0.00     0.082 H 
ATOM     36  H   UNL     1     -46.659  24.277  26.563  1.00  0.00     0.062 H 
ATOM     37  H   UNL     1     -49.091  23.801  26.667  1.00  0.00     0.064 H 
ENDBRANCH  20  22
ENDBRANCH  15  18
ENDBRANCH   1  15
BRANCH   6  38
ATOM     38  C   UNL     1     -45.704  37.369  29.880  1.00  0.00     0.039 C 
ATOM     39  H   UNL     1     -44.719  36.987  30.177  1.00  0.00     0.050 H 
ATOM     40  H   UNL     1     -46.320  37.305  30.787  1.00  0.00     0.050 H 
BRANCH  38  41
ATOM     41  N   UNL     1     -45.556  38.791  29.538  1.00  0.00    -0.296 NA
ATOM     42  C   UNL     1     -44.193  39.179  29.141  1.00  0.00     0.011 C 
ATOM     43  C   UNL     1     -46.083  39.174  28.221  1.00  0.00     0.011 C 
ATOM     44  C   UNL     1     -44.648  39.235  27.673  1.00  0.00     0.080 C 
ATOM     45  H   UNL     1     -43.385  38.474  29.365  1.00  0.00     0.044 H 
ATOM     46  H   UNL     1     -43.896  40.147  29.561  1.00  0.00     0.044 H 
ATOM     47  H   UNL     1     -46.600  40.143  28.246  1.00  0.00     0.044 H 
ATOM     48  H   UNL     1     -46.757  38.470  27.723  1.00  0.00     0.044 H 
ATOM     49  H   UNL     1     -44.371  38.339  27.104  1.00  0.00     0.042 H 
BRANCH  44  50
ATOM     50  C   UNL     1     -44.285  40.474  26.920  1.00  0.00     0.394 C 
ATOM     51  F   UNL     1     -43.015  40.396  26.464  1.00  0.00    -0.171 F 
ATOM     52  F   UNL     1     -44.385  41.586  27.682  1.00  0.00    -0.171 F 
ATOM     53  F   UNL     1     -45.099  40.630  25.851  1.00  0.00    -0.171 F 
ENDBRANCH  44  50
ENDBRANCH  38  41
ENDBRANCH   6  38
TORSDOF 6
ENDMDL
