MODEL 1
REMARK VINA RESULT:      -9.0      0.000      0.000
REMARK SMILES COc1cccc(CC[C@H]2C[C@@H](n3ccc4c(N)ncnc43)[C@H](O)[C@@H]2O)n1
REMARK SMILES IDX 8 1 7 4 3 5 4 6 27 7 5 8 6 10 2 13 1 14 9 18 10 21 11 22
REMARK SMILES IDX 25 23 12 25 23 28 26 32 13 34 14 35 22 36 15 37 16 39 21 40
REMARK SMILES IDX 17 42 20 43 19 44 18 46 24 49
REMARK H PARENT 8 2 8 3 4 9 5 11 6 12 1 15 1 16 1 17 9 19 9 20 10 24 11 26
REMARK H PARENT 11 27 25 29 12 30 23 31 26 33 14 38 15 41 20 45 18 47 18 48
REMARK H PARENT 24 50
REMARK Flexibility Score: inf
ROOT
ATOM      1  C   UNL     1     -46.006  35.081  26.708  1.00  0.00    -0.010 C 
ATOM      2  H   UNL     1     -46.250  36.004  26.166  1.00  0.00     0.033 H 
ATOM      3  H   UNL     1     -44.944  34.896  26.510  1.00  0.00     0.033 H 
ENDROOT
BRANCH   1   4
ATOM      4  C   UNL     1     -46.845  33.967  26.124  1.00  0.00     0.044 A 
ATOM      5  C   UNL     1     -47.002  32.105  24.764  1.00  0.00     0.213 A 
ATOM      6  C   UNL     1     -48.350  31.947  25.042  1.00  0.00     0.000 A 
ATOM      7  N   UNL     1     -46.230  33.085  25.294  1.00  0.00    -0.219 NA
ATOM      8  C   UNL     1     -48.956  32.845  25.911  1.00  0.00    -0.055 A 
ATOM      9  H   UNL     1     -48.916  31.141  24.586  1.00  0.00     0.068 H 
ATOM     10  C   UNL     1     -48.196  33.871  26.459  1.00  0.00    -0.040 A 
ATOM     11  H   UNL     1     -50.010  32.750  26.152  1.00  0.00     0.063 H 
ATOM     12  H   UNL     1     -48.654  34.587  27.135  1.00  0.00     0.064 H 
BRANCH   5  13
ATOM     13  O   UNL     1     -46.470  31.191  23.876  1.00  0.00    -0.481 OA
BRANCH  13  14
ATOM     14  C   UNL     1     -47.428  30.602  23.006  1.00  0.00     0.079 C 
ATOM     15  H   UNL     1     -48.436  30.988  23.189  1.00  0.00     0.067 H 
ATOM     16  H   UNL     1     -47.444  29.526  23.209  1.00  0.00     0.067 H 
ATOM     17  H   UNL     1     -47.132  30.735  21.961  1.00  0.00     0.067 H 
ENDBRANCH  13  14
ENDBRANCH   5  13
ENDBRANCH   1   4
BRANCH   1  18
ATOM     18  C   UNL     1     -46.263  35.296  28.204  1.00  0.00    -0.042 C 
ATOM     19  H   UNL     1     -47.136  34.686  28.479  1.00  0.00     0.027 H 
ATOM     20  H   UNL     1     -45.428  34.914  28.803  1.00  0.00     0.027 H 
BRANCH  18  21
ATOM     21  C   UNL     1     -46.587  36.743  28.610  1.00  0.00    -0.010 C 
ATOM     22  C   UNL     1     -45.304  37.578  28.730  1.00  0.00    -0.024 C 
ATOM     23  C   UNL     1     -47.423  37.550  27.616  1.00  0.00     0.085 C 
ATOM     24  H   UNL     1     -47.098  36.718  29.583  1.00  0.00     0.033 H 
ATOM     25  C   UNL     1     -45.747  39.045  28.594  1.00  0.00     0.064 C 
ATOM     26  H   UNL     1     -44.581  37.298  27.954  1.00  0.00     0.029 H 
ATOM     27  H   UNL     1     -44.812  37.403  29.694  1.00  0.00     0.029 H 
ATOM     28  C   UNL     1     -47.180  39.009  28.039  1.00  0.00     0.101 C 
ATOM     29  H   UNL     1     -47.104  37.381  26.583  1.00  0.00     0.063 H 
ATOM     30  H   UNL     1     -45.763  39.492  29.599  1.00  0.00     0.056 H 
ATOM     31  H   UNL     1     -47.372  39.707  27.218  1.00  0.00     0.065 H 
BRANCH  23  32
ATOM     32  O   UNL     1     -48.815  37.267  27.744  1.00  0.00    -0.390 OA
ATOM     33  H   UNL     1     -49.155  37.878  28.434  1.00  0.00     0.211 HD
ENDBRANCH  23  32
BRANCH  25  34
ATOM     34  N   UNL     1     -44.827  39.853  27.808  1.00  0.00    -0.327 N 
ATOM     35  C   UNL     1     -45.024  40.198  26.491  1.00  0.00     0.007 A 
ATOM     36  C   UNL     1     -43.642  40.392  28.247  1.00  0.00     0.145 A 
ATOM     37  C   UNL     1     -43.950  40.961  26.084  1.00  0.00    -0.031 A 
ATOM     38  H   UNL     1     -45.902  39.867  25.950  1.00  0.00     0.082 H 
ATOM     39  C   UNL     1     -43.069  41.091  27.193  1.00  0.00     0.061 A 
ATOM     40  N   UNL     1     -43.130  40.262  29.483  1.00  0.00    -0.218 NA
ATOM     41  H   UNL     1     -43.809  41.373  25.093  1.00  0.00     0.065 H 
ATOM     42  C   UNL     1     -41.841  41.718  27.444  1.00  0.00     0.136 A 
ATOM     43  C   UNL     1     -41.953  40.900  29.601  1.00  0.00     0.120 A 
ATOM     44  N   UNL     1     -41.294  41.616  28.670  1.00  0.00    -0.219 NA
ATOM     45  H   UNL     1     -41.471  40.832  30.572  1.00  0.00     0.106 H 
BRANCH  42  46
ATOM     46  N   UNL     1     -41.151  42.465  26.499  1.00  0.00    -0.383 N 
ATOM     47  H   UNL     1     -41.686  42.543  25.643  1.00  0.00     0.158 HD
ATOM     48  H   UNL     1     -40.174  42.230  26.403  1.00  0.00     0.158 HD
ENDBRANCH  42  46
ENDBRANCH  25  34
BRANCH  28  49
ATOM     49  O   UNL     1     -48.100  39.351  29.092  1.00  0.00    -0.388 OA
ATOM     50  H   UNL     1     -47.610  39.130  29.915  1.00  0.00     0.211 HD
ENDBRANCH  28  49
ENDBRANCH  18  21
ENDBRANCH   1  18
TORSDOF 9
ENDMDL
MODEL 2
REMARK VINA RESULT:      -8.6      1.495      2.178
REMARK SMILES COc1cccc(CC[C@H]2C[C@@H](n3ccc4c(N)ncnc43)[C@H](O)[C@@H]2O)n1
REMARK SMILES IDX 8 1 7 4 3 5 4 6 27 7 5 8 6 10 2 13 1 14 9 18 10 21 11 22
REMARK SMILES IDX 25 23 12 25 23 28 26 32 13 34 14 35 22 36 15 37 16 39 21 40
REMARK SMILES IDX 17 42 20 43 19 44 18 46 24 49
REMARK H PARENT 8 2 8 3 4 9 5 11 6 12 1 15 1 16 1 17 9 19 9 20 10 24 11 26
REMARK H PARENT 11 27 25 29 12 30 23 31 26 33 14 38 15 41 20 45 18 47 18 48
REMARK H PARENT 24 50
REMARK Flexibility Score: inf
ROOT
ATOM      1  C   UNL     1     -46.458  33.644  25.393  1.00  0.00    -0.010 C 
ATOM      2  H   UNL     1     -47.147  34.462  25.151  1.00  0.00     0.033 H 
ATOM      3  H   UNL     1     -45.518  33.892  24.887  1.00  0.00     0.033 H 
ENDROOT
BRANCH   1   4
ATOM      4  C   UNL     1     -47.036  32.369  24.819  1.00  0.00     0.044 A 
ATOM      5  C   UNL     1     -46.997  30.730  23.190  1.00  0.00     0.213 A 
ATOM      6  C   UNL     1     -48.075  30.067  23.754  1.00  0.00     0.000 A 
ATOM      7  N   UNL     1     -46.453  31.861  23.702  1.00  0.00    -0.219 NA
ATOM      8  C   UNL     1     -48.643  30.589  24.909  1.00  0.00    -0.055 A 
ATOM      9  H   UNL     1     -48.466  29.164  23.298  1.00  0.00     0.068 H 
ATOM     10  C   UNL     1     -48.119  31.757  25.450  1.00  0.00    -0.040 A 
ATOM     11  H   UNL     1     -49.488  30.095  25.378  1.00  0.00     0.063 H 
ATOM     12  H   UNL     1     -48.554  32.183  26.349  1.00  0.00     0.064 H 
BRANCH   5  13
ATOM     13  O   UNL     1     -46.497  30.169  22.032  1.00  0.00    -0.481 OA
BRANCH  13  14
ATOM     14  C   UNL     1     -45.324  29.389  22.226  1.00  0.00     0.079 C 
ATOM     15  H   UNL     1     -44.928  29.005  21.279  1.00  0.00     0.067 H 
ATOM     16  H   UNL     1     -45.596  28.527  22.843  1.00  0.00     0.067 H 
ATOM     17  H   UNL     1     -44.568  29.960  22.773  1.00  0.00     0.067 H 
ENDBRANCH  13  14
ENDBRANCH   5  13
ENDBRANCH   1   4
BRANCH   1  18
ATOM     18  C   UNL     1     -46.271  33.579  26.913  1.00  0.00    -0.042 C 
ATOM     19  H   UNL     1     -46.743  32.650  27.263  1.00  0.00     0.027 H 
ATOM     20  H   UNL     1     -45.209  33.494  27.173  1.00  0.00     0.027 H 
BRANCH  18  21
ATOM     21  C   UNL     1     -46.917  34.730  27.700  1.00  0.00    -0.010 C 
ATOM     22  C   UNL     1     -45.871  35.785  28.085  1.00  0.00    -0.024 C 
ATOM     23  C   UNL     1     -47.966  35.552  26.951  1.00  0.00     0.085 C 
ATOM     24  H   UNL     1     -47.365  34.311  28.613  1.00  0.00     0.033 H 
ATOM     25  C   UNL     1     -46.662  37.078  28.356  1.00  0.00     0.064 C 
ATOM     26  H   UNL     1     -45.136  35.919  27.282  1.00  0.00     0.029 H 
ATOM     27  H   UNL     1     -45.310  35.474  28.974  1.00  0.00     0.029 H 
ATOM     28  C   UNL     1     -48.066  36.849  27.773  1.00  0.00     0.101 C 
ATOM     29  H   UNL     1     -47.661  35.762  25.922  1.00  0.00     0.063 H 
ATOM     30  H   UNL     1     -46.742  37.208  29.444  1.00  0.00     0.056 H 
ATOM     31  H   UNL     1     -48.456  37.679  27.177  1.00  0.00     0.065 H 
BRANCH  23  32
ATOM     32  O   UNL     1     -49.241  34.913  26.956  1.00  0.00    -0.390 OA
ATOM     33  H   UNL     1     -49.665  35.156  27.809  1.00  0.00     0.211 HD
ENDBRANCH  23  32
BRANCH  25  34
ATOM     34  N   UNL     1     -46.000  38.272  27.854  1.00  0.00    -0.327 N 
ATOM     35  C   UNL     1     -46.349  38.927  26.696  1.00  0.00     0.007 A 
ATOM     36  C   UNL     1     -44.946  38.925  28.446  1.00  0.00     0.145 A 
ATOM     37  C   UNL     1     -45.504  40.006  26.544  1.00  0.00    -0.031 A 
ATOM     38  H   UNL     1     -47.158  38.570  26.071  1.00  0.00     0.082 H 
ATOM     39  C   UNL     1     -44.612  40.014  27.652  1.00  0.00     0.061 A 
ATOM     40  N   UNL     1     -44.344  38.567  29.593  1.00  0.00    -0.218 NA
ATOM     41  H   UNL     1     -45.520  40.709  25.721  1.00  0.00     0.065 H 
ATOM     42  C   UNL     1     -43.548  40.813  28.091  1.00  0.00     0.136 A 
ATOM     43  C   UNL     1     -43.340  39.402  29.908  1.00  0.00     0.120 A 
ATOM     44  N   UNL     1     -42.920  40.492  29.238  1.00  0.00    -0.219 NA
ATOM     45  H   UNL     1     -42.798  39.172  30.821  1.00  0.00     0.106 H 
BRANCH  42  46
ATOM     46  N   UNL     1     -43.105  41.943  27.417  1.00  0.00    -0.383 N 
ATOM     47  H   UNL     1     -42.105  42.057  27.528  1.00  0.00     0.158 HD
ATOM     48  H   UNL     1     -43.672  42.767  27.550  1.00  0.00     0.158 HD
ENDBRANCH  42  46
ENDBRANCH  25  34
BRANCH  28  49
ATOM     49  O   UNL     1     -48.995  36.647  28.855  1.00  0.00    -0.388 OA
ATOM     50  H   UNL     1     -48.454  36.795  29.662  1.00  0.00     0.211 HD
ENDBRANCH  28  49
ENDBRANCH  18  21
ENDBRANCH   1  18
TORSDOF 9
ENDMDL
MODEL 3
REMARK VINA RESULT:      -8.3      2.674      9.315
REMARK SMILES COc1cccc(CC[C@H]2C[C@@H](n3ccc4c(N)ncnc43)[C@H](O)[C@@H]2O)n1
REMARK SMILES IDX 8 1 7 4 3 5 4 6 27 7 5 8 6 10 2 13 1 14 9 18 10 21 11 22
REMARK SMILES IDX 25 23 12 25 23 28 26 32 13 34 14 35 22 36 15 37 16 39 21 40
REMARK SMILES IDX 17 42 20 43 19 44 18 46 24 49
REMARK H PARENT 8 2 8 3 4 9 5 11 6 12 1 15 1 16 1 17 9 19 9 20 10 24 11 26
REMARK H PARENT 11 27 25 29 12 30 23 31 26 33 14 38 15 41 20 45 18 47 18 48
REMARK H PARENT 24 50
REMARK Flexibility Score: inf
ROOT
ATOM      1  C   UNL     1     -47.858  36.941  28.155  1.00  0.00    -0.010 C 
ATOM      2  H   UNL     1     -48.762  37.497  28.438  1.00  0.00     0.033 H 
ATOM      3  H   UNL     1     -47.622  36.307  29.017  1.00  0.00     0.033 H 
ENDROOT
BRANCH   1   4
ATOM      4  C   UNL     1     -46.750  37.946  27.931  1.00  0.00     0.044 A 
ATOM      5  C   UNL     1     -44.839  38.996  28.695  1.00  0.00     0.213 A 
ATOM      6  C   UNL     1     -44.740  39.770  27.551  1.00  0.00     0.000 A 
ATOM      7  N   UNL     1     -45.812  38.076  28.905  1.00  0.00    -0.219 NA
ATOM      8  C   UNL     1     -45.695  39.606  26.556  1.00  0.00    -0.055 A 
ATOM      9  H   UNL     1     -43.935  40.490  27.441  1.00  0.00     0.068 H 
ATOM     10  C   UNL     1     -46.716  38.683  26.747  1.00  0.00    -0.040 A 
ATOM     11  H   UNL     1     -45.647  40.196  25.646  1.00  0.00     0.063 H 
ATOM     12  H   UNL     1     -47.476  38.546  25.983  1.00  0.00     0.064 H 
BRANCH   5  13
ATOM     13  O   UNL     1     -43.869  39.226  29.652  1.00  0.00    -0.481 OA
BRANCH  13  14
ATOM     14  C   UNL     1     -43.018  40.327  29.361  1.00  0.00     0.079 C 
ATOM     15  H   UNL     1     -43.583  41.256  29.229  1.00  0.00     0.067 H 
ATOM     16  H   UNL     1     -42.509  40.114  28.416  1.00  0.00     0.067 H 
ATOM     17  H   UNL     1     -42.249  40.433  30.133  1.00  0.00     0.067 H 
ENDBRANCH  13  14
ENDBRANCH   5  13
ENDBRANCH   1   4
BRANCH   1  18
ATOM     18  C   UNL     1     -48.158  36.099  26.910  1.00  0.00    -0.042 C 
ATOM     19  H   UNL     1     -49.241  36.153  26.729  1.00  0.00     0.027 H 
ATOM     20  H   UNL     1     -47.682  36.533  26.021  1.00  0.00     0.027 H 
BRANCH  18  21
ATOM     21  C   UNL     1     -47.800  34.609  27.027  1.00  0.00    -0.010 C 
ATOM     22  C   UNL     1     -48.876  33.734  26.369  1.00  0.00    -0.024 C 
ATOM     23  C   UNL     1     -46.522  34.167  26.313  1.00  0.00     0.085 C 
ATOM     24  H   UNL     1     -47.728  34.358  28.094  1.00  0.00     0.033 H 
ATOM     25  C   UNL     1     -48.190  32.391  26.061  1.00  0.00     0.064 C 
ATOM     26  H   UNL     1     -49.265  34.210  25.460  1.00  0.00     0.029 H 
ATOM     27  H   UNL     1     -49.731  33.595  27.040  1.00  0.00     0.029 H 
ATOM     28  C   UNL     1     -46.680  32.641  26.199  1.00  0.00     0.101 C 
ATOM     29  H   UNL     1     -46.426  34.627  25.325  1.00  0.00     0.063 H 
ATOM     30  H   UNL     1     -48.505  31.665  26.824  1.00  0.00     0.056 H 
ATOM     31  H   UNL     1     -46.071  32.229  25.389  1.00  0.00     0.065 H 
BRANCH  23  32
ATOM     32  O   UNL     1     -45.359  34.446  27.090  1.00  0.00    -0.390 OA
ATOM     33  H   UNL     1     -44.717  33.729  26.886  1.00  0.00     0.211 HD
ENDBRANCH  23  32
BRANCH  25  34
ATOM     34  N   UNL     1     -48.582  31.826  24.779  1.00  0.00    -0.327 N 
ATOM     35  C   UNL     1     -49.879  31.751  24.326  1.00  0.00     0.007 A 
ATOM     36  C   UNL     1     -47.739  31.291  23.836  1.00  0.00     0.145 A 
ATOM     37  C   UNL     1     -49.862  31.157  23.081  1.00  0.00    -0.031 A 
ATOM     38  H   UNL     1     -50.705  32.114  24.925  1.00  0.00     0.082 H 
ATOM     39  C   UNL     1     -48.508  30.864  22.762  1.00  0.00     0.061 A 
ATOM     40  N   UNL     1     -46.402  31.199  23.939  1.00  0.00    -0.218 NA
ATOM     41  H   UNL     1     -50.731  30.947  22.471  1.00  0.00     0.065 H 
ATOM     42  C   UNL     1     -47.823  30.283  21.686  1.00  0.00     0.136 A 
ATOM     43  C   UNL     1     -45.859  30.622  22.854  1.00  0.00     0.120 A 
ATOM     44  N   UNL     1     -46.482  30.174  21.748  1.00  0.00    -0.219 NA
ATOM     45  H   UNL     1     -44.780  30.504  22.868  1.00  0.00     0.106 H 
BRANCH  42  46
ATOM     46  N   UNL     1     -48.448  29.821  20.535  1.00  0.00    -0.383 N 
ATOM     47  H   UNL     1     -47.961  30.145  19.709  1.00  0.00     0.158 HD
ATOM     48  H   UNL     1     -49.454  29.908  20.533  1.00  0.00     0.158 HD
ENDBRANCH  42  46
ENDBRANCH  25  34
BRANCH  28  49
ATOM     49  O   UNL     1     -46.213  32.030  27.417  1.00  0.00    -0.388 OA
ATOM     50  H   UNL     1     -45.262  31.855  27.244  1.00  0.00     0.211 HD
ENDBRANCH  28  49
ENDBRANCH  18  21
ENDBRANCH   1  18
TORSDOF 9
ENDMDL
MODEL 4
REMARK VINA RESULT:      -8.2      1.997      2.511
REMARK SMILES COc1cccc(CC[C@H]2C[C@@H](n3ccc4c(N)ncnc43)[C@H](O)[C@@H]2O)n1
REMARK SMILES IDX 8 1 7 4 3 5 4 6 27 7 5 8 6 10 2 13 1 14 9 18 10 21 11 22
REMARK SMILES IDX 25 23 12 25 23 28 26 32 13 34 14 35 22 36 15 37 16 39 21 40
REMARK SMILES IDX 17 42 20 43 19 44 18 46 24 49
REMARK H PARENT 8 2 8 3 4 9 5 11 6 12 1 15 1 16 1 17 9 19 9 20 10 24 11 26
REMARK H PARENT 11 27 25 29 12 30 23 31 26 33 14 38 15 41 20 45 18 47 18 48
REMARK H PARENT 24 50
REMARK Flexibility Score: inf
ROOT
ATOM      1  C   UNL     1     -47.936  35.955  27.421  1.00  0.00    -0.010 C 
ATOM      2  H   UNL     1     -49.024  36.069  27.519  1.00  0.00     0.033 H 
ATOM      3  H   UNL     1     -47.595  36.846  26.883  1.00  0.00     0.033 H 
ENDROOT
BRANCH   1   4
ATOM      4  C   UNL     1     -47.676  34.716  26.593  1.00  0.00     0.044 A 
ATOM      5  C   UNL     1     -48.367  32.635  25.865  1.00  0.00     0.213 A 
ATOM      6  C   UNL     1     -47.219  32.457  25.109  1.00  0.00     0.000 A 
ATOM      7  N   UNL     1     -48.627  33.746  26.596  1.00  0.00    -0.219 NA
ATOM      8  C   UNL     1     -46.270  33.471  25.099  1.00  0.00    -0.055 A 
ATOM      9  H   UNL     1     -47.069  31.544  24.542  1.00  0.00     0.068 H 
ATOM     10  C   UNL     1     -46.498  34.616  25.852  1.00  0.00    -0.040 A 
ATOM     11  H   UNL     1     -45.360  33.366  24.517  1.00  0.00     0.063 H 
ATOM     12  H   UNL     1     -45.764  35.416  25.863  1.00  0.00     0.064 H 
BRANCH   5  13
ATOM     13  O   UNL     1     -49.257  31.579  25.845  1.00  0.00    -0.481 OA
BRANCH  13  14
ATOM     14  C   UNL     1     -48.675  30.336  25.475  1.00  0.00     0.079 C 
ATOM     15  H   UNL     1     -49.417  29.531  25.442  1.00  0.00     0.067 H 
ATOM     16  H   UNL     1     -47.937  30.073  26.239  1.00  0.00     0.067 H 
ATOM     17  H   UNL     1     -48.143  30.429  24.523  1.00  0.00     0.067 H 
ENDBRANCH  13  14
ENDBRANCH   5  13
ENDBRANCH   1   4
BRANCH   1  18
ATOM     18  C   UNL     1     -47.313  35.876  28.819  1.00  0.00    -0.042 C 
ATOM     19  H   UNL     1     -48.063  36.241  29.535  1.00  0.00     0.027 H 
ATOM     20  H   UNL     1     -47.111  34.834  29.099  1.00  0.00     0.027 H 
BRANCH  18  21
ATOM     21  C   UNL     1     -46.052  36.731  29.022  1.00  0.00    -0.010 C 
ATOM     22  C   UNL     1     -45.678  37.469  27.729  1.00  0.00    -0.024 C 
ATOM     23  C   UNL     1     -46.166  37.867  30.039  1.00  0.00     0.085 C 
ATOM     24  H   UNL     1     -45.229  36.062  29.311  1.00  0.00     0.033 H 
ATOM     25  C   UNL     1     -44.798  38.654  28.166  1.00  0.00     0.064 C 
ATOM     26  H   UNL     1     -46.576  37.805  27.196  1.00  0.00     0.029 H 
ATOM     27  H   UNL     1     -45.135  36.808  27.044  1.00  0.00     0.029 H 
ATOM     28  C   UNL     1     -44.987  38.790  29.685  1.00  0.00     0.101 C 
ATOM     29  H   UNL     1     -47.119  38.396  29.953  1.00  0.00     0.063 H 
ATOM     30  H   UNL     1     -43.749  38.397  27.956  1.00  0.00     0.056 H 
ATOM     31  H   UNL     1     -45.152  39.813  30.037  1.00  0.00     0.065 H 
BRANCH  23  32
ATOM     32  O   UNL     1     -45.991  37.400  31.375  1.00  0.00    -0.390 OA
ATOM     33  H   UNL     1     -46.009  36.418  31.325  1.00  0.00     0.211 HD
ENDBRANCH  23  32
BRANCH  25  34
ATOM     34  N   UNL     1     -45.069  39.876  27.423  1.00  0.00    -0.327 N 
ATOM     35  C   UNL     1     -46.275  40.178  26.837  1.00  0.00     0.007 A 
ATOM     36  C   UNL     1     -44.183  40.902  27.197  1.00  0.00     0.145 A 
ATOM     37  C   UNL     1     -46.157  41.409  26.225  1.00  0.00    -0.031 A 
ATOM     38  H   UNL     1     -47.114  39.495  26.892  1.00  0.00     0.082 H 
ATOM     39  C   UNL     1     -44.833  41.876  26.451  1.00  0.00     0.061 A 
ATOM     40  N   UNL     1     -42.909  40.949  27.625  1.00  0.00    -0.218 NA
ATOM     41  H   UNL     1     -46.935  41.913  25.668  1.00  0.00     0.065 H 
ATOM     42  C   UNL     1     -44.088  43.014  26.113  1.00  0.00     0.136 A 
ATOM     43  C   UNL     1     -42.298  42.081  27.237  1.00  0.00     0.120 A 
ATOM     44  N   UNL     1     -42.809  43.103  26.525  1.00  0.00    -0.219 NA
ATOM     45  H   UNL     1     -41.260  42.188  27.539  1.00  0.00     0.106 H 
BRANCH  42  46
ATOM     46  N   UNL     1     -44.599  44.080  25.386  1.00  0.00    -0.383 N 
ATOM     47  H   UNL     1     -44.308  44.962  25.789  1.00  0.00     0.158 HD
ATOM     48  H   UNL     1     -45.573  43.996  25.135  1.00  0.00     0.158 HD
ENDBRANCH  42  46
ENDBRANCH  25  34
BRANCH  28  49
ATOM     49  O   UNL     1     -43.803  38.312  30.350  1.00  0.00    -0.388 OA
ATOM     50  H   UNL     1     -43.328  39.133  30.606  1.00  0.00     0.211 HD
ENDBRANCH  28  49
ENDBRANCH  18  21
ENDBRANCH   1  18
TORSDOF 9
ENDMDL
MODEL 5
REMARK VINA RESULT:      -8.0      2.315      8.557
REMARK SMILES COc1cccc(CC[C@H]2C[C@@H](n3ccc4c(N)ncnc43)[C@H](O)[C@@H]2O)n1
REMARK SMILES IDX 8 1 7 4 3 5 4 6 27 7 5 8 6 10 2 13 1 14 9 18 10 21 11 22
REMARK SMILES IDX 25 23 12 25 23 28 26 32 13 34 14 35 22 36 15 37 16 39 21 40
REMARK SMILES IDX 17 42 20 43 19 44 18 46 24 49
REMARK H PARENT 8 2 8 3 4 9 5 11 6 12 1 15 1 16 1 17 9 19 9 20 10 24 11 26
REMARK H PARENT 11 27 25 29 12 30 23 31 26 33 14 38 15 41 20 45 18 47 18 48
REMARK H PARENT 24 50
REMARK Flexibility Score: inf
ROOT
ATOM      1  C   UNL     1     -45.785  39.418  26.599  1.00  0.00    -0.010 C 
ATOM      2  H   UNL     1     -45.312  38.437  26.461  1.00  0.00     0.033 H 
ATOM      3  H   UNL     1     -46.397  39.576  25.704  1.00  0.00     0.033 H 
ENDROOT
BRANCH   1   4
ATOM      4  C   UNL     1     -44.686  40.455  26.666  1.00  0.00     0.044 A 
ATOM      5  C   UNL     1     -42.784  41.266  27.697  1.00  0.00     0.213 A 
ATOM      6  C   UNL     1     -42.692  42.330  26.814  1.00  0.00     0.000 A 
ATOM      7  N   UNL     1     -43.749  40.316  27.639  1.00  0.00    -0.219 NA
ATOM      8  C   UNL     1     -43.646  42.442  25.811  1.00  0.00    -0.055 A 
ATOM      9  H   UNL     1     -41.894  43.058  26.911  1.00  0.00     0.068 H 
ATOM     10  C   UNL     1     -44.659  41.493  25.735  1.00  0.00    -0.040 A 
ATOM     11  H   UNL     1     -43.604  43.262  25.102  1.00  0.00     0.063 H 
ATOM     12  H   UNL     1     -45.418  41.568  24.962  1.00  0.00     0.064 H 
BRANCH   5  13
ATOM     13  O   UNL     1     -41.815  41.228  28.681  1.00  0.00    -0.481 OA
BRANCH  13  14
ATOM     14  C   UNL     1     -42.241  40.613  29.890  1.00  0.00     0.079 C 
ATOM     15  H   UNL     1     -42.089  41.266  30.756  1.00  0.00     0.067 H 
ATOM     16  H   UNL     1     -41.630  39.718  30.041  1.00  0.00     0.067 H 
ATOM     17  H   UNL     1     -43.284  40.290  29.811  1.00  0.00     0.067 H 
ENDBRANCH  13  14
ENDBRANCH   5  13
ENDBRANCH   1   4
BRANCH   1  18
ATOM     18  C   UNL     1     -46.648  39.384  27.865  1.00  0.00    -0.042 C 
ATOM     19  H   UNL     1     -46.170  40.040  28.606  1.00  0.00     0.027 H 
ATOM     20  H   UNL     1     -47.638  39.817  27.674  1.00  0.00     0.027 H 
BRANCH  18  21
ATOM     21  C   UNL     1     -46.793  38.002  28.521  1.00  0.00    -0.010 C 
ATOM     22  C   UNL     1     -47.582  37.046  27.615  1.00  0.00    -0.024 C 
ATOM     23  C   UNL     1     -45.494  37.236  28.770  1.00  0.00     0.085 C 
ATOM     24  H   UNL     1     -47.330  38.130  29.472  1.00  0.00     0.033 H 
ATOM     25  C   UNL     1     -47.207  35.627  28.080  1.00  0.00     0.064 C 
ATOM     26  H   UNL     1     -47.329  37.209  26.560  1.00  0.00     0.029 H 
ATOM     27  H   UNL     1     -48.661  37.218  27.709  1.00  0.00     0.029 H 
ATOM     28  C   UNL     1     -45.960  35.783  28.966  1.00  0.00     0.101 C 
ATOM     29  H   UNL     1     -44.804  37.317  27.925  1.00  0.00     0.063 H 
ATOM     30  H   UNL     1     -48.034  35.238  28.690  1.00  0.00     0.056 H 
ATOM     31  H   UNL     1     -45.159  35.068  28.760  1.00  0.00     0.065 H 
BRANCH  23  32
ATOM     32  O   UNL     1     -44.845  37.669  29.965  1.00  0.00    -0.390 OA
ATOM     33  H   UNL     1     -45.169  37.077  30.680  1.00  0.00     0.211 HD
ENDBRANCH  23  32
BRANCH  25  34
ATOM     34  N   UNL     1     -47.039  34.689  26.981  1.00  0.00    -0.327 N 
ATOM     35  C   UNL     1     -45.848  34.451  26.335  1.00  0.00     0.007 A 
ATOM     36  C   UNL     1     -48.021  33.904  26.427  1.00  0.00     0.145 A 
ATOM     37  C   UNL     1     -46.074  33.508  25.354  1.00  0.00    -0.031 A 
ATOM     38  H   UNL     1     -44.943  34.976  26.616  1.00  0.00     0.082 H 
ATOM     39  C   UNL     1     -47.450  33.154  25.407  1.00  0.00     0.061 A 
ATOM     40  N   UNL     1     -49.310  33.872  26.808  1.00  0.00    -0.218 NA
ATOM     41  H   UNL     1     -45.332  33.122  24.668  1.00  0.00     0.065 H 
ATOM     42  C   UNL     1     -48.299  32.282  24.712  1.00  0.00     0.136 A 
ATOM     43  C   UNL     1     -50.024  33.006  26.068  1.00  0.00     0.120 A 
ATOM     44  N   UNL     1     -49.598  32.217  25.064  1.00  0.00    -0.219 NA
ATOM     45  H   UNL     1     -51.080  32.932  26.312  1.00  0.00     0.106 H 
BRANCH  42  46
ATOM     46  N   UNL     1     -47.877  31.456  23.679  1.00  0.00    -0.383 N 
ATOM     47  H   UNL     1     -48.206  30.509  23.821  1.00  0.00     0.158 HD
ATOM     48  H   UNL     1     -46.908  31.566  23.417  1.00  0.00     0.158 HD
ENDBRANCH  42  46
ENDBRANCH  25  34
BRANCH  28  49
ATOM     49  O   UNL     1     -46.337  35.594  30.343  1.00  0.00    -0.388 OA
ATOM     50  H   UNL     1     -45.572  35.117  30.734  1.00  0.00     0.211 HD
ENDBRANCH  28  49
ENDBRANCH  18  21
ENDBRANCH   1  18
TORSDOF 9
ENDMDL
MODEL 6
REMARK VINA RESULT:      -7.9      3.203      5.208
REMARK SMILES COc1cccc(CC[C@H]2C[C@@H](n3ccc4c(N)ncnc43)[C@H](O)[C@@H]2O)n1
REMARK SMILES IDX 8 1 7 4 3 5 4 6 27 7 5 8 6 10 2 13 1 14 9 18 10 21 11 22
REMARK SMILES IDX 25 23 12 25 23 28 26 32 13 34 14 35 22 36 15 37 16 39 21 40
REMARK SMILES IDX 17 42 20 43 19 44 18 46 24 49
REMARK H PARENT 8 2 8 3 4 9 5 11 6 12 1 15 1 16 1 17 9 19 9 20 10 24 11 26
REMARK H PARENT 11 27 25 29 12 30 23 31 26 33 14 38 15 41 20 45 18 47 18 48
REMARK H PARENT 24 50
REMARK Flexibility Score: inf
ROOT
ATOM      1  C   UNL     1     -48.365  31.805  25.212  1.00  0.00    -0.010 C 
ATOM      2  H   UNL     1     -48.376  31.831  26.309  1.00  0.00     0.033 H 
ATOM      3  H   UNL     1     -49.298  32.288  24.898  1.00  0.00     0.033 H 
ENDROOT
BRANCH   1   4
ATOM      4  C   UNL     1     -48.363  30.354  24.785  1.00  0.00     0.044 A 
ATOM      5  C   UNL     1     -48.787  28.138  25.285  1.00  0.00     0.213 A 
ATOM      6  C   UNL     1     -48.354  27.717  24.038  1.00  0.00     0.000 A 
ATOM      7  N   UNL     1     -48.816  29.435  25.677  1.00  0.00    -0.219 NA
ATOM      8  C   UNL     1     -47.916  28.673  23.132  1.00  0.00    -0.055 A 
ATOM      9  H   UNL     1     -48.356  26.662  23.782  1.00  0.00     0.068 H 
ATOM     10  C   UNL     1     -47.918  30.011  23.508  1.00  0.00    -0.040 A 
ATOM     11  H   UNL     1     -47.571  28.378  22.146  1.00  0.00     0.063 H 
ATOM     12  H   UNL     1     -47.572  30.772  22.816  1.00  0.00     0.064 H 
BRANCH   5  13
ATOM     13  O   UNL     1     -49.189  27.133  26.143  1.00  0.00    -0.481 OA
BRANCH  13  14
ATOM     14  C   UNL     1     -48.125  26.533  26.871  1.00  0.00     0.079 C 
ATOM     15  H   UNL     1     -48.485  25.755  27.553  1.00  0.00     0.067 H 
ATOM     16  H   UNL     1     -47.657  27.314  27.479  1.00  0.00     0.067 H 
ATOM     17  H   UNL     1     -47.362  26.146  26.189  1.00  0.00     0.067 H 
ENDBRANCH  13  14
ENDBRANCH   5  13
ENDBRANCH   1   4
BRANCH   1  18
ATOM     18  C   UNL     1     -47.141  32.576  24.705  1.00  0.00    -0.042 C 
ATOM     19  H   UNL     1     -46.421  31.836  24.327  1.00  0.00     0.027 H 
ATOM     20  H   UNL     1     -47.405  33.205  23.846  1.00  0.00     0.027 H 
BRANCH  18  21
ATOM     21  C   UNL     1     -46.408  33.410  25.766  1.00  0.00    -0.010 C 
ATOM     22  C   UNL     1     -46.729  34.903  25.607  1.00  0.00    -0.024 C 
ATOM     23  C   UNL     1     -46.791  33.135  27.221  1.00  0.00     0.085 C 
ATOM     24  H   UNL     1     -45.327  33.254  25.637  1.00  0.00     0.033 H 
ATOM     25  C   UNL     1     -46.419  35.543  26.972  1.00  0.00     0.064 C 
ATOM     26  H   UNL     1     -47.777  35.049  25.318  1.00  0.00     0.029 H 
ATOM     27  H   UNL     1     -46.120  35.352  24.815  1.00  0.00     0.029 H 
ATOM     28  C   UNL     1     -46.289  34.382  27.970  1.00  0.00     0.101 C 
ATOM     29  H   UNL     1     -47.871  33.012  27.342  1.00  0.00     0.063 H 
ATOM     30  H   UNL     1     -45.451  36.060  26.895  1.00  0.00     0.056 H 
ATOM     31  H   UNL     1     -46.819  34.527  28.916  1.00  0.00     0.065 H 
BRANCH  23  32
ATOM     32  O   UNL     1     -46.114  31.991  27.739  1.00  0.00    -0.390 OA
ATOM     33  H   UNL     1     -45.472  32.332  28.401  1.00  0.00     0.211 HD
ENDBRANCH  23  32
BRANCH  25  34
ATOM     34  N   UNL     1     -47.387  36.556  27.365  1.00  0.00    -0.327 N 
ATOM     35  C   UNL     1     -48.711  36.303  27.640  1.00  0.00     0.007 A 
ATOM     36  C   UNL     1     -47.138  37.898  27.524  1.00  0.00     0.145 A 
ATOM     37  C   UNL     1     -49.314  37.497  27.972  1.00  0.00    -0.031 A 
ATOM     38  H   UNL     1     -49.117  35.301  27.567  1.00  0.00     0.082 H 
ATOM     39  C   UNL     1     -48.323  38.514  27.904  1.00  0.00     0.061 A 
ATOM     40  N   UNL     1     -45.953  38.505  27.341  1.00  0.00    -0.218 NA
ATOM     41  H   UNL     1     -50.358  37.626  28.229  1.00  0.00     0.065 H 
ATOM     42  C   UNL     1     -48.275  39.899  28.116  1.00  0.00     0.136 A 
ATOM     43  C   UNL     1     -46.032  39.827  27.568  1.00  0.00     0.120 A 
ATOM     44  N   UNL     1     -47.106  40.545  27.947  1.00  0.00    -0.219 NA
ATOM     45  H   UNL     1     -45.113  40.389  27.431  1.00  0.00     0.106 H 
BRANCH  42  46
ATOM     46  N   UNL     1     -49.370  40.655  28.513  1.00  0.00    -0.383 N 
ATOM     47  H   UNL     1     -50.035  40.084  29.019  1.00  0.00     0.158 HD
ATOM     48  H   UNL     1     -49.745  41.265  27.801  1.00  0.00     0.158 HD
ENDBRANCH  42  46
ENDBRANCH  25  34
BRANCH  28  49
ATOM     49  O   UNL     1     -44.899  34.200  28.301  1.00  0.00    -0.388 OA
ATOM     50  H   UNL     1     -44.758  34.800  29.066  1.00  0.00     0.211 HD
ENDBRANCH  28  49
ENDBRANCH  18  21
ENDBRANCH   1  18
TORSDOF 9
ENDMDL
MODEL 7
REMARK VINA RESULT:      -7.8      2.395      3.225
REMARK SMILES COc1cccc(CC[C@H]2C[C@@H](n3ccc4c(N)ncnc43)[C@H](O)[C@@H]2O)n1
REMARK SMILES IDX 8 1 7 4 3 5 4 6 27 7 5 8 6 10 2 13 1 14 9 18 10 21 11 22
REMARK SMILES IDX 25 23 12 25 23 28 26 32 13 34 14 35 22 36 15 37 16 39 21 40
REMARK SMILES IDX 17 42 20 43 19 44 18 46 24 49
REMARK H PARENT 8 2 8 3 4 9 5 11 6 12 1 15 1 16 1 17 9 19 9 20 10 24 11 26
REMARK H PARENT 11 27 25 29 12 30 23 31 26 33 14 38 15 41 20 45 18 47 18 48
REMARK H PARENT 24 50
REMARK Flexibility Score: inf
ROOT
ATOM      1  C   UNL     1     -46.544  34.213  25.784  1.00  0.00    -0.010 C 
ATOM      2  H   UNL     1     -46.994  34.995  25.159  1.00  0.00     0.033 H 
ATOM      3  H   UNL     1     -45.465  34.278  25.604  1.00  0.00     0.033 H 
ENDROOT
BRANCH   1   4
ATOM      4  C   UNL     1     -47.070  32.879  25.302  1.00  0.00     0.044 A 
ATOM      5  C   UNL     1     -46.840  31.034  23.929  1.00  0.00     0.213 A 
ATOM      6  C   UNL     1     -48.011  30.466  24.404  1.00  0.00     0.000 A 
ATOM      7  N   UNL     1     -46.343  32.218  24.364  1.00  0.00    -0.219 NA
ATOM      8  C   UNL     1     -48.728  31.146  25.379  1.00  0.00    -0.055 A 
ATOM      9  H   UNL     1     -48.358  29.514  24.017  1.00  0.00     0.068 H 
ATOM     10  C   UNL     1     -48.254  32.371  25.835  1.00  0.00    -0.040 A 
ATOM     11  H   UNL     1     -49.650  30.730  25.774  1.00  0.00     0.063 H 
ATOM     12  H   UNL     1     -48.806  32.920  26.592  1.00  0.00     0.064 H 
BRANCH   5  13
ATOM     13  O   UNL     1     -46.190  30.314  22.945  1.00  0.00    -0.481 OA
BRANCH  13  14
ATOM     14  C   UNL     1     -46.142  30.968  21.684  1.00  0.00     0.079 C 
ATOM     15  H   UNL     1     -45.807  30.295  20.888  1.00  0.00     0.067 H 
ATOM     16  H   UNL     1     -45.413  31.781  21.758  1.00  0.00     0.067 H 
ATOM     17  H   UNL     1     -47.112  31.417  21.447  1.00  0.00     0.067 H 
ENDBRANCH  13  14
ENDBRANCH   5  13
ENDBRANCH   1   4
BRANCH   1  18
ATOM     18  C   UNL     1     -46.882  34.488  27.253  1.00  0.00    -0.042 C 
ATOM     19  H   UNL     1     -47.950  34.741  27.303  1.00  0.00     0.027 H 
ATOM     20  H   UNL     1     -46.758  33.582  27.859  1.00  0.00     0.027 H 
BRANCH  18  21
ATOM     21  C   UNL     1     -46.117  35.659  27.891  1.00  0.00    -0.010 C 
ATOM     22  C   UNL     1     -46.149  36.895  26.981  1.00  0.00    -0.024 C 
ATOM     23  C   UNL     1     -46.682  36.194  29.207  1.00  0.00     0.085 C 
ATOM     24  H   UNL     1     -45.075  35.344  28.042  1.00  0.00     0.033 H 
ATOM     25  C   UNL     1     -45.863  38.096  27.900  1.00  0.00     0.064 C 
ATOM     26  H   UNL     1     -47.122  36.987  26.481  1.00  0.00     0.029 H 
ATOM     27  H   UNL     1     -45.396  36.817  26.189  1.00  0.00     0.029 H 
ATOM     28  C   UNL     1     -46.040  37.586  29.339  1.00  0.00     0.101 C 
ATOM     29  H   UNL     1     -47.773  36.265  29.184  1.00  0.00     0.063 H 
ATOM     30  H   UNL     1     -44.816  38.397  27.752  1.00  0.00     0.056 H 
ATOM     31  H   UNL     1     -46.625  38.242  29.990  1.00  0.00     0.065 H 
BRANCH  23  32
ATOM     32  O   UNL     1     -46.274  35.400  30.320  1.00  0.00    -0.390 OA
ATOM     33  H   UNL     1     -46.756  35.755  31.099  1.00  0.00     0.211 HD
ENDBRANCH  23  32
BRANCH  25  34
ATOM     34  N   UNL     1     -46.668  39.266  27.583  1.00  0.00    -0.327 N 
ATOM     35  C   UNL     1     -48.000  39.403  27.897  1.00  0.00     0.007 A 
ATOM     36  C   UNL     1     -46.235  40.399  26.936  1.00  0.00     0.145 A 
ATOM     37  C   UNL     1     -48.422  40.634  27.441  1.00  0.00    -0.031 A 
ATOM     38  H   UNL     1     -48.540  38.615  28.408  1.00  0.00     0.082 H 
ATOM     39  C   UNL     1     -47.308  41.273  26.833  1.00  0.00     0.061 A 
ATOM     40  N   UNL     1     -44.988  40.616  26.484  1.00  0.00    -0.218 NA
ATOM     41  H   UNL     1     -49.427  41.028  27.528  1.00  0.00     0.065 H 
ATOM     42  C   UNL     1     -47.065  42.498  26.195  1.00  0.00     0.136 A 
ATOM     43  C   UNL     1     -44.879  41.817  25.890  1.00  0.00     0.120 A 
ATOM     44  N   UNL     1     -45.828  42.758  25.730  1.00  0.00    -0.219 NA
ATOM     45  H   UNL     1     -43.900  42.062  25.490  1.00  0.00     0.106 H 
BRANCH  42  46
ATOM     46  N   UNL     1     -48.029  43.482  26.027  1.00  0.00    -0.383 N 
ATOM     47  H   UNL     1     -48.735  43.183  25.366  1.00  0.00     0.158 HD
ATOM     48  H   UNL     1     -47.666  44.417  25.909  1.00  0.00     0.158 HD
ENDBRANCH  42  46
ENDBRANCH  25  34
BRANCH  28  49
ATOM     49  O   UNL     1     -44.744  37.447  29.950  1.00  0.00    -0.388 OA
ATOM     50  H   UNL     1     -44.935  37.021  30.815  1.00  0.00     0.211 HD
ENDBRANCH  28  49
ENDBRANCH  18  21
ENDBRANCH   1  18
TORSDOF 9
ENDMDL
