MODEL 1
REMARK VINA RESULT:     -11.2      0.000      0.000
REMARK SMILES O=C(NCc1cc2[nH]c(CN3CCC4(CCC4)C3)cc2cn1)c1cc(=O)n2ccccc2n1
REMARK SMILES IDX 5 1 6 2 7 3 8 4 9 5 19 6 20 7 21 8 22 9 4 14 3 17 1 18 2 19
REMARK SMILES IDX 23 21 24 22 33 23 25 24 32 26 26 27 27 28 31 29 28 30 30 31
REMARK SMILES IDX 29 33 10 37 11 40 12 41 18 42 13 43 14 46 15 51 17 52 16 53
REMARK H PARENT 6 10 8 11 19 12 21 13 4 15 4 16 3 20 24 25 31 32 28 34 30 35
REMARK H PARENT 29 36 10 38 10 39 12 44 12 45 18 47 18 48 13 49 13 50 15 54
REMARK H PARENT 15 55 17 56 17 57 16 58 16 59
REMARK Flexibility Score: inf
ROOT
ATOM      1  C   UNL     1     -47.688  34.921  26.578  1.00  0.00     0.062 A 
ATOM      2  C   UNL     1     -48.685  33.956  26.435  1.00  0.00    -0.014 A 
ATOM      3  C   UNL     1     -48.341  32.841  25.675  1.00  0.00     0.049 A 
ATOM      4  N   UNL     1     -49.074  31.726  25.341  1.00  0.00    -0.357 N 
ATOM      5  C   UNL     1     -48.322  30.871  24.572  1.00  0.00     0.030 A 
ATOM      6  C   UNL     1     -47.083  31.460  24.403  1.00  0.00    -0.031 A 
ATOM      7  C   UNL     1     -47.084  32.703  25.093  1.00  0.00     0.018 A 
ATOM      8  C   UNL     1     -46.146  33.723  25.278  1.00  0.00     0.037 A 
ATOM      9  N   UNL     1     -46.458  34.826  26.007  1.00  0.00    -0.259 NA
ATOM     10  H   UNL     1     -49.669  34.079  26.876  1.00  0.00     0.067 H 
ATOM     11  H   UNL     1     -50.028  31.565  25.632  1.00  0.00     0.166 HD
ATOM     12  H   UNL     1     -46.262  31.029  23.844  1.00  0.00     0.065 H 
ATOM     13  H   UNL     1     -45.149  33.690  24.854  1.00  0.00     0.085 H 
ENDROOT
BRANCH   1  14
ATOM     14  C   UNL     1     -47.983  36.191  27.345  1.00  0.00     0.060 C 
ATOM     15  H   UNL     1     -48.862  36.698  26.934  1.00  0.00     0.056 H 
ATOM     16  H   UNL     1     -48.202  35.943  28.390  1.00  0.00     0.056 H 
BRANCH  14  17
ATOM     17  N   UNL     1     -46.836  37.078  27.352  1.00  0.00    -0.345 N 
ATOM     18  O   UNL     1     -46.442  36.853  29.606  1.00  0.00    -0.268 OA
ATOM     19  C   UNL     1     -46.204  37.396  28.533  1.00  0.00     0.270 C 
ATOM     20  H   UNL     1     -46.789  37.735  26.585  1.00  0.00     0.164 HD
BRANCH  19  21
ATOM     21  C   UNL     1     -45.209  38.520  28.415  1.00  0.00     0.136 A 
ATOM     22  C   UNL     1     -44.387  38.703  29.451  1.00  0.00     0.035 A 
ATOM     23  N   UNL     1     -45.241  39.307  27.294  1.00  0.00    -0.225 NA
ATOM     24  C   UNL     1     -43.427  39.813  29.384  1.00  0.00     0.258 A 
ATOM     25  H   UNL     1     -44.389  38.098  30.346  1.00  0.00     0.071 H 
ATOM     26  C   UNL     1     -44.404  40.296  27.243  1.00  0.00     0.140 A 
ATOM     27  O   UNL     1     -42.650  39.971  30.324  1.00  0.00    -0.269 OA
ATOM     28  N   UNL     1     -43.484  40.596  28.242  1.00  0.00    -0.268 N 
ATOM     29  C   UNL     1     -44.411  41.179  26.043  1.00  0.00    -0.019 A 
ATOM     30  C   UNL     1     -42.612  41.672  28.111  1.00  0.00     0.014 A 
ATOM     31  C   UNL     1     -43.554  42.204  25.962  1.00  0.00    -0.057 A 
ATOM     32  H   UNL     1     -45.128  40.952  25.264  1.00  0.00     0.066 H 
ATOM     33  C   UNL     1     -42.623  42.460  27.028  1.00  0.00    -0.045 A 
ATOM     34  H   UNL     1     -41.918  41.847  28.929  1.00  0.00     0.082 H 
ATOM     35  H   UNL     1     -43.545  42.858  25.097  1.00  0.00     0.062 H 
ATOM     36  H   UNL     1     -41.939  43.298  26.936  1.00  0.00     0.064 H 
ENDBRANCH  19  21
ENDBRANCH  14  17
ENDBRANCH   1  14
BRANCH   5  37
ATOM     37  C   UNL     1     -48.867  29.576  24.063  1.00  0.00     0.039 C 
ATOM     38  H   UNL     1     -48.002  28.964  23.771  1.00  0.00     0.050 H 
ATOM     39  H   UNL     1     -49.456  29.735  23.151  1.00  0.00     0.050 H 
BRANCH  37  40
ATOM     40  N   UNL     1     -49.628  28.870  25.102  1.00  0.00    -0.297 NA
ATOM     41  C   UNL     1     -50.379  27.713  24.582  1.00  0.00    -0.001 C 
ATOM     42  C   UNL     1     -48.727  28.279  26.108  1.00  0.00     0.004 C 
ATOM     43  C   UNL     1     -49.367  26.577  24.476  1.00  0.00    -0.033 C 
ATOM     44  H   UNL     1     -50.898  27.896  23.636  1.00  0.00     0.043 H 
ATOM     45  H   UNL     1     -51.152  27.448  25.316  1.00  0.00     0.043 H 
ATOM     46  C   UNL     1     -48.404  26.863  25.629  1.00  0.00    -0.016 C 
ATOM     47  H   UNL     1     -47.834  28.885  26.294  1.00  0.00     0.044 H 
ATOM     48  H   UNL     1     -49.277  28.235  27.057  1.00  0.00     0.044 H 
ATOM     49  H   UNL     1     -49.855  25.600  24.556  1.00  0.00     0.029 H 
ATOM     50  H   UNL     1     -48.852  26.623  23.510  1.00  0.00     0.029 H 
ATOM     51  C   UNL     1     -46.903  26.543  25.343  1.00  0.00    -0.046 C 
ATOM     52  C   UNL     1     -48.314  25.775  26.743  1.00  0.00    -0.046 C 
ATOM     53  C   UNL     1     -47.147  25.150  25.955  1.00  0.00    -0.052 C 
ATOM     54  H   UNL     1     -46.591  26.548  24.294  1.00  0.00     0.027 H 
ATOM     55  H   UNL     1     -46.193  27.149  25.918  1.00  0.00     0.027 H 
ATOM     56  H   UNL     1     -49.192  25.136  26.874  1.00  0.00     0.027 H 
ATOM     57  H   UNL     1     -48.014  26.160  27.725  1.00  0.00     0.027 H 
ATOM     58  H   UNL     1     -46.328  24.746  26.557  1.00  0.00     0.027 H 
ATOM     59  H   UNL     1     -47.459  24.394  25.227  1.00  0.00     0.027 H 
ENDBRANCH  37  40
ENDBRANCH   5  37
TORSDOF 5
ENDMDL
MODEL 2
REMARK VINA RESULT:     -10.7      1.389      2.095
REMARK SMILES O=C(NCc1cc2[nH]c(CN3CCC4(CCC4)C3)cc2cn1)c1cc(=O)n2ccccc2n1
REMARK SMILES IDX 5 1 6 2 7 3 8 4 9 5 19 6 20 7 21 8 22 9 4 14 3 17 1 18 2 19
REMARK SMILES IDX 23 21 24 22 33 23 25 24 32 26 26 27 27 28 31 29 28 30 30 31
REMARK SMILES IDX 29 33 10 37 11 40 12 41 18 42 13 43 14 46 15 51 17 52 16 53
REMARK H PARENT 6 10 8 11 19 12 21 13 4 15 4 16 3 20 24 25 31 32 28 34 30 35
REMARK H PARENT 29 36 10 38 10 39 12 44 12 45 18 47 18 48 13 49 13 50 15 54
REMARK H PARENT 15 55 17 56 17 57 16 58 16 59
REMARK Flexibility Score: inf
ROOT
ATOM      1  C   UNL     1     -46.763  35.317  28.389  1.00  0.00     0.062 A 
ATOM      2  C   UNL     1     -46.090  34.192  27.911  1.00  0.00    -0.014 A 
ATOM      3  C   UNL     1     -46.734  33.491  26.895  1.00  0.00     0.049 A 
ATOM      4  N   UNL     1     -46.357  32.357  26.214  1.00  0.00    -0.357 N 
ATOM      5  C   UNL     1     -47.308  32.019  25.281  1.00  0.00     0.030 A 
ATOM      6  C   UNL     1     -48.321  32.955  25.377  1.00  0.00    -0.031 A 
ATOM      7  C   UNL     1     -47.971  33.886  26.392  1.00  0.00     0.018 A 
ATOM      8  C   UNL     1     -48.581  35.021  26.936  1.00  0.00     0.037 A 
ATOM      9  N   UNL     1     -47.979  35.719  27.934  1.00  0.00    -0.259 NA
ATOM     10  H   UNL     1     -45.136  33.879  28.321  1.00  0.00     0.067 H 
ATOM     11  H   UNL     1     -45.496  31.855  26.379  1.00  0.00     0.166 HD
ATOM     12  H   UNL     1     -49.217  32.964  24.769  1.00  0.00     0.065 H 
ATOM     13  H   UNL     1     -49.543  35.389  26.600  1.00  0.00     0.085 H 
ENDROOT
BRANCH   1  14
ATOM     14  C   UNL     1     -46.167  36.116  29.527  1.00  0.00     0.060 C 
ATOM     15  H   UNL     1     -46.954  36.558  30.146  1.00  0.00     0.056 H 
ATOM     16  H   UNL     1     -45.575  35.452  30.167  1.00  0.00     0.056 H 
BRANCH  14  17
ATOM     17  N   UNL     1     -45.267  37.140  29.033  1.00  0.00    -0.345 N 
ATOM     18  O   UNL     1     -44.845  38.032  31.110  1.00  0.00    -0.268 OA
ATOM     19  C   UNL     1     -44.737  38.079  29.889  1.00  0.00     0.270 C 
ATOM     20  H   UNL     1     -45.373  37.381  28.056  1.00  0.00     0.164 HD
BRANCH  19  21
ATOM     21  C   UNL     1     -44.041  39.220  29.196  1.00  0.00     0.136 A 
ATOM     22  C   UNL     1     -42.992  39.753  29.827  1.00  0.00     0.035 A 
ATOM     23  N   UNL     1     -44.549  39.671  28.006  1.00  0.00    -0.225 NA
ATOM     24  C   UNL     1     -42.311  40.891  29.196  1.00  0.00     0.258 A 
ATOM     25  H   UNL     1     -42.616  39.413  30.782  1.00  0.00     0.071 H 
ATOM     26  C   UNL     1     -43.956  40.685  27.459  1.00  0.00     0.140 A 
ATOM     27  O   UNL     1     -41.327  41.369  29.760  1.00  0.00    -0.269 OA
ATOM     28  N   UNL     1     -42.847  41.329  27.996  1.00  0.00    -0.268 N 
ATOM     29  C   UNL     1     -44.482  41.209  26.166  1.00  0.00    -0.019 A 
ATOM     30  C   UNL     1     -42.262  42.409  27.343  1.00  0.00     0.014 A 
ATOM     31  C   UNL     1     -43.885  42.252  25.576  1.00  0.00    -0.057 A 
ATOM     32  H   UNL     1     -45.348  40.714  25.745  1.00  0.00     0.066 H 
ATOM     33  C   UNL     1     -42.737  42.873  26.181  1.00  0.00    -0.045 A 
ATOM     34  H   UNL     1     -41.396  42.863  27.820  1.00  0.00     0.082 H 
ATOM     35  H   UNL     1     -44.254  42.648  24.635  1.00  0.00     0.062 H 
ATOM     36  H   UNL     1     -42.274  43.718  25.680  1.00  0.00     0.064 H 
ENDBRANCH  19  21
ENDBRANCH  14  17
ENDBRANCH   1  14
BRANCH   5  37
ATOM     37  C   UNL     1     -47.160  30.826  24.394  1.00  0.00     0.039 C 
ATOM     38  H   UNL     1     -46.754  30.018  25.019  1.00  0.00     0.050 H 
ATOM     39  H   UNL     1     -46.417  31.015  23.610  1.00  0.00     0.050 H 
BRANCH  37  40
ATOM     40  N   UNL     1     -48.455  30.404  23.844  1.00  0.00    -0.297 NA
ATOM     41  C   UNL     1     -48.324  29.497  22.690  1.00  0.00    -0.001 C 
ATOM     42  C   UNL     1     -49.215  29.611  24.828  1.00  0.00     0.004 C 
ATOM     43  C   UNL     1     -48.063  28.115  23.277  1.00  0.00    -0.033 C 
ATOM     44  H   UNL     1     -47.558  29.791  21.965  1.00  0.00     0.043 H 
ATOM     45  H   UNL     1     -49.280  29.491  22.148  1.00  0.00     0.043 H 
ATOM     46  C   UNL     1     -48.838  28.147  24.596  1.00  0.00    -0.016 C 
ATOM     47  H   UNL     1     -49.055  29.939  25.860  1.00  0.00     0.044 H 
ATOM     48  H   UNL     1     -50.281  29.759  24.616  1.00  0.00     0.044 H 
ATOM     49  H   UNL     1     -48.402  27.323  22.601  1.00  0.00     0.029 H 
ATOM     50  H   UNL     1     -46.990  27.978  23.452  1.00  0.00     0.029 H 
ATOM     51  C   UNL     1     -48.163  27.398  25.787  1.00  0.00    -0.046 C 
ATOM     52  C   UNL     1     -50.000  27.117  24.744  1.00  0.00    -0.046 C 
ATOM     53  C   UNL     1     -48.984  26.156  25.392  1.00  0.00    -0.052 C 
ATOM     54  H   UNL     1     -47.076  27.278  25.741  1.00  0.00     0.027 H 
ATOM     55  H   UNL     1     -48.426  27.791  26.777  1.00  0.00     0.027 H 
ATOM     56  H   UNL     1     -50.460  26.763  23.817  1.00  0.00     0.027 H 
ATOM     57  H   UNL     1     -50.795  27.431  25.430  1.00  0.00     0.027 H 
ATOM     58  H   UNL     1     -49.363  25.553  26.221  1.00  0.00     0.027 H 
ATOM     59  H   UNL     1     -48.478  25.499  24.677  1.00  0.00     0.027 H 
ENDBRANCH  37  40
ENDBRANCH   5  37
TORSDOF 5
ENDMDL
MODEL 3
REMARK VINA RESULT:     -10.3      2.064      3.464
REMARK SMILES O=C(NCc1cc2[nH]c(CN3CCC4(CCC4)C3)cc2cn1)c1cc(=O)n2ccccc2n1
REMARK SMILES IDX 5 1 6 2 7 3 8 4 9 5 19 6 20 7 21 8 22 9 4 14 3 17 1 18 2 19
REMARK SMILES IDX 23 21 24 22 33 23 25 24 32 26 26 27 27 28 31 29 28 30 30 31
REMARK SMILES IDX 29 33 10 37 11 40 12 41 18 42 13 43 14 46 15 51 17 52 16 53
REMARK H PARENT 6 10 8 11 19 12 21 13 4 15 4 16 3 20 24 25 31 32 28 34 30 35
REMARK H PARENT 29 36 10 38 10 39 12 44 12 45 18 47 18 48 13 49 13 50 15 54
REMARK H PARENT 15 55 17 56 17 57 16 58 16 59
REMARK Flexibility Score: inf
ROOT
ATOM      1  C   UNL     1     -46.541  36.852  28.507  1.00  0.00     0.062 A 
ATOM      2  C   UNL     1     -45.664  35.861  28.066  1.00  0.00    -0.014 A 
ATOM      3  C   UNL     1     -46.182  34.969  27.130  1.00  0.00     0.049 A 
ATOM      4  N   UNL     1     -45.598  33.893  26.503  1.00  0.00    -0.357 N 
ATOM      5  C   UNL     1     -46.490  33.297  25.644  1.00  0.00     0.030 A 
ATOM      6  C   UNL     1     -47.674  34.004  25.735  1.00  0.00    -0.031 A 
ATOM      7  C   UNL     1     -47.492  35.059  26.669  1.00  0.00     0.018 A 
ATOM      8  C   UNL     1     -48.308  36.078  27.171  1.00  0.00     0.037 A 
ATOM      9  N   UNL     1     -47.832  36.956  28.091  1.00  0.00    -0.259 NA
ATOM     10  H   UNL     1     -44.650  35.786  28.443  1.00  0.00     0.067 H 
ATOM     11  H   UNL     1     -44.644  33.596  26.654  1.00  0.00     0.166 HD
ATOM     12  H   UNL     1     -48.574  33.781  25.175  1.00  0.00     0.065 H 
ATOM     13  H   UNL     1     -49.339  36.211  26.864  1.00  0.00     0.085 H 
ENDROOT
BRANCH   1  14
ATOM     14  C   UNL     1     -46.086  37.838  29.559  1.00  0.00     0.060 C 
ATOM     15  H   UNL     1     -46.945  38.310  30.047  1.00  0.00     0.056 H 
ATOM     16  H   UNL     1     -45.515  37.310  30.330  1.00  0.00     0.056 H 
BRANCH  14  17
ATOM     17  N   UNL     1     -45.205  38.841  28.992  1.00  0.00    -0.345 N 
ATOM     18  O   UNL     1     -46.904  40.069  28.048  1.00  0.00    -0.268 OA
ATOM     19  C   UNL     1     -45.707  39.848  28.199  1.00  0.00     0.270 C 
ATOM     20  H   UNL     1     -44.245  38.552  28.857  1.00  0.00     0.164 HD
BRANCH  19  21
ATOM     21  C   UNL     1     -44.655  40.646  27.478  1.00  0.00     0.136 A 
ATOM     22  C   UNL     1     -43.467  40.753  28.080  1.00  0.00     0.035 A 
ATOM     23  N   UNL     1     -44.988  41.250  26.294  1.00  0.00    -0.225 NA
ATOM     24  C   UNL     1     -42.428  41.555  27.421  1.00  0.00     0.258 A 
ATOM     25  H   UNL     1     -43.221  40.302  29.030  1.00  0.00     0.071 H 
ATOM     26  C   UNL     1     -44.074  41.970  25.721  1.00  0.00     0.140 A 
ATOM     27  O   UNL     1     -41.324  41.636  27.957  1.00  0.00    -0.269 OA
ATOM     28  N   UNL     1     -42.793  42.158  26.227  1.00  0.00    -0.268 N 
ATOM     29  C   UNL     1     -44.399  42.647  24.434  1.00  0.00    -0.019 A 
ATOM     30  C   UNL     1     -41.864  42.941  25.549  1.00  0.00     0.014 A 
ATOM     31  C   UNL     1     -43.473  43.392  23.819  1.00  0.00    -0.057 A 
ATOM     32  H   UNL     1     -45.397  42.507  24.037  1.00  0.00     0.066 H 
ATOM     33  C   UNL     1     -42.162  43.545  24.392  1.00  0.00    -0.045 A 
ATOM     34  H   UNL     1     -40.881  43.043  26.001  1.00  0.00     0.082 H 
ATOM     35  H   UNL     1     -43.691  43.893  22.881  1.00  0.00     0.062 H 
ATOM     36  H   UNL     1     -41.431  44.155  23.871  1.00  0.00     0.064 H 
ENDBRANCH  19  21
ENDBRANCH  14  17
ENDBRANCH   1  14
BRANCH   5  37
ATOM     37  C   UNL     1     -46.126  32.100  24.828  1.00  0.00     0.039 C 
ATOM     38  H   UNL     1     -46.399  31.218  25.424  1.00  0.00     0.050 H 
ATOM     39  H   UNL     1     -45.040  32.049  24.678  1.00  0.00     0.050 H 
BRANCH  37  40
ATOM     40  N   UNL     1     -46.865  32.072  23.559  1.00  0.00    -0.297 NA
ATOM     41  C   UNL     1     -46.131  31.391  22.477  1.00  0.00    -0.001 C 
ATOM     42  C   UNL     1     -48.107  31.288  23.687  1.00  0.00     0.004 C 
ATOM     43  C   UNL     1     -46.354  29.900  22.702  1.00  0.00    -0.033 C 
ATOM     44  H   UNL     1     -45.068  31.647  22.419  1.00  0.00     0.043 H 
ATOM     45  H   UNL     1     -46.578  31.688  21.519  1.00  0.00     0.043 H 
ATOM     46  C   UNL     1     -47.756  29.847  23.312  1.00  0.00    -0.016 C 
ATOM     47  H   UNL     1     -48.570  31.375  24.676  1.00  0.00     0.044 H 
ATOM     48  H   UNL     1     -48.828  31.695  22.968  1.00  0.00     0.044 H 
ATOM     49  H   UNL     1     -46.273  29.339  21.765  1.00  0.00     0.029 H 
ATOM     50  H   UNL     1     -45.604  29.509  23.399  1.00  0.00     0.029 H 
ATOM     51  C   UNL     1     -47.966  28.763  24.415  1.00  0.00    -0.046 C 
ATOM     52  C   UNL     1     -48.839  29.077  22.496  1.00  0.00    -0.046 C 
ATOM     53  C   UNL     1     -48.466  27.819  23.305  1.00  0.00    -0.052 C 
ATOM     54  H   UNL     1     -47.073  28.427  24.951  1.00  0.00     0.027 H 
ATOM     55  H   UNL     1     -48.739  29.010  25.152  1.00  0.00     0.027 H 
ATOM     56  H   UNL     1     -48.680  29.008  21.417  1.00  0.00     0.027 H 
ATOM     57  H   UNL     1     -49.866  29.417  22.677  1.00  0.00     0.027 H 
ATOM     58  H   UNL     1     -49.299  27.165  23.577  1.00  0.00     0.027 H 
ATOM     59  H   UNL     1     -47.676  27.216  22.846  1.00  0.00     0.027 H 
ENDBRANCH  37  40
ENDBRANCH   5  37
TORSDOF 5
ENDMDL
MODEL 4
REMARK VINA RESULT:     -10.2      2.284      3.545
REMARK SMILES O=C(NCc1cc2[nH]c(CN3CCC4(CCC4)C3)cc2cn1)c1cc(=O)n2ccccc2n1
REMARK SMILES IDX 5 1 6 2 7 3 8 4 9 5 19 6 20 7 21 8 22 9 4 14 3 17 1 18 2 19
REMARK SMILES IDX 23 21 24 22 33 23 25 24 32 26 26 27 27 28 31 29 28 30 30 31
REMARK SMILES IDX 29 33 10 37 11 40 12 41 18 42 13 43 14 46 15 51 17 52 16 53
REMARK H PARENT 6 10 8 11 19 12 21 13 4 15 4 16 3 20 24 25 31 32 28 34 30 35
REMARK H PARENT 29 36 10 38 10 39 12 44 12 45 18 47 18 48 13 49 13 50 15 54
REMARK H PARENT 15 55 17 56 17 57 16 58 16 59
REMARK Flexibility Score: inf
ROOT
ATOM      1  C   UNL     1     -47.832  36.155  27.181  1.00  0.00     0.062 A 
ATOM      2  C   UNL     1     -48.785  35.185  26.869  1.00  0.00    -0.014 A 
ATOM      3  C   UNL     1     -48.282  33.965  26.425  1.00  0.00     0.049 A 
ATOM      4  N   UNL     1     -48.933  32.817  26.039  1.00  0.00    -0.357 N 
ATOM      5  C   UNL     1     -48.026  31.849  25.679  1.00  0.00     0.030 A 
ATOM      6  C   UNL     1     -46.766  32.398  25.830  1.00  0.00    -0.031 A 
ATOM      7  C   UNL     1     -46.915  33.731  26.298  1.00  0.00     0.018 A 
ATOM      8  C   UNL     1     -46.028  34.762  26.623  1.00  0.00     0.037 A 
ATOM      9  N   UNL     1     -46.492  35.965  27.050  1.00  0.00    -0.259 NA
ATOM     10  H   UNL     1     -49.849  35.381  26.952  1.00  0.00     0.067 H 
ATOM     11  H   UNL     1     -49.938  32.708  26.031  1.00  0.00     0.166 HD
ATOM     12  H   UNL     1     -45.837  31.881  25.627  1.00  0.00     0.065 H 
ATOM     13  H   UNL     1     -44.952  34.658  26.547  1.00  0.00     0.085 H 
ENDROOT
BRANCH   1  14
ATOM     14  C   UNL     1     -48.283  37.529  27.625  1.00  0.00     0.060 C 
ATOM     15  H   UNL     1     -48.979  37.963  26.900  1.00  0.00     0.056 H 
ATOM     16  H   UNL     1     -48.808  37.448  28.583  1.00  0.00     0.056 H 
BRANCH  14  17
ATOM     17  N   UNL     1     -47.150  38.409  27.837  1.00  0.00    -0.345 N 
ATOM     18  O   UNL     1     -47.785  39.920  26.225  1.00  0.00    -0.268 OA
ATOM     19  C   UNL     1     -46.962  39.514  27.038  1.00  0.00     0.270 C 
ATOM     20  H   UNL     1     -46.342  37.983  28.272  1.00  0.00     0.164 HD
BRANCH  19  21
ATOM     21  C   UNL     1     -45.619  40.173  27.206  1.00  0.00     0.136 A 
ATOM     22  C   UNL     1     -45.210  40.961  26.208  1.00  0.00     0.035 A 
ATOM     23  N   UNL     1     -44.886  39.888  28.328  1.00  0.00    -0.225 NA
ATOM     24  C   UNL     1     -43.889  41.593  26.323  1.00  0.00     0.258 A 
ATOM     25  H   UNL     1     -45.780  41.156  25.311  1.00  0.00     0.071 H 
ATOM     26  C   UNL     1     -43.714  40.434  28.420  1.00  0.00     0.140 A 
ATOM     27  O   UNL     1     -43.518  42.341  25.420  1.00  0.00    -0.269 OA
ATOM     28  N   UNL     1     -43.167  41.285  27.465  1.00  0.00    -0.268 N 
ATOM     29  C   UNL     1     -42.882  40.145  29.623  1.00  0.00    -0.019 A 
ATOM     30  C   UNL     1     -41.903  41.837  27.640  1.00  0.00     0.014 A 
ATOM     31  C   UNL     1     -41.670  40.700  29.747  1.00  0.00    -0.057 A 
ATOM     32  H   UNL     1     -43.302  39.480  30.368  1.00  0.00     0.066 H 
ATOM     33  C   UNL     1     -41.162  41.575  28.725  1.00  0.00    -0.045 A 
ATOM     34  H   UNL     1     -41.538  42.495  26.854  1.00  0.00     0.082 H 
ATOM     35  H   UNL     1     -41.051  40.501  30.615  1.00  0.00     0.062 H 
ATOM     36  H   UNL     1     -40.176  42.011  28.851  1.00  0.00     0.064 H 
ENDBRANCH  19  21
ENDBRANCH  14  17
ENDBRANCH   1  14
BRANCH   5  37
ATOM     37  C   UNL     1     -48.454  30.495  25.214  1.00  0.00     0.039 C 
ATOM     38  H   UNL     1     -49.500  30.590  24.890  1.00  0.00     0.050 H 
ATOM     39  H   UNL     1     -48.450  29.780  26.046  1.00  0.00     0.050 H 
BRANCH  37  40
ATOM     40  N   UNL     1     -47.639  30.036  24.081  1.00  0.00    -0.297 NA
ATOM     41  C   UNL     1     -48.077  28.735  23.544  1.00  0.00    -0.001 C 
ATOM     42  C   UNL     1     -47.768  30.950  22.932  1.00  0.00     0.004 C 
ATOM     43  C   UNL     1     -49.263  29.041  22.636  1.00  0.00    -0.033 C 
ATOM     44  H   UNL     1     -48.321  27.988  24.306  1.00  0.00     0.043 H 
ATOM     45  H   UNL     1     -47.256  28.316  22.947  1.00  0.00     0.043 H 
ATOM     46  C   UNL     1     -48.927  30.427  22.083  1.00  0.00    -0.016 C 
ATOM     47  H   UNL     1     -47.888  31.998  23.228  1.00  0.00     0.044 H 
ATOM     48  H   UNL     1     -46.832  30.894  22.361  1.00  0.00     0.044 H 
ATOM     49  H   UNL     1     -49.373  28.283  21.854  1.00  0.00     0.029 H 
ATOM     50  H   UNL     1     -50.188  29.063  23.223  1.00  0.00     0.029 H 
ATOM     51  C   UNL     1     -50.145  31.384  21.890  1.00  0.00    -0.046 C 
ATOM     52  C   UNL     1     -48.736  30.530  20.539  1.00  0.00    -0.046 C 
ATOM     53  C   UNL     1     -50.233  30.880  20.438  1.00  0.00    -0.052 C 
ATOM     54  H   UNL     1     -51.025  31.191  22.510  1.00  0.00     0.027 H 
ATOM     55  H   UNL     1     -49.898  32.450  21.962  1.00  0.00     0.027 H 
ATOM     56  H   UNL     1     -48.428  29.617  20.023  1.00  0.00     0.027 H 
ATOM     57  H   UNL     1     -48.080  31.349  20.220  1.00  0.00     0.027 H 
ATOM     58  H   UNL     1     -50.497  31.632  19.689  1.00  0.00     0.027 H 
ATOM     59  H   UNL     1     -50.884  30.008  20.310  1.00  0.00     0.027 H 
ENDBRANCH  37  40
ENDBRANCH   5  37
TORSDOF 5
ENDMDL
MODEL 5
REMARK VINA RESULT:     -10.1      1.660      2.217
REMARK SMILES O=C(NCc1cc2[nH]c(CN3CCC4(CCC4)C3)cc2cn1)c1cc(=O)n2ccccc2n1
REMARK SMILES IDX 5 1 6 2 7 3 8 4 9 5 19 6 20 7 21 8 22 9 4 14 3 17 1 18 2 19
REMARK SMILES IDX 23 21 24 22 33 23 25 24 32 26 26 27 27 28 31 29 28 30 30 31
REMARK SMILES IDX 29 33 10 37 11 40 12 41 18 42 13 43 14 46 15 51 17 52 16 53
REMARK H PARENT 6 10 8 11 19 12 21 13 4 15 4 16 3 20 24 25 31 32 28 34 30 35
REMARK H PARENT 29 36 10 38 10 39 12 44 12 45 18 47 18 48 13 49 13 50 15 54
REMARK H PARENT 15 55 17 56 17 57 16 58 16 59
REMARK Flexibility Score: inf
ROOT
ATOM      1  C   UNL     1     -46.549  34.907  27.874  1.00  0.00     0.062 A 
ATOM      2  C   UNL     1     -46.098  33.665  27.425  1.00  0.00    -0.014 A 
ATOM      3  C   UNL     1     -46.974  32.969  26.596  1.00  0.00     0.049 A 
ATOM      4  N   UNL     1     -46.846  31.740  25.992  1.00  0.00    -0.357 N 
ATOM      5  C   UNL     1     -47.967  31.450  25.252  1.00  0.00     0.030 A 
ATOM      6  C   UNL     1     -48.835  32.517  25.396  1.00  0.00    -0.031 A 
ATOM      7  C   UNL     1     -48.220  33.479  26.242  1.00  0.00     0.018 A 
ATOM      8  C   UNL     1     -48.598  34.728  26.745  1.00  0.00     0.037 A 
ATOM      9  N   UNL     1     -47.767  35.425  27.563  1.00  0.00    -0.259 NA
ATOM     10  H   UNL     1     -45.134  33.266  27.720  1.00  0.00     0.067 H 
ATOM     11  H   UNL     1     -46.034  31.145  26.082  1.00  0.00     0.166 HD
ATOM     12  H   UNL     1     -49.809  32.590  24.930  1.00  0.00     0.065 H 
ATOM     13  H   UNL     1     -49.552  35.190  26.518  1.00  0.00     0.085 H 
ENDROOT
BRANCH   1  14
ATOM     14  C   UNL     1     -45.689  35.717  28.818  1.00  0.00     0.060 C 
ATOM     15  H   UNL     1     -46.198  35.866  29.776  1.00  0.00     0.056 H 
ATOM     16  H   UNL     1     -44.758  35.175  29.017  1.00  0.00     0.056 H 
BRANCH  14  17
ATOM     17  N   UNL     1     -45.320  36.990  28.231  1.00  0.00    -0.345 N 
ATOM     18  O   UNL     1     -45.996  38.233  30.043  1.00  0.00    -0.268 OA
ATOM     19  C   UNL     1     -45.591  38.170  28.887  1.00  0.00     0.270 C 
ATOM     20  H   UNL     1     -45.255  37.002  27.221  1.00  0.00     0.164 HD
BRANCH  19  21
ATOM     21  C   UNL     1     -45.392  39.402  28.047  1.00  0.00     0.136 A 
ATOM     22  C   UNL     1     -46.466  39.868  27.404  1.00  0.00     0.035 A 
ATOM     23  N   UNL     1     -44.132  39.932  27.949  1.00  0.00    -0.225 NA
ATOM     24  C   UNL     1     -46.300  41.049  26.546  1.00  0.00     0.258 A 
ATOM     25  H   UNL     1     -47.450  39.426  27.459  1.00  0.00     0.071 H 
ATOM     26  C   UNL     1     -43.985  40.964  27.180  1.00  0.00     0.140 A 
ATOM     27  O   UNL     1     -47.291  41.498  25.972  1.00  0.00    -0.269 OA
ATOM     28  N   UNL     1     -45.015  41.562  26.462  1.00  0.00    -0.268 N 
ATOM     29  C   UNL     1     -42.628  41.567  27.043  1.00  0.00    -0.019 A 
ATOM     30  C   UNL     1     -44.778  42.674  25.662  1.00  0.00     0.014 A 
ATOM     31  C   UNL     1     -42.448  42.637  26.259  1.00  0.00    -0.057 A 
ATOM     32  H   UNL     1     -41.821  41.104  27.596  1.00  0.00     0.066 H 
ATOM     33  C   UNL     1     -43.557  43.212  25.545  1.00  0.00    -0.045 A 
ATOM     34  H   UNL     1     -45.630  43.090  25.130  1.00  0.00     0.082 H 
ATOM     35  H   UNL     1     -41.468  43.089  26.147  1.00  0.00     0.062 H 
ATOM     36  H   UNL     1     -43.382  44.079  24.916  1.00  0.00     0.064 H 
ENDBRANCH  19  21
ENDBRANCH  14  17
ENDBRANCH   1  14
BRANCH   5  37
ATOM     37  C   UNL     1     -48.104  30.174  24.487  1.00  0.00     0.039 C 
ATOM     38  H   UNL     1     -47.152  29.637  24.598  1.00  0.00     0.050 H 
ATOM     39  H   UNL     1     -48.223  30.376  23.415  1.00  0.00     0.050 H 
BRANCH  37  40
ATOM     40  N   UNL     1     -49.192  29.344  25.021  1.00  0.00    -0.297 NA
ATOM     41  C   UNL     1     -49.739  28.401  24.029  1.00  0.00    -0.001 C 
ATOM     42  C   UNL     1     -48.706  28.469  26.104  1.00  0.00     0.004 C 
ATOM     43  C   UNL     1     -48.776  27.220  24.005  1.00  0.00    -0.033 C 
ATOM     44  H   UNL     1     -49.895  28.830  23.033  1.00  0.00     0.043 H 
ATOM     45  H   UNL     1     -50.724  28.065  24.382  1.00  0.00     0.043 H 
ATOM     46  C   UNL     1     -48.266  27.161  25.446  1.00  0.00    -0.016 C 
ATOM     47  H   UNL     1     -47.921  28.932  26.711  1.00  0.00     0.044 H 
ATOM     48  H   UNL     1     -49.551  28.281  26.778  1.00  0.00     0.044 H 
ATOM     49  H   UNL     1     -49.281  26.300  23.691  1.00  0.00     0.029 H 
ATOM     50  H   UNL     1     -47.958  27.417  23.303  1.00  0.00     0.029 H 
ATOM     51  C   UNL     1     -46.766  26.762  25.608  1.00  0.00    -0.046 C 
ATOM     52  C   UNL     1     -48.589  25.860  26.243  1.00  0.00    -0.046 C 
ATOM     53  C   UNL     1     -47.234  25.303  25.766  1.00  0.00    -0.052 C 
ATOM     54  H   UNL     1     -46.110  26.956  24.755  1.00  0.00     0.027 H 
ATOM     55  H   UNL     1     -46.287  27.161  26.511  1.00  0.00     0.027 H 
ATOM     56  H   UNL     1     -49.470  25.296  25.923  1.00  0.00     0.027 H 
ATOM     57  H   UNL     1     -48.639  25.998  27.330  1.00  0.00     0.027 H 
ATOM     58  H   UNL     1     -46.682  24.703  26.495  1.00  0.00     0.027 H 
ATOM     59  H   UNL     1     -47.290  24.751  24.821  1.00  0.00     0.027 H 
ENDBRANCH  37  40
ENDBRANCH   5  37
TORSDOF 5
ENDMDL
MODEL 6
REMARK VINA RESULT:     -10.1      1.390      2.183
REMARK SMILES O=C(NCc1cc2[nH]c(CN3CCC4(CCC4)C3)cc2cn1)c1cc(=O)n2ccccc2n1
REMARK SMILES IDX 5 1 6 2 7 3 8 4 9 5 19 6 20 7 21 8 22 9 4 14 3 17 1 18 2 19
REMARK SMILES IDX 23 21 24 22 33 23 25 24 32 26 26 27 27 28 31 29 28 30 30 31
REMARK SMILES IDX 29 33 10 37 11 40 12 41 18 42 13 43 14 46 15 51 17 52 16 53
REMARK H PARENT 6 10 8 11 19 12 21 13 4 15 4 16 3 20 24 25 31 32 28 34 30 35
REMARK H PARENT 29 36 10 38 10 39 12 44 12 45 18 47 18 48 13 49 13 50 15 54
REMARK H PARENT 15 55 17 56 17 57 16 58 16 59
REMARK Flexibility Score: inf
ROOT
ATOM      1  C   UNL     1     -47.812  34.631  26.603  1.00  0.00     0.062 A 
ATOM      2  C   UNL     1     -48.827  33.713  26.336  1.00  0.00    -0.014 A 
ATOM      3  C   UNL     1     -48.499  32.691  25.449  1.00  0.00     0.049 A 
ATOM      4  N   UNL     1     -49.252  31.642  24.976  1.00  0.00    -0.357 N 
ATOM      5  C   UNL     1     -48.510  30.869  24.114  1.00  0.00     0.030 A 
ATOM      6  C   UNL     1     -47.257  31.447  24.028  1.00  0.00    -0.031 A 
ATOM      7  C   UNL     1     -47.239  32.596  24.864  1.00  0.00     0.018 A 
ATOM      8  C   UNL     1     -46.282  33.566  25.179  1.00  0.00     0.037 A 
ATOM      9  N   UNL     1     -46.578  34.578  26.034  1.00  0.00    -0.259 NA
ATOM     10  H   UNL     1     -49.812  33.803  26.781  1.00  0.00     0.067 H 
ATOM     11  H   UNL     1     -50.212  31.468  25.237  1.00  0.00     0.166 HD
ATOM     12  H   UNL     1     -46.440  31.069  23.427  1.00  0.00     0.065 H 
ATOM     13  H   UNL     1     -45.281  33.562  24.762  1.00  0.00     0.085 H 
ENDROOT
BRANCH   1  14
ATOM     14  C   UNL     1     -48.088  35.804  27.517  1.00  0.00     0.060 C 
ATOM     15  H   UNL     1     -49.069  36.241  27.304  1.00  0.00     0.056 H 
ATOM     16  H   UNL     1     -48.096  35.461  28.557  1.00  0.00     0.056 H 
BRANCH  14  17
ATOM     17  N   UNL     1     -47.047  36.808  27.411  1.00  0.00    -0.345 N 
ATOM     18  O   UNL     1     -46.427  36.667  29.620  1.00  0.00    -0.268 OA
ATOM     19  C   UNL     1     -46.347  37.213  28.525  1.00  0.00     0.270 C 
ATOM     20  H   UNL     1     -47.140  37.453  26.637  1.00  0.00     0.164 HD
BRANCH  19  21
ATOM     21  C   UNL     1     -45.494  38.433  28.307  1.00  0.00     0.136 A 
ATOM     22  C   UNL     1     -45.740  39.146  27.205  1.00  0.00     0.035 A 
ATOM     23  N   UNL     1     -44.498  38.705  29.207  1.00  0.00    -0.225 NA
ATOM     24  C   UNL     1     -44.902  40.324  26.942  1.00  0.00     0.258 A 
ATOM     25  H   UNL     1     -46.506  38.908  26.481  1.00  0.00     0.071 H 
ATOM     26  C   UNL     1     -43.749  39.736  28.966  1.00  0.00     0.140 A 
ATOM     27  O   UNL     1     -45.141  41.000  25.942  1.00  0.00    -0.269 OA
ATOM     28  N   UNL     1     -43.900  40.573  27.866  1.00  0.00    -0.268 N 
ATOM     29  C   UNL     1     -42.651  40.062  29.919  1.00  0.00    -0.019 A 
ATOM     30  C   UNL     1     -43.059  41.666  27.679  1.00  0.00     0.014 A 
ATOM     31  C   UNL     1     -41.867  41.124  29.696  1.00  0.00    -0.057 A 
ATOM     32  H   UNL     1     -42.527  39.411  30.775  1.00  0.00     0.066 H 
ATOM     33  C   UNL     1     -42.076  41.955  28.541  1.00  0.00    -0.045 A 
ATOM     34  H   UNL     1     -43.235  42.279  26.799  1.00  0.00     0.082 H 
ATOM     35  H   UNL     1     -41.062  41.376  30.379  1.00  0.00     0.062 H 
ATOM     36  H   UNL     1     -41.425  42.809  28.385  1.00  0.00     0.064 H 
ENDBRANCH  19  21
ENDBRANCH  14  17
ENDBRANCH   1  14
BRANCH   5  37
ATOM     37  C   UNL     1     -49.077  29.659  23.447  1.00  0.00     0.039 C 
ATOM     38  H   UNL     1     -49.032  29.846  22.365  1.00  0.00     0.050 H 
ATOM     39  H   UNL     1     -50.138  29.539  23.697  1.00  0.00     0.050 H 
BRANCH  37  40
ATOM     40  N   UNL     1     -48.292  28.457  23.761  1.00  0.00    -0.297 NA
ATOM     41  C   UNL     1     -47.767  28.454  25.139  1.00  0.00    -0.001 C 
ATOM     42  C   UNL     1     -49.132  27.247  23.704  1.00  0.00     0.004 C 
ATOM     43  C   UNL     1     -48.923  27.995  26.020  1.00  0.00    -0.033 C 
ATOM     44  H   UNL     1     -47.349  29.411  25.467  1.00  0.00     0.043 H 
ATOM     45  H   UNL     1     -46.951  27.721  25.193  1.00  0.00     0.043 H 
ATOM     46  C   UNL     1     -49.692  27.035  25.111  1.00  0.00    -0.016 C 
ATOM     47  H   UNL     1     -49.909  27.299  22.933  1.00  0.00     0.044 H 
ATOM     48  H   UNL     1     -48.480  26.407  23.432  1.00  0.00     0.044 H 
ATOM     49  H   UNL     1     -48.561  27.519  26.937  1.00  0.00     0.029 H 
ATOM     50  H   UNL     1     -49.542  28.854  26.303  1.00  0.00     0.029 H 
ATOM     51  C   UNL     1     -51.246  27.071  25.262  1.00  0.00    -0.046 C 
ATOM     52  C   UNL     1     -49.785  25.553  25.587  1.00  0.00    -0.046 C 
ATOM     53  C   UNL     1     -51.112  25.922  26.279  1.00  0.00    -0.052 C 
ATOM     54  H   UNL     1     -51.681  27.996  25.651  1.00  0.00     0.027 H 
ATOM     55  H   UNL     1     -51.795  26.783  24.357  1.00  0.00     0.027 H 
ATOM     56  H   UNL     1     -48.989  25.202  26.249  1.00  0.00     0.027 H 
ATOM     57  H   UNL     1     -49.910  24.826  24.775  1.00  0.00     0.027 H 
ATOM     58  H   UNL     1     -51.896  25.160  26.242  1.00  0.00     0.027 H 
ATOM     59  H   UNL     1     -50.992  26.259  27.314  1.00  0.00     0.027 H 
ENDBRANCH  37  40
ENDBRANCH   5  37
TORSDOF 5
ENDMDL
MODEL 7
REMARK VINA RESULT:     -10.0      2.347      3.441
REMARK SMILES O=C(NCc1cc2[nH]c(CN3CCC4(CCC4)C3)cc2cn1)c1cc(=O)n2ccccc2n1
REMARK SMILES IDX 5 1 6 2 7 3 8 4 9 5 19 6 20 7 21 8 22 9 4 14 3 17 1 18 2 19
REMARK SMILES IDX 23 21 24 22 33 23 25 24 32 26 26 27 27 28 31 29 28 30 30 31
REMARK SMILES IDX 29 33 10 37 11 40 12 41 18 42 13 43 14 46 15 51 17 52 16 53
REMARK H PARENT 6 10 8 11 19 12 21 13 4 15 4 16 3 20 24 25 31 32 28 34 30 35
REMARK H PARENT 29 36 10 38 10 39 12 44 12 45 18 47 18 48 13 49 13 50 15 54
REMARK H PARENT 15 55 17 56 17 57 16 58 16 59
REMARK Flexibility Score: inf
ROOT
ATOM      1  C   UNL     1     -46.639  35.415  28.433  1.00  0.00     0.062 A 
ATOM      2  C   UNL     1     -46.178  34.141  28.101  1.00  0.00    -0.014 A 
ATOM      3  C   UNL     1     -46.919  33.464  27.135  1.00  0.00     0.049 A 
ATOM      4  N   UNL     1     -46.744  32.214  26.589  1.00  0.00    -0.357 N 
ATOM      5  C   UNL     1     -47.721  31.957  25.658  1.00  0.00     0.030 A 
ATOM      6  C   UNL     1     -48.545  33.067  25.617  1.00  0.00    -0.031 A 
ATOM      7  C   UNL     1     -48.049  34.022  26.544  1.00  0.00     0.018 A 
ATOM      8  C   UNL     1     -48.449  35.301  26.944  1.00  0.00     0.037 A 
ATOM      9  N   UNL     1     -47.750  35.981  27.889  1.00  0.00    -0.259 NA
ATOM     10  H   UNL     1     -45.308  33.705  28.579  1.00  0.00     0.067 H 
ATOM     11  H   UNL     1     -45.995  31.583  26.841  1.00  0.00     0.166 HD
ATOM     12  H   UNL     1     -49.410  33.173  24.974  1.00  0.00     0.065 H 
ATOM     13  H   UNL     1     -49.319  35.801  26.533  1.00  0.00     0.085 H 
ENDROOT
BRANCH   1  14
ATOM     14  C   UNL     1     -45.930  36.210  29.506  1.00  0.00     0.060 C 
ATOM     15  H   UNL     1     -46.647  36.616  30.228  1.00  0.00     0.056 H 
ATOM     16  H   UNL     1     -45.245  35.552  30.053  1.00  0.00     0.056 H 
BRANCH  14  17
ATOM     17  N   UNL     1     -45.127  37.270  28.930  1.00  0.00    -0.345 N 
ATOM     18  O   UNL     1     -44.526  38.172  30.958  1.00  0.00    -0.268 OA
ATOM     19  C   UNL     1     -44.549  38.227  29.733  1.00  0.00     0.270 C 
ATOM     20  H   UNL     1     -45.345  37.510  27.971  1.00  0.00     0.164 HD
BRANCH  19  21
ATOM     21  C   UNL     1     -43.974  39.397  28.980  1.00  0.00     0.136 A 
ATOM     22  C   UNL     1     -42.962  40.045  29.562  1.00  0.00     0.035 A 
ATOM     23  N   UNL     1     -44.548  39.754  27.788  1.00  0.00    -0.225 NA
ATOM     24  C   UNL     1     -42.400  41.213  28.872  1.00  0.00     0.258 A 
ATOM     25  H   UNL     1     -42.535  39.778  30.518  1.00  0.00     0.071 H 
ATOM     26  C   UNL     1     -44.061  40.795  27.188  1.00  0.00     0.140 A 
ATOM     27  O   UNL     1     -41.451  41.799  29.391  1.00  0.00    -0.269 OA
ATOM     28  N   UNL     1     -43.002  41.555  27.671  1.00  0.00    -0.268 N 
ATOM     29  C   UNL     1     -44.662  41.219  25.891  1.00  0.00    -0.019 A 
ATOM     30  C   UNL     1     -42.531  42.656  26.964  1.00  0.00     0.014 A 
ATOM     31  C   UNL     1     -44.175  42.287  25.247  1.00  0.00    -0.057 A 
ATOM     32  H   UNL     1     -45.489  40.633  25.512  1.00  0.00     0.066 H 
ATOM     33  C   UNL     1     -43.074  43.031  25.798  1.00  0.00    -0.045 A 
ATOM     34  H   UNL     1     -41.699  43.204  27.400  1.00  0.00     0.082 H 
ATOM     35  H   UNL     1     -44.599  42.611  24.303  1.00  0.00     0.062 H 
ATOM     36  H   UNL     1     -42.699  43.893  25.254  1.00  0.00     0.064 H 
ENDBRANCH  19  21
ENDBRANCH  14  17
ENDBRANCH   1  14
BRANCH   5  37
ATOM     37  C   UNL     1     -47.779  30.668  24.905  1.00  0.00     0.039 C 
ATOM     38  H   UNL     1     -48.792  30.594  24.485  1.00  0.00     0.050 H 
ATOM     39  H   UNL     1     -47.663  29.815  25.585  1.00  0.00     0.050 H 
BRANCH  37  40
ATOM     40  N   UNL     1     -46.801  30.643  23.809  1.00  0.00    -0.297 NA
ATOM     41  C   UNL     1     -46.673  29.318  23.178  1.00  0.00    -0.001 C 
ATOM     42  C   UNL     1     -47.225  31.519  22.701  1.00  0.00     0.004 C 
ATOM     43  C   UNL     1     -47.843  29.207  22.207  1.00  0.00    -0.033 C 
ATOM     44  H   UNL     1     -46.639  28.481  23.883  1.00  0.00     0.043 H 
ATOM     45  H   UNL     1     -45.728  29.294  22.618  1.00  0.00     0.043 H 
ATOM     46  C   UNL     1     -48.050  30.652  21.749  1.00  0.00    -0.016 C 
ATOM     47  H   UNL     1     -47.757  32.414  23.041  1.00  0.00     0.044 H 
ATOM     48  H   UNL     1     -46.318  31.870  22.194  1.00  0.00     0.044 H 
ATOM     49  H   UNL     1     -47.614  28.525  21.382  1.00  0.00     0.029 H 
ATOM     50  H   UNL     1     -48.728  28.827  22.729  1.00  0.00     0.029 H 
ATOM     51  C   UNL     1     -49.535  31.076  21.522  1.00  0.00    -0.046 C 
ATOM     52  C   UNL     1     -47.847  30.934  20.229  1.00  0.00    -0.046 C 
ATOM     53  C   UNL     1     -49.356  30.684  20.043  1.00  0.00    -0.052 C 
ATOM     54  H   UNL     1     -50.297  30.512  22.069  1.00  0.00     0.027 H 
ATOM     55  H   UNL     1     -49.728  32.146  21.664  1.00  0.00     0.027 H 
ATOM     56  H   UNL     1     -47.185  30.251  19.690  1.00  0.00     0.027 H 
ATOM     57  H   UNL     1     -47.549  31.964  19.997  1.00  0.00     0.027 H 
ATOM     58  H   UNL     1     -49.859  31.329  19.316  1.00  0.00     0.027 H 
ATOM     59  H   UNL     1     -49.609  29.641  19.827  1.00  0.00     0.027 H 
ENDBRANCH  37  40
ENDBRANCH   5  37
TORSDOF 5
ENDMDL
