MODEL 1
REMARK VINA RESULT:      -9.5      0.000      0.000
REMARK SMILES CC#CCCNCc1cc2ccc(CNC(=O)c3cc(=O)n4ccccc4n3)cc2[nH]1
REMARK SMILES IDX 7 1 6 4 5 6 4 9 3 12 2 13 1 14 8 18 9 19 31 20 10 21 30 23
REMARK SMILES IDX 11 25 29 26 12 27 13 29 14 32 15 35 16 36 17 38 18 39 19 40
REMARK SMILES IDX 28 41 20 42 27 44 21 45 22 46 26 47 23 48 25 49 24 51
REMARK H PARENT 7 2 7 3 6 5 5 7 5 8 4 10 4 11 1 15 1 16 1 17 9 22 31 24 11 28
REMARK H PARENT 29 30 12 31 14 33 14 34 15 37 19 43 26 50 23 52 25 53 24 54
REMARK Flexibility Score: inf
ROOT
ATOM      1  C   UNL     1     -47.357  39.460  28.277  1.00  0.00     0.036 C 
ATOM      2  H   UNL     1     -47.995  40.150  27.714  1.00  0.00     0.049 H 
ATOM      3  H   UNL     1     -47.641  39.517  29.335  1.00  0.00     0.049 H 
ENDROOT
BRANCH   1   4
ATOM      4  N   UNL     1     -45.947  39.809  28.106  1.00  0.00    -0.310 NA
ATOM      5  H   UNL     1     -45.647  40.312  28.943  1.00  0.00     0.123 HD
BRANCH   4   6
ATOM      6  C   UNL     1     -45.768  40.676  26.934  1.00  0.00     0.006 C 
ATOM      7  H   UNL     1     -46.101  41.695  27.165  1.00  0.00     0.044 H 
ATOM      8  H   UNL     1     -46.384  40.307  26.103  1.00  0.00     0.044 H 
BRANCH   6   9
ATOM      9  C   UNL     1     -44.298  40.704  26.497  1.00  0.00     0.021 C 
ATOM     10  H   UNL     1     -44.136  41.522  25.785  1.00  0.00     0.042 H 
ATOM     11  H   UNL     1     -44.044  39.771  25.978  1.00  0.00     0.042 H 
BRANCH   9  12
ATOM     12  C   UNL     1     -43.404  40.875  27.653  1.00  0.00    -0.102 C 
ATOM     13  C   UNL     1     -42.671  41.015  28.595  1.00  0.00    -0.107 C 
BRANCH  13  14
ATOM     14  C   UNL     1     -41.776  41.187  29.740  1.00  0.00    -0.003 C 
ATOM     15  H   UNL     1     -40.736  41.268  29.412  1.00  0.00     0.037 H 
ATOM     16  H   UNL     1     -41.851  40.335  30.423  1.00  0.00     0.037 H 
ATOM     17  H   UNL     1     -42.028  42.093  30.298  1.00  0.00     0.037 H 
ENDBRANCH  13  14
ENDBRANCH   9  12
ENDBRANCH   6   9
ENDBRANCH   4   6
ENDBRANCH   1   4
BRANCH   1  18
ATOM     18  C   UNL     1     -47.582  38.078  27.772  1.00  0.00     0.030 A 
ATOM     19  C   UNL     1     -48.677  37.242  27.858  1.00  0.00    -0.032 A 
ATOM     20  N   UNL     1     -46.614  37.405  27.064  1.00  0.00    -0.357 N 
ATOM     21  C   UNL     1     -48.358  36.029  27.188  1.00  0.00    -0.000 A 
ATOM     22  H   UNL     1     -49.612  37.475  28.351  1.00  0.00     0.065 H 
ATOM     23  C   UNL     1     -47.058  36.156  26.701  1.00  0.00     0.046 A 
ATOM     24  H   UNL     1     -45.692  37.778  26.876  1.00  0.00     0.166 HD
ATOM     25  C   UNL     1     -49.057  34.830  26.947  1.00  0.00    -0.052 A 
ATOM     26  C   UNL     1     -46.414  35.139  25.987  1.00  0.00    -0.033 A 
ATOM     27  C   UNL     1     -48.428  33.802  26.232  1.00  0.00    -0.057 A 
ATOM     28  H   UNL     1     -50.072  34.703  27.309  1.00  0.00     0.063 H 
ATOM     29  C   UNL     1     -47.117  33.941  25.763  1.00  0.00    -0.027 A 
ATOM     30  H   UNL     1     -45.402  35.271  25.615  1.00  0.00     0.065 H 
ATOM     31  H   UNL     1     -48.980  32.882  26.046  1.00  0.00     0.063 H 
BRANCH  29  32
ATOM     32  C   UNL     1     -46.474  32.834  24.971  1.00  0.00     0.043 C 
ATOM     33  H   UNL     1     -46.415  33.099  23.908  1.00  0.00     0.054 H 
ATOM     34  H   UNL     1     -45.446  32.656  25.309  1.00  0.00     0.054 H 
BRANCH  32  35
ATOM     35  N   UNL     1     -47.216  31.610  25.106  1.00  0.00    -0.347 N 
ATOM     36  C   UNL     1     -47.782  30.976  24.030  1.00  0.00     0.270 C 
ATOM     37  H   UNL     1     -47.271  31.140  26.005  1.00  0.00     0.164 HD
ATOM     38  O   UNL     1     -47.748  31.404  22.884  1.00  0.00    -0.268 OA
BRANCH  36  39
ATOM     39  C   UNL     1     -48.453  29.678  24.413  1.00  0.00     0.136 A 
ATOM     40  C   UNL     1     -49.768  29.603  24.195  1.00  0.00     0.035 A 
ATOM     41  N   UNL     1     -47.687  28.670  24.952  1.00  0.00    -0.225 NA
ATOM     42  C   UNL     1     -50.461  28.359  24.553  1.00  0.00     0.258 A 
ATOM     43  H   UNL     1     -50.360  30.402  23.770  1.00  0.00     0.071 H 
ATOM     44  C   UNL     1     -48.304  27.573  25.267  1.00  0.00     0.140 A 
ATOM     45  O   UNL     1     -51.673  28.280  24.356  1.00  0.00    -0.269 OA
ATOM     46  N   UNL     1     -49.666  27.359  25.095  1.00  0.00    -0.268 N 
ATOM     47  C   UNL     1     -47.513  26.454  25.855  1.00  0.00    -0.019 A 
ATOM     48  C   UNL     1     -50.252  26.151  25.459  1.00  0.00     0.014 A 
ATOM     49  C   UNL     1     -48.122  25.310  26.189  1.00  0.00    -0.057 A 
ATOM     50  H   UNL     1     -46.451  26.611  25.993  1.00  0.00     0.066 H 
ATOM     51  C   UNL     1     -49.536  25.150  25.986  1.00  0.00    -0.045 A 
ATOM     52  H   UNL     1     -51.324  26.052  25.296  1.00  0.00     0.082 H 
ATOM     53  H   UNL     1     -47.563  24.484  26.618  1.00  0.00     0.062 H 
ATOM     54  H   UNL     1     -50.003  24.212  26.267  1.00  0.00     0.064 H 
ENDBRANCH  36  39
ENDBRANCH  32  35
ENDBRANCH  29  32
ENDBRANCH   1  18
TORSDOF 9
ENDMDL
MODEL 2
REMARK VINA RESULT:      -9.5      2.891     11.406
REMARK SMILES CC#CCCNCc1cc2ccc(CNC(=O)c3cc(=O)n4ccccc4n3)cc2[nH]1
REMARK SMILES IDX 7 1 6 4 5 6 4 9 3 12 2 13 1 14 8 18 9 19 31 20 10 21 30 23
REMARK SMILES IDX 11 25 29 26 12 27 13 29 14 32 15 35 16 36 17 38 18 39 19 40
REMARK SMILES IDX 28 41 20 42 27 44 21 45 22 46 26 47 23 48 25 49 24 51
REMARK H PARENT 7 2 7 3 6 5 5 7 5 8 4 10 4 11 1 15 1 16 1 17 9 22 31 24 11 28
REMARK H PARENT 29 30 12 31 14 33 14 34 15 37 19 43 26 50 23 52 25 53 24 54
REMARK Flexibility Score: inf
ROOT
ATOM      1  C   UNL     1     -48.313  29.179  22.749  1.00  0.00     0.036 C 
ATOM      2  H   UNL     1     -48.183  29.367  21.677  1.00  0.00     0.049 H 
ATOM      3  H   UNL     1     -47.637  28.365  23.037  1.00  0.00     0.049 H 
ENDROOT
BRANCH   1   4
ATOM      4  N   UNL     1     -49.701  28.821  23.042  1.00  0.00    -0.310 NA
ATOM      5  H   UNL     1     -50.049  29.473  23.747  1.00  0.00     0.123 HD
BRANCH   4   6
ATOM      6  C   UNL     1     -49.780  27.453  23.572  1.00  0.00     0.006 C 
ATOM      7  H   UNL     1     -48.897  26.879  23.265  1.00  0.00     0.044 H 
ATOM      8  H   UNL     1     -50.663  26.947  23.160  1.00  0.00     0.044 H 
BRANCH   6   9
ATOM      9  C   UNL     1     -49.876  27.467  25.103  1.00  0.00     0.021 C 
ATOM     10  H   UNL     1     -50.908  27.268  25.414  1.00  0.00     0.042 H 
ATOM     11  H   UNL     1     -49.610  28.460  25.485  1.00  0.00     0.042 H 
BRANCH   9  12
ATOM     12  C   UNL     1     -48.981  26.462  25.698  1.00  0.00    -0.102 C 
ATOM     13  C   UNL     1     -48.247  25.643  26.182  1.00  0.00    -0.107 C 
BRANCH  13  14
ATOM     14  C   UNL     1     -47.351  24.647  26.771  1.00  0.00    -0.003 C 
ATOM     15  H   UNL     1     -46.880  25.035  27.678  1.00  0.00     0.037 H 
ATOM     16  H   UNL     1     -46.558  24.373  26.068  1.00  0.00     0.037 H 
ATOM     17  H   UNL     1     -47.899  23.738  27.035  1.00  0.00     0.037 H 
ENDBRANCH  13  14
ENDBRANCH   9  12
ENDBRANCH   6   9
ENDBRANCH   4   6
ENDBRANCH   1   4
BRANCH   1  18
ATOM     18  C   UNL     1     -47.959  30.415  23.499  1.00  0.00     0.030 A 
ATOM     19  C   UNL     1     -46.801  31.165  23.526  1.00  0.00    -0.032 A 
ATOM     20  N   UNL     1     -48.859  31.030  24.337  1.00  0.00    -0.357 N 
ATOM     21  C   UNL     1     -47.007  32.261  24.409  1.00  0.00    -0.000 A 
ATOM     22  H   UNL     1     -45.898  30.952  22.969  1.00  0.00     0.065 H 
ATOM     23  C   UNL     1     -48.305  32.151  24.906  1.00  0.00     0.046 A 
ATOM     24  H   UNL     1     -49.787  30.673  24.526  1.00  0.00     0.166 HD
ATOM     25  C   UNL     1     -46.209  33.341  24.833  1.00  0.00    -0.052 A 
ATOM     26  C   UNL     1     -48.847  33.066  25.815  1.00  0.00    -0.033 A 
ATOM     27  C   UNL     1     -46.736  34.268  25.741  1.00  0.00    -0.057 A 
ATOM     28  H   UNL     1     -45.197  33.456  24.460  1.00  0.00     0.063 H 
ATOM     29  C   UNL     1     -48.037  34.134  26.242  1.00  0.00    -0.027 A 
ATOM     30  H   UNL     1     -49.865  32.957  26.180  1.00  0.00     0.065 H 
ATOM     31  H   UNL     1     -46.113  35.103  26.058  1.00  0.00     0.063 H 
BRANCH  29  32
ATOM     32  C   UNL     1     -48.592  35.161  27.193  1.00  0.00     0.043 C 
ATOM     33  H   UNL     1     -49.533  35.577  26.812  1.00  0.00     0.054 H 
ATOM     34  H   UNL     1     -48.818  34.711  28.167  1.00  0.00     0.054 H 
BRANCH  32  35
ATOM     35  N   UNL     1     -47.655  36.233  27.393  1.00  0.00    -0.347 N 
ATOM     36  C   UNL     1     -46.932  36.365  28.551  1.00  0.00     0.270 C 
ATOM     37  H   UNL     1     -47.449  36.881  26.639  1.00  0.00     0.164 HD
ATOM     38  O   UNL     1     -47.045  35.625  29.520  1.00  0.00    -0.268 OA
BRANCH  36  39
ATOM     39  C   UNL     1     -45.970  37.527  28.501  1.00  0.00     0.136 A 
ATOM     40  C   UNL     1     -45.162  37.675  29.554  1.00  0.00     0.035 A 
ATOM     41  N   UNL     1     -45.981  38.349  27.398  1.00  0.00    -0.225 NA
ATOM     42  C   UNL     1     -44.210  38.793  29.547  1.00  0.00     0.258 A 
ATOM     43  H   UNL     1     -45.163  37.022  30.416  1.00  0.00     0.071 H 
ATOM     44  C   UNL     1     -45.138  39.336  27.396  1.00  0.00     0.140 A 
ATOM     45  O   UNL     1     -43.462  38.937  30.512  1.00  0.00    -0.269 OA
ATOM     46  N   UNL     1     -44.242  39.607  28.424  1.00  0.00    -0.268 N 
ATOM     47  C   UNL     1     -45.115  40.253  26.221  1.00  0.00    -0.019 A 
ATOM     48  C   UNL     1     -43.369  40.687  28.345  1.00  0.00     0.014 A 
ATOM     49  C   UNL     1     -44.257  41.279  26.191  1.00  0.00    -0.057 A 
ATOM     50  H   UNL     1     -45.810  40.050  25.415  1.00  0.00     0.066 H 
ATOM     51  C   UNL     1     -43.354  41.506  27.286  1.00  0.00    -0.045 A 
ATOM     52  H   UNL     1     -42.695  40.839  29.185  1.00  0.00     0.082 H 
ATOM     53  H   UNL     1     -44.225  41.957  25.344  1.00  0.00     0.062 H 
ATOM     54  H   UNL     1     -42.668  42.346  27.235  1.00  0.00     0.064 H 
ENDBRANCH  36  39
ENDBRANCH  32  35
ENDBRANCH  29  32
ENDBRANCH   1  18
TORSDOF 9
ENDMDL
MODEL 3
REMARK VINA RESULT:      -9.3      1.655      2.502
REMARK SMILES CC#CCCNCc1cc2ccc(CNC(=O)c3cc(=O)n4ccccc4n3)cc2[nH]1
REMARK SMILES IDX 7 1 6 4 5 6 4 9 3 12 2 13 1 14 8 18 9 19 31 20 10 21 30 23
REMARK SMILES IDX 11 25 29 26 12 27 13 29 14 32 15 35 16 36 17 38 18 39 19 40
REMARK SMILES IDX 28 41 20 42 27 44 21 45 22 46 26 47 23 48 25 49 24 51
REMARK H PARENT 7 2 7 3 6 5 5 7 5 8 4 10 4 11 1 15 1 16 1 17 9 22 31 24 11 28
REMARK H PARENT 29 30 12 31 14 33 14 34 15 37 19 43 26 50 23 52 25 53 24 54
REMARK Flexibility Score: inf
ROOT
ATOM      1  C   UNL     1     -46.040  39.020  29.016  1.00  0.00     0.036 C 
ATOM      2  H   UNL     1     -46.585  39.807  28.485  1.00  0.00     0.049 H 
ATOM      3  H   UNL     1     -46.421  38.974  30.043  1.00  0.00     0.049 H 
ENDROOT
BRANCH   1   4
ATOM      4  N   UNL     1     -44.604  39.298  29.013  1.00  0.00    -0.310 NA
ATOM      5  H   UNL     1     -44.361  39.694  29.923  1.00  0.00     0.123 HD
BRANCH   4   6
ATOM      6  C   UNL     1     -44.268  40.267  27.962  1.00  0.00     0.006 C 
ATOM      7  H   UNL     1     -45.100  40.967  27.815  1.00  0.00     0.044 H 
ATOM      8  H   UNL     1     -44.106  39.742  27.012  1.00  0.00     0.044 H 
BRANCH   6   9
ATOM      9  C   UNL     1     -43.000  41.050  28.328  1.00  0.00     0.021 C 
ATOM     10  H   UNL     1     -42.205  40.355  28.622  1.00  0.00     0.042 H 
ATOM     11  H   UNL     1     -43.197  41.698  29.190  1.00  0.00     0.042 H 
BRANCH   9  12
ATOM     12  C   UNL     1     -42.540  41.871  27.197  1.00  0.00    -0.102 C 
ATOM     13  C   UNL     1     -42.159  42.542  26.275  1.00  0.00    -0.107 C 
BRANCH  13  14
ATOM     14  C   UNL     1     -41.694  43.358  25.154  1.00  0.00    -0.003 C 
ATOM     15  H   UNL     1     -40.940  44.078  25.483  1.00  0.00     0.037 H 
ATOM     16  H   UNL     1     -42.523  43.914  24.707  1.00  0.00     0.037 H 
ATOM     17  H   UNL     1     -41.247  42.732  24.376  1.00  0.00     0.037 H 
ENDBRANCH  13  14
ENDBRANCH   9  12
ENDBRANCH   6   9
ENDBRANCH   4   6
ENDBRANCH   1   4
BRANCH   1  18
ATOM     18  C   UNL     1     -46.287  37.721  28.332  1.00  0.00     0.030 A 
ATOM     19  C   UNL     1     -45.420  36.733  27.910  1.00  0.00    -0.032 A 
ATOM     20  N   UNL     1     -47.559  37.302  28.023  1.00  0.00    -0.357 N 
ATOM     21  C   UNL     1     -46.191  35.691  27.325  1.00  0.00    -0.000 A 
ATOM     22  H   UNL     1     -44.343  36.753  28.011  1.00  0.00     0.065 H 
ATOM     23  C   UNL     1     -47.529  36.074  27.406  1.00  0.00     0.046 A 
ATOM     24  H   UNL     1     -48.391  37.851  28.198  1.00  0.00     0.166 HD
ATOM     25  C   UNL     1     -45.876  34.453  26.733  1.00  0.00    -0.052 A 
ATOM     26  C   UNL     1     -48.574  35.282  26.917  1.00  0.00    -0.033 A 
ATOM     27  C   UNL     1     -46.910  33.646  26.239  1.00  0.00    -0.057 A 
ATOM     28  H   UNL     1     -44.844  34.126  26.659  1.00  0.00     0.063 H 
ATOM     29  C   UNL     1     -48.247  34.053  26.316  1.00  0.00    -0.027 A 
ATOM     30  H   UNL     1     -49.608  35.605  27.000  1.00  0.00     0.065 H 
ATOM     31  H   UNL     1     -46.656  32.688  25.789  1.00  0.00     0.063 H 
BRANCH  29  32
ATOM     32  C   UNL     1     -49.343  33.154  25.807  1.00  0.00     0.043 C 
ATOM     33  H   UNL     1     -50.216  33.190  26.470  1.00  0.00     0.054 H 
ATOM     34  H   UNL     1     -49.686  33.476  24.816  1.00  0.00     0.054 H 
BRANCH  32  35
ATOM     35  N   UNL     1     -48.886  31.794  25.710  1.00  0.00    -0.347 N 
ATOM     36  C   UNL     1     -48.794  31.138  24.509  1.00  0.00     0.270 C 
ATOM     37  H   UNL     1     -48.543  31.309  26.533  1.00  0.00     0.164 HD
ATOM     38  O   UNL     1     -49.125  31.622  23.435  1.00  0.00    -0.268 OA
BRANCH  36  39
ATOM     39  C   UNL     1     -48.229  29.746  24.655  1.00  0.00     0.136 A 
ATOM     40  C   UNL     1     -47.194  29.439  23.870  1.00  0.00     0.035 A 
ATOM     41  N   UNL     1     -48.801  28.891  25.569  1.00  0.00    -0.225 NA
ATOM     42  C   UNL     1     -46.613  28.095  23.978  1.00  0.00     0.258 A 
ATOM     43  H   UNL     1     -46.751  30.121  23.155  1.00  0.00     0.071 H 
ATOM     44  C   UNL     1     -48.285  27.704  25.661  1.00  0.00     0.140 A 
ATOM     45  O   UNL     1     -45.659  27.803  23.259  1.00  0.00    -0.269 OA
ATOM     46  N   UNL     1     -47.209  27.253  24.906  1.00  0.00    -0.268 N 
ATOM     47  C   UNL     1     -48.875  26.744  26.638  1.00  0.00    -0.019 A 
ATOM     48  C   UNL     1     -46.715  25.962  25.065  1.00  0.00     0.014 A 
ATOM     49  C   UNL     1     -48.364  25.512  26.755  1.00  0.00    -0.057 A 
ATOM     50  H   UNL     1     -49.714  27.086  27.230  1.00  0.00     0.066 H 
ATOM     51  C   UNL     1     -47.248  25.106  25.945  1.00  0.00    -0.045 A 
ATOM     52  H   UNL     1     -45.869  25.677  24.442  1.00  0.00     0.082 H 
ATOM     53  H   UNL     1     -48.779  24.800  27.461  1.00  0.00     0.062 H 
ATOM     54  H   UNL     1     -46.854  24.101  26.061  1.00  0.00     0.064 H 
ENDBRANCH  36  39
ENDBRANCH  32  35
ENDBRANCH  29  32
ENDBRANCH   1  18
TORSDOF 9
ENDMDL
MODEL 4
REMARK VINA RESULT:      -9.1      3.432     11.776
REMARK SMILES CC#CCCNCc1cc2ccc(CNC(=O)c3cc(=O)n4ccccc4n3)cc2[nH]1
REMARK SMILES IDX 7 1 6 4 5 6 4 9 3 12 2 13 1 14 8 18 9 19 31 20 10 21 30 23
REMARK SMILES IDX 11 25 29 26 12 27 13 29 14 32 15 35 16 36 17 38 18 39 19 40
REMARK SMILES IDX 28 41 20 42 27 44 21 45 22 46 26 47 23 48 25 49 24 51
REMARK H PARENT 7 2 7 3 6 5 5 7 5 8 4 10 4 11 1 15 1 16 1 17 9 22 31 24 11 28
REMARK H PARENT 29 30 12 31 14 33 14 34 15 37 19 43 26 50 23 52 25 53 24 54
REMARK Flexibility Score: inf
ROOT
ATOM      1  C   UNL     1     -49.051  30.914  25.284  1.00  0.00     0.036 C 
ATOM      2  H   UNL     1     -50.076  30.902  25.669  1.00  0.00     0.049 H 
ATOM      3  H   UNL     1     -49.098  30.911  24.188  1.00  0.00     0.049 H 
ENDROOT
BRANCH   1   4
ATOM      4  N   UNL     1     -48.308  29.750  25.768  1.00  0.00    -0.310 NA
ATOM      5  H   UNL     1     -47.312  29.950  25.662  1.00  0.00     0.123 HD
BRANCH   4   6
ATOM      6  C   UNL     1     -48.646  28.557  24.981  1.00  0.00     0.006 C 
ATOM      7  H   UNL     1     -49.461  28.786  24.282  1.00  0.00     0.044 H 
ATOM      8  H   UNL     1     -48.997  27.760  25.649  1.00  0.00     0.044 H 
BRANCH   6   9
ATOM      9  C   UNL     1     -47.425  28.058  24.197  1.00  0.00     0.021 C 
ATOM     10  H   UNL     1     -47.698  27.178  23.603  1.00  0.00     0.042 H 
ATOM     11  H   UNL     1     -46.637  27.746  24.893  1.00  0.00     0.042 H 
BRANCH   9  12
ATOM     12  C   UNL     1     -46.901  29.107  23.308  1.00  0.00    -0.102 C 
ATOM     13  C   UNL     1     -46.477  29.961  22.578  1.00  0.00    -0.107 C 
BRANCH  13  14
ATOM     14  C   UNL     1     -45.960  31.002  21.688  1.00  0.00    -0.003 C 
ATOM     15  H   UNL     1     -44.867  30.998  21.678  1.00  0.00     0.037 H 
ATOM     16  H   UNL     1     -46.294  31.992  22.012  1.00  0.00     0.037 H 
ATOM     17  H   UNL     1     -46.309  30.845  20.663  1.00  0.00     0.037 H 
ENDBRANCH  13  14
ENDBRANCH   9  12
ENDBRANCH   6   9
ENDBRANCH   4   6
ENDBRANCH   1   4
BRANCH   1  18
ATOM     18  C   UNL     1     -48.375  32.154  25.753  1.00  0.00     0.030 A 
ATOM     19  C   UNL     1     -47.038  32.472  25.881  1.00  0.00    -0.032 A 
ATOM     20  N   UNL     1     -49.093  33.260  26.144  1.00  0.00    -0.357 N 
ATOM     21  C   UNL     1     -46.948  33.806  26.367  1.00  0.00    -0.000 A 
ATOM     22  H   UNL     1     -46.209  31.817  25.649  1.00  0.00     0.065 H 
ATOM     23  C   UNL     1     -48.251  34.276  26.526  1.00  0.00     0.046 A 
ATOM     24  H   UNL     1     -50.104  33.292  26.175  1.00  0.00     0.166 HD
ATOM     25  C   UNL     1     -45.876  34.661  26.687  1.00  0.00    -0.052 A 
ATOM     26  C   UNL     1     -48.540  35.562  26.997  1.00  0.00    -0.033 A 
ATOM     27  C   UNL     1     -46.147  35.953  27.158  1.00  0.00    -0.057 A 
ATOM     28  H   UNL     1     -44.851  34.326  26.569  1.00  0.00     0.063 H 
ATOM     29  C   UNL     1     -47.462  36.403  27.325  1.00  0.00    -0.027 A 
ATOM     30  H   UNL     1     -49.566  35.901  27.104  1.00  0.00     0.065 H 
ATOM     31  H   UNL     1     -45.311  36.608  27.396  1.00  0.00     0.063 H 
BRANCH  29  32
ATOM     32  C   UNL     1     -47.727  37.806  27.803  1.00  0.00     0.043 C 
ATOM     33  H   UNL     1     -48.632  38.213  27.336  1.00  0.00     0.054 H 
ATOM     34  H   UNL     1     -47.895  37.826  28.886  1.00  0.00     0.054 H 
BRANCH  32  35
ATOM     35  N   UNL     1     -46.617  38.669  27.499  1.00  0.00    -0.347 N 
ATOM     36  C   UNL     1     -46.781  39.876  26.870  1.00  0.00     0.270 C 
ATOM     37  H   UNL     1     -45.682  38.434  27.819  1.00  0.00     0.164 HD
ATOM     38  O   UNL     1     -47.858  40.305  26.477  1.00  0.00    -0.268 OA
BRANCH  36  39
ATOM     39  C   UNL     1     -45.482  40.629  26.718  1.00  0.00     0.136 A 
ATOM     40  C   UNL     1     -44.574  40.448  27.680  1.00  0.00     0.035 A 
ATOM     41  N   UNL     1     -45.311  41.441  25.620  1.00  0.00    -0.225 NA
ATOM     42  C   UNL     1     -43.295  41.161  27.572  1.00  0.00     0.258 A 
ATOM     43  H   UNL     1     -44.719  39.805  28.539  1.00  0.00     0.071 H 
ATOM     44  C   UNL     1     -44.179  42.070  25.529  1.00  0.00     0.140 A 
ATOM     45  O   UNL     1     -42.453  41.000  28.453  1.00  0.00    -0.269 OA
ATOM     46  N   UNL     1     -43.149  41.973  26.457  1.00  0.00    -0.268 N 
ATOM     47  C   UNL     1     -43.951  42.962  24.357  1.00  0.00    -0.019 A 
ATOM     48  C   UNL     1     -41.964  42.682  26.286  1.00  0.00     0.014 A 
ATOM     49  C   UNL     1     -42.794  43.624  24.236  1.00  0.00    -0.057 A 
ATOM     50  H   UNL     1     -44.748  43.044  23.629  1.00  0.00     0.066 H 
ATOM     51  C   UNL     1     -41.765  43.481  25.231  1.00  0.00    -0.045 A 
ATOM     52  H   UNL     1     -41.200  42.559  27.051  1.00  0.00     0.082 H 
ATOM     53  H   UNL     1     -42.610  44.277  23.389  1.00  0.00     0.062 H 
ATOM     54  H   UNL     1     -40.837  44.029  25.107  1.00  0.00     0.064 H 
ENDBRANCH  36  39
ENDBRANCH  32  35
ENDBRANCH  29  32
ENDBRANCH   1  18
TORSDOF 9
ENDMDL
MODEL 5
REMARK VINA RESULT:      -9.1      3.449     11.776
REMARK SMILES CC#CCCNCc1cc2ccc(CNC(=O)c3cc(=O)n4ccccc4n3)cc2[nH]1
REMARK SMILES IDX 7 1 6 4 5 6 4 9 3 12 2 13 1 14 8 18 9 19 31 20 10 21 30 23
REMARK SMILES IDX 11 25 29 26 12 27 13 29 14 32 15 35 16 36 17 38 18 39 19 40
REMARK SMILES IDX 28 41 20 42 27 44 21 45 22 46 26 47 23 48 25 49 24 51
REMARK H PARENT 7 2 7 3 6 5 5 7 5 8 4 10 4 11 1 15 1 16 1 17 9 22 31 24 11 28
REMARK H PARENT 29 30 12 31 14 33 14 34 15 37 19 43 26 50 23 52 25 53 24 54
REMARK Flexibility Score: inf
ROOT
ATOM      1  C   UNL     1     -46.453  31.260  23.832  1.00  0.00     0.036 C 
ATOM      2  H   UNL     1     -45.558  31.500  23.248  1.00  0.00     0.049 H 
ATOM      3  H   UNL     1     -46.256  30.339  24.394  1.00  0.00     0.049 H 
ENDROOT
BRANCH   1   4
ATOM      4  N   UNL     1     -47.608  31.086  22.953  1.00  0.00    -0.310 NA
ATOM      5  H   UNL     1     -48.041  32.002  22.822  1.00  0.00     0.123 HD
BRANCH   4   6
ATOM      6  C   UNL     1     -48.587  30.174  23.559  1.00  0.00     0.006 C 
ATOM      7  H   UNL     1     -49.603  30.568  23.423  1.00  0.00     0.044 H 
ATOM      8  H   UNL     1     -48.404  30.100  24.639  1.00  0.00     0.044 H 
BRANCH   6   9
ATOM      9  C   UNL     1     -48.491  28.777  22.934  1.00  0.00     0.021 C 
ATOM     10  H   UNL     1     -47.956  28.832  21.979  1.00  0.00     0.042 H 
ATOM     11  H   UNL     1     -49.496  28.394  22.719  1.00  0.00     0.042 H 
BRANCH   9  12
ATOM     12  C   UNL     1     -47.796  27.841  23.832  1.00  0.00    -0.102 C 
ATOM     13  C   UNL     1     -47.228  27.081  24.569  1.00  0.00    -0.107 C 
BRANCH  13  14
ATOM     14  C   UNL     1     -46.536  26.157  25.468  1.00  0.00    -0.003 C 
ATOM     15  H   UNL     1     -45.465  26.374  25.500  1.00  0.00     0.037 H 
ATOM     16  H   UNL     1     -46.663  25.122  25.135  1.00  0.00     0.037 H 
ATOM     17  H   UNL     1     -46.929  26.237  26.486  1.00  0.00     0.037 H 
ENDBRANCH  13  14
ENDBRANCH   9  12
ENDBRANCH   6   9
ENDBRANCH   4   6
ENDBRANCH   1   4
BRANCH   1  18
ATOM     18  C   UNL     1     -46.723  32.376  24.778  1.00  0.00     0.030 A 
ATOM     19  C   UNL     1     -47.906  32.953  25.195  1.00  0.00    -0.032 A 
ATOM     20  N   UNL     1     -45.703  33.024  25.436  1.00  0.00    -0.357 N 
ATOM     21  C   UNL     1     -47.590  33.982  26.124  1.00  0.00    -0.000 A 
ATOM     22  H   UNL     1     -48.897  32.668  24.867  1.00  0.00     0.065 H 
ATOM     23  C   UNL     1     -46.202  34.007  26.256  1.00  0.00     0.046 A 
ATOM     24  H   UNL     1     -44.723  32.818  25.295  1.00  0.00     0.166 HD
ATOM     25  C   UNL     1     -48.357  34.897  26.871  1.00  0.00    -0.052 A 
ATOM     26  C   UNL     1     -45.537  34.909  27.095  1.00  0.00    -0.033 A 
ATOM     27  C   UNL     1     -47.709  35.806  27.717  1.00  0.00    -0.057 A 
ATOM     28  H   UNL     1     -49.439  34.898  26.794  1.00  0.00     0.063 H 
ATOM     29  C   UNL     1     -46.313  35.827  27.826  1.00  0.00    -0.027 A 
ATOM     30  H   UNL     1     -44.455  34.900  27.180  1.00  0.00     0.065 H 
ATOM     31  H   UNL     1     -48.311  36.504  28.295  1.00  0.00     0.063 H 
BRANCH  29  32
ATOM     32  C   UNL     1     -45.641  36.792  28.766  1.00  0.00     0.043 C 
ATOM     33  H   UNL     1     -46.304  37.048  29.602  1.00  0.00     0.054 H 
ATOM     34  H   UNL     1     -44.738  36.349  29.204  1.00  0.00     0.054 H 
BRANCH  32  35
ATOM     35  N   UNL     1     -45.268  38.000  28.080  1.00  0.00    -0.347 N 
ATOM     36  C   UNL     1     -46.027  39.140  28.143  1.00  0.00     0.270 C 
ATOM     37  H   UNL     1     -44.380  38.058  27.590  1.00  0.00     0.164 HD
ATOM     38  O   UNL     1     -47.093  39.224  28.739  1.00  0.00    -0.268 OA
BRANCH  36  39
ATOM     39  C   UNL     1     -45.400  40.292  27.396  1.00  0.00     0.136 A 
ATOM     40  C   UNL     1     -46.234  41.093  26.730  1.00  0.00     0.035 A 
ATOM     41  N   UNL     1     -44.033  40.447  27.443  1.00  0.00    -0.225 NA
ATOM     42  C   UNL     1     -45.667  42.227  25.990  1.00  0.00     0.258 A 
ATOM     43  H   UNL     1     -47.308  40.962  26.700  1.00  0.00     0.071 H 
ATOM     44  C   UNL     1     -43.536  41.450  26.787  1.00  0.00     0.140 A 
ATOM     45  O   UNL     1     -46.428  42.971  25.373  1.00  0.00    -0.269 OA
ATOM     46  N   UNL     1     -44.287  42.360  26.053  1.00  0.00    -0.268 N 
ATOM     47  C   UNL     1     -42.059  41.656  26.810  1.00  0.00    -0.019 A 
ATOM     48  C   UNL     1     -43.676  43.410  25.376  1.00  0.00     0.014 A 
ATOM     49  C   UNL     1     -41.517  42.682  26.143  1.00  0.00    -0.057 A 
ATOM     50  H   UNL     1     -41.466  40.952  27.379  1.00  0.00     0.066 H 
ATOM     51  C   UNL     1     -42.350  43.590  25.401  1.00  0.00    -0.045 A 
ATOM     52  H   UNL     1     -44.326  44.085  24.822  1.00  0.00     0.082 H 
ATOM     53  H   UNL     1     -40.445  42.848  26.148  1.00  0.00     0.062 H 
ATOM     54  H   UNL     1     -41.884  44.413  24.870  1.00  0.00     0.064 H 
ENDBRANCH  36  39
ENDBRANCH  32  35
ENDBRANCH  29  32
ENDBRANCH   1  18
TORSDOF 9
ENDMDL
MODEL 6
REMARK VINA RESULT:      -8.9      4.083     11.630
REMARK SMILES CC#CCCNCc1cc2ccc(CNC(=O)c3cc(=O)n4ccccc4n3)cc2[nH]1
REMARK SMILES IDX 7 1 6 4 5 6 4 9 3 12 2 13 1 14 8 18 9 19 31 20 10 21 30 23
REMARK SMILES IDX 11 25 29 26 12 27 13 29 14 32 15 35 16 36 17 38 18 39 19 40
REMARK SMILES IDX 28 41 20 42 27 44 21 45 22 46 26 47 23 48 25 49 24 51
REMARK H PARENT 7 2 7 3 6 5 5 7 5 8 4 10 4 11 1 15 1 16 1 17 9 22 31 24 11 28
REMARK H PARENT 29 30 12 31 14 33 14 34 15 37 19 43 26 50 23 52 25 53 24 54
REMARK Flexibility Score: inf
ROOT
ATOM      1  C   UNL     1     -48.092  30.801  25.126  1.00  0.00     0.036 C 
ATOM      2  H   UNL     1     -48.167  30.008  25.878  1.00  0.00     0.049 H 
ATOM      3  H   UNL     1     -49.021  30.805  24.542  1.00  0.00     0.049 H 
ENDROOT
BRANCH   1   4
ATOM      4  N   UNL     1     -46.940  30.575  24.254  1.00  0.00    -0.310 NA
ATOM      5  H   UNL     1     -46.826  31.403  23.667  1.00  0.00     0.123 HD
BRANCH   4   6
ATOM      6  C   UNL     1     -47.164  29.404  23.395  1.00  0.00     0.006 C 
ATOM      7  H   UNL     1     -47.606  28.587  23.979  1.00  0.00     0.044 H 
ATOM      8  H   UNL     1     -46.204  29.046  23.000  1.00  0.00     0.044 H 
BRANCH   6   9
ATOM      9  C   UNL     1     -48.091  29.757  22.224  1.00  0.00     0.021 C 
ATOM     10  H   UNL     1     -48.987  30.264  22.599  1.00  0.00     0.042 H 
ATOM     11  H   UNL     1     -48.425  28.840  21.723  1.00  0.00     0.042 H 
BRANCH   9  12
ATOM     12  C   UNL     1     -47.408  30.622  21.250  1.00  0.00    -0.102 C 
ATOM     13  C   UNL     1     -46.850  31.325  20.451  1.00  0.00    -0.107 C 
BRANCH  13  14
ATOM     14  C   UNL     1     -46.170  32.179  19.476  1.00  0.00    -0.003 C 
ATOM     15  H   UNL     1     -45.306  31.666  19.045  1.00  0.00     0.037 H 
ATOM     16  H   UNL     1     -45.817  33.102  19.947  1.00  0.00     0.037 H 
ATOM     17  H   UNL     1     -46.845  32.451  18.660  1.00  0.00     0.037 H 
ENDBRANCH  13  14
ENDBRANCH   9  12
ENDBRANCH   6   9
ENDBRANCH   4   6
ENDBRANCH   1   4
BRANCH   1  18
ATOM     18  C   UNL     1     -47.930  32.107  25.820  1.00  0.00     0.030 A 
ATOM     19  C   UNL     1     -48.680  33.265  25.772  1.00  0.00    -0.032 A 
ATOM     20  N   UNL     1     -46.902  32.327  26.706  1.00  0.00    -0.357 N 
ATOM     21  C   UNL     1     -48.084  34.212  26.649  1.00  0.00    -0.000 A 
ATOM     22  H   UNL     1     -49.566  33.419  25.170  1.00  0.00     0.065 H 
ATOM     23  C   UNL     1     -46.969  33.600  27.221  1.00  0.00     0.046 A 
ATOM     24  H   UNL     1     -46.181  31.648  26.912  1.00  0.00     0.166 HD
ATOM     25  C   UNL     1     -48.389  35.537  27.014  1.00  0.00    -0.052 A 
ATOM     26  C   UNL     1     -46.135  34.250  28.138  1.00  0.00    -0.033 A 
ATOM     27  C   UNL     1     -47.567  36.203  27.933  1.00  0.00    -0.057 A 
ATOM     28  H   UNL     1     -49.253  36.039  26.590  1.00  0.00     0.063 H 
ATOM     29  C   UNL     1     -46.442  35.577  28.485  1.00  0.00    -0.027 A 
ATOM     30  H   UNL     1     -45.277  33.743  28.571  1.00  0.00     0.065 H 
ATOM     31  H   UNL     1     -47.815  37.225  28.213  1.00  0.00     0.063 H 
BRANCH  29  32
ATOM     32  C   UNL     1     -45.592  36.302  29.494  1.00  0.00     0.043 C 
ATOM     33  H   UNL     1     -46.167  36.524  30.402  1.00  0.00     0.054 H 
ATOM     34  H   UNL     1     -44.740  35.686  29.804  1.00  0.00     0.054 H 
BRANCH  32  35
ATOM     35  N   UNL     1     -45.088  37.534  28.949  1.00  0.00    -0.347 N 
ATOM     36  C   UNL     1     -44.392  38.439  29.709  1.00  0.00     0.270 C 
ATOM     37  H   UNL     1     -45.171  37.727  27.956  1.00  0.00     0.164 HD
ATOM     38  O   UNL     1     -44.176  38.308  30.907  1.00  0.00    -0.268 OA
BRANCH  36  39
ATOM     39  C   UNL     1     -43.912  39.621  28.902  1.00  0.00     0.136 A 
ATOM     40  C   UNL     1     -42.928  40.346  29.439  1.00  0.00     0.035 A 
ATOM     41  N   UNL     1     -44.503  39.878  27.686  1.00  0.00    -0.225 NA
ATOM     42  C   UNL     1     -42.430  41.505  28.688  1.00  0.00     0.258 A 
ATOM     43  H   UNL     1     -42.470  40.134  30.396  1.00  0.00     0.071 H 
ATOM     44  C   UNL     1     -44.060  40.903  27.026  1.00  0.00     0.140 A 
ATOM     45  O   UNL     1     -41.523  42.180  29.174  1.00  0.00    -0.269 OA
ATOM     46  N   UNL     1     -43.043  41.743  27.466  1.00  0.00    -0.268 N 
ATOM     47  C   UNL     1     -44.673  41.220  25.704  1.00  0.00    -0.019 A 
ATOM     48  C   UNL     1     -42.626  42.824  26.697  1.00  0.00     0.014 A 
ATOM     49  C   UNL     1     -44.237  42.271  25.000  1.00  0.00    -0.057 A 
ATOM     50  H   UNL     1     -45.466  40.572  25.353  1.00  0.00     0.066 H 
ATOM     51  C   UNL     1     -43.179  43.102  25.510  1.00  0.00    -0.045 A 
ATOM     52  H   UNL     1     -41.824  43.438  27.103  1.00  0.00     0.082 H 
ATOM     53  H   UNL     1     -44.670  42.517  24.036  1.00  0.00     0.062 H 
ATOM     54  H   UNL     1     -42.846  43.948  24.919  1.00  0.00     0.064 H 
ENDBRANCH  36  39
ENDBRANCH  32  35
ENDBRANCH  29  32
ENDBRANCH   1  18
TORSDOF 9
ENDMDL
MODEL 7
REMARK VINA RESULT:      -8.5      3.548     11.208
REMARK SMILES CC#CCCNCc1cc2ccc(CNC(=O)c3cc(=O)n4ccccc4n3)cc2[nH]1
REMARK SMILES IDX 7 1 6 4 5 6 4 9 3 12 2 13 1 14 8 18 9 19 31 20 10 21 30 23
REMARK SMILES IDX 11 25 29 26 12 27 13 29 14 32 15 35 16 36 17 38 18 39 19 40
REMARK SMILES IDX 28 41 20 42 27 44 21 45 22 46 26 47 23 48 25 49 24 51
REMARK H PARENT 7 2 7 3 6 5 5 7 5 8 4 10 4 11 1 15 1 16 1 17 9 22 31 24 11 28
REMARK H PARENT 29 30 12 31 14 33 14 34 15 37 19 43 26 50 23 52 25 53 24 54
REMARK Flexibility Score: inf
ROOT
ATOM      1  C   UNL     1     -45.611  31.565  23.646  1.00  0.00     0.036 C 
ATOM      2  H   UNL     1     -44.667  32.110  23.537  1.00  0.00     0.049 H 
ATOM      3  H   UNL     1     -45.398  30.609  24.140  1.00  0.00     0.049 H 
ENDROOT
BRANCH   1   4
ATOM      4  N   UNL     1     -46.227  31.340  22.338  1.00  0.00    -0.310 NA
ATOM      5  H   UNL     1     -47.079  31.901  22.294  1.00  0.00     0.123 HD
BRANCH   4   6
ATOM      6  C   UNL     1     -46.574  29.923  22.167  1.00  0.00     0.006 C 
ATOM      7  H   UNL     1     -46.860  29.729  21.126  1.00  0.00     0.044 H 
ATOM      8  H   UNL     1     -47.437  29.675  22.799  1.00  0.00     0.044 H 
BRANCH   6   9
ATOM      9  C   UNL     1     -45.393  29.023  22.551  1.00  0.00     0.021 C 
ATOM     10  H   UNL     1     -44.596  29.625  23.002  1.00  0.00     0.042 H 
ATOM     11  H   UNL     1     -44.974  28.555  21.652  1.00  0.00     0.042 H 
BRANCH   9  12
ATOM     12  C   UNL     1     -45.811  27.974  23.495  1.00  0.00    -0.102 C 
ATOM     13  C   UNL     1     -46.148  27.118  24.267  1.00  0.00    -0.107 C 
BRANCH  13  14
ATOM     14  C   UNL     1     -46.556  26.075  25.209  1.00  0.00    -0.003 C 
ATOM     15  H   UNL     1     -45.756  25.862  25.924  1.00  0.00     0.037 H 
ATOM     16  H   UNL     1     -46.796  25.147  24.682  1.00  0.00     0.037 H 
ATOM     17  H   UNL     1     -47.441  26.384  25.773  1.00  0.00     0.037 H 
ENDBRANCH  13  14
ENDBRANCH   9  12
ENDBRANCH   6   9
ENDBRANCH   4   6
ENDBRANCH   1   4
BRANCH   1  18
ATOM     18  C   UNL     1     -46.536  32.370  24.489  1.00  0.00     0.030 A 
ATOM     19  C   UNL     1     -47.895  32.266  24.707  1.00  0.00    -0.032 A 
ATOM     20  N   UNL     1     -46.084  33.423  25.249  1.00  0.00    -0.357 N 
ATOM     21  C   UNL     1     -48.274  33.289  25.620  1.00  0.00    -0.000 A 
ATOM     22  H   UNL     1     -48.552  31.531  24.259  1.00  0.00     0.065 H 
ATOM     23  C   UNL     1     -47.120  34.002  25.942  1.00  0.00     0.046 A 
ATOM     24  H   UNL     1     -45.123  33.740  25.256  1.00  0.00     0.166 HD
ATOM     25  C   UNL     1     -49.494  33.675  26.207  1.00  0.00    -0.052 A 
ATOM     26  C   UNL     1     -47.124  35.092  26.819  1.00  0.00    -0.033 A 
ATOM     27  C   UNL     1     -49.516  34.763  27.089  1.00  0.00    -0.057 A 
ATOM     28  H   UNL     1     -50.408  33.137  25.980  1.00  0.00     0.063 H 
ATOM     29  C   UNL     1     -48.350  35.477  27.390  1.00  0.00    -0.027 A 
ATOM     30  H   UNL     1     -46.206  35.624  27.055  1.00  0.00     0.065 H 
ATOM     31  H   UNL     1     -50.464  35.050  27.542  1.00  0.00     0.063 H 
BRANCH  29  32
ATOM     32  C   UNL     1     -48.394  36.624  28.365  1.00  0.00     0.043 C 
ATOM     33  H   UNL     1     -49.361  37.138  28.319  1.00  0.00     0.054 H 
ATOM     34  H   UNL     1     -48.276  36.266  29.395  1.00  0.00     0.054 H 
BRANCH  32  35
ATOM     35  N   UNL     1     -47.347  37.571  28.091  1.00  0.00    -0.347 N 
ATOM     36  C   UNL     1     -46.373  37.869  29.008  1.00  0.00     0.270 C 
ATOM     37  H   UNL     1     -47.262  37.987  27.169  1.00  0.00     0.164 HD
ATOM     38  O   UNL     1     -46.326  37.401  30.138  1.00  0.00    -0.268 OA
BRANCH  36  39
ATOM     39  C   UNL     1     -45.350  38.840  28.468  1.00  0.00     0.136 A 
ATOM     40  C   UNL     1     -45.518  39.237  27.204  1.00  0.00     0.035 A 
ATOM     41  N   UNL     1     -44.327  39.251  29.291  1.00  0.00    -0.225 NA
ATOM     42  C   UNL     1     -44.546  40.182  26.639  1.00  0.00     0.258 A 
ATOM     43  H   UNL     1     -46.327  38.908  26.566  1.00  0.00     0.071 H 
ATOM     44  C   UNL     1     -43.471  40.085  28.787  1.00  0.00     0.140 A 
ATOM     45  O   UNL     1     -44.692  40.554  25.475  1.00  0.00    -0.269 OA
ATOM     46  N   UNL     1     -43.525  40.579  27.489  1.00  0.00    -0.268 N 
ATOM     47  C   UNL     1     -42.345  40.557  29.643  1.00  0.00    -0.019 A 
ATOM     48  C   UNL     1     -42.565  41.473  27.023  1.00  0.00     0.014 A 
ATOM     49  C   UNL     1     -41.446  41.417  29.150  1.00  0.00    -0.057 A 
ATOM     50  H   UNL     1     -42.295  40.177  30.656  1.00  0.00     0.066 H 
ATOM     51  C   UNL     1     -41.557  41.892  27.798  1.00  0.00    -0.045 A 
ATOM     52  H   UNL     1     -42.669  41.819  25.997  1.00  0.00     0.082 H 
ATOM     53  H   UNL     1     -40.620  41.772  29.758  1.00  0.00     0.062 H 
ATOM     54  H   UNL     1     -40.814  42.590  27.425  1.00  0.00     0.064 H 
ENDBRANCH  36  39
ENDBRANCH  32  35
ENDBRANCH  29  32
ENDBRANCH   1  18
TORSDOF 9
ENDMDL
