MODEL 1
REMARK VINA RESULT:     -10.2      0.000      0.000
REMARK SMILES Nc1ncnc2c1ccn2[C@@H]1O[C@H](COc2ccc3ccc(N4CCCC4)nc3c2)[C@@H](O)[C@H]1O
REMARK SMILES IDX 14 1 13 4 11 5 12 6 33 7 31 9 10 13 2 14 3 15 7 16 4 17 6 18
REMARK SMILES IDX 8 19 5 20 9 22 1 25 34 28 32 30 15 32 16 33 17 34 30 35
REMARK SMILES IDX 18 36 29 38 19 40 28 42 20 43 22 44 21 45 23 48 24 49 27 50
REMARK SMILES IDX 25 51 26 54
REMARK H PARENT 14 2 14 3 11 8 33 10 13 11 31 12 4 21 8 23 9 24 1 26 1 27
REMARK H PARENT 34 29 32 31 17 37 30 39 18 41 20 46 21 47 24 52 24 53 27 55
REMARK H PARENT 27 56 25 57 25 58 26 59 26 60
REMARK Flexibility Score: inf
ROOT
ATOM      1  C   UNL     1     -46.536  35.347  26.453  1.00  0.00     0.117 C 
ATOM      2  H   UNL     1     -46.796  36.116  25.717  1.00  0.00     0.073 H 
ATOM      3  H   UNL     1     -45.605  34.842  26.168  1.00  0.00     0.073 H 
ENDROOT
BRANCH   1   4
ATOM      4  C   UNL     1     -46.341  36.008  27.819  1.00  0.00     0.123 C 
ATOM      5  C   UNL     1     -45.304  37.901  28.720  1.00  0.00     0.164 C 
ATOM      6  O   UNL     1     -45.102  36.746  27.859  1.00  0.00    -0.345 OA
ATOM      7  C   UNL     1     -46.729  37.805  29.279  1.00  0.00     0.128 C 
ATOM      8  H   UNL     1     -44.539  37.864  29.504  1.00  0.00     0.088 H 
ATOM      9  C   UNL     1     -47.433  37.004  28.196  1.00  0.00     0.114 C 
ATOM     10  H   UNL     1     -47.214  38.765  29.479  1.00  0.00     0.068 H 
ATOM     11  H   UNL     1     -46.266  35.209  28.569  1.00  0.00     0.067 H 
ATOM     12  H   UNL     1     -47.699  37.672  27.369  1.00  0.00     0.066 H 
BRANCH   5  13
ATOM     13  N   UNL     1     -45.075  39.120  27.948  1.00  0.00    -0.303 N 
ATOM     14  C   UNL     1     -43.244  42.115  27.481  1.00  0.00     0.136 A 
ATOM     15  N   UNL     1     -42.377  42.073  28.511  1.00  0.00    -0.219 NA
ATOM     16  C   UNL     1     -44.165  41.069  27.328  1.00  0.00     0.061 A 
ATOM     17  C   UNL     1     -42.424  41.014  29.343  1.00  0.00     0.120 A 
ATOM     18  C   UNL     1     -44.105  40.044  28.261  1.00  0.00     0.147 A 
ATOM     19  C   UNL     1     -45.210  40.740  26.421  1.00  0.00    -0.031 A 
ATOM     20  N   UNL     1     -43.258  39.961  29.299  1.00  0.00    -0.218 NA
ATOM     21  H   UNL     1     -41.699  41.014  30.151  1.00  0.00     0.106 H 
ATOM     22  C   UNL     1     -45.753  39.539  26.827  1.00  0.00     0.009 A 
ATOM     23  H   UNL     1     -45.521  41.312  25.557  1.00  0.00     0.065 H 
ATOM     24  H   UNL     1     -46.551  38.946  26.398  1.00  0.00     0.082 H 
BRANCH  14  25
ATOM     25  N   UNL     1     -43.184  43.217  26.641  1.00  0.00    -0.383 N 
ATOM     26  H   UNL     1     -42.254  43.565  26.460  1.00  0.00     0.158 HD
ATOM     27  H   UNL     1     -43.789  43.090  25.839  1.00  0.00     0.158 HD
ENDBRANCH  14  25
ENDBRANCH   5  13
BRANCH   7  28
ATOM     28  O   UNL     1     -46.758  37.056  30.508  1.00  0.00    -0.386 OA
ATOM     29  H   UNL     1     -47.500  36.425  30.401  1.00  0.00     0.211 HD
ENDBRANCH   7  28
BRANCH   9  30
ATOM     30  O   UNL     1     -48.612  36.386  28.704  1.00  0.00    -0.387 OA
ATOM     31  H   UNL     1     -49.363  36.731  28.186  1.00  0.00     0.211 HD
ENDBRANCH   9  30
ENDBRANCH   1   4
BRANCH   1  32
ATOM     32  O   UNL     1     -47.593  34.385  26.531  1.00  0.00    -0.491 OA
BRANCH  32  33
ATOM     33  C   UNL     1     -47.456  33.242  25.796  1.00  0.00     0.121 A 
ATOM     34  C   UNL     1     -46.512  33.317  24.774  1.00  0.00    -0.019 A 
ATOM     35  C   UNL     1     -48.167  32.053  25.982  1.00  0.00     0.007 A 
ATOM     36  C   UNL     1     -46.282  32.219  23.949  1.00  0.00    -0.049 A 
ATOM     37  H   UNL     1     -45.950  34.236  24.621  1.00  0.00     0.066 H 
ATOM     38  C   UNL     1     -47.959  30.943  25.173  1.00  0.00     0.076 A 
ATOM     39  H   UNL     1     -48.908  31.951  26.769  1.00  0.00     0.069 H 
ATOM     40  C   UNL     1     -47.004  31.032  24.146  1.00  0.00     0.001 A 
ATOM     41  H   UNL     1     -45.539  32.293  23.158  1.00  0.00     0.063 H 
ATOM     42  N   UNL     1     -48.675  29.826  25.395  1.00  0.00    -0.231 NA
ATOM     43  C   UNL     1     -46.806  29.905  23.349  1.00  0.00    -0.049 A 
ATOM     44  C   UNL     1     -48.494  28.736  24.616  1.00  0.00     0.129 A 
ATOM     45  C   UNL     1     -47.552  28.754  23.591  1.00  0.00    -0.019 A 
ATOM     46  H   UNL     1     -46.073  29.908  22.547  1.00  0.00     0.063 H 
ATOM     47  H   UNL     1     -47.376  27.874  22.982  1.00  0.00     0.066 H 
BRANCH  44  48
ATOM     48  N   UNL     1     -49.235  27.610  24.891  1.00  0.00    -0.357 N 
ATOM     49  C   UNL     1     -48.663  26.566  25.732  1.00  0.00     0.019 C 
ATOM     50  C   UNL     1     -50.692  27.597  24.937  1.00  0.00     0.019 C 
ATOM     51  C   UNL     1     -49.812  25.573  25.875  1.00  0.00    -0.034 C 
ATOM     52  H   UNL     1     -48.385  26.963  26.717  1.00  0.00     0.049 H 
ATOM     53  H   UNL     1     -47.789  26.092  25.272  1.00  0.00     0.049 H 
ATOM     54  C   UNL     1     -51.028  26.484  25.930  1.00  0.00    -0.034 C 
ATOM     55  H   UNL     1     -51.091  27.363  23.943  1.00  0.00     0.049 H 
ATOM     56  H   UNL     1     -51.123  28.544  25.280  1.00  0.00     0.049 H 
ATOM     57  H   UNL     1     -49.713  24.941  26.762  1.00  0.00     0.029 H 
ATOM     58  H   UNL     1     -49.867  24.927  24.991  1.00  0.00     0.029 H 
ATOM     59  H   UNL     1     -51.960  25.967  25.679  1.00  0.00     0.029 H 
ATOM     60  H   UNL     1     -51.133  26.903  26.938  1.00  0.00     0.029 H 
ENDBRANCH  44  48
ENDBRANCH  32  33
ENDBRANCH   1  32
TORSDOF 8
ENDMDL
MODEL 2
REMARK VINA RESULT:      -9.8      2.533     10.826
REMARK SMILES Nc1ncnc2c1ccn2[C@@H]1O[C@H](COc2ccc3ccc(N4CCCC4)nc3c2)[C@@H](O)[C@H]1O
REMARK SMILES IDX 14 1 13 4 11 5 12 6 33 7 31 9 10 13 2 14 3 15 7 16 4 17 6 18
REMARK SMILES IDX 8 19 5 20 9 22 1 25 34 28 32 30 15 32 16 33 17 34 30 35
REMARK SMILES IDX 18 36 29 38 19 40 28 42 20 43 22 44 21 45 23 48 24 49 27 50
REMARK SMILES IDX 25 51 26 54
REMARK H PARENT 14 2 14 3 11 8 33 10 13 11 31 12 4 21 8 23 9 24 1 26 1 27
REMARK H PARENT 34 29 32 31 17 37 30 39 18 41 20 46 21 47 24 52 24 53 27 55
REMARK H PARENT 27 56 25 57 25 58 26 59 26 60
REMARK Flexibility Score: inf
ROOT
ATOM      1  C   UNL     1     -48.799  35.410  26.740  1.00  0.00     0.117 C 
ATOM      2  H   UNL     1     -48.282  35.981  25.961  1.00  0.00     0.073 H 
ATOM      3  H   UNL     1     -49.839  35.219  26.450  1.00  0.00     0.073 H 
ENDROOT
BRANCH   1   4
ATOM      4  C   UNL     1     -48.086  34.070  26.933  1.00  0.00     0.123 C 
ATOM      5  C   UNL     1     -48.174  31.896  26.073  1.00  0.00     0.164 C 
ATOM      6  O   UNL     1     -48.973  32.971  26.641  1.00  0.00    -0.345 OA
ATOM      7  C   UNL     1     -46.713  32.361  26.091  1.00  0.00     0.128 C 
ATOM      8  H   UNL     1     -48.342  31.002  26.685  1.00  0.00     0.088 H 
ATOM      9  C   UNL     1     -46.868  33.872  26.036  1.00  0.00     0.114 C 
ATOM     10  H   UNL     1     -46.091  31.969  25.281  1.00  0.00     0.068 H 
ATOM     11  H   UNL     1     -47.807  33.988  27.991  1.00  0.00     0.067 H 
ATOM     12  H   UNL     1     -47.052  34.177  24.999  1.00  0.00     0.066 H 
BRANCH   5  13
ATOM     13  N   UNL     1     -48.660  31.597  24.728  1.00  0.00    -0.303 N 
ATOM     14  C   UNL     1     -48.008  30.367  21.472  1.00  0.00     0.136 A 
ATOM     15  N   UNL     1     -46.703  30.043  21.554  1.00  0.00    -0.219 NA
ATOM     16  C   UNL     1     -48.645  30.907  22.598  1.00  0.00     0.061 A 
ATOM     17  C   UNL     1     -46.069  30.239  22.727  1.00  0.00     0.120 A 
ATOM     18  C   UNL     1     -47.870  31.059  23.739  1.00  0.00     0.147 A 
ATOM     19  C   UNL     1     -49.950  31.368  22.923  1.00  0.00    -0.031 A 
ATOM     20  N   UNL     1     -46.569  30.749  23.866  1.00  0.00    -0.218 NA
ATOM     21  H   UNL     1     -45.022  29.953  22.753  1.00  0.00     0.106 H 
ATOM     22  C   UNL     1     -49.931  31.788  24.236  1.00  0.00     0.009 A 
ATOM     23  H   UNL     1     -50.813  31.378  22.271  1.00  0.00     0.065 H 
ATOM     24  H   UNL     1     -50.720  32.188  24.860  1.00  0.00     0.082 H 
BRANCH  14  25
ATOM     25  N   UNL     1     -48.640  30.164  20.254  1.00  0.00    -0.383 N 
ATOM     26  H   UNL     1     -49.615  30.424  20.229  1.00  0.00     0.158 HD
ATOM     27  H   UNL     1     -48.060  30.492  19.490  1.00  0.00     0.158 HD
ENDBRANCH  14  25
ENDBRANCH   5  13
BRANCH   7  28
ATOM     28  O   UNL     1     -46.067  32.003  27.328  1.00  0.00    -0.386 OA
ATOM     29  H   UNL     1     -45.473  32.755  27.528  1.00  0.00     0.211 HD
ENDBRANCH   7  28
BRANCH   9  30
ATOM     30  O   UNL     1     -45.696  34.523  26.520  1.00  0.00    -0.387 OA
ATOM     31  H   UNL     1     -45.267  34.948  25.755  1.00  0.00     0.211 HD
ENDBRANCH   9  30
ENDBRANCH   1   4
BRANCH   1  32
ATOM     32  O   UNL     1     -48.775  36.147  27.967  1.00  0.00    -0.491 OA
BRANCH  32  33
ATOM     33  C   UNL     1     -47.661  36.894  28.228  1.00  0.00     0.121 A 
ATOM     34  C   UNL     1     -47.017  36.578  29.422  1.00  0.00    -0.019 A 
ATOM     35  C   UNL     1     -47.147  37.913  27.422  1.00  0.00     0.007 A 
ATOM     36  C   UNL     1     -45.871  37.272  29.804  1.00  0.00    -0.049 A 
ATOM     37  H   UNL     1     -47.406  35.785  30.056  1.00  0.00     0.066 H 
ATOM     38  C   UNL     1     -46.008  38.623  27.781  1.00  0.00     0.076 A 
ATOM     39  H   UNL     1     -47.617  38.187  26.483  1.00  0.00     0.069 H 
ATOM     40  C   UNL     1     -45.365  38.295  28.987  1.00  0.00     0.001 A 
ATOM     41  H   UNL     1     -45.377  37.011  30.737  1.00  0.00     0.063 H 
ATOM     42  N   UNL     1     -45.559  39.597  26.968  1.00  0.00    -0.231 NA
ATOM     43  C   UNL     1     -44.220  39.014  29.326  1.00  0.00    -0.049 A 
ATOM     44  C   UNL     1     -44.455  40.304  27.301  1.00  0.00     0.129 A 
ATOM     45  C   UNL     1     -43.765  40.019  28.475  1.00  0.00    -0.019 A 
ATOM     46  H   UNL     1     -43.673  38.799  30.239  1.00  0.00     0.063 H 
ATOM     47  H   UNL     1     -42.860  40.558  28.733  1.00  0.00     0.066 H 
BRANCH  44  48
ATOM     48  N   UNL     1     -44.022  41.279  26.431  1.00  0.00    -0.357 N 
ATOM     49  C   UNL     1     -44.987  41.936  25.558  1.00  0.00     0.019 C 
ATOM     50  C   UNL     1     -42.862  42.125  26.682  1.00  0.00     0.019 C 
ATOM     51  C   UNL     1     -44.144  42.992  24.850  1.00  0.00    -0.034 C 
ATOM     52  H   UNL     1     -45.780  42.419  26.143  1.00  0.00     0.049 H 
ATOM     53  H   UNL     1     -45.436  41.245  24.837  1.00  0.00     0.049 H 
ATOM     54  C   UNL     1     -43.175  43.424  25.940  1.00  0.00    -0.034 C 
ATOM     55  H   UNL     1     -41.963  41.651  26.270  1.00  0.00     0.049 H 
ATOM     56  H   UNL     1     -42.700  42.333  27.745  1.00  0.00     0.049 H 
ATOM     57  H   UNL     1     -44.745  43.819  24.463  1.00  0.00     0.029 H 
ATOM     58  H   UNL     1     -43.593  42.541  24.016  1.00  0.00     0.029 H 
ATOM     59  H   UNL     1     -42.276  43.907  25.544  1.00  0.00     0.029 H 
ATOM     60  H   UNL     1     -43.670  44.131  26.618  1.00  0.00     0.029 H 
ENDBRANCH  44  48
ENDBRANCH  32  33
ENDBRANCH   1  32
TORSDOF 8
ENDMDL
MODEL 3
REMARK VINA RESULT:      -9.6      1.882     11.377
REMARK SMILES Nc1ncnc2c1ccn2[C@@H]1O[C@H](COc2ccc3ccc(N4CCCC4)nc3c2)[C@@H](O)[C@H]1O
REMARK SMILES IDX 14 1 13 4 11 5 12 6 33 7 31 9 10 13 2 14 3 15 7 16 4 17 6 18
REMARK SMILES IDX 8 19 5 20 9 22 1 25 34 28 32 30 15 32 16 33 17 34 30 35
REMARK SMILES IDX 18 36 29 38 19 40 28 42 20 43 22 44 21 45 23 48 24 49 27 50
REMARK SMILES IDX 25 51 26 54
REMARK H PARENT 14 2 14 3 11 8 33 10 13 11 31 12 4 21 8 23 9 24 1 26 1 27
REMARK H PARENT 34 29 32 31 17 37 30 39 18 41 20 46 21 47 24 52 24 53 27 55
REMARK H PARENT 27 56 25 57 25 58 26 59 26 60
REMARK Flexibility Score: inf
ROOT
ATOM      1  C   UNL     1     -46.356  33.119  25.669  1.00  0.00     0.117 C 
ATOM      2  H   UNL     1     -45.591  32.336  25.708  1.00  0.00     0.073 H 
ATOM      3  H   UNL     1     -45.988  33.988  25.110  1.00  0.00     0.073 H 
ENDROOT
BRANCH   1   4
ATOM      4  C   UNL     1     -47.598  32.570  24.965  1.00  0.00     0.123 C 
ATOM      5  C   UNL     1     -48.237  30.667  23.763  1.00  0.00     0.164 C 
ATOM      6  O   UNL     1     -47.228  31.710  23.869  1.00  0.00    -0.345 OA
ATOM      7  C   UNL     1     -49.307  30.966  24.821  1.00  0.00     0.128 C 
ATOM      8  H   UNL     1     -48.632  30.693  22.742  1.00  0.00     0.088 H 
ATOM      9  C   UNL     1     -48.509  31.735  25.860  1.00  0.00     0.114 C 
ATOM     10  H   UNL     1     -49.807  30.086  25.235  1.00  0.00     0.068 H 
ATOM     11  H   UNL     1     -48.145  33.421  24.539  1.00  0.00     0.067 H 
ATOM     12  H   UNL     1     -47.954  31.026  26.485  1.00  0.00     0.066 H 
BRANCH   5  13
ATOM     13  N   UNL     1     -47.601  29.364  23.949  1.00  0.00    -0.303 N 
ATOM     14  C   UNL     1     -47.654  26.148  25.430  1.00  0.00     0.136 A 
ATOM     15  N   UNL     1     -48.796  26.190  26.142  1.00  0.00    -0.219 NA
ATOM     16  C   UNL     1     -47.278  27.275  24.685  1.00  0.00     0.061 A 
ATOM     17  C   UNL     1     -49.537  27.315  26.096  1.00  0.00     0.120 A 
ATOM     18  C   UNL     1     -48.133  28.367  24.733  1.00  0.00     0.147 A 
ATOM     19  C   UNL     1     -46.196  27.636  23.836  1.00  0.00    -0.031 A 
ATOM     20  N   UNL     1     -49.279  28.451  25.427  1.00  0.00    -0.218 NA
ATOM     21  H   UNL     1     -50.455  27.301  26.675  1.00  0.00     0.106 H 
ATOM     22  C   UNL     1     -46.419  28.925  23.399  1.00  0.00     0.009 A 
ATOM     23  H   UNL     1     -45.354  27.016  23.562  1.00  0.00     0.065 H 
ATOM     24  H   UNL     1     -45.843  29.553  22.731  1.00  0.00     0.082 H 
BRANCH  14  25
ATOM     25  N   UNL     1     -46.902  24.984  25.496  1.00  0.00    -0.383 N 
ATOM     26  H   UNL     1     -46.636  24.700  26.428  1.00  0.00     0.158 HD
ATOM     27  H   UNL     1     -47.295  24.269  24.896  1.00  0.00     0.158 HD
ENDBRANCH  14  25
ENDBRANCH   5  13
BRANCH   7  28
ATOM     28  O   UNL     1     -50.336  31.824  24.292  1.00  0.00    -0.386 OA
ATOM     29  H   UNL     1     -50.999  31.214  23.908  1.00  0.00     0.211 HD
ENDBRANCH   7  28
BRANCH   9  30
ATOM     30  O   UNL     1     -49.368  32.520  26.684  1.00  0.00    -0.387 OA
ATOM     31  H   UNL     1     -50.280  32.220  26.515  1.00  0.00     0.211 HD
ENDBRANCH   9  30
ENDBRANCH   1   4
BRANCH   1  32
ATOM     32  O   UNL     1     -46.696  33.520  27.001  1.00  0.00    -0.491 OA
BRANCH  32  33
ATOM     33  C   UNL     1     -46.871  34.856  27.228  1.00  0.00     0.121 A 
ATOM     34  C   UNL     1     -48.196  35.282  27.197  1.00  0.00    -0.019 A 
ATOM     35  C   UNL     1     -45.858  35.788  27.473  1.00  0.00     0.007 A 
ATOM     36  C   UNL     1     -48.507  36.623  27.409  1.00  0.00    -0.049 A 
ATOM     37  H   UNL     1     -48.993  34.565  27.010  1.00  0.00     0.066 H 
ATOM     38  C   UNL     1     -46.140  37.132  27.685  1.00  0.00     0.076 A 
ATOM     39  H   UNL     1     -44.814  35.496  27.509  1.00  0.00     0.069 H 
ATOM     40  C   UNL     1     -47.482  37.549  27.652  1.00  0.00     0.001 A 
ATOM     41  H   UNL     1     -49.548  36.939  27.386  1.00  0.00     0.063 H 
ATOM     42  N   UNL     1     -45.126  37.986  27.912  1.00  0.00    -0.231 NA
ATOM     43  C   UNL     1     -47.744  38.900  27.874  1.00  0.00    -0.049 A 
ATOM     44  C   UNL     1     -45.376  39.300  28.115  1.00  0.00     0.129 A 
ATOM     45  C   UNL     1     -46.684  39.774  28.110  1.00  0.00    -0.019 A 
ATOM     46  H   UNL     1     -48.761  39.282  27.873  1.00  0.00     0.063 H 
ATOM     47  H   UNL     1     -46.898  40.819  28.305  1.00  0.00     0.066 H 
BRANCH  44  48
ATOM     48  N   UNL     1     -44.309  40.133  28.362  1.00  0.00    -0.357 N 
ATOM     49  C   UNL     1     -43.371  39.797  29.425  1.00  0.00     0.019 C 
ATOM     50  C   UNL     1     -43.687  40.968  27.341  1.00  0.00     0.019 C 
ATOM     51  C   UNL     1     -42.310  40.886  29.303  1.00  0.00    -0.034 C 
ATOM     52  H   UNL     1     -42.919  38.812  29.253  1.00  0.00     0.049 H 
ATOM     53  H   UNL     1     -43.839  39.814  30.415  1.00  0.00     0.049 H 
ATOM     54  C   UNL     1     -42.235  41.105  27.800  1.00  0.00    -0.034 C 
ATOM     55  H   UNL     1     -44.179  41.947  27.314  1.00  0.00     0.049 H 
ATOM     56  H   UNL     1     -43.721  40.524  26.340  1.00  0.00     0.049 H 
ATOM     57  H   UNL     1     -41.352  40.590  29.738  1.00  0.00     0.029 H 
ATOM     58  H   UNL     1     -42.650  41.803  29.798  1.00  0.00     0.029 H 
ATOM     59  H   UNL     1     -41.801  42.072  27.531  1.00  0.00     0.029 H 
ATOM     60  H   UNL     1     -41.623  40.318  27.341  1.00  0.00     0.029 H 
ENDBRANCH  44  48
ENDBRANCH  32  33
ENDBRANCH   1  32
TORSDOF 8
ENDMDL
MODEL 4
REMARK VINA RESULT:      -9.5      2.774     11.633
REMARK SMILES Nc1ncnc2c1ccn2[C@@H]1O[C@H](COc2ccc3ccc(N4CCCC4)nc3c2)[C@@H](O)[C@H]1O
REMARK SMILES IDX 14 1 13 4 11 5 12 6 33 7 31 9 10 13 2 14 3 15 7 16 4 17 6 18
REMARK SMILES IDX 8 19 5 20 9 22 1 25 34 28 32 30 15 32 16 33 17 34 30 35
REMARK SMILES IDX 18 36 29 38 19 40 28 42 20 43 22 44 21 45 23 48 24 49 27 50
REMARK SMILES IDX 25 51 26 54
REMARK H PARENT 14 2 14 3 11 8 33 10 13 11 31 12 4 21 8 23 9 24 1 26 1 27
REMARK H PARENT 34 29 32 31 17 37 30 39 18 41 20 46 21 47 24 52 24 53 27 55
REMARK H PARENT 27 56 25 57 25 58 26 59 26 60
REMARK Flexibility Score: inf
ROOT
ATOM      1  C   UNL     1     -46.678  31.496  24.151  1.00  0.00     0.117 C 
ATOM      2  H   UNL     1     -45.685  31.194  24.504  1.00  0.00     0.073 H 
ATOM      3  H   UNL     1     -46.629  32.477  23.664  1.00  0.00     0.073 H 
ENDROOT
BRANCH   1   4
ATOM      4  C   UNL     1     -47.182  30.466  23.138  1.00  0.00     0.123 C 
ATOM      5  C   UNL     1     -47.929  28.249  23.111  1.00  0.00     0.164 C 
ATOM      6  O   UNL     1     -46.860  29.127  23.564  1.00  0.00    -0.345 OA
ATOM      7  C   UNL     1     -48.912  29.112  22.309  1.00  0.00     0.128 C 
ATOM      8  H   UNL     1     -47.471  27.457  22.508  1.00  0.00     0.088 H 
ATOM      9  C   UNL     1     -48.693  30.484  22.924  1.00  0.00     0.114 C 
ATOM     10  H   UNL     1     -49.956  28.788  22.355  1.00  0.00     0.068 H 
ATOM     11  H   UNL     1     -46.653  30.641  22.192  1.00  0.00     0.067 H 
ATOM     12  H   UNL     1     -49.252  30.551  23.864  1.00  0.00     0.066 H 
BRANCH   5  13
ATOM     13  N   UNL     1     -48.546  27.609  24.270  1.00  0.00    -0.303 N 
ATOM     14  C   UNL     1     -51.469  26.427  25.882  1.00  0.00     0.136 A 
ATOM     15  N   UNL     1     -52.424  26.731  24.982  1.00  0.00    -0.219 NA
ATOM     16  C   UNL     1     -50.137  26.754  25.593  1.00  0.00     0.061 A 
ATOM     17  C   UNL     1     -52.051  27.326  23.832  1.00  0.00     0.120 A 
ATOM     18  C   UNL     1     -49.896  27.369  24.373  1.00  0.00     0.147 A 
ATOM     19  C   UNL     1     -48.879  26.619  26.240  1.00  0.00    -0.031 A 
ATOM     20  N   UNL     1     -50.816  27.689  23.448  1.00  0.00    -0.218 NA
ATOM     21  H   UNL     1     -52.851  27.542  23.129  1.00  0.00     0.106 H 
ATOM     22  C   UNL     1     -47.920  27.154  25.407  1.00  0.00     0.009 A 
ATOM     23  H   UNL     1     -48.692  26.166  27.205  1.00  0.00     0.065 H 
ATOM     24  H   UNL     1     -46.845  27.231  25.525  1.00  0.00     0.082 H 
BRANCH  14  25
ATOM     25  N   UNL     1     -51.875  25.822  27.062  1.00  0.00    -0.383 N 
ATOM     26  H   UNL     1     -51.271  25.084  27.394  1.00  0.00     0.158 HD
ATOM     27  H   UNL     1     -52.162  26.516  27.741  1.00  0.00     0.158 HD
ENDBRANCH  14  25
ENDBRANCH   5  13
BRANCH   7  28
ATOM     28  O   UNL     1     -48.548  29.159  20.917  1.00  0.00    -0.386 OA
ATOM     29  H   UNL     1     -48.711  30.087  20.646  1.00  0.00     0.211 HD
ENDBRANCH   7  28
BRANCH   9  30
ATOM     30  O   UNL     1     -49.128  31.514  22.040  1.00  0.00    -0.387 OA
ATOM     31  H   UNL     1     -50.096  31.432  21.958  1.00  0.00     0.211 HD
ENDBRANCH   9  30
ENDBRANCH   1   4
BRANCH   1  32
ATOM     32  O   UNL     1     -47.579  31.560  25.261  1.00  0.00    -0.491 OA
BRANCH  32  33
ATOM     33  C   UNL     1     -47.826  32.791  25.797  1.00  0.00     0.121 A 
ATOM     34  C   UNL     1     -49.149  33.004  26.179  1.00  0.00    -0.019 A 
ATOM     35  C   UNL     1     -46.890  33.813  25.978  1.00  0.00     0.007 A 
ATOM     36  C   UNL     1     -49.531  34.223  26.736  1.00  0.00    -0.049 A 
ATOM     37  H   UNL     1     -49.887  32.215  26.046  1.00  0.00     0.066 H 
ATOM     38  C   UNL     1     -47.244  35.039  26.528  1.00  0.00     0.076 A 
ATOM     39  H   UNL     1     -45.849  33.686  25.698  1.00  0.00     0.069 H 
ATOM     40  C   UNL     1     -48.581  35.241  26.910  1.00  0.00     0.001 A 
ATOM     41  H   UNL     1     -50.566  34.372  27.032  1.00  0.00     0.063 H 
ATOM     42  N   UNL     1     -46.302  35.988  26.676  1.00  0.00    -0.231 NA
ATOM     43  C   UNL     1     -48.914  36.475  27.466  1.00  0.00    -0.049 A 
ATOM     44  C   UNL     1     -46.625  37.191  27.203  1.00  0.00     0.129 A 
ATOM     45  C   UNL     1     -47.929  37.449  27.615  1.00  0.00    -0.019 A 
ATOM     46  H   UNL     1     -49.929  36.688  27.792  1.00  0.00     0.063 H 
ATOM     47  H   UNL     1     -48.191  38.398  28.070  1.00  0.00     0.066 H 
BRANCH  44  48
ATOM     48  N   UNL     1     -45.625  38.124  27.352  1.00  0.00    -0.357 N 
ATOM     49  C   UNL     1     -45.735  39.403  26.662  1.00  0.00     0.019 C 
ATOM     50  C   UNL     1     -44.789  38.226  28.541  1.00  0.00     0.019 C 
ATOM     51  C   UNL     1     -44.512  40.167  27.161  1.00  0.00    -0.034 C 
ATOM     52  H   UNL     1     -46.652  39.931  26.955  1.00  0.00     0.049 H 
ATOM     53  H   UNL     1     -45.711  39.293  25.572  1.00  0.00     0.049 H 
ATOM     54  C   UNL     1     -44.402  39.704  28.605  1.00  0.00    -0.034 C 
ATOM     55  H   UNL     1     -43.899  37.597  28.422  1.00  0.00     0.049 H 
ATOM     56  H   UNL     1     -45.308  37.938  29.462  1.00  0.00     0.049 H 
ATOM     57  H   UNL     1     -44.627  41.250  27.069  1.00  0.00     0.029 H 
ATOM     58  H   UNL     1     -43.620  39.863  26.600  1.00  0.00     0.029 H 
ATOM     59  H   UNL     1     -43.403  39.857  29.027  1.00  0.00     0.029 H 
ATOM     60  H   UNL     1     -45.121  40.251  29.226  1.00  0.00     0.029 H 
ENDBRANCH  44  48
ENDBRANCH  32  33
ENDBRANCH   1  32
TORSDOF 8
ENDMDL
MODEL 5
REMARK VINA RESULT:      -9.3      2.122     11.584
REMARK SMILES Nc1ncnc2c1ccn2[C@@H]1O[C@H](COc2ccc3ccc(N4CCCC4)nc3c2)[C@@H](O)[C@H]1O
REMARK SMILES IDX 14 1 13 4 11 5 12 6 33 7 31 9 10 13 2 14 3 15 7 16 4 17 6 18
REMARK SMILES IDX 8 19 5 20 9 22 1 25 34 28 32 30 15 32 16 33 17 34 30 35
REMARK SMILES IDX 18 36 29 38 19 40 28 42 20 43 22 44 21 45 23 48 24 49 27 50
REMARK SMILES IDX 25 51 26 54
REMARK H PARENT 14 2 14 3 11 8 33 10 13 11 31 12 4 21 8 23 9 24 1 26 1 27
REMARK H PARENT 34 29 32 31 17 37 30 39 18 41 20 46 21 47 24 52 24 53 27 55
REMARK H PARENT 27 56 25 57 25 58 26 59 26 60
REMARK Flexibility Score: inf
ROOT
ATOM      1  C   UNL     1     -47.421  32.808  25.988  1.00  0.00     0.117 C 
ATOM      2  H   UNL     1     -47.708  32.219  26.866  1.00  0.00     0.073 H 
ATOM      3  H   UNL     1     -46.330  32.862  25.902  1.00  0.00     0.073 H 
ENDROOT
BRANCH   1   4
ATOM      4  C   UNL     1     -47.982  32.138  24.732  1.00  0.00     0.123 C 
ATOM      5  C   UNL     1     -48.240  29.983  23.859  1.00  0.00     0.164 C 
ATOM      6  O   UNL     1     -47.286  30.906  24.454  1.00  0.00    -0.345 OA
ATOM      7  C   UNL     1     -49.568  30.738  23.713  1.00  0.00     0.128 C 
ATOM      8  H   UNL     1     -47.829  29.660  22.896  1.00  0.00     0.088 H 
ATOM      9  C   UNL     1     -49.460  31.770  24.822  1.00  0.00     0.114 C 
ATOM     10  H   UNL     1     -50.465  30.117  23.797  1.00  0.00     0.068 H 
ATOM     11  H   UNL     1     -47.799  32.811  23.884  1.00  0.00     0.067 H 
ATOM     12  H   UNL     1     -49.721  31.302  25.778  1.00  0.00     0.066 H 
BRANCH   5  13
ATOM     13  N   UNL     1     -48.349  28.795  24.704  1.00  0.00    -0.303 N 
ATOM     14  C   UNL     1     -47.043  25.663  25.715  1.00  0.00     0.136 A 
ATOM     15  N   UNL     1     -45.949  25.555  24.937  1.00  0.00    -0.219 NA
ATOM     16  C   UNL     1     -47.848  26.805  25.597  1.00  0.00     0.061 A 
ATOM     17  C   UNL     1     -45.669  26.561  24.085  1.00  0.00     0.120 A 
ATOM     18  C   UNL     1     -47.444  27.761  24.676  1.00  0.00     0.147 A 
ATOM     19  C   UNL     1     -49.039  27.293  26.200  1.00  0.00    -0.031 A 
ATOM     20  N   UNL     1     -46.363  27.694  23.882  1.00  0.00    -0.218 NA
ATOM     21  H   UNL     1     -44.772  26.439  23.486  1.00  0.00     0.106 H 
ATOM     22  C   UNL     1     -49.326  28.516  25.631  1.00  0.00     0.009 A 
ATOM     23  H   UNL     1     -49.617  26.809  26.976  1.00  0.00     0.065 H 
ATOM     24  H   UNL     1     -50.132  29.212  25.825  1.00  0.00     0.082 H 
BRANCH  14  25
ATOM     25  N   UNL     1     -47.317  24.614  26.579  1.00  0.00    -0.383 N 
ATOM     26  H   UNL     1     -47.218  23.693  26.178  1.00  0.00     0.158 HD
ATOM     27  H   UNL     1     -46.881  24.768  27.480  1.00  0.00     0.158 HD
ENDBRANCH  14  25
ENDBRANCH   5  13
BRANCH   7  28
ATOM     28  O   UNL     1     -49.644  31.418  22.446  1.00  0.00    -0.386 OA
ATOM     29  H   UNL     1     -48.803  31.200  21.993  1.00  0.00     0.211 HD
ENDBRANCH   7  28
BRANCH   9  30
ATOM     30  O   UNL     1     -50.333  32.871  24.581  1.00  0.00    -0.387 OA
ATOM     31  H   UNL     1     -49.871  33.675  24.882  1.00  0.00     0.211 HD
ENDBRANCH   9  30
ENDBRANCH   1   4
BRANCH   1  32
ATOM     32  O   UNL     1     -47.956  34.130  26.106  1.00  0.00    -0.491 OA
BRANCH  32  33
ATOM     33  C   UNL     1     -47.236  35.034  26.835  1.00  0.00     0.121 A 
ATOM     34  C   UNL     1     -46.731  34.542  28.036  1.00  0.00    -0.019 A 
ATOM     35  C   UNL     1     -46.985  36.363  26.482  1.00  0.00     0.007 A 
ATOM     36  C   UNL     1     -45.984  35.367  28.874  1.00  0.00    -0.049 A 
ATOM     37  H   UNL     1     -46.917  33.508  28.321  1.00  0.00     0.066 H 
ATOM     38  C   UNL     1     -46.245  37.208  27.300  1.00  0.00     0.076 A 
ATOM     39  H   UNL     1     -47.357  36.784  25.553  1.00  0.00     0.069 H 
ATOM     40  C   UNL     1     -45.741  36.699  28.508  1.00  0.00     0.001 A 
ATOM     41  H   UNL     1     -45.594  34.966  29.806  1.00  0.00     0.063 H 
ATOM     42  N   UNL     1     -46.038  38.479  26.911  1.00  0.00    -0.231 NA
ATOM     43  C   UNL     1     -44.995  37.562  29.311  1.00  0.00    -0.049 A 
ATOM     44  C   UNL     1     -45.326  39.322  27.694  1.00  0.00     0.129 A 
ATOM     45  C   UNL     1     -44.786  38.875  28.897  1.00  0.00    -0.019 A 
ATOM     46  H   UNL     1     -44.569  37.224  30.251  1.00  0.00     0.063 H 
ATOM     47  H   UNL     1     -44.186  39.533  29.515  1.00  0.00     0.066 H 
BRANCH  44  48
ATOM     48  N   UNL     1     -45.124  40.608  27.248  1.00  0.00    -0.357 N 
ATOM     49  C   UNL     1     -43.801  41.207  27.373  1.00  0.00     0.019 C 
ATOM     50  C   UNL     1     -45.887  41.213  26.164  1.00  0.00     0.019 C 
ATOM     51  C   UNL     1     -43.971  42.558  26.685  1.00  0.00    -0.034 C 
ATOM     52  H   UNL     1     -43.047  40.610  26.845  1.00  0.00     0.049 H 
ATOM     53  H   UNL     1     -43.498  41.335  28.418  1.00  0.00     0.049 H 
ATOM     54  C   UNL     1     -44.926  42.230  25.547  1.00  0.00    -0.034 C 
ATOM     55  H   UNL     1     -46.772  41.715  26.571  1.00  0.00     0.049 H 
ATOM     56  H   UNL     1     -46.204  40.492  25.402  1.00  0.00     0.049 H 
ATOM     57  H   UNL     1     -43.022  42.975  26.337  1.00  0.00     0.029 H 
ATOM     58  H   UNL     1     -44.437  43.276  27.370  1.00  0.00     0.029 H 
ATOM     59  H   UNL     1     -45.443  43.111  25.157  1.00  0.00     0.029 H 
ATOM     60  H   UNL     1     -44.373  41.766  24.721  1.00  0.00     0.029 H 
ENDBRANCH  44  48
ENDBRANCH  32  33
ENDBRANCH   1  32
TORSDOF 8
ENDMDL
MODEL 6
REMARK VINA RESULT:      -9.2      2.525     11.181
REMARK SMILES Nc1ncnc2c1ccn2[C@@H]1O[C@H](COc2ccc3ccc(N4CCCC4)nc3c2)[C@@H](O)[C@H]1O
REMARK SMILES IDX 14 1 13 4 11 5 12 6 33 7 31 9 10 13 2 14 3 15 7 16 4 17 6 18
REMARK SMILES IDX 8 19 5 20 9 22 1 25 34 28 32 30 15 32 16 33 17 34 30 35
REMARK SMILES IDX 18 36 29 38 19 40 28 42 20 43 22 44 21 45 23 48 24 49 27 50
REMARK SMILES IDX 25 51 26 54
REMARK H PARENT 14 2 14 3 11 8 33 10 13 11 31 12 4 21 8 23 9 24 1 26 1 27
REMARK H PARENT 34 29 32 31 17 37 30 39 18 41 20 46 21 47 24 52 24 53 27 55
REMARK H PARENT 27 56 25 57 25 58 26 59 26 60
REMARK Flexibility Score: inf
ROOT
ATOM      1  C   UNL     1     -47.936  34.799  26.223  1.00  0.00     0.117 C 
ATOM      2  H   UNL     1     -46.883  34.964  25.969  1.00  0.00     0.073 H 
ATOM      3  H   UNL     1     -48.582  35.095  25.388  1.00  0.00     0.073 H 
ENDROOT
BRANCH   1   4
ATOM      4  C   UNL     1     -48.153  33.313  26.513  1.00  0.00     0.123 C 
ATOM      5  C   UNL     1     -48.926  31.403  25.406  1.00  0.00     0.164 C 
ATOM      6  O   UNL     1     -49.238  32.789  25.720  1.00  0.00    -0.345 OA
ATOM      7  C   UNL     1     -47.607  31.065  26.113  1.00  0.00     0.128 C 
ATOM      8  H   UNL     1     -49.764  30.790  25.756  1.00  0.00     0.088 H 
ATOM      9  C   UNL     1     -46.948  32.430  26.206  1.00  0.00     0.114 C 
ATOM     10  H   UNL     1     -46.984  30.327  25.601  1.00  0.00     0.068 H 
ATOM     11  H   UNL     1     -48.448  33.218  27.567  1.00  0.00     0.067 H 
ATOM     12  H   UNL     1     -46.480  32.672  25.245  1.00  0.00     0.066 H 
BRANCH   5  13
ATOM     13  N   UNL     1     -48.851  31.246  23.955  1.00  0.00    -0.303 N 
ATOM     14  C   UNL     1     -50.507  31.147  20.826  1.00  0.00     0.136 A 
ATOM     15  N   UNL     1     -51.790  31.344  21.185  1.00  0.00    -0.219 NA
ATOM     16  C   UNL     1     -49.521  31.118  21.823  1.00  0.00     0.061 A 
ATOM     17  C   UNL     1     -52.068  31.518  22.493  1.00  0.00     0.120 A 
ATOM     18  C   UNL     1     -49.949  31.307  23.129  1.00  0.00     0.147 A 
ATOM     19  C   UNL     1     -48.112  30.942  21.873  1.00  0.00    -0.031 A 
ATOM     20  N   UNL     1     -51.215  31.506  23.531  1.00  0.00    -0.218 NA
ATOM     21  H   UNL     1     -53.113  31.685  22.737  1.00  0.00     0.106 H 
ATOM     22  C   UNL     1     -47.727  31.023  23.194  1.00  0.00     0.009 A 
ATOM     23  H   UNL     1     -47.448  30.787  21.033  1.00  0.00     0.065 H 
ATOM     24  H   UNL     1     -46.746  30.957  23.649  1.00  0.00     0.082 H 
BRANCH  14  25
ATOM     25  N   UNL     1     -50.244  30.963  19.477  1.00  0.00    -0.383 N 
ATOM     26  H   UNL     1     -51.043  31.062  18.868  1.00  0.00     0.158 HD
ATOM     27  H   UNL     1     -49.400  31.452  19.206  1.00  0.00     0.158 HD
ENDBRANCH  14  25
ENDBRANCH   5  13
BRANCH   7  28
ATOM     28  O   UNL     1     -47.843  30.567  27.443  1.00  0.00    -0.386 OA
ATOM     29  H   UNL     1     -47.641  29.609  27.392  1.00  0.00     0.211 HD
ENDBRANCH   7  28
BRANCH   9  30
ATOM     30  O   UNL     1     -45.957  32.449  27.232  1.00  0.00    -0.387 OA
ATOM     31  H   UNL     1     -45.893  33.367  27.552  1.00  0.00     0.211 HD
ENDBRANCH   9  30
ENDBRANCH   1   4
BRANCH   1  32
ATOM     32  O   UNL     1     -48.273  35.570  27.381  1.00  0.00    -0.491 OA
BRANCH  32  33
ATOM     33  C   UNL     1     -47.285  36.336  27.934  1.00  0.00     0.121 A 
ATOM     34  C   UNL     1     -46.866  35.921  29.196  1.00  0.00    -0.019 A 
ATOM     35  C   UNL     1     -46.694  37.461  27.352  1.00  0.00     0.007 A 
ATOM     36  C   UNL     1     -45.868  36.622  29.868  1.00  0.00    -0.049 A 
ATOM     37  H   UNL     1     -47.317  35.045  29.657  1.00  0.00     0.066 H 
ATOM     38  C   UNL     1     -45.698  38.179  28.002  1.00  0.00     0.076 A 
ATOM     39  H   UNL     1     -46.989  37.814  26.370  1.00  0.00     0.069 H 
ATOM     40  C   UNL     1     -45.283  37.751  29.275  1.00  0.00     0.001 A 
ATOM     41  H   UNL     1     -45.549  36.283  30.851  1.00  0.00     0.063 H 
ATOM     42  N   UNL     1     -45.167  39.257  27.397  1.00  0.00    -0.231 NA
ATOM     43  C   UNL     1     -44.278  38.482  29.907  1.00  0.00    -0.049 A 
ATOM     44  C   UNL     1     -44.201  39.976  28.013  1.00  0.00     0.129 A 
ATOM     45  C   UNL     1     -43.735  39.595  29.268  1.00  0.00    -0.019 A 
ATOM     46  H   UNL     1     -43.907  38.194  30.886  1.00  0.00     0.063 H 
ATOM     47  H   UNL     1     -42.938  40.145  29.756  1.00  0.00     0.066 H 
BRANCH  44  48
ATOM     48  N   UNL     1     -43.674  41.060  27.349  1.00  0.00    -0.357 N 
ATOM     49  C   UNL     1     -44.373  41.592  26.186  1.00  0.00     0.019 C 
ATOM     50  C   UNL     1     -42.850  42.075  27.992  1.00  0.00     0.019 C 
ATOM     51  C   UNL     1     -43.541  42.818  25.819  1.00  0.00    -0.034 C 
ATOM     52  H   UNL     1     -45.394  41.897  26.447  1.00  0.00     0.049 H 
ATOM     53  H   UNL     1     -44.406  40.878  25.357  1.00  0.00     0.049 H 
ATOM     54  C   UNL     1     -43.112  43.344  27.180  1.00  0.00    -0.034 C 
ATOM     55  H   UNL     1     -41.794  41.788  27.930  1.00  0.00     0.049 H 
ATOM     56  H   UNL     1     -43.113  42.245  29.042  1.00  0.00     0.049 H 
ATOM     57  H   UNL     1     -44.107  43.550  25.238  1.00  0.00     0.029 H 
ATOM     58  H   UNL     1     -42.660  42.518  25.239  1.00  0.00     0.029 H 
ATOM     59  H   UNL     1     -42.235  43.996  27.128  1.00  0.00     0.029 H 
ATOM     60  H   UNL     1     -43.933  43.913  27.633  1.00  0.00     0.029 H 
ENDBRANCH  44  48
ENDBRANCH  32  33
ENDBRANCH   1  32
TORSDOF 8
ENDMDL
MODEL 7
REMARK VINA RESULT:      -9.2      2.964     11.312
REMARK SMILES Nc1ncnc2c1ccn2[C@@H]1O[C@H](COc2ccc3ccc(N4CCCC4)nc3c2)[C@@H](O)[C@H]1O
REMARK SMILES IDX 14 1 13 4 11 5 12 6 33 7 31 9 10 13 2 14 3 15 7 16 4 17 6 18
REMARK SMILES IDX 8 19 5 20 9 22 1 25 34 28 32 30 15 32 16 33 17 34 30 35
REMARK SMILES IDX 18 36 29 38 19 40 28 42 20 43 22 44 21 45 23 48 24 49 27 50
REMARK SMILES IDX 25 51 26 54
REMARK H PARENT 14 2 14 3 11 8 33 10 13 11 31 12 4 21 8 23 9 24 1 26 1 27
REMARK H PARENT 34 29 32 31 17 37 30 39 18 41 20 46 21 47 24 52 24 53 27 55
REMARK H PARENT 27 56 25 57 25 58 26 59 26 60
REMARK Flexibility Score: inf
ROOT
ATOM      1  C   UNL     1     -48.138  32.910  26.749  1.00  0.00     0.117 C 
ATOM      2  H   UNL     1     -48.718  33.630  26.161  1.00  0.00     0.073 H 
ATOM      3  H   UNL     1     -48.750  32.496  27.560  1.00  0.00     0.073 H 
ENDROOT
BRANCH   1   4
ATOM      4  C   UNL     1     -47.689  31.766  25.837  1.00  0.00     0.123 C 
ATOM      5  C   UNL     1     -48.577  30.419  24.143  1.00  0.00     0.164 C 
ATOM      6  O   UNL     1     -48.803  30.919  25.491  1.00  0.00    -0.345 OA
ATOM      7  C   UNL     1     -47.212  30.951  23.688  1.00  0.00     0.128 C 
ATOM      8  H   UNL     1     -48.612  29.325  24.187  1.00  0.00     0.088 H 
ATOM      9  C   UNL     1     -47.083  32.220  24.513  1.00  0.00     0.114 C 
ATOM     10  H   UNL     1     -47.121  31.132  22.613  1.00  0.00     0.068 H 
ATOM     11  H   UNL     1     -46.976  31.150  26.401  1.00  0.00     0.067 H 
ATOM     12  H   UNL     1     -47.660  33.020  24.036  1.00  0.00     0.066 H 
BRANCH   5  13
ATOM     13  N   UNL     1     -49.674  30.854  23.281  1.00  0.00    -0.303 N 
ATOM     14  C   UNL     1     -51.329  30.673  20.156  1.00  0.00     0.136 A 
ATOM     15  N   UNL     1     -50.559  29.796  19.485  1.00  0.00    -0.219 NA
ATOM     16  C   UNL     1     -50.981  31.013  21.471  1.00  0.00     0.061 A 
ATOM     17  C   UNL     1     -49.490  29.270  20.116  1.00  0.00     0.120 A 
ATOM     18  C   UNL     1     -49.852  30.400  21.996  1.00  0.00     0.147 A 
ATOM     19  C   UNL     1     -51.497  31.863  22.487  1.00  0.00    -0.031 A 
ATOM     20  N   UNL     1     -49.058  29.521  21.364  1.00  0.00    -0.218 NA
ATOM     21  H   UNL     1     -48.904  28.558  19.543  1.00  0.00     0.106 H 
ATOM     22  C   UNL     1     -50.674  31.747  23.587  1.00  0.00     0.009 A 
ATOM     23  H   UNL     1     -52.383  32.481  22.426  1.00  0.00     0.065 H 
ATOM     24  H   UNL     1     -50.731  32.215  24.563  1.00  0.00     0.082 H 
BRANCH  14  25
ATOM     25  N   UNL     1     -52.419  31.208  19.485  1.00  0.00    -0.383 N 
ATOM     26  H   UNL     1     -52.264  31.405  18.507  1.00  0.00     0.158 HD
ATOM     27  H   UNL     1     -53.266  30.705  19.721  1.00  0.00     0.158 HD
ENDBRANCH  14  25
ENDBRANCH   5  13
BRANCH   7  28
ATOM     28  O   UNL     1     -46.153  30.046  24.052  1.00  0.00    -0.386 OA
ATOM     29  H   UNL     1     -46.423  29.679  24.919  1.00  0.00     0.211 HD
ENDBRANCH   7  28
BRANCH   9  30
ATOM     30  O   UNL     1     -45.719  32.621  24.622  1.00  0.00    -0.387 OA
ATOM     31  H   UNL     1     -45.281  32.375  23.787  1.00  0.00     0.211 HD
ENDBRANCH   9  30
ENDBRANCH   1   4
BRANCH   1  32
ATOM     32  O   UNL     1     -46.991  33.562  27.303  1.00  0.00    -0.491 OA
BRANCH  32  33
ATOM     33  C   UNL     1     -47.024  34.925  27.388  1.00  0.00     0.121 A 
ATOM     34  C   UNL     1     -48.300  35.480  27.319  1.00  0.00    -0.019 A 
ATOM     35  C   UNL     1     -45.918  35.768  27.526  1.00  0.00     0.007 A 
ATOM     36  C   UNL     1     -48.468  36.861  27.388  1.00  0.00    -0.049 A 
ATOM     37  H   UNL     1     -49.169  34.834  27.214  1.00  0.00     0.066 H 
ATOM     38  C   UNL     1     -46.057  37.149  27.595  1.00  0.00     0.076 A 
ATOM     39  H   UNL     1     -44.908  35.375  27.587  1.00  0.00     0.069 H 
ATOM     40  C   UNL     1     -47.349  37.697  27.525  1.00  0.00     0.001 A 
ATOM     41  H   UNL     1     -49.471  37.279  27.337  1.00  0.00     0.063 H 
ATOM     42  N   UNL     1     -44.957  37.912  27.724  1.00  0.00    -0.231 NA
ATOM     43  C   UNL     1     -47.467  39.084  27.603  1.00  0.00    -0.049 A 
ATOM     44  C   UNL     1     -45.068  39.259  27.787  1.00  0.00     0.129 A 
ATOM     45  C   UNL     1     -46.320  39.863  27.738  1.00  0.00    -0.019 A 
ATOM     46  H   UNL     1     -48.440  39.567  27.567  1.00  0.00     0.063 H 
ATOM     47  H   UNL     1     -46.422  40.940  27.822  1.00  0.00     0.066 H 
BRANCH  44  48
ATOM     48  N   UNL     1     -43.917  39.999  27.938  1.00  0.00    -0.357 N 
ATOM     49  C   UNL     1     -43.671  41.124  27.045  1.00  0.00     0.019 C 
ATOM     50  C   UNL     1     -43.225  40.161  29.210  1.00  0.00     0.019 C 
ATOM     51  C   UNL     1     -42.381  41.723  27.599  1.00  0.00    -0.034 C 
ATOM     52  H   UNL     1     -44.483  41.860  27.107  1.00  0.00     0.049 H 
ATOM     53  H   UNL     1     -43.542  40.810  26.004  1.00  0.00     0.049 H 
ATOM     54  C   UNL     1     -42.543  41.525  29.097  1.00  0.00    -0.034 C 
ATOM     55  H   UNL     1     -42.481  39.365  29.330  1.00  0.00     0.049 H 
ATOM     56  H   UNL     1     -43.899  40.152  30.074  1.00  0.00     0.049 H 
ATOM     57  H   UNL     1     -42.253  42.773  27.320  1.00  0.00     0.029 H 
ATOM     58  H   UNL     1     -41.515  41.158  27.237  1.00  0.00     0.029 H 
ATOM     59  H   UNL     1     -41.592  41.563  29.637  1.00  0.00     0.029 H 
ATOM     60  H   UNL     1     -43.198  42.304  29.506  1.00  0.00     0.029 H 
ENDBRANCH  44  48
ENDBRANCH  32  33
ENDBRANCH   1  32
TORSDOF 8
ENDMDL
