MODEL 1
REMARK VINA RESULT:     -10.6      0.000      0.000
REMARK SMILES CNc1ccc2ccc(OC[C@H]3O[C@@H](n4ccc5c(N)ncnc54)[C@@H](F)[C@@H]3O)cc2n1
REMARK SMILES IDX 11 1 10 4 9 5 3 6 4 7 31 8 5 9 30 11 6 12 29 14 7 15 8 17
REMARK SMILES IDX 2 20 1 22 12 26 13 27 27 28 14 30 25 31 26 34 28 36 15 38
REMARK SMILES IDX 16 39 24 40 17 41 18 43 23 44 19 46 22 47 21 48 20 50
REMARK H PARENT 11 2 11 3 4 10 5 13 29 16 7 18 8 19 2 21 1 23 1 24 1 25 12 29
REMARK H PARENT 27 32 14 33 25 35 28 37 16 42 17 45 22 49 20 51 20 52
REMARK Flexibility Score: inf
ROOT
ATOM      1  C   UNL     1     -45.622  35.193  27.737  1.00  0.00     0.117 C 
ATOM      2  H   UNL     1     -44.561  35.064  27.501  1.00  0.00     0.073 H 
ATOM      3  H   UNL     1     -45.945  34.253  28.201  1.00  0.00     0.073 H 
ENDROOT
BRANCH   1   4
ATOM      4  O   UNL     1     -46.416  35.312  26.553  1.00  0.00    -0.491 OA
BRANCH   4   5
ATOM      5  C   UNL     1     -46.964  34.192  25.995  1.00  0.00     0.121 A 
ATOM      6  C   UNL     1     -47.167  30.600  22.899  1.00  0.00     0.126 A 
ATOM      7  C   UNL     1     -48.455  30.258  23.283  1.00  0.00    -0.019 A 
ATOM      8  N   UNL     1     -46.472  31.585  23.493  1.00  0.00    -0.231 NA
ATOM      9  C   UNL     1     -49.066  30.980  24.303  1.00  0.00    -0.049 A 
ATOM     10  H   UNL     1     -48.973  29.434  22.806  1.00  0.00     0.066 H 
ATOM     11  C   UNL     1     -47.067  32.305  24.461  1.00  0.00     0.076 A 
ATOM     12  C   UNL     1     -48.376  32.036  24.905  1.00  0.00     0.001 A 
ATOM     13  H   UNL     1     -50.073  30.720  24.612  1.00  0.00     0.063 H 
ATOM     14  C   UNL     1     -46.380  33.372  25.029  1.00  0.00     0.007 A 
ATOM     15  C   UNL     1     -48.955  32.821  25.912  1.00  0.00    -0.049 A 
ATOM     16  H   UNL     1     -45.380  33.556  24.653  1.00  0.00     0.069 H 
ATOM     17  C   UNL     1     -48.249  33.895  26.449  1.00  0.00    -0.019 A 
ATOM     18  H   UNL     1     -49.961  32.614  26.267  1.00  0.00     0.063 H 
ATOM     19  H   UNL     1     -48.711  34.514  27.214  1.00  0.00     0.066 H 
BRANCH   6  20
ATOM     20  N   UNL     1     -46.501  29.923  21.870  1.00  0.00    -0.373 N 
ATOM     21  H   UNL     1     -47.171  29.199  21.606  1.00  0.00     0.161 HD
BRANCH  20  22
ATOM     22  C   UNL     1     -45.266  29.298  22.329  1.00  0.00     0.005 C 
ATOM     23  H   UNL     1     -44.661  28.944  21.488  1.00  0.00     0.045 H 
ATOM     24  H   UNL     1     -44.674  30.041  22.874  1.00  0.00     0.045 H 
ATOM     25  H   UNL     1     -45.460  28.468  23.015  1.00  0.00     0.045 H 
ENDBRANCH  20  22
ENDBRANCH   6  20
ENDBRANCH   4   5
ENDBRANCH   1   4
BRANCH   1  26
ATOM     26  C   UNL     1     -45.859  36.320  28.752  1.00  0.00     0.123 C 
ATOM     27  O   UNL     1     -44.734  37.205  28.834  1.00  0.00    -0.345 OA
ATOM     28  C   UNL     1     -47.064  37.205  28.464  1.00  0.00     0.119 C 
ATOM     29  H   UNL     1     -45.960  35.852  29.741  1.00  0.00     0.067 H 
ATOM     30  C   UNL     1     -45.219  38.502  29.260  1.00  0.00     0.169 C 
ATOM     31  C   UNL     1     -46.744  38.431  29.302  1.00  0.00     0.173 C 
ATOM     32  H   UNL     1     -47.153  37.497  27.412  1.00  0.00     0.066 H 
ATOM     33  H   UNL     1     -44.839  38.671  30.272  1.00  0.00     0.088 H 
ATOM     34  F   UNL     1     -47.345  39.529  28.783  1.00  0.00    -0.239 F 
ATOM     35  H   UNL     1     -47.106  38.309  30.329  1.00  0.00     0.074 H 
BRANCH  28  36
ATOM     36  O   UNL     1     -48.279  36.583  28.866  1.00  0.00    -0.387 OA
ATOM     37  H   UNL     1     -49.009  37.163  28.583  1.00  0.00     0.211 HD
ENDBRANCH  28  36
BRANCH  30  38
ATOM     38  N   UNL     1     -44.637  39.505  28.382  1.00  0.00    -0.303 N 
ATOM     39  C   UNL     1     -45.063  39.838  27.116  1.00  0.00     0.009 A 
ATOM     40  C   UNL     1     -43.515  40.241  28.688  1.00  0.00     0.147 A 
ATOM     41  C   UNL     1     -44.186  40.766  26.598  1.00  0.00    -0.031 A 
ATOM     42  H   UNL     1     -45.937  39.379  26.675  1.00  0.00     0.082 H 
ATOM     43  C   UNL     1     -43.202  41.027  27.587  1.00  0.00     0.061 A 
ATOM     44  N   UNL     1     -42.837  40.195  29.848  1.00  0.00    -0.218 NA
ATOM     45  H   UNL     1     -44.242  41.198  25.609  1.00  0.00     0.065 H 
ATOM     46  C   UNL     1     -42.063  41.838  27.693  1.00  0.00     0.136 A 
ATOM     47  C   UNL     1     -41.768  41.009  29.829  1.00  0.00     0.120 A 
ATOM     48  N   UNL     1     -41.350  41.818  28.836  1.00  0.00    -0.219 NA
ATOM     49  H   UNL     1     -41.163  41.018  30.730  1.00  0.00     0.106 H 
BRANCH  46  50
ATOM     50  N   UNL     1     -41.623  42.687  26.684  1.00  0.00    -0.383 N 
ATOM     51  H   UNL     1     -41.864  42.373  25.753  1.00  0.00     0.158 HD
ATOM     52  H   UNL     1     -41.865  43.645  26.908  1.00  0.00     0.158 HD
ENDBRANCH  46  50
ENDBRANCH  30  38
ENDBRANCH   1  26
TORSDOF 8
ENDMDL
MODEL 2
REMARK VINA RESULT:      -9.4      2.727      9.487
REMARK SMILES CNc1ccc2ccc(OC[C@H]3O[C@@H](n4ccc5c(N)ncnc54)[C@@H](F)[C@@H]3O)cc2n1
REMARK SMILES IDX 11 1 10 4 9 5 3 6 4 7 31 8 5 9 30 11 6 12 29 14 7 15 8 17
REMARK SMILES IDX 2 20 1 22 12 26 13 27 27 28 14 30 25 31 26 34 28 36 15 38
REMARK SMILES IDX 16 39 24 40 17 41 18 43 23 44 19 46 22 47 21 48 20 50
REMARK H PARENT 11 2 11 3 4 10 5 13 29 16 7 18 8 19 2 21 1 23 1 24 1 25 12 29
REMARK H PARENT 27 32 14 33 25 35 28 37 16 42 17 45 22 49 20 51 20 52
REMARK Flexibility Score: inf
ROOT
ATOM      1  C   UNL     1     -46.704  39.451  27.515  1.00  0.00     0.117 C 
ATOM      2  H   UNL     1     -46.922  39.455  26.442  1.00  0.00     0.073 H 
ATOM      3  H   UNL     1     -47.128  40.380  27.914  1.00  0.00     0.073 H 
ENDROOT
BRANCH   1   4
ATOM      4  O   UNL     1     -45.299  39.548  27.767  1.00  0.00    -0.491 OA
BRANCH   4   5
ATOM      5  C   UNL     1     -44.575  40.540  27.169  1.00  0.00     0.121 A 
ATOM      6  C   UNL     1     -43.404  43.440  23.598  1.00  0.00     0.126 A 
ATOM      7  C   UNL     1     -42.252  43.869  24.241  1.00  0.00    -0.019 A 
ATOM      8  N   UNL     1     -44.273  42.585  24.165  1.00  0.00    -0.231 NA
ATOM      9  C   UNL     1     -41.966  43.375  25.508  1.00  0.00    -0.049 A 
ATOM     10  H   UNL     1     -41.591  44.587  23.768  1.00  0.00     0.066 H 
ATOM     11  C   UNL     1     -43.988  42.081  25.379  1.00  0.00     0.076 A 
ATOM     12  C   UNL     1     -42.835  42.452  26.098  1.00  0.00     0.001 A 
ATOM     13  H   UNL     1     -41.068  43.706  26.021  1.00  0.00     0.063 H 
ATOM     14  C   UNL     1     -44.845  41.141  25.940  1.00  0.00     0.007 A 
ATOM     15  C   UNL     1     -42.579  41.894  27.358  1.00  0.00    -0.049 A 
ATOM     16  H   UNL     1     -45.715  40.872  25.351  1.00  0.00     0.069 H 
ATOM     17  C   UNL     1     -43.447  40.940  27.886  1.00  0.00    -0.019 A 
ATOM     18  H   UNL     1     -41.697  42.181  27.924  1.00  0.00     0.063 H 
ATOM     19  H   UNL     1     -43.232  40.493  28.853  1.00  0.00     0.066 H 
BRANCH   6  20
ATOM     20  N   UNL     1     -43.742  43.887  22.315  1.00  0.00    -0.373 N 
ATOM     21  H   UNL     1     -43.084  44.654  22.163  1.00  0.00     0.161 HD
BRANCH  20  22
ATOM     22  C   UNL     1     -45.107  44.397  22.250  1.00  0.00     0.005 C 
ATOM     23  H   UNL     1     -45.329  45.054  23.097  1.00  0.00     0.045 H 
ATOM     24  H   UNL     1     -45.221  44.986  21.334  1.00  0.00     0.045 H 
ATOM     25  H   UNL     1     -45.842  43.588  22.211  1.00  0.00     0.045 H 
ENDBRANCH  20  22
ENDBRANCH   6  20
ENDBRANCH   4   5
ENDBRANCH   1   4
BRANCH   1  26
ATOM     26  C   UNL     1     -47.379  38.279  28.242  1.00  0.00     0.123 C 
ATOM     27  O   UNL     1     -47.929  37.329  27.319  1.00  0.00    -0.345 OA
ATOM     28  C   UNL     1     -46.469  37.482  29.166  1.00  0.00     0.119 C 
ATOM     29  H   UNL     1     -48.226  38.691  28.806  1.00  0.00     0.067 H 
ATOM     30  C   UNL     1     -47.958  36.038  27.975  1.00  0.00     0.169 C 
ATOM     31  C   UNL     1     -47.255  36.192  29.323  1.00  0.00     0.173 C 
ATOM     32  H   UNL     1     -45.489  37.259  28.732  1.00  0.00     0.066 H 
ATOM     33  H   UNL     1     -49.010  35.788  28.145  1.00  0.00     0.088 H 
ATOM     34  F   UNL     1     -46.423  35.162  29.612  1.00  0.00    -0.239 F 
ATOM     35  H   UNL     1     -47.981  36.272  30.140  1.00  0.00     0.074 H 
BRANCH  28  36
ATOM     36  O   UNL     1     -46.275  38.145  30.410  1.00  0.00    -0.387 OA
ATOM     37  H   UNL     1     -47.149  38.449  30.716  1.00  0.00     0.211 HD
ENDBRANCH  28  36
BRANCH  30  38
ATOM     38  N   UNL     1     -47.400  35.059  27.057  1.00  0.00    -0.303 N 
ATOM     39  C   UNL     1     -46.100  34.999  26.606  1.00  0.00     0.009 A 
ATOM     40  C   UNL     1     -48.131  34.062  26.453  1.00  0.00     0.147 A 
ATOM     41  C   UNL     1     -46.011  33.980  25.683  1.00  0.00    -0.031 A 
ATOM     42  H   UNL     1     -45.349  35.693  26.957  1.00  0.00     0.082 H 
ATOM     43  C   UNL     1     -47.293  33.380  25.579  1.00  0.00     0.061 A 
ATOM     44  N   UNL     1     -49.434  33.803  26.666  1.00  0.00    -0.218 NA
ATOM     45  H   UNL     1     -45.121  33.707  25.134  1.00  0.00     0.065 H 
ATOM     46  C   UNL     1     -47.865  32.334  24.843  1.00  0.00     0.136 A 
ATOM     47  C   UNL     1     -49.867  32.785  25.903  1.00  0.00     0.120 A 
ATOM     48  N   UNL     1     -49.168  32.044  25.020  1.00  0.00    -0.219 NA
ATOM     49  H   UNL     1     -50.915  32.523  26.012  1.00  0.00     0.106 H 
BRANCH  46  50
ATOM     50  N   UNL     1     -47.158  31.553  23.936  1.00  0.00    -0.383 N 
ATOM     51  H   UNL     1     -46.393  31.037  24.350  1.00  0.00     0.158 HD
ATOM     52  H   UNL     1     -47.802  31.015  23.368  1.00  0.00     0.158 HD
ENDBRANCH  46  50
ENDBRANCH  30  38
ENDBRANCH   1  26
TORSDOF 8
ENDMDL
MODEL 3
REMARK VINA RESULT:      -9.0      2.237      3.171
REMARK SMILES CNc1ccc2ccc(OC[C@H]3O[C@@H](n4ccc5c(N)ncnc54)[C@@H](F)[C@@H]3O)cc2n1
REMARK SMILES IDX 11 1 10 4 9 5 3 6 4 7 31 8 5 9 30 11 6 12 29 14 7 15 8 17
REMARK SMILES IDX 2 20 1 22 12 26 13 27 27 28 14 30 25 31 26 34 28 36 15 38
REMARK SMILES IDX 16 39 24 40 17 41 18 43 23 44 19 46 22 47 21 48 20 50
REMARK H PARENT 11 2 11 3 4 10 5 13 29 16 7 18 8 19 2 21 1 23 1 24 1 25 12 29
REMARK H PARENT 27 32 14 33 25 35 28 37 16 42 17 45 22 49 20 51 20 52
REMARK Flexibility Score: inf
ROOT
ATOM      1  C   UNL     1     -46.273  33.814  26.112  1.00  0.00     0.117 C 
ATOM      2  H   UNL     1     -45.387  34.304  25.695  1.00  0.00     0.073 H 
ATOM      3  H   UNL     1     -45.935  32.837  26.477  1.00  0.00     0.073 H 
ENDROOT
BRANCH   1   4
ATOM      4  O   UNL     1     -47.238  33.517  25.098  1.00  0.00    -0.491 OA
BRANCH   4   5
ATOM      5  C   UNL     1     -47.412  32.223  24.694  1.00  0.00     0.121 A 
ATOM      6  C   UNL     1     -49.489  27.956  24.744  1.00  0.00     0.126 A 
ATOM      7  C   UNL     1     -48.506  27.397  23.942  1.00  0.00    -0.019 A 
ATOM      8  N   UNL     1     -49.503  29.259  25.073  1.00  0.00    -0.231 NA
ATOM      9  C   UNL     1     -47.475  28.208  23.481  1.00  0.00    -0.049 A 
ATOM     10  H   UNL     1     -48.546  26.349  23.668  1.00  0.00     0.066 H 
ATOM     11  C   UNL     1     -48.493  30.043  24.653  1.00  0.00     0.076 A 
ATOM     12  C   UNL     1     -47.446  29.557  23.845  1.00  0.00     0.001 A 
ATOM     13  H   UNL     1     -46.700  27.781  22.851  1.00  0.00     0.063 H 
ATOM     14  C   UNL     1     -48.462  31.376  25.049  1.00  0.00     0.007 A 
ATOM     15  C   UNL     1     -46.413  30.413  23.440  1.00  0.00    -0.049 A 
ATOM     16  H   UNL     1     -49.278  31.710  25.680  1.00  0.00     0.069 H 
ATOM     17  C   UNL     1     -46.399  31.739  23.868  1.00  0.00    -0.019 A 
ATOM     18  H   UNL     1     -45.606  30.049  22.809  1.00  0.00     0.063 H 
ATOM     19  H   UNL     1     -45.583  32.392  23.569  1.00  0.00     0.066 H 
BRANCH   6  20
ATOM     20  N   UNL     1     -50.546  27.192  25.254  1.00  0.00    -0.373 N 
ATOM     21  H   UNL     1     -50.190  26.237  25.182  1.00  0.00     0.161 HD
BRANCH  20  22
ATOM     22  C   UNL     1     -51.758  27.321  24.452  1.00  0.00     0.005 C 
ATOM     23  H   UNL     1     -51.667  28.127  23.717  1.00  0.00     0.045 H 
ATOM     24  H   UNL     1     -51.920  26.387  23.903  1.00  0.00     0.045 H 
ATOM     25  H   UNL     1     -52.642  27.490  25.075  1.00  0.00     0.045 H 
ENDBRANCH  20  22
ENDBRANCH   6  20
ENDBRANCH   4   5
ENDBRANCH   1   4
BRANCH   1  26
ATOM     26  C   UNL     1     -46.854  34.582  27.308  1.00  0.00     0.123 C 
ATOM     27  O   UNL     1     -45.902  35.500  27.862  1.00  0.00    -0.345 OA
ATOM     28  C   UNL     1     -48.097  35.407  27.003  1.00  0.00     0.119 C 
ATOM     29  H   UNL     1     -47.071  33.846  28.093  1.00  0.00     0.067 H 
ATOM     30  C   UNL     1     -46.637  36.576  28.493  1.00  0.00     0.169 C 
ATOM     31  C   UNL     1     -48.118  36.367  28.179  1.00  0.00     0.173 C 
ATOM     32  H   UNL     1     -48.028  35.977  26.070  1.00  0.00     0.066 H 
ATOM     33  H   UNL     1     -46.482  36.482  29.572  1.00  0.00     0.088 H 
ATOM     34  F   UNL     1     -48.761  37.512  27.845  1.00  0.00    -0.239 F 
ATOM     35  H   UNL     1     -48.645  35.928  29.034  1.00  0.00     0.074 H 
BRANCH  28  36
ATOM     36  O   UNL     1     -49.265  34.596  26.953  1.00  0.00    -0.387 OA
ATOM     37  H   UNL     1     -49.174  34.003  26.184  1.00  0.00     0.211 HD
ENDBRANCH  28  36
BRANCH  30  38
ATOM     38  N   UNL     1     -46.051  37.833  28.057  1.00  0.00    -0.303 N 
ATOM     39  C   UNL     1     -46.347  38.524  26.904  1.00  0.00     0.009 A 
ATOM     40  C   UNL     1     -45.049  38.493  28.732  1.00  0.00     0.147 A 
ATOM     41  C   UNL     1     -45.505  39.612  26.825  1.00  0.00    -0.031 A 
ATOM     42  H   UNL     1     -47.112  38.181  26.221  1.00  0.00     0.082 H 
ATOM     43  C   UNL     1     -44.679  39.601  27.980  1.00  0.00     0.061 A 
ATOM     44  N   UNL     1     -44.517  38.120  29.910  1.00  0.00    -0.218 NA
ATOM     45  H   UNL     1     -45.480  40.330  26.017  1.00  0.00     0.065 H 
ATOM     46  C   UNL     1     -43.644  40.395  28.493  1.00  0.00     0.136 A 
ATOM     47  C   UNL     1     -43.536  38.954  30.295  1.00  0.00     0.120 A 
ATOM     48  N   UNL     1     -43.078  40.055  29.666  1.00  0.00    -0.219 NA
ATOM     49  H   UNL     1     -43.050  38.711  31.234  1.00  0.00     0.106 H 
BRANCH  46  50
ATOM     50  N   UNL     1     -43.166  41.539  27.864  1.00  0.00    -0.383 N 
ATOM     51  H   UNL     1     -42.269  41.414  27.415  1.00  0.00     0.158 HD
ATOM     52  H   UNL     1     -43.896  41.951  27.295  1.00  0.00     0.158 HD
ENDBRANCH  46  50
ENDBRANCH  30  38
ENDBRANCH   1  26
TORSDOF 8
ENDMDL
MODEL 4
REMARK VINA RESULT:      -8.9      2.940     10.767
REMARK SMILES CNc1ccc2ccc(OC[C@H]3O[C@@H](n4ccc5c(N)ncnc54)[C@@H](F)[C@@H]3O)cc2n1
REMARK SMILES IDX 11 1 10 4 9 5 3 6 4 7 31 8 5 9 30 11 6 12 29 14 7 15 8 17
REMARK SMILES IDX 2 20 1 22 12 26 13 27 27 28 14 30 25 31 26 34 28 36 15 38
REMARK SMILES IDX 16 39 24 40 17 41 18 43 23 44 19 46 22 47 21 48 20 50
REMARK H PARENT 11 2 11 3 4 10 5 13 29 16 7 18 8 19 2 21 1 23 1 24 1 25 12 29
REMARK H PARENT 27 32 14 33 25 35 28 37 16 42 17 45 22 49 20 51 20 52
REMARK Flexibility Score: inf
ROOT
ATOM      1  C   UNL     1     -48.454  34.620  26.791  1.00  0.00     0.117 C 
ATOM      2  H   UNL     1     -49.474  34.734  26.410  1.00  0.00     0.073 H 
ATOM      3  H   UNL     1     -48.519  34.757  27.877  1.00  0.00     0.073 H 
ENDROOT
BRANCH   1   4
ATOM      4  O   UNL     1     -47.600  35.675  26.336  1.00  0.00    -0.491 OA
BRANCH   4   5
ATOM      5  C   UNL     1     -46.852  36.372  27.242  1.00  0.00     0.121 A 
ATOM      6  C   UNL     1     -43.906  39.830  28.617  1.00  0.00     0.126 A 
ATOM      7  C   UNL     1     -43.718  39.259  29.867  1.00  0.00    -0.019 A 
ATOM      8  N   UNL     1     -44.747  39.313  27.704  1.00  0.00    -0.231 NA
ATOM      9  C   UNL     1     -44.402  38.090  30.181  1.00  0.00    -0.049 A 
ATOM     10  H   UNL     1     -43.059  39.723  30.592  1.00  0.00     0.066 H 
ATOM     11  C   UNL     1     -45.390  38.167  27.991  1.00  0.00     0.076 A 
ATOM     12  C   UNL     1     -45.248  37.513  29.231  1.00  0.00     0.001 A 
ATOM     13  H   UNL     1     -44.263  37.636  31.158  1.00  0.00     0.063 H 
ATOM     14  C   UNL     1     -46.205  37.588  27.025  1.00  0.00     0.007 A 
ATOM     15  C   UNL     1     -45.935  36.316  29.479  1.00  0.00    -0.049 A 
ATOM     16  H   UNL     1     -46.278  38.114  26.080  1.00  0.00     0.069 H 
ATOM     17  C   UNL     1     -46.730  35.750  28.485  1.00  0.00    -0.019 A 
ATOM     18  H   UNL     1     -45.839  35.810  30.436  1.00  0.00     0.063 H 
ATOM     19  H   UNL     1     -47.242  34.811  28.675  1.00  0.00     0.066 H 
BRANCH   6  20
ATOM     20  N   UNL     1     -43.237  40.998  28.232  1.00  0.00    -0.373 N 
ATOM     21  H   UNL     1     -42.749  40.709  27.382  1.00  0.00     0.161 HD
BRANCH  20  22
ATOM     22  C   UNL     1     -42.263  41.430  29.228  1.00  0.00     0.005 C 
ATOM     23  H   UNL     1     -42.257  42.520  29.334  1.00  0.00     0.045 H 
ATOM     24  H   UNL     1     -42.536  41.004  30.199  1.00  0.00     0.045 H 
ATOM     25  H   UNL     1     -41.254  41.080  28.989  1.00  0.00     0.045 H 
ENDBRANCH  20  22
ENDBRANCH   6  20
ENDBRANCH   4   5
ENDBRANCH   1   4
BRANCH   1  26
ATOM     26  C   UNL     1     -47.889  33.217  26.530  1.00  0.00     0.123 C 
ATOM     27  O   UNL     1     -48.931  32.235  26.435  1.00  0.00    -0.345 OA
ATOM     28  C   UNL     1     -47.070  33.077  25.254  1.00  0.00     0.119 C 
ATOM     29  H   UNL     1     -47.282  32.942  27.402  1.00  0.00     0.067 H 
ATOM     30  C   UNL     1     -48.448  31.153  25.602  1.00  0.00     0.169 C 
ATOM     31  C   UNL     1     -47.087  31.573  25.048  1.00  0.00     0.173 C 
ATOM     32  H   UNL     1     -47.523  33.567  24.386  1.00  0.00     0.066 H 
ATOM     33  H   UNL     1     -48.318  30.281  26.251  1.00  0.00     0.088 H 
ATOM     34  F   UNL     1     -46.928  31.272  23.736  1.00  0.00    -0.239 F 
ATOM     35  H   UNL     1     -46.270  31.093  25.600  1.00  0.00     0.074 H 
BRANCH  28  36
ATOM     36  O   UNL     1     -45.750  33.580  25.421  1.00  0.00    -0.387 OA
ATOM     37  H   UNL     1     -45.682  33.919  26.333  1.00  0.00     0.211 HD
ENDBRANCH  28  36
BRANCH  30  38
ATOM     38  N   UNL     1     -49.481  30.846  24.627  1.00  0.00    -0.303 N 
ATOM     39  C   UNL     1     -50.351  31.736  24.040  1.00  0.00     0.009 A 
ATOM     40  C   UNL     1     -49.774  29.575  24.187  1.00  0.00     0.147 A 
ATOM     41  C   UNL     1     -51.227  31.025  23.248  1.00  0.00    -0.031 A 
ATOM     42  H   UNL     1     -50.297  32.797  24.244  1.00  0.00     0.082 H 
ATOM     43  C   UNL     1     -50.869  29.654  23.335  1.00  0.00     0.061 A 
ATOM     44  N   UNL     1     -49.118  28.452  24.533  1.00  0.00    -0.218 NA
ATOM     45  H   UNL     1     -52.044  31.447  22.680  1.00  0.00     0.065 H 
ATOM     46  C   UNL     1     -51.340  28.449  22.798  1.00  0.00     0.136 A 
ATOM     47  C   UNL     1     -49.663  27.365  23.960  1.00  0.00     0.120 A 
ATOM     48  N   UNL     1     -50.717  27.300  23.123  1.00  0.00    -0.219 NA
ATOM     49  H   UNL     1     -49.193  26.417  24.201  1.00  0.00     0.106 H 
BRANCH  46  50
ATOM     50  N   UNL     1     -52.418  28.362  21.925  1.00  0.00    -0.383 N 
ATOM     51  H   UNL     1     -52.989  27.539  22.062  1.00  0.00     0.158 HD
ATOM     52  H   UNL     1     -52.911  29.247  21.897  1.00  0.00     0.158 HD
ENDBRANCH  46  50
ENDBRANCH  30  38
ENDBRANCH   1  26
TORSDOF 8
ENDMDL
MODEL 5
REMARK VINA RESULT:      -8.8      4.013     10.855
REMARK SMILES CNc1ccc2ccc(OC[C@H]3O[C@@H](n4ccc5c(N)ncnc54)[C@@H](F)[C@@H]3O)cc2n1
REMARK SMILES IDX 11 1 10 4 9 5 3 6 4 7 31 8 5 9 30 11 6 12 29 14 7 15 8 17
REMARK SMILES IDX 2 20 1 22 12 26 13 27 27 28 14 30 25 31 26 34 28 36 15 38
REMARK SMILES IDX 16 39 24 40 17 41 18 43 23 44 19 46 22 47 21 48 20 50
REMARK H PARENT 11 2 11 3 4 10 5 13 29 16 7 18 8 19 2 21 1 23 1 24 1 25 12 29
REMARK H PARENT 27 32 14 33 25 35 28 37 16 42 17 45 22 49 20 51 20 52
REMARK Flexibility Score: inf
ROOT
ATOM      1  C   UNL     1     -48.133  32.230  24.846  1.00  0.00     0.117 C 
ATOM      2  H   UNL     1     -48.460  33.248  24.610  1.00  0.00     0.073 H 
ATOM      3  H   UNL     1     -49.015  31.715  25.245  1.00  0.00     0.073 H 
ENDROOT
BRANCH   1   4
ATOM      4  O   UNL     1     -47.183  32.216  25.916  1.00  0.00    -0.491 OA
BRANCH   4   5
ATOM      5  C   UNL     1     -46.847  33.387  26.533  1.00  0.00     0.121 A 
ATOM      6  C   UNL     1     -46.419  38.104  26.843  1.00  0.00     0.126 A 
ATOM      7  C   UNL     1     -45.666  38.023  28.004  1.00  0.00    -0.019 A 
ATOM      8  N   UNL     1     -46.936  37.021  26.238  1.00  0.00    -0.231 NA
ATOM      9  C   UNL     1     -45.410  36.771  28.552  1.00  0.00    -0.049 A 
ATOM     10  H   UNL     1     -45.294  38.921  28.485  1.00  0.00     0.066 H 
ATOM     11  C   UNL     1     -46.669  35.805  26.747  1.00  0.00     0.076 A 
ATOM     12  C   UNL     1     -45.903  35.629  27.916  1.00  0.00     0.001 A 
ATOM     13  H   UNL     1     -44.822  36.697  29.463  1.00  0.00     0.063 H 
ATOM     14  C   UNL     1     -47.140  34.676  26.087  1.00  0.00     0.007 A 
ATOM     15  C   UNL     1     -45.645  34.340  28.404  1.00  0.00    -0.049 A 
ATOM     16  H   UNL     1     -47.715  34.851  25.184  1.00  0.00     0.069 H 
ATOM     17  C   UNL     1     -46.115  33.226  27.709  1.00  0.00    -0.019 A 
ATOM     18  H   UNL     1     -45.063  34.195  29.310  1.00  0.00     0.063 H 
ATOM     19  H   UNL     1     -45.893  32.229  28.079  1.00  0.00     0.066 H 
BRANCH   6  20
ATOM     20  N   UNL     1     -46.701  39.332  26.231  1.00  0.00    -0.373 N 
ATOM     21  H   UNL     1     -46.633  39.109  25.236  1.00  0.00     0.161 HD
BRANCH  20  22
ATOM     22  C   UNL     1     -45.718  40.356  26.569  1.00  0.00     0.005 C 
ATOM     23  H   UNL     1     -45.193  40.114  27.498  1.00  0.00     0.045 H 
ATOM     24  H   UNL     1     -44.972  40.407  25.769  1.00  0.00     0.045 H 
ATOM     25  H   UNL     1     -46.176  41.346  26.653  1.00  0.00     0.045 H 
ENDBRANCH  20  22
ENDBRANCH   6  20
ENDBRANCH   4   5
ENDBRANCH   1   4
BRANCH   1  26
ATOM     26  C   UNL     1     -47.668  31.465  23.600  1.00  0.00     0.123 C 
ATOM     27  O   UNL     1     -46.581  30.578  23.897  1.00  0.00    -0.345 OA
ATOM     28  C   UNL     1     -48.735  30.605  22.935  1.00  0.00     0.119 C 
ATOM     29  H   UNL     1     -47.281  32.206  22.888  1.00  0.00     0.067 H 
ATOM     30  C   UNL     1     -46.617  29.493  22.939  1.00  0.00     0.169 C 
ATOM     31  C   UNL     1     -47.885  29.661  22.102  1.00  0.00     0.173 C 
ATOM     32  H   UNL     1     -49.334  30.023  23.643  1.00  0.00     0.066 H 
ATOM     33  H   UNL     1     -45.742  29.606  22.291  1.00  0.00     0.088 H 
ATOM     34  F   UNL     1     -48.542  28.495  21.888  1.00  0.00    -0.239 F 
ATOM     35  H   UNL     1     -47.657  30.099  21.124  1.00  0.00     0.074 H 
BRANCH  28  36
ATOM     36  O   UNL     1     -49.612  31.385  22.132  1.00  0.00    -0.387 OA
ATOM     37  H   UNL     1     -49.281  32.302  22.147  1.00  0.00     0.211 HD
ENDBRANCH  28  36
BRANCH  30  38
ATOM     38  N   UNL     1     -46.482  28.245  23.673  1.00  0.00    -0.303 N 
ATOM     39  C   UNL     1     -45.520  27.279  23.484  1.00  0.00     0.009 A 
ATOM     40  C   UNL     1     -47.357  27.824  24.647  1.00  0.00     0.147 A 
ATOM     41  C   UNL     1     -45.804  26.220  24.320  1.00  0.00    -0.031 A 
ATOM     42  H   UNL     1     -44.725  27.407  22.763  1.00  0.00     0.082 H 
ATOM     43  C   UNL     1     -46.967  26.557  25.060  1.00  0.00     0.061 A 
ATOM     44  N   UNL     1     -48.413  28.518  25.109  1.00  0.00    -0.218 NA
ATOM     45  H   UNL     1     -45.241  25.299  24.379  1.00  0.00     0.065 H 
ATOM     46  C   UNL     1     -47.757  25.940  26.041  1.00  0.00     0.136 A 
ATOM     47  C   UNL     1     -49.093  27.825  26.039  1.00  0.00     0.120 A 
ATOM     48  N   UNL     1     -48.828  26.597  26.526  1.00  0.00    -0.219 NA
ATOM     49  H   UNL     1     -49.967  28.318  26.452  1.00  0.00     0.106 H 
BRANCH  46  50
ATOM     50  N   UNL     1     -47.493  24.679  26.563  1.00  0.00    -0.383 N 
ATOM     51  H   UNL     1     -46.911  24.104  25.969  1.00  0.00     0.158 HD
ATOM     52  H   UNL     1     -47.201  24.760  27.530  1.00  0.00     0.158 HD
ENDBRANCH  46  50
ENDBRANCH  30  38
ENDBRANCH   1  26
TORSDOF 8
ENDMDL
MODEL 6
REMARK VINA RESULT:      -8.8      2.510      3.479
REMARK SMILES CNc1ccc2ccc(OC[C@H]3O[C@@H](n4ccc5c(N)ncnc54)[C@@H](F)[C@@H]3O)cc2n1
REMARK SMILES IDX 11 1 10 4 9 5 3 6 4 7 31 8 5 9 30 11 6 12 29 14 7 15 8 17
REMARK SMILES IDX 2 20 1 22 12 26 13 27 27 28 14 30 25 31 26 34 28 36 15 38
REMARK SMILES IDX 16 39 24 40 17 41 18 43 23 44 19 46 22 47 21 48 20 50
REMARK H PARENT 11 2 11 3 4 10 5 13 29 16 7 18 8 19 2 21 1 23 1 24 1 25 12 29
REMARK H PARENT 27 32 14 33 25 35 28 37 16 42 17 45 22 49 20 51 20 52
REMARK Flexibility Score: inf
ROOT
ATOM      1  C   UNL     1     -47.836  34.722  26.616  1.00  0.00     0.117 C 
ATOM      2  H   UNL     1     -48.817  35.167  26.812  1.00  0.00     0.073 H 
ATOM      3  H   UNL     1     -47.709  34.737  25.527  1.00  0.00     0.073 H 
ENDROOT
BRANCH   1   4
ATOM      4  O   UNL     1     -47.805  33.336  26.972  1.00  0.00    -0.491 OA
BRANCH   4   5
ATOM      5  C   UNL     1     -47.723  32.391  25.989  1.00  0.00     0.121 A 
ATOM      6  C   UNL     1     -48.629  28.175  24.006  1.00  0.00     0.126 A 
ATOM      7  C   UNL     1     -47.701  28.380  22.995  1.00  0.00    -0.019 A 
ATOM      8  N   UNL     1     -48.905  29.106  24.935  1.00  0.00    -0.231 NA
ATOM      9  C   UNL     1     -47.006  29.583  22.956  1.00  0.00    -0.049 A 
ATOM     10  H   UNL     1     -47.529  27.620  22.241  1.00  0.00     0.066 H 
ATOM     11  C   UNL     1     -48.217  30.262  24.919  1.00  0.00     0.076 A 
ATOM     12  C   UNL     1     -47.248  30.549  23.937  1.00  0.00     0.001 A 
ATOM     13  H   UNL     1     -46.279  29.755  22.168  1.00  0.00     0.063 H 
ATOM     14  C   UNL     1     -48.446  31.200  25.919  1.00  0.00     0.007 A 
ATOM     15  C   UNL     1     -46.552  31.765  23.967  1.00  0.00    -0.049 A 
ATOM     16  H   UNL     1     -49.189  30.938  26.663  1.00  0.00     0.069 H 
ATOM     17  C   UNL     1     -46.790  32.678  24.993  1.00  0.00    -0.019 A 
ATOM     18  H   UNL     1     -45.810  32.000  23.208  1.00  0.00     0.063 H 
ATOM     19  H   UNL     1     -46.232  33.610  25.025  1.00  0.00     0.066 H 
BRANCH   6  20
ATOM     20  N   UNL     1     -49.351  26.980  24.112  1.00  0.00    -0.373 N 
ATOM     21  H   UNL     1     -50.313  27.283  23.952  1.00  0.00     0.161 HD
BRANCH  20  22
ATOM     22  C   UNL     1     -49.242  26.384  25.439  1.00  0.00     0.005 C 
ATOM     23  H   UNL     1     -50.205  25.994  25.781  1.00  0.00     0.045 H 
ATOM     24  H   UNL     1     -48.540  25.545  25.393  1.00  0.00     0.045 H 
ATOM     25  H   UNL     1     -48.852  27.096  26.173  1.00  0.00     0.045 H 
ENDBRANCH  20  22
ENDBRANCH   6  20
ENDBRANCH   4   5
ENDBRANCH   1   4
BRANCH   1  26
ATOM     26  C   UNL     1     -46.692  35.540  27.231  1.00  0.00     0.123 C 
ATOM     27  O   UNL     1     -46.511  36.791  26.552  1.00  0.00    -0.345 OA
ATOM     28  C   UNL     1     -46.866  35.888  28.703  1.00  0.00     0.119 C 
ATOM     29  H   UNL     1     -45.767  34.968  27.083  1.00  0.00     0.067 H 
ATOM     30  C   UNL     1     -45.930  37.726  27.493  1.00  0.00     0.169 C 
ATOM     31  C   UNL     1     -45.889  37.040  28.858  1.00  0.00     0.173 C 
ATOM     32  H   UNL     1     -47.875  36.230  28.957  1.00  0.00     0.066 H 
ATOM     33  H   UNL     1     -44.907  37.924  27.160  1.00  0.00     0.088 H 
ATOM     34  F   UNL     1     -46.269  37.850  29.875  1.00  0.00    -0.239 F 
ATOM     35  H   UNL     1     -44.882  36.672  29.085  1.00  0.00     0.074 H 
BRANCH  28  36
ATOM     36  O   UNL     1     -46.535  34.788  29.543  1.00  0.00    -0.387 OA
ATOM     37  H   UNL     1     -46.255  34.055  28.966  1.00  0.00     0.211 HD
ENDBRANCH  28  36
BRANCH  30  38
ATOM     38  N   UNL     1     -46.684  38.967  27.411  1.00  0.00    -0.303 N 
ATOM     39  C   UNL     1     -47.976  39.176  27.836  1.00  0.00     0.009 A 
ATOM     40  C   UNL     1     -46.211  40.120  26.827  1.00  0.00     0.147 A 
ATOM     41  C   UNL     1     -48.341  40.459  27.491  1.00  0.00    -0.031 A 
ATOM     42  H   UNL     1     -48.540  38.397  28.330  1.00  0.00     0.082 H 
ATOM     43  C   UNL     1     -47.229  41.065  26.851  1.00  0.00     0.061 A 
ATOM     44  N   UNL     1     -44.979  40.294  26.314  1.00  0.00    -0.218 NA
ATOM     45  H   UNL     1     -49.309  40.906  27.670  1.00  0.00     0.065 H 
ATOM     46  C   UNL     1     -46.948  42.311  26.273  1.00  0.00     0.136 A 
ATOM     47  C   UNL     1     -44.831  41.522  25.788  1.00  0.00     0.120 A 
ATOM     48  N   UNL     1     -45.729  42.526  25.742  1.00  0.00    -0.219 NA
ATOM     49  H   UNL     1     -43.864  41.734  25.344  1.00  0.00     0.106 H 
BRANCH  46  50
ATOM     50  N   UNL     1     -47.856  43.362  26.226  1.00  0.00    -0.383 N 
ATOM     51  H   UNL     1     -47.583  44.164  26.777  1.00  0.00     0.158 HD
ATOM     52  H   UNL     1     -48.117  43.549  25.265  1.00  0.00     0.158 HD
ENDBRANCH  46  50
ENDBRANCH  30  38
ENDBRANCH   1  26
TORSDOF 8
ENDMDL
MODEL 7
REMARK VINA RESULT:      -8.7      2.947     10.241
REMARK SMILES CNc1ccc2ccc(OC[C@H]3O[C@@H](n4ccc5c(N)ncnc54)[C@@H](F)[C@@H]3O)cc2n1
REMARK SMILES IDX 11 1 10 4 9 5 3 6 4 7 31 8 5 9 30 11 6 12 29 14 7 15 8 17
REMARK SMILES IDX 2 20 1 22 12 26 13 27 27 28 14 30 25 31 26 34 28 36 15 38
REMARK SMILES IDX 16 39 24 40 17 41 18 43 23 44 19 46 22 47 21 48 20 50
REMARK H PARENT 11 2 11 3 4 10 5 13 29 16 7 18 8 19 2 21 1 23 1 24 1 25 12 29
REMARK H PARENT 27 32 14 33 25 35 28 37 16 42 17 45 22 49 20 51 20 52
REMARK Flexibility Score: inf
ROOT
ATOM      1  C   UNL     1     -46.905  33.420  26.746  1.00  0.00     0.117 C 
ATOM      2  H   UNL     1     -46.573  32.532  27.294  1.00  0.00     0.073 H 
ATOM      3  H   UNL     1     -45.993  33.920  26.400  1.00  0.00     0.073 H 
ENDROOT
BRANCH   1   4
ATOM      4  O   UNL     1     -47.541  34.366  27.610  1.00  0.00    -0.491 OA
BRANCH   4   5
ATOM      5  C   UNL     1     -46.946  35.574  27.839  1.00  0.00     0.121 A 
ATOM      6  C   UNL     1     -45.492  39.933  26.649  1.00  0.00     0.126 A 
ATOM      7  C   UNL     1     -44.753  40.073  27.814  1.00  0.00    -0.019 A 
ATOM      8  N   UNL     1     -46.245  38.849  26.395  1.00  0.00    -0.231 NA
ATOM      9  C   UNL     1     -44.765  39.041  28.746  1.00  0.00    -0.049 A 
ATOM     10  H   UNL     1     -44.184  40.977  28.002  1.00  0.00     0.066 H 
ATOM     11  C   UNL     1     -46.240  37.835  27.279  1.00  0.00     0.076 A 
ATOM     12  C   UNL     1     -45.508  37.887  28.482  1.00  0.00     0.001 A 
ATOM     13  H   UNL     1     -44.191  39.142  29.662  1.00  0.00     0.063 H 
ATOM     14  C   UNL     1     -46.959  36.681  26.990  1.00  0.00     0.007 A 
ATOM     15  C   UNL     1     -45.529  36.801  29.368  1.00  0.00    -0.049 A 
ATOM     16  H   UNL     1     -47.499  36.674  26.049  1.00  0.00     0.069 H 
ATOM     17  C   UNL     1     -46.244  35.650  29.042  1.00  0.00    -0.019 A 
ATOM     18  H   UNL     1     -44.976  36.836  30.303  1.00  0.00     0.063 H 
ATOM     19  H   UNL     1     -46.239  34.802  29.722  1.00  0.00     0.066 H 
BRANCH   6  20
ATOM     20  N   UNL     1     -45.510  40.928  25.664  1.00  0.00    -0.373 N 
ATOM     21  H   UNL     1     -44.517  41.089  25.488  1.00  0.00     0.161 HD
BRANCH  20  22
ATOM     22  C   UNL     1     -46.127  42.162  26.137  1.00  0.00     0.005 C 
ATOM     23  H   UNL     1     -45.795  43.025  25.550  1.00  0.00     0.045 H 
ATOM     24  H   UNL     1     -47.213  42.081  26.024  1.00  0.00     0.045 H 
ATOM     25  H   UNL     1     -45.922  42.339  27.197  1.00  0.00     0.045 H 
ENDBRANCH  20  22
ENDBRANCH   6  20
ENDBRANCH   4   5
ENDBRANCH   1   4
BRANCH   1  26
ATOM     26  C   UNL     1     -47.739  33.061  25.508  1.00  0.00     0.123 C 
ATOM     27  O   UNL     1     -47.087  32.074  24.697  1.00  0.00    -0.345 OA
ATOM     28  C   UNL     1     -49.126  32.506  25.802  1.00  0.00     0.119 C 
ATOM     29  H   UNL     1     -47.816  33.967  24.893  1.00  0.00     0.067 H 
ATOM     30  C   UNL     1     -48.109  31.346  23.974  1.00  0.00     0.169 C 
ATOM     31  C   UNL     1     -49.466  31.829  24.486  1.00  0.00     0.173 C 
ATOM     32  H   UNL     1     -49.140  31.762  26.606  1.00  0.00     0.066 H 
ATOM     33  H   UNL     1     -48.008  31.613  22.918  1.00  0.00     0.088 H 
ATOM     34  F   UNL     1     -50.351  30.823  24.684  1.00  0.00    -0.239 F 
ATOM     35  H   UNL     1     -49.921  32.540  23.786  1.00  0.00     0.074 H 
BRANCH  28  36
ATOM     36  O   UNL     1     -50.047  33.541  26.126  1.00  0.00    -0.387 OA
ATOM     37  H   UNL     1     -49.717  33.982  26.930  1.00  0.00     0.211 HD
ENDBRANCH  28  36
BRANCH  30  38
ATOM     38  N   UNL     1     -47.829  29.926  24.114  1.00  0.00    -0.303 N 
ATOM     39  C   UNL     1     -48.556  29.011  24.841  1.00  0.00     0.009 A 
ATOM     40  C   UNL     1     -46.734  29.298  23.567  1.00  0.00     0.147 A 
ATOM     41  C   UNL     1     -47.901  27.799  24.785  1.00  0.00    -0.031 A 
ATOM     42  H   UNL     1     -49.464  29.292  25.355  1.00  0.00     0.082 H 
ATOM     43  C   UNL     1     -46.745  27.972  23.980  1.00  0.00     0.061 A 
ATOM     44  N   UNL     1     -45.809  29.875  22.778  1.00  0.00    -0.218 NA
ATOM     45  H   UNL     1     -48.216  26.892  25.282  1.00  0.00     0.065 H 
ATOM     46  C   UNL     1     -45.686  27.165  23.543  1.00  0.00     0.136 A 
ATOM     47  C   UNL     1     -44.846  29.005  22.428  1.00  0.00     0.120 A 
ATOM     48  N   UNL     1     -44.734  27.703  22.757  1.00  0.00    -0.219 NA
ATOM     49  H   UNL     1     -44.056  29.402  21.798  1.00  0.00     0.106 H 
BRANCH  46  50
ATOM     50  N   UNL     1     -45.559  25.818  23.863  1.00  0.00    -0.383 N 
ATOM     51  H   UNL     1     -44.995  25.294  23.208  1.00  0.00     0.158 HD
ATOM     52  H   UNL     1     -45.315  25.717  24.841  1.00  0.00     0.158 HD
ENDBRANCH  46  50
ENDBRANCH  30  38
ENDBRANCH   1  26
TORSDOF 8
ENDMDL
