MODEL 1
REMARK VINA RESULT:     -10.3      0.000      0.000
REMARK SMILES CCc1cc(N)c2ccc(OCc3cncc(-n4cc(C5CCCC5)c5c(N)ncnc54)c3)cc2n1
REMARK SMILES IDX 12 1 11 4 10 5 3 6 4 7 36 8 5 9 35 11 7 12 34 13 8 14 9 16
REMARK SMILES IDX 2 19 1 22 6 26 13 29 14 30 33 31 15 32 17 34 16 36 18 38
REMARK SMILES IDX 19 39 32 40 20 41 26 43 31 44 27 45 30 46 29 47 21 49 22 50
REMARK SMILES IDX 25 51 23 53 24 56 28 63
REMARK H PARENT 12 2 12 3 4 10 34 15 8 17 9 18 2 20 2 21 1 23 1 24 1 25 6 27
REMARK H PARENT 6 28 14 33 33 35 16 37 19 42 30 48 21 52 22 54 22 55 25 57
REMARK H PARENT 25 58 23 59 23 60 24 61 24 62 28 64 28 65
REMARK Flexibility Score: inf
ROOT
ATOM      1  C   UNL     1     -46.738  34.490  27.141  1.00  0.00     0.115 C 
ATOM      2  H   UNL     1     -46.197  34.041  27.984  1.00  0.00     0.076 H 
ATOM      3  H   UNL     1     -46.067  34.424  26.276  1.00  0.00     0.076 H 
ENDROOT
BRANCH   1   4
ATOM      4  O   UNL     1     -47.893  33.716  26.802  1.00  0.00    -0.489 OA
BRANCH   4   5
ATOM      5  C   UNL     1     -47.748  32.667  25.937  1.00  0.00     0.122 A 
ATOM      6  C   UNL     1     -48.930  28.449  24.098  1.00  0.00     0.043 A 
ATOM      7  C   UNL     1     -47.958  28.518  23.111  1.00  0.00    -0.017 A 
ATOM      8  N   UNL     1     -49.086  29.414  25.030  1.00  0.00    -0.253 NA
ATOM      9  C   UNL     1     -47.072  29.595  23.097  1.00  0.00     0.043 A 
ATOM     10  H   UNL     1     -47.888  27.734  22.364  1.00  0.00     0.066 H 
ATOM     11  C   UNL     1     -48.293  30.495  24.982  1.00  0.00     0.076 A 
ATOM     12  C   UNL     1     -47.273  30.654  24.017  1.00  0.00     0.023 A 
ATOM     13  C   UNL     1     -48.507  31.497  25.921  1.00  0.00     0.007 A 
ATOM     14  C   UNL     1     -46.521  31.850  24.026  1.00  0.00    -0.047 A 
ATOM     15  H   UNL     1     -49.313  31.333  26.631  1.00  0.00     0.069 H 
ATOM     16  C   UNL     1     -46.759  32.842  24.976  1.00  0.00    -0.019 A 
ATOM     17  H   UNL     1     -45.748  32.026  23.284  1.00  0.00     0.063 H 
ATOM     18  H   UNL     1     -46.170  33.756  24.963  1.00  0.00     0.066 H 
BRANCH   6  19
ATOM     19  C   UNL     1     -49.896  27.295  24.145  1.00  0.00    -0.013 C 
ATOM     20  H   UNL     1     -50.917  27.668  24.282  1.00  0.00     0.033 H 
ATOM     21  H   UNL     1     -49.882  26.775  23.179  1.00  0.00     0.033 H 
BRANCH  19  22
ATOM     22  C   UNL     1     -49.544  26.314  25.252  1.00  0.00    -0.060 C 
ATOM     23  H   UNL     1     -50.364  26.214  25.970  1.00  0.00     0.023 H 
ATOM     24  H   UNL     1     -49.339  25.325  24.830  1.00  0.00     0.023 H 
ATOM     25  H   UNL     1     -48.655  26.640  25.802  1.00  0.00     0.023 H 
ENDBRANCH  19  22
ENDBRANCH   6  19
BRANCH   9  26
ATOM     26  N   UNL     1     -46.146  29.684  22.036  1.00  0.00    -0.398 N 
ATOM     27  H   UNL     1     -46.270  28.967  21.328  1.00  0.00     0.156 HD
ATOM     28  H   UNL     1     -45.180  29.737  22.342  1.00  0.00     0.156 HD
ENDBRANCH   9  26
ENDBRANCH   4   5
ENDBRANCH   1   4
BRANCH   1  29
ATOM     29  C   UNL     1     -47.030  35.951  27.373  1.00  0.00     0.010 A 
ATOM     30  C   UNL     1     -48.332  36.357  27.630  1.00  0.00     0.034 A 
ATOM     31  C   UNL     1     -46.033  36.936  27.391  1.00  0.00    -0.028 A 
ATOM     32  N   UNL     1     -48.688  37.634  27.877  1.00  0.00    -0.262 NA
ATOM     33  H   UNL     1     -49.156  35.648  27.647  1.00  0.00     0.084 H 
ATOM     34  C   UNL     1     -46.361  38.280  27.632  1.00  0.00     0.066 A 
ATOM     35  H   UNL     1     -45.007  36.624  27.231  1.00  0.00     0.065 H 
ATOM     36  C   UNL     1     -47.700  38.566  27.870  1.00  0.00     0.051 A 
ATOM     37  H   UNL     1     -48.074  39.568  28.045  1.00  0.00     0.086 H 
BRANCH  34  38
ATOM     38  N   UNL     1     -45.357  39.298  27.620  1.00  0.00    -0.299 N 
ATOM     39  C   UNL     1     -45.224  40.269  26.640  1.00  0.00     0.015 A 
ATOM     40  C   UNL     1     -44.347  39.522  28.553  1.00  0.00     0.150 A 
ATOM     41  C   UNL     1     -44.167  41.112  26.928  1.00  0.00    -0.013 A 
ATOM     42  H   UNL     1     -45.920  40.322  25.815  1.00  0.00     0.083 H 
ATOM     43  C   UNL     1     -43.589  40.619  28.142  1.00  0.00     0.065 A 
ATOM     44  N   UNL     1     -44.108  38.789  29.660  1.00  0.00    -0.218 NA
ATOM     45  C   UNL     1     -42.503  40.975  28.964  1.00  0.00     0.136 A 
ATOM     46  C   UNL     1     -43.061  39.232  30.363  1.00  0.00     0.120 A 
ATOM     47  N   UNL     1     -42.256  40.265  30.078  1.00  0.00    -0.219 NA
ATOM     48  H   UNL     1     -42.831  38.686  31.273  1.00  0.00     0.106 H 
BRANCH  41  49
ATOM     49  C   UNL     1     -43.713  42.315  26.138  1.00  0.00    -0.014 C 
ATOM     50  C   UNL     1     -43.911  43.666  26.837  1.00  0.00    -0.046 C 
ATOM     51  C   UNL     1     -44.501  42.495  24.838  1.00  0.00    -0.046 C 
ATOM     52  H   UNL     1     -42.645  42.193  25.921  1.00  0.00     0.035 H 
ATOM     53  C   UNL     1     -45.280  44.186  26.393  1.00  0.00    -0.053 C 
ATOM     54  H   UNL     1     -43.822  43.619  27.927  1.00  0.00     0.027 H 
ATOM     55  H   UNL     1     -43.144  44.368  26.485  1.00  0.00     0.027 H 
ATOM     56  C   UNL     1     -45.737  43.284  25.250  1.00  0.00    -0.053 C 
ATOM     57  H   UNL     1     -44.766  41.553  24.348  1.00  0.00     0.027 H 
ATOM     58  H   UNL     1     -43.912  43.090  24.128  1.00  0.00     0.027 H 
ATOM     59  H   UNL     1     -45.202  45.227  26.064  1.00  0.00     0.027 H 
ATOM     60  H   UNL     1     -46.003  44.159  27.216  1.00  0.00     0.027 H 
ATOM     61  H   UNL     1     -46.521  42.603  25.603  1.00  0.00     0.027 H 
ATOM     62  H   UNL     1     -46.154  43.857  24.416  1.00  0.00     0.027 H 
ENDBRANCH  41  49
BRANCH  45  63
ATOM     63  N   UNL     1     -41.618  42.012  28.694  1.00  0.00    -0.383 N 
ATOM     64  H   UNL     1     -41.122  42.352  29.505  1.00  0.00     0.158 HD
ATOM     65  H   UNL     1     -42.090  42.723  28.146  1.00  0.00     0.158 HD
ENDBRANCH  45  63
ENDBRANCH  34  38
ENDBRANCH   1  29
TORSDOF 9
ENDMDL
MODEL 2
REMARK VINA RESULT:     -10.1      2.120     11.970
REMARK SMILES CCc1cc(N)c2ccc(OCc3cncc(-n4cc(C5CCCC5)c5c(N)ncnc54)c3)cc2n1
REMARK SMILES IDX 12 1 11 4 10 5 3 6 4 7 36 8 5 9 35 11 7 12 34 13 8 14 9 16
REMARK SMILES IDX 2 19 1 22 6 26 13 29 14 30 33 31 15 32 17 34 16 36 18 38
REMARK SMILES IDX 19 39 32 40 20 41 26 43 31 44 27 45 30 46 29 47 21 49 22 50
REMARK SMILES IDX 25 51 23 53 24 56 28 63
REMARK H PARENT 12 2 12 3 4 10 34 15 8 17 9 18 2 20 2 21 1 23 1 24 1 25 6 27
REMARK H PARENT 6 28 14 33 33 35 16 37 19 42 30 48 21 52 22 54 22 55 25 57
REMARK H PARENT 25 58 23 59 23 60 24 61 24 62 28 64 28 65
REMARK Flexibility Score: inf
ROOT
ATOM      1  C   UNL     1     -48.541  35.561  27.309  1.00  0.00     0.115 C 
ATOM      2  H   UNL     1     -49.499  35.247  27.743  1.00  0.00     0.076 H 
ATOM      3  H   UNL     1     -48.768  36.401  26.640  1.00  0.00     0.076 H 
ENDROOT
BRANCH   1   4
ATOM      4  O   UNL     1     -47.670  36.085  28.317  1.00  0.00    -0.489 OA
BRANCH   4   5
ATOM      5  C   UNL     1     -46.935  37.202  28.031  1.00  0.00     0.122 A 
ATOM      6  C   UNL     1     -43.432  40.322  28.784  1.00  0.00     0.043 A 
ATOM      7  C   UNL     1     -43.719  41.042  27.634  1.00  0.00    -0.017 A 
ATOM      8  N   UNL     1     -44.159  39.249  29.168  1.00  0.00    -0.253 NA
ATOM      9  C   UNL     1     -44.824  40.686  26.861  1.00  0.00     0.043 A 
ATOM     10  H   UNL     1     -43.090  41.879  27.348  1.00  0.00     0.066 H 
ATOM     11  C   UNL     1     -45.177  38.846  28.392  1.00  0.00     0.076 A 
ATOM     12  C   UNL     1     -45.547  39.517  27.206  1.00  0.00     0.023 A 
ATOM     13  C   UNL     1     -45.876  37.711  28.782  1.00  0.00     0.007 A 
ATOM     14  C   UNL     1     -46.607  38.986  26.437  1.00  0.00    -0.047 A 
ATOM     15  H   UNL     1     -45.542  37.223  29.694  1.00  0.00     0.069 H 
ATOM     16  C   UNL     1     -47.290  37.842  26.848  1.00  0.00    -0.019 A 
ATOM     17  H   UNL     1     -46.905  39.452  25.503  1.00  0.00     0.063 H 
ATOM     18  H   UNL     1     -48.102  37.449  26.240  1.00  0.00     0.066 H 
BRANCH   6  19
ATOM     19  C   UNL     1     -42.251  40.686  29.644  1.00  0.00    -0.013 C 
ATOM     20  H   UNL     1     -42.585  41.269  30.510  1.00  0.00     0.033 H 
ATOM     21  H   UNL     1     -41.799  39.770  30.041  1.00  0.00     0.033 H 
BRANCH  19  22
ATOM     22  C   UNL     1     -41.207  41.466  28.860  1.00  0.00    -0.060 C 
ATOM     23  H   UNL     1     -40.220  41.389  29.326  1.00  0.00     0.023 H 
ATOM     24  H   UNL     1     -41.132  41.076  27.840  1.00  0.00     0.023 H 
ATOM     25  H   UNL     1     -41.468  42.528  28.800  1.00  0.00     0.023 H 
ENDBRANCH  19  22
ENDBRANCH   6  19
BRANCH   9  26
ATOM     26  N   UNL     1     -45.047  41.382  25.654  1.00  0.00    -0.398 N 
ATOM     27  H   UNL     1     -45.228  40.772  24.862  1.00  0.00     0.156 HD
ATOM     28  H   UNL     1     -44.327  42.063  25.438  1.00  0.00     0.156 HD
ENDBRANCH   9  26
ENDBRANCH   4   5
ENDBRANCH   1   4
BRANCH   1  29
ATOM     29  C   UNL     1     -47.919  34.474  26.470  1.00  0.00     0.010 A 
ATOM     30  C   UNL     1     -46.615  34.620  26.017  1.00  0.00     0.034 A 
ATOM     31  C   UNL     1     -48.580  33.279  26.156  1.00  0.00    -0.028 A 
ATOM     32  N   UNL     1     -45.963  33.693  25.286  1.00  0.00    -0.262 NA
ATOM     33  H   UNL     1     -46.034  35.513  26.234  1.00  0.00     0.084 H 
ATOM     34  C   UNL     1     -47.943  32.292  25.387  1.00  0.00     0.066 A 
ATOM     35  H   UNL     1     -49.585  33.137  26.539  1.00  0.00     0.065 H 
ATOM     36  C   UNL     1     -46.639  32.554  24.984  1.00  0.00     0.051 A 
ATOM     37  H   UNL     1     -46.057  31.878  24.369  1.00  0.00     0.086 H 
BRANCH  34  38
ATOM     38  N   UNL     1     -48.619  31.083  25.031  1.00  0.00    -0.299 N 
ATOM     39  C   UNL     1     -48.483  29.873  25.693  1.00  0.00     0.015 A 
ATOM     40  C   UNL     1     -49.522  30.876  23.989  1.00  0.00     0.150 A 
ATOM     41  C   UNL     1     -49.282  28.905  25.112  1.00  0.00    -0.013 A 
ATOM     42  H   UNL     1     -47.852  29.788  26.565  1.00  0.00     0.083 H 
ATOM     43  C   UNL     1     -49.930  29.543  24.005  1.00  0.00     0.065 A 
ATOM     44  N   UNL     1     -49.921  31.796  23.087  1.00  0.00    -0.218 NA
ATOM     45  C   UNL     1     -50.833  29.150  22.999  1.00  0.00     0.136 A 
ATOM     46  C   UNL     1     -50.787  31.308  22.193  1.00  0.00     0.120 A 
ATOM     47  N   UNL     1     -51.253  30.055  22.098  1.00  0.00    -0.219 NA
ATOM     48  H   UNL     1     -51.153  32.010  21.449  1.00  0.00     0.106 H 
BRANCH  41  49
ATOM     49  C   UNL     1     -49.452  27.472  25.553  1.00  0.00    -0.014 C 
ATOM     50  C   UNL     1     -48.887  27.147  26.942  1.00  0.00    -0.046 C 
ATOM     51  C   UNL     1     -48.703  26.489  24.651  1.00  0.00    -0.046 C 
ATOM     52  H   UNL     1     -50.524  27.245  25.556  1.00  0.00     0.035 H 
ATOM     53  C   UNL     1     -47.452  26.662  26.721  1.00  0.00    -0.053 C 
ATOM     54  H   UNL     1     -48.935  27.982  27.647  1.00  0.00     0.027 H 
ATOM     55  H   UNL     1     -49.466  26.325  27.381  1.00  0.00     0.027 H 
ATOM     56  C   UNL     1     -47.290  26.452  25.218  1.00  0.00    -0.053 C 
ATOM     57  H   UNL     1     -48.709  26.767  23.592  1.00  0.00     0.027 H 
ATOM     58  H   UNL     1     -49.154  25.492  24.738  1.00  0.00     0.027 H 
ATOM     59  H   UNL     1     -47.278  25.730  27.269  1.00  0.00     0.027 H 
ATOM     60  H   UNL     1     -46.722  27.393  27.087  1.00  0.00     0.027 H 
ATOM     61  H   UNL     1     -46.690  27.263  24.791  1.00  0.00     0.027 H 
ATOM     62  H   UNL     1     -46.780  25.512  24.987  1.00  0.00     0.027 H 
ENDBRANCH  41  49
BRANCH  45  63
ATOM     63  N   UNL     1     -51.318  27.858  22.835  1.00  0.00    -0.383 N 
ATOM     64  H   UNL     1     -50.654  27.217  22.425  1.00  0.00     0.158 HD
ATOM     65  H   UNL     1     -52.223  27.893  22.380  1.00  0.00     0.158 HD
ENDBRANCH  45  63
ENDBRANCH  34  38
ENDBRANCH   1  29
TORSDOF 9
ENDMDL
MODEL 3
REMARK VINA RESULT:     -10.0      1.732      2.958
REMARK SMILES CCc1cc(N)c2ccc(OCc3cncc(-n4cc(C5CCCC5)c5c(N)ncnc54)c3)cc2n1
REMARK SMILES IDX 12 1 11 4 10 5 3 6 4 7 36 8 5 9 35 11 7 12 34 13 8 14 9 16
REMARK SMILES IDX 2 19 1 22 6 26 13 29 14 30 33 31 15 32 17 34 16 36 18 38
REMARK SMILES IDX 19 39 32 40 20 41 26 43 31 44 27 45 30 46 29 47 21 49 22 50
REMARK SMILES IDX 25 51 23 53 24 56 28 63
REMARK H PARENT 12 2 12 3 4 10 34 15 8 17 9 18 2 20 2 21 1 23 1 24 1 25 6 27
REMARK H PARENT 6 28 14 33 33 35 16 37 19 42 30 48 21 52 22 54 22 55 25 57
REMARK H PARENT 25 58 23 59 23 60 24 61 24 62 28 64 28 65
REMARK Flexibility Score: inf
ROOT
ATOM      1  C   UNL     1     -48.324  35.367  26.727  1.00  0.00     0.115 C 
ATOM      2  H   UNL     1     -48.185  35.484  25.645  1.00  0.00     0.076 H 
ATOM      3  H   UNL     1     -49.333  35.737  26.948  1.00  0.00     0.076 H 
ENDROOT
BRANCH   1   4
ATOM      4  O   UNL     1     -48.323  33.984  27.097  1.00  0.00    -0.489 OA
BRANCH   4   5
ATOM      5  C   UNL     1     -47.906  33.060  26.180  1.00  0.00     0.122 A 
ATOM      6  C   UNL     1     -48.203  28.951  23.815  1.00  0.00     0.043 A 
ATOM      7  C   UNL     1     -47.113  29.245  23.008  1.00  0.00    -0.017 A 
ATOM      8  N   UNL     1     -48.629  29.784  24.789  1.00  0.00    -0.253 NA
ATOM      9  C   UNL     1     -46.393  30.418  23.232  1.00  0.00     0.043 A 
ATOM     10  H   UNL     1     -46.824  28.561  22.217  1.00  0.00     0.066 H 
ATOM     11  C   UNL     1     -47.995  30.953  24.964  1.00  0.00     0.076 A 
ATOM     12  C   UNL     1     -46.874  31.339  24.196  1.00  0.00     0.023 A 
ATOM     13  C   UNL     1     -48.485  31.814  25.939  1.00  0.00     0.007 A 
ATOM     14  C   UNL     1     -46.305  32.611  24.430  1.00  0.00    -0.047 A 
ATOM     15  H   UNL     1     -49.357  31.478  26.491  1.00  0.00     0.069 H 
ATOM     16  C   UNL     1     -46.818  33.458  25.411  1.00  0.00    -0.019 A 
ATOM     17  H   UNL     1     -45.462  32.960  23.841  1.00  0.00     0.063 H 
ATOM     18  H   UNL     1     -46.366  34.434  25.573  1.00  0.00     0.066 H 
BRANCH   6  19
ATOM     19  C   UNL     1     -48.996  27.689  23.603  1.00  0.00    -0.013 C 
ATOM     20  H   UNL     1     -49.932  27.919  23.082  1.00  0.00     0.033 H 
ATOM     21  H   UNL     1     -48.432  27.016  22.946  1.00  0.00     0.033 H 
BRANCH  19  22
ATOM     22  C   UNL     1     -49.288  26.984  24.918  1.00  0.00    -0.060 C 
ATOM     23  H   UNL     1     -49.460  25.913  24.766  1.00  0.00     0.023 H 
ATOM     24  H   UNL     1     -48.442  27.097  25.604  1.00  0.00     0.023 H 
ATOM     25  H   UNL     1     -50.177  27.401  25.403  1.00  0.00     0.023 H 
ENDBRANCH  19  22
ENDBRANCH   6  19
BRANCH   9  26
ATOM     26  N   UNL     1     -45.340  30.734  22.348  1.00  0.00    -0.398 N 
ATOM     27  H   UNL     1     -45.604  31.394  21.622  1.00  0.00     0.156 HD
ATOM     28  H   UNL     1     -44.878  29.920  21.956  1.00  0.00     0.156 HD
ENDBRANCH   9  26
ENDBRANCH   4   5
ENDBRANCH   1   4
BRANCH   1  29
ATOM     29  C   UNL     1     -47.353  36.210  27.514  1.00  0.00     0.010 A 
ATOM     30  C   UNL     1     -46.794  35.704  28.680  1.00  0.00     0.034 A 
ATOM     31  C   UNL     1     -46.937  37.483  27.102  1.00  0.00    -0.028 A 
ATOM     32  N   UNL     1     -45.898  36.368  29.436  1.00  0.00    -0.262 NA
ATOM     33  H   UNL     1     -47.057  34.717  29.054  1.00  0.00     0.084 H 
ATOM     34  C   UNL     1     -46.015  38.215  27.866  1.00  0.00     0.066 A 
ATOM     35  H   UNL     1     -47.337  37.872  26.171  1.00  0.00     0.065 H 
ATOM     36  C   UNL     1     -45.531  37.607  29.017  1.00  0.00     0.051 A 
ATOM     37  H   UNL     1     -44.833  38.084  29.696  1.00  0.00     0.086 H 
BRANCH  34  38
ATOM     38  N   UNL     1     -45.609  39.529  27.473  1.00  0.00    -0.299 N 
ATOM     39  C   UNL     1     -44.311  40.012  27.538  1.00  0.00     0.015 A 
ATOM     40  C   UNL     1     -46.399  40.556  26.960  1.00  0.00     0.150 A 
ATOM     41  C   UNL     1     -44.249  41.311  27.070  1.00  0.00    -0.013 A 
ATOM     42  H   UNL     1     -43.503  39.381  27.878  1.00  0.00     0.083 H 
ATOM     43  C   UNL     1     -45.592  41.669  26.722  1.00  0.00     0.065 A 
ATOM     44  N   UNL     1     -47.731  40.509  26.753  1.00  0.00    -0.218 NA
ATOM     45  C   UNL     1     -46.236  42.816  26.220  1.00  0.00     0.136 A 
ATOM     46  C   UNL     1     -48.224  41.651  26.263  1.00  0.00     0.120 A 
ATOM     47  N   UNL     1     -47.561  42.785  25.994  1.00  0.00    -0.219 NA
ATOM     48  H   UNL     1     -49.291  41.666  26.063  1.00  0.00     0.106 H 
BRANCH  41  49
ATOM     49  C   UNL     1     -43.022  42.180  26.938  1.00  0.00    -0.014 C 
ATOM     50  C   UNL     1     -41.687  41.424  26.934  1.00  0.00    -0.046 C 
ATOM     51  C   UNL     1     -42.856  43.142  28.117  1.00  0.00    -0.046 C 
ATOM     52  H   UNL     1     -43.105  42.740  25.999  1.00  0.00     0.035 H 
ATOM     53  C   UNL     1     -41.211  41.380  28.388  1.00  0.00    -0.053 C 
ATOM     54  H   UNL     1     -41.744  40.426  26.489  1.00  0.00     0.027 H 
ATOM     55  H   UNL     1     -40.955  41.994  26.347  1.00  0.00     0.027 H 
ATOM     56  C   UNL     1     -42.116  42.328  29.170  1.00  0.00    -0.053 C 
ATOM     57  H   UNL     1     -43.801  43.539  28.501  1.00  0.00     0.027 H 
ATOM     58  H   UNL     1     -42.233  43.993  27.813  1.00  0.00     0.027 H 
ATOM     59  H   UNL     1     -40.164  41.693  28.454  1.00  0.00     0.027 H 
ATOM     60  H   UNL     1     -41.273  40.366  28.798  1.00  0.00     0.027 H 
ATOM     61  H   UNL     1     -42.828  41.752  29.772  1.00  0.00     0.027 H 
ATOM     62  H   UNL     1     -41.549  42.965  29.856  1.00  0.00     0.027 H 
ENDBRANCH  41  49
BRANCH  45  63
ATOM     63  N   UNL     1     -45.602  44.025  25.959  1.00  0.00    -0.383 N 
ATOM     64  H   UNL     1     -45.187  44.083  25.040  1.00  0.00     0.158 HD
ATOM     65  H   UNL     1     -44.982  44.253  26.729  1.00  0.00     0.158 HD
ENDBRANCH  45  63
ENDBRANCH  34  38
ENDBRANCH   1  29
TORSDOF 9
ENDMDL
MODEL 4
REMARK VINA RESULT:      -9.9      2.380     11.305
REMARK SMILES CCc1cc(N)c2ccc(OCc3cncc(-n4cc(C5CCCC5)c5c(N)ncnc54)c3)cc2n1
REMARK SMILES IDX 12 1 11 4 10 5 3 6 4 7 36 8 5 9 35 11 7 12 34 13 8 14 9 16
REMARK SMILES IDX 2 19 1 22 6 26 13 29 14 30 33 31 15 32 17 34 16 36 18 38
REMARK SMILES IDX 19 39 32 40 20 41 26 43 31 44 27 45 30 46 29 47 21 49 22 50
REMARK SMILES IDX 25 51 23 53 24 56 28 63
REMARK H PARENT 12 2 12 3 4 10 34 15 8 17 9 18 2 20 2 21 1 23 1 24 1 25 6 27
REMARK H PARENT 6 28 14 33 33 35 16 37 19 42 30 48 21 52 22 54 22 55 25 57
REMARK H PARENT 25 58 23 59 23 60 24 61 24 62 28 64 28 65
REMARK Flexibility Score: inf
ROOT
ATOM      1  C   UNL     1     -47.629  36.623  27.523  1.00  0.00     0.115 C 
ATOM      2  H   UNL     1     -47.418  36.921  28.558  1.00  0.00     0.076 H 
ATOM      3  H   UNL     1     -48.712  36.734  27.388  1.00  0.00     0.076 H 
ENDROOT
BRANCH   1   4
ATOM      4  O   UNL     1     -47.022  37.527  26.595  1.00  0.00    -0.489 OA
BRANCH   4   5
ATOM      5  C   UNL     1     -46.050  38.376  27.047  1.00  0.00     0.122 A 
ATOM      6  C   UNL     1     -43.443  42.345  26.918  1.00  0.00     0.043 A 
ATOM      7  C   UNL     1     -42.770  42.035  28.090  1.00  0.00    -0.017 A 
ATOM      8  N   UNL     1     -44.367  41.523  26.373  1.00  0.00    -0.253 NA
ATOM      9  C   UNL     1     -43.009  40.812  28.714  1.00  0.00     0.043 A 
ATOM     10  H   UNL     1     -42.058  42.739  28.508  1.00  0.00     0.066 H 
ATOM     11  C   UNL     1     -44.666  40.377  27.005  1.00  0.00     0.076 A 
ATOM     12  C   UNL     1     -44.031  39.974  28.201  1.00  0.00     0.023 A 
ATOM     13  C   UNL     1     -45.655  39.573  26.452  1.00  0.00     0.007 A 
ATOM     14  C   UNL     1     -44.449  38.770  28.811  1.00  0.00    -0.047 A 
ATOM     15  H   UNL     1     -46.122  39.935  25.541  1.00  0.00     0.069 H 
ATOM     16  C   UNL     1     -45.448  37.983  28.237  1.00  0.00    -0.019 A 
ATOM     17  H   UNL     1     -44.010  38.438  29.746  1.00  0.00     0.063 H 
ATOM     18  H   UNL     1     -45.756  37.062  28.724  1.00  0.00     0.066 H 
BRANCH   6  19
ATOM     19  C   UNL     1     -43.201  43.655  26.216  1.00  0.00    -0.013 C 
ATOM     20  H   UNL     1     -42.413  44.215  26.733  1.00  0.00     0.033 H 
ATOM     21  H   UNL     1     -42.829  43.457  25.204  1.00  0.00     0.033 H 
BRANCH  19  22
ATOM     22  C   UNL     1     -44.469  44.490  26.135  1.00  0.00    -0.060 C 
ATOM     23  H   UNL     1     -44.275  45.464  25.674  1.00  0.00     0.023 H 
ATOM     24  H   UNL     1     -45.223  43.974  25.532  1.00  0.00     0.023 H 
ATOM     25  H   UNL     1     -44.891  44.668  27.129  1.00  0.00     0.023 H 
ENDBRANCH  19  22
ENDBRANCH   6  19
BRANCH   9  26
ATOM     26  N   UNL     1     -42.373  40.555  29.947  1.00  0.00    -0.398 N 
ATOM     27  H   UNL     1     -42.468  41.312  30.618  1.00  0.00     0.156 HD
ATOM     28  H   UNL     1     -41.405  40.264  29.854  1.00  0.00     0.156 HD
ENDBRANCH   9  26
ENDBRANCH   4   5
ENDBRANCH   1   4
BRANCH   1  29
ATOM     29  C   UNL     1     -47.292  35.175  27.273  1.00  0.00     0.010 A 
ATOM     30  C   UNL     1     -46.420  34.517  28.131  1.00  0.00     0.034 A 
ATOM     31  C   UNL     1     -47.857  34.426  26.232  1.00  0.00    -0.028 A 
ATOM     32  N   UNL     1     -46.078  33.218  28.008  1.00  0.00    -0.262 NA
ATOM     33  H   UNL     1     -45.954  35.028  28.970  1.00  0.00     0.084 H 
ATOM     34  C   UNL     1     -47.520  33.074  26.060  1.00  0.00     0.066 A 
ATOM     35  H   UNL     1     -48.570  34.919  25.581  1.00  0.00     0.065 H 
ATOM     36  C   UNL     1     -46.631  32.528  26.977  1.00  0.00     0.051 A 
ATOM     37  H   UNL     1     -46.281  31.503  26.931  1.00  0.00     0.086 H 
BRANCH  34  38
ATOM     38  N   UNL     1     -48.064  32.310  24.981  1.00  0.00    -0.299 N 
ATOM     39  C   UNL     1     -49.417  32.124  24.742  1.00  0.00     0.015 A 
ATOM     40  C   UNL     1     -47.378  31.622  23.982  1.00  0.00     0.150 A 
ATOM     41  C   UNL     1     -49.612  31.350  23.614  1.00  0.00    -0.013 A 
ATOM     42  H   UNL     1     -50.159  32.592  25.373  1.00  0.00     0.083 H 
ATOM     43  C   UNL     1     -48.304  31.007  23.140  1.00  0.00     0.065 A 
ATOM     44  N   UNL     1     -46.038  31.530  23.854  1.00  0.00    -0.218 NA
ATOM     45  C   UNL     1     -47.780  30.245  22.079  1.00  0.00     0.136 A 
ATOM     46  C   UNL     1     -45.663  30.792  22.805  1.00  0.00     0.120 A 
ATOM     47  N   UNL     1     -46.448  30.151  21.927  1.00  0.00    -0.219 NA
ATOM     48  H   UNL     1     -44.593  30.694  22.646  1.00  0.00     0.106 H 
BRANCH  41  49
ATOM     49  C   UNL     1     -50.929  30.950  22.994  1.00  0.00    -0.014 C 
ATOM     50  C   UNL     1     -51.244  31.616  21.648  1.00  0.00    -0.046 C 
ATOM     51  C   UNL     1     -52.129  31.355  23.854  1.00  0.00    -0.046 C 
ATOM     52  H   UNL     1     -50.916  29.864  22.846  1.00  0.00     0.035 H 
ATOM     53  C   UNL     1     -52.047  32.879  21.969  1.00  0.00    -0.053 C 
ATOM     54  H   UNL     1     -50.358  31.834  21.043  1.00  0.00     0.027 H 
ATOM     55  H   UNL     1     -51.877  30.945  21.055  1.00  0.00     0.027 H 
ATOM     56  C   UNL     1     -52.421  32.793  23.446  1.00  0.00    -0.053 C 
ATOM     57  H   UNL     1     -51.951  31.266  24.930  1.00  0.00     0.027 H 
ATOM     58  H   UNL     1     -52.992  30.725  23.602  1.00  0.00     0.027 H 
ATOM     59  H   UNL     1     -52.941  32.929  21.340  1.00  0.00     0.027 H 
ATOM     60  H   UNL     1     -51.462  33.785  21.773  1.00  0.00     0.027 H 
ATOM     61  H   UNL     1     -51.801  33.485  24.028  1.00  0.00     0.027 H 
ATOM     62  H   UNL     1     -53.466  33.065  23.622  1.00  0.00     0.027 H 
ENDBRANCH  41  49
BRANCH  45  63
ATOM     63  N   UNL     1     -48.549  29.533  21.165  1.00  0.00    -0.383 N 
ATOM     64  H   UNL     1     -48.767  30.044  20.323  1.00  0.00     0.158 HD
ATOM     65  H   UNL     1     -49.346  29.125  21.642  1.00  0.00     0.158 HD
ENDBRANCH  45  63
ENDBRANCH  34  38
ENDBRANCH   1  29
TORSDOF 9
ENDMDL
MODEL 5
REMARK VINA RESULT:      -9.7      2.085     12.012
REMARK SMILES CCc1cc(N)c2ccc(OCc3cncc(-n4cc(C5CCCC5)c5c(N)ncnc54)c3)cc2n1
REMARK SMILES IDX 12 1 11 4 10 5 3 6 4 7 36 8 5 9 35 11 7 12 34 13 8 14 9 16
REMARK SMILES IDX 2 19 1 22 6 26 13 29 14 30 33 31 15 32 17 34 16 36 18 38
REMARK SMILES IDX 19 39 32 40 20 41 26 43 31 44 27 45 30 46 29 47 21 49 22 50
REMARK SMILES IDX 25 51 23 53 24 56 28 63
REMARK H PARENT 12 2 12 3 4 10 34 15 8 17 9 18 2 20 2 21 1 23 1 24 1 25 6 27
REMARK H PARENT 6 28 14 33 33 35 16 37 19 42 30 48 21 52 22 54 22 55 25 57
REMARK H PARENT 25 58 23 59 23 60 24 61 24 62 28 64 28 65
REMARK Flexibility Score: inf
ROOT
ATOM      1  C   UNL     1     -48.671  34.991  26.964  1.00  0.00     0.115 C 
ATOM      2  H   UNL     1     -49.734  34.762  27.110  1.00  0.00     0.076 H 
ATOM      3  H   UNL     1     -48.635  35.938  26.411  1.00  0.00     0.076 H 
ENDROOT
BRANCH   1   4
ATOM      4  O   UNL     1     -48.024  35.243  28.216  1.00  0.00    -0.489 OA
BRANCH   4   5
ATOM      5  C   UNL     1     -47.119  36.264  28.292  1.00  0.00     0.122 A 
ATOM      6  C   UNL     1     -45.008  40.228  26.743  1.00  0.00     0.043 A 
ATOM      7  C   UNL     1     -44.199  40.331  27.866  1.00  0.00    -0.017 A 
ATOM      8  N   UNL     1     -45.876  39.209  26.566  1.00  0.00    -0.253 NA
ATOM      9  C   UNL     1     -44.240  39.327  28.832  1.00  0.00     0.043 A 
ATOM     10  H   UNL     1     -43.538  41.184  27.981  1.00  0.00     0.066 H 
ATOM     11  C   UNL     1     -45.983  38.276  27.525  1.00  0.00     0.076 A 
ATOM     12  C   UNL     1     -45.200  38.293  28.701  1.00  0.00     0.023 A 
ATOM     13  C   UNL     1     -46.919  37.266  27.342  1.00  0.00     0.007 A 
ATOM     14  C   UNL     1     -45.421  37.289  29.670  1.00  0.00    -0.047 A 
ATOM     15  H   UNL     1     -47.506  37.306  26.429  1.00  0.00     0.069 H 
ATOM     16  C   UNL     1     -46.370  36.288  29.464  1.00  0.00    -0.019 A 
ATOM     17  H   UNL     1     -44.863  37.282  30.601  1.00  0.00     0.063 H 
ATOM     18  H   UNL     1     -46.525  35.526  30.223  1.00  0.00     0.066 H 
BRANCH   6  19
ATOM     19  C   UNL     1     -44.981  41.293  25.678  1.00  0.00    -0.013 C 
ATOM     20  H   UNL     1     -43.952  41.457  25.340  1.00  0.00     0.033 H 
ATOM     21  H   UNL     1     -45.544  40.941  24.805  1.00  0.00     0.033 H 
BRANCH  19  22
ATOM     22  C   UNL     1     -45.584  42.597  26.175  1.00  0.00    -0.060 C 
ATOM     23  H   UNL     1     -46.229  42.432  27.045  1.00  0.00     0.023 H 
ATOM     24  H   UNL     1     -44.791  43.292  26.469  1.00  0.00     0.023 H 
ATOM     25  H   UNL     1     -46.187  43.077  25.397  1.00  0.00     0.023 H 
ENDBRANCH  19  22
ENDBRANCH   6  19
BRANCH   9  26
ATOM     26  N   UNL     1     -43.469  39.495  30.002  1.00  0.00    -0.398 N 
ATOM     27  H   UNL     1     -42.750  38.787  30.119  1.00  0.00     0.156 HD
ATOM     28  H   UNL     1     -44.025  39.598  30.845  1.00  0.00     0.156 HD
ENDBRANCH   9  26
ENDBRANCH   4   5
ENDBRANCH   1   4
BRANCH   1  29
ATOM     29  C   UNL     1     -47.981  33.950  26.119  1.00  0.00     0.010 A 
ATOM     30  C   UNL     1     -46.617  34.055  25.882  1.00  0.00     0.034 A 
ATOM     31  C   UNL     1     -48.643  32.834  25.589  1.00  0.00    -0.028 A 
ATOM     32  N   UNL     1     -45.907  33.161  25.165  1.00  0.00    -0.262 NA
ATOM     33  H   UNL     1     -46.033  34.884  26.274  1.00  0.00     0.084 H 
ATOM     34  C   UNL     1     -47.944  31.886  24.826  1.00  0.00     0.066 A 
ATOM     35  H   UNL     1     -49.700  32.722  25.803  1.00  0.00     0.065 H 
ATOM     36  C   UNL     1     -46.583  32.101  24.650  1.00  0.00     0.051 A 
ATOM     37  H   UNL     1     -45.947  31.450  24.062  1.00  0.00     0.086 H 
BRANCH  34  38
ATOM     38  N   UNL     1     -48.615  30.761  24.252  1.00  0.00    -0.299 N 
ATOM     39  C   UNL     1     -48.472  29.449  24.676  1.00  0.00     0.015 A 
ATOM     40  C   UNL     1     -49.520  30.748  23.192  1.00  0.00     0.150 A 
ATOM     41  C   UNL     1     -49.268  28.604  23.926  1.00  0.00    -0.013 A 
ATOM     42  H   UNL     1     -47.838  29.206  25.516  1.00  0.00     0.083 H 
ATOM     43  C   UNL     1     -49.922  29.433  22.958  1.00  0.00     0.065 A 
ATOM     44  N   UNL     1     -49.926  31.819  22.478  1.00  0.00    -0.218 NA
ATOM     45  C   UNL     1     -50.825  29.231  21.898  1.00  0.00     0.136 A 
ATOM     46  C   UNL     1     -50.791  31.502  21.509  1.00  0.00     0.120 A 
ATOM     47  N   UNL     1     -51.252  30.286  21.183  1.00  0.00    -0.219 NA
ATOM     48  H   UNL     1     -51.162  32.328  20.910  1.00  0.00     0.106 H 
BRANCH  41  49
ATOM     49  C   UNL     1     -49.430  27.112  24.092  1.00  0.00    -0.014 C 
ATOM     50  C   UNL     1     -50.796  26.662  24.626  1.00  0.00    -0.046 C 
ATOM     51  C   UNL     1     -48.461  26.528  25.121  1.00  0.00    -0.046 C 
ATOM     52  H   UNL     1     -49.272  26.645  23.112  1.00  0.00     0.035 H 
ATOM     53  C   UNL     1     -50.657  26.578  26.148  1.00  0.00    -0.053 C 
ATOM     54  H   UNL     1     -51.626  27.307  24.323  1.00  0.00     0.027 H 
ATOM     55  H   UNL     1     -51.017  25.657  24.243  1.00  0.00     0.027 H 
ATOM     56  C   UNL     1     -49.169  26.711  26.457  1.00  0.00    -0.053 C 
ATOM     57  H   UNL     1     -47.473  27.000  25.117  1.00  0.00     0.027 H 
ATOM     58  H   UNL     1     -48.321  25.456  24.930  1.00  0.00     0.027 H 
ATOM     59  H   UNL     1     -51.050  25.623  26.513  1.00  0.00     0.027 H 
ATOM     60  H   UNL     1     -51.225  27.373  26.645  1.00  0.00     0.027 H 
ATOM     61  H   UNL     1     -48.960  27.708  26.862  1.00  0.00     0.027 H 
ATOM     62  H   UNL     1     -48.837  25.981  27.201  1.00  0.00     0.027 H 
ENDBRANCH  41  49
BRANCH  45  63
ATOM     63  N   UNL     1     -51.305  27.990  21.496  1.00  0.00    -0.383 N 
ATOM     64  H   UNL     1     -51.451  27.906  20.501  1.00  0.00     0.158 HD
ATOM     65  H   UNL     1     -52.098  27.732  22.073  1.00  0.00     0.158 HD
ENDBRANCH  45  63
ENDBRANCH  34  38
ENDBRANCH   1  29
TORSDOF 9
ENDMDL
MODEL 6
REMARK VINA RESULT:      -9.4      1.315      2.399
REMARK SMILES CCc1cc(N)c2ccc(OCc3cncc(-n4cc(C5CCCC5)c5c(N)ncnc54)c3)cc2n1
REMARK SMILES IDX 12 1 11 4 10 5 3 6 4 7 36 8 5 9 35 11 7 12 34 13 8 14 9 16
REMARK SMILES IDX 2 19 1 22 6 26 13 29 14 30 33 31 15 32 17 34 16 36 18 38
REMARK SMILES IDX 19 39 32 40 20 41 26 43 31 44 27 45 30 46 29 47 21 49 22 50
REMARK SMILES IDX 25 51 23 53 24 56 28 63
REMARK H PARENT 12 2 12 3 4 10 34 15 8 17 9 18 2 20 2 21 1 23 1 24 1 25 6 27
REMARK H PARENT 6 28 14 33 33 35 16 37 19 42 30 48 21 52 22 54 22 55 25 57
REMARK H PARENT 25 58 23 59 23 60 24 61 24 62 28 64 28 65
REMARK Flexibility Score: inf
ROOT
ATOM      1  C   UNL     1     -47.087  34.829  27.971  1.00  0.00     0.115 C 
ATOM      2  H   UNL     1     -48.043  34.290  27.958  1.00  0.00     0.076 H 
ATOM      3  H   UNL     1     -46.626  34.612  28.943  1.00  0.00     0.076 H 
ENDROOT
BRANCH   1   4
ATOM      4  O   UNL     1     -46.190  34.306  26.985  1.00  0.00    -0.489 OA
BRANCH   4   5
ATOM      5  C   UNL     1     -46.667  33.395  26.084  1.00  0.00     0.122 A 
ATOM      6  C   UNL     1     -46.640  31.058  21.948  1.00  0.00     0.043 A 
ATOM      7  C   UNL     1     -47.709  30.250  22.306  1.00  0.00    -0.017 A 
ATOM      8  N   UNL     1     -46.159  32.026  22.758  1.00  0.00    -0.253 NA
ATOM      9  C   UNL     1     -48.351  30.466  23.525  1.00  0.00     0.043 A 
ATOM     10  H   UNL     1     -48.042  29.465  21.637  1.00  0.00     0.066 H 
ATOM     11  C   UNL     1     -46.716  32.194  23.967  1.00  0.00     0.076 A 
ATOM     12  C   UNL     1     -47.811  31.423  24.419  1.00  0.00     0.023 A 
ATOM     13  C   UNL     1     -46.171  33.162  24.802  1.00  0.00     0.007 A 
ATOM     14  C   UNL     1     -48.296  31.649  25.727  1.00  0.00    -0.047 A 
ATOM     15  H   UNL     1     -45.322  33.717  24.413  1.00  0.00     0.069 H 
ATOM     16  C   UNL     1     -47.728  32.624  26.546  1.00  0.00    -0.019 A 
ATOM     17  H   UNL     1     -49.115  31.059  26.126  1.00  0.00     0.063 H 
ATOM     18  H   UNL     1     -48.116  32.779  27.550  1.00  0.00     0.066 H 
BRANCH   6  19
ATOM     19  C   UNL     1     -45.930  30.855  20.635  1.00  0.00    -0.013 C 
ATOM     20  H   UNL     1     -44.846  30.826  20.797  1.00  0.00     0.033 H 
ATOM     21  H   UNL     1     -46.209  29.878  20.223  1.00  0.00     0.033 H 
BRANCH  19  22
ATOM     22  C   UNL     1     -46.281  31.944  19.635  1.00  0.00    -0.060 C 
ATOM     23  H   UNL     1     -45.936  31.687  18.628  1.00  0.00     0.023 H 
ATOM     24  H   UNL     1     -47.366  32.086  19.595  1.00  0.00     0.023 H 
ATOM     25  H   UNL     1     -45.822  32.900  19.912  1.00  0.00     0.023 H 
ENDBRANCH  19  22
ENDBRANCH   6  19
BRANCH   9  26
ATOM     26  N   UNL     1     -49.382  29.580  23.902  1.00  0.00    -0.398 N 
ATOM     27  H   UNL     1     -50.049  29.988  24.552  1.00  0.00     0.156 HD
ATOM     28  H   UNL     1     -49.047  28.682  24.233  1.00  0.00     0.156 HD
ENDBRANCH   9  26
ENDBRANCH   4   5
ENDBRANCH   1   4
BRANCH   1  29
ATOM     29  C   UNL     1     -47.281  36.322  27.889  1.00  0.00     0.010 A 
ATOM     30  C   UNL     1     -48.564  36.849  27.923  1.00  0.00     0.034 A 
ATOM     31  C   UNL     1     -46.214  37.229  27.828  1.00  0.00    -0.028 A 
ATOM     32  N   UNL     1     -48.838  38.168  27.884  1.00  0.00    -0.262 NA
ATOM     33  H   UNL     1     -49.441  36.208  27.985  1.00  0.00     0.084 H 
ATOM     34  C   UNL     1     -46.454  38.611  27.773  1.00  0.00     0.066 A 
ATOM     35  H   UNL     1     -45.206  36.830  27.841  1.00  0.00     0.065 H 
ATOM     36  C   UNL     1     -47.782  39.019  27.806  1.00  0.00     0.051 A 
ATOM     37  H   UNL     1     -48.089  40.056  27.747  1.00  0.00     0.086 H 
BRANCH  34  38
ATOM     38  N   UNL     1     -45.375  39.545  27.676  1.00  0.00    -0.299 N 
ATOM     39  C   UNL     1     -45.213  40.467  26.654  1.00  0.00     0.015 A 
ATOM     40  C   UNL     1     -44.307  39.719  28.553  1.00  0.00     0.150 A 
ATOM     41  C   UNL     1     -44.081  41.232  26.861  1.00  0.00    -0.013 A 
ATOM     42  H   UNL     1     -45.942  40.546  25.860  1.00  0.00     0.083 H 
ATOM     43  C   UNL     1     -43.486  40.736  28.066  1.00  0.00     0.065 A 
ATOM     44  N   UNL     1     -44.073  39.008  29.675  1.00  0.00    -0.218 NA
ATOM     45  C   UNL     1     -42.336  41.032  28.823  1.00  0.00     0.136 A 
ATOM     46  C   UNL     1     -42.962  39.389  30.312  1.00  0.00     0.120 A 
ATOM     47  N   UNL     1     -42.092  40.343  29.951  1.00  0.00    -0.219 NA
ATOM     48  H   UNL     1     -42.731  38.858  31.231  1.00  0.00     0.106 H 
BRANCH  41  49
ATOM     49  C   UNL     1     -43.572  42.366  26.005  1.00  0.00    -0.014 C 
ATOM     50  C   UNL     1     -43.665  43.757  26.645  1.00  0.00    -0.046 C 
ATOM     51  C   UNL     1     -44.382  42.538  24.718  1.00  0.00    -0.046 C 
ATOM     52  H   UNL     1     -42.521  42.165  25.769  1.00  0.00     0.035 H 
ATOM     53  C   UNL     1     -45.010  44.344  26.210  1.00  0.00    -0.053 C 
ATOM     54  H   UNL     1     -43.550  43.753  27.733  1.00  0.00     0.027 H 
ATOM     55  H   UNL     1     -42.864  44.391  26.243  1.00  0.00     0.027 H 
ATOM     56  C   UNL     1     -45.554  43.423  25.121  1.00  0.00    -0.053 C 
ATOM     57  H   UNL     1     -44.719  41.594  24.278  1.00  0.00     0.027 H 
ATOM     58  H   UNL     1     -43.775  43.061  23.967  1.00  0.00     0.027 H 
ATOM     59  H   UNL     1     -44.874  45.362  25.832  1.00  0.00     0.027 H 
ATOM     60  H   UNL     1     -45.711  44.401  27.050  1.00  0.00     0.027 H 
ATOM     61  H   UNL     1     -46.369  42.811  25.524  1.00  0.00     0.027 H 
ATOM     62  H   UNL     1     -45.955  43.984  24.272  1.00  0.00     0.027 H 
ENDBRANCH  41  49
BRANCH  45  63
ATOM     63  N   UNL     1     -41.386  41.985  28.473  1.00  0.00    -0.383 N 
ATOM     64  H   UNL     1     -40.879  42.368  29.258  1.00  0.00     0.158 HD
ATOM     65  H   UNL     1     -41.808  42.669  27.855  1.00  0.00     0.158 HD
ENDBRANCH  45  63
ENDBRANCH  34  38
ENDBRANCH   1  29
TORSDOF 9
ENDMDL
MODEL 7
REMARK VINA RESULT:      -9.3      2.554      4.326
REMARK SMILES CCc1cc(N)c2ccc(OCc3cncc(-n4cc(C5CCCC5)c5c(N)ncnc54)c3)cc2n1
REMARK SMILES IDX 12 1 11 4 10 5 3 6 4 7 36 8 5 9 35 11 7 12 34 13 8 14 9 16
REMARK SMILES IDX 2 19 1 22 6 26 13 29 14 30 33 31 15 32 17 34 16 36 18 38
REMARK SMILES IDX 19 39 32 40 20 41 26 43 31 44 27 45 30 46 29 47 21 49 22 50
REMARK SMILES IDX 25 51 23 53 24 56 28 63
REMARK H PARENT 12 2 12 3 4 10 34 15 8 17 9 18 2 20 2 21 1 23 1 24 1 25 6 27
REMARK H PARENT 6 28 14 33 33 35 16 37 19 42 30 48 21 52 22 54 22 55 25 57
REMARK H PARENT 25 58 23 59 23 60 24 61 24 62 28 64 28 65
REMARK Flexibility Score: inf
ROOT
ATOM      1  C   UNL     1     -46.814  32.647  24.750  1.00  0.00     0.115 C 
ATOM      2  H   UNL     1     -46.311  31.672  24.767  1.00  0.00     0.076 H 
ATOM      3  H   UNL     1     -46.306  33.241  23.980  1.00  0.00     0.076 H 
ENDROOT
BRANCH   1   4
ATOM      4  O   UNL     1     -48.171  32.516  24.314  1.00  0.00    -0.489 OA
BRANCH   4   5
ATOM      5  C   UNL     1     -48.761  31.284  24.371  1.00  0.00     0.122 A 
ATOM      6  C   UNL     1     -49.104  26.772  25.818  1.00  0.00     0.043 A 
ATOM      7  C   UNL     1     -50.318  26.575  25.175  1.00  0.00    -0.017 A 
ATOM      8  N   UNL     1     -48.429  27.940  25.749  1.00  0.00    -0.253 NA
ATOM      9  C   UNL     1     -50.847  27.595  24.385  1.00  0.00     0.043 A 
ATOM     10  H   UNL     1     -50.841  25.631  25.283  1.00  0.00     0.066 H 
ATOM     11  C   UNL     1     -48.965  28.958  25.057  1.00  0.00     0.076 A 
ATOM     12  C   UNL     1     -50.192  28.851  24.366  1.00  0.00     0.023 A 
ATOM     13  C   UNL     1     -48.274  30.164  25.044  1.00  0.00     0.007 A 
ATOM     14  C   UNL     1     -50.691  29.996  23.704  1.00  0.00    -0.047 A 
ATOM     15  H   UNL     1     -47.344  30.198  25.602  1.00  0.00     0.069 H 
ATOM     16  C   UNL     1     -49.981  31.196  23.709  1.00  0.00    -0.019 A 
ATOM     17  H   UNL     1     -51.645  29.967  23.187  1.00  0.00     0.063 H 
ATOM     18  H   UNL     1     -50.385  32.064  23.195  1.00  0.00     0.066 H 
BRANCH   6  19
ATOM     19  C   UNL     1     -48.503  25.688  26.672  1.00  0.00    -0.013 C 
ATOM     20  H   UNL     1     -48.697  25.894  27.730  1.00  0.00     0.033 H 
ATOM     21  H   UNL     1     -48.997  24.736  26.445  1.00  0.00     0.033 H 
BRANCH  19  22
ATOM     22  C   UNL     1     -47.008  25.550  26.431  1.00  0.00    -0.060 C 
ATOM     23  H   UNL     1     -46.624  26.379  25.827  1.00  0.00     0.023 H 
ATOM     24  H   UNL     1     -46.470  25.548  27.384  1.00  0.00     0.023 H 
ATOM     25  H   UNL     1     -46.775  24.618  25.905  1.00  0.00     0.023 H 
ENDBRANCH  19  22
ENDBRANCH   6  19
BRANCH   9  26
ATOM     26  N   UNL     1     -52.120  27.400  23.808  1.00  0.00    -0.398 N 
ATOM     27  H   UNL     1     -52.236  27.870  22.915  1.00  0.00     0.156 HD
ATOM     28  H   UNL     1     -52.889  27.608  24.437  1.00  0.00     0.156 HD
ENDBRANCH   9  26
ENDBRANCH   4   5
ENDBRANCH   1   4
BRANCH   1  29
ATOM     29  C   UNL     1     -46.662  33.383  26.057  1.00  0.00     0.010 A 
ATOM     30  C   UNL     1     -46.230  32.696  27.184  1.00  0.00     0.034 A 
ATOM     31  C   UNL     1     -46.890  34.759  26.192  1.00  0.00    -0.028 A 
ATOM     32  N   UNL     1     -46.036  33.270  28.388  1.00  0.00    -0.262 NA
ATOM     33  H   UNL     1     -46.018  31.630  27.153  1.00  0.00     0.084 H 
ATOM     34  C   UNL     1     -46.713  35.395  27.430  1.00  0.00     0.066 A 
ATOM     35  H   UNL     1     -47.189  35.313  25.308  1.00  0.00     0.065 H 
ATOM     36  C   UNL     1     -46.284  34.602  28.487  1.00  0.00     0.051 A 
ATOM     37  H   UNL     1     -46.135  34.977  29.493  1.00  0.00     0.086 H 
BRANCH  34  38
ATOM     38  N   UNL     1     -46.975  36.792  27.587  1.00  0.00    -0.299 N 
ATOM     39  C   UNL     1     -46.013  37.790  27.554  1.00  0.00     0.015 A 
ATOM     40  C   UNL     1     -48.202  37.419  27.794  1.00  0.00     0.150 A 
ATOM     41  C   UNL     1     -46.593  39.034  27.720  1.00  0.00    -0.013 A 
ATOM     42  H   UNL     1     -44.975  37.551  27.372  1.00  0.00     0.083 H 
ATOM     43  C   UNL     1     -47.994  38.794  27.899  1.00  0.00     0.065 A 
ATOM     44  N   UNL     1     -49.400  36.808  27.909  1.00  0.00    -0.218 NA
ATOM     45  C   UNL     1     -49.134  39.586  28.134  1.00  0.00     0.136 A 
ATOM     46  C   UNL     1     -50.405  37.665  28.117  1.00  0.00     0.120 A 
ATOM     47  N   UNL     1     -50.338  38.998  28.238  1.00  0.00    -0.219 NA
ATOM     48  H   UNL     1     -51.395  37.228  28.204  1.00  0.00     0.106 H 
BRANCH  41  49
ATOM     49  C   UNL     1     -45.902  40.375  27.708  1.00  0.00    -0.014 C 
ATOM     50  C   UNL     1     -45.976  41.133  26.376  1.00  0.00    -0.046 C 
ATOM     51  C   UNL     1     -44.394  40.260  27.942  1.00  0.00    -0.046 C 
ATOM     52  H   UNL     1     -46.361  40.998  28.485  1.00  0.00     0.035 H 
ATOM     53  C   UNL     1     -44.723  40.744  25.588  1.00  0.00    -0.053 C 
ATOM     54  H   UNL     1     -46.893  40.946  25.809  1.00  0.00     0.027 H 
ATOM     55  H   UNL     1     -45.939  42.212  26.574  1.00  0.00     0.027 H 
ATOM     56  C   UNL     1     -43.814  39.995  26.558  1.00  0.00    -0.053 C 
ATOM     57  H   UNL     1     -44.115  39.478  28.655  1.00  0.00     0.027 H 
ATOM     58  H   UNL     1     -44.005  41.215  28.320  1.00  0.00     0.027 H 
ATOM     59  H   UNL     1     -44.228  41.639  25.197  1.00  0.00     0.027 H 
ATOM     60  H   UNL     1     -44.972  40.111  24.729  1.00  0.00     0.027 H 
ATOM     61  H   UNL     1     -43.837  38.922  26.337  1.00  0.00     0.027 H 
ATOM     62  H   UNL     1     -42.773  40.322  26.481  1.00  0.00     0.027 H 
ENDBRANCH  41  49
BRANCH  45  63
ATOM     63  N   UNL     1     -49.113  40.966  28.303  1.00  0.00    -0.383 N 
ATOM     64  H   UNL     1     -48.307  41.419  27.899  1.00  0.00     0.158 HD
ATOM     65  H   UNL     1     -49.292  41.189  29.277  1.00  0.00     0.158 HD
ENDBRANCH  45  63
ENDBRANCH  34  38
ENDBRANCH   1  29
TORSDOF 9
ENDMDL
