MODEL 1
REMARK VINA RESULT:      -9.8      0.000      0.000
REMARK SMILES O=C(NCc1ccc2cc(CO)[nH]c2c1)c1cc(=O)n2ccccc2n1
REMARK SMILES IDX 5 1 6 2 7 3 8 4 9 5 10 6 13 7 14 8 15 9 4 15 3 18 1 19 2 20
REMARK SMILES IDX 16 22 17 23 26 24 18 25 25 27 19 28 20 29 24 30 21 31 23 32
REMARK SMILES IDX 22 34 11 38 12 41
REMARK H PARENT 6 10 7 11 9 12 13 13 15 14 4 16 4 17 3 21 17 26 24 33 21 35
REMARK H PARENT 23 36 22 37 11 39 11 40 12 42
REMARK Flexibility Score: inf
ROOT
ATOM      1  C   UNL     1     -46.378  36.477  28.357  1.00  0.00    -0.027 A 
ATOM      2  C   UNL     1     -47.770  36.461  28.195  1.00  0.00    -0.057 A 
ATOM      3  C   UNL     1     -48.390  35.541  27.339  1.00  0.00    -0.052 A 
ATOM      4  C   UNL     1     -47.600  34.613  26.637  1.00  0.00    -0.000 A 
ATOM      5  C   UNL     1     -47.886  33.570  25.713  1.00  0.00    -0.031 A 
ATOM      6  C   UNL     1     -46.691  32.981  25.351  1.00  0.00     0.042 A 
ATOM      7  N   UNL     1     -45.693  33.633  26.035  1.00  0.00    -0.356 N 
ATOM      8  C   UNL     1     -46.219  34.633  26.820  1.00  0.00     0.046 A 
ATOM      9  C   UNL     1     -45.582  35.545  27.670  1.00  0.00    -0.033 A 
ATOM     10  H   UNL     1     -48.390  37.171  28.738  1.00  0.00     0.063 H 
ATOM     11  H   UNL     1     -49.469  35.547  27.221  1.00  0.00     0.063 H 
ATOM     12  H   UNL     1     -48.866  33.284  25.353  1.00  0.00     0.065 H 
ATOM     13  H   UNL     1     -44.708  33.422  25.946  1.00  0.00     0.166 HD
ATOM     14  H   UNL     1     -44.503  35.531  27.798  1.00  0.00     0.065 H 
ENDROOT
BRANCH   1  15
ATOM     15  C   UNL     1     -45.737  37.454  29.306  1.00  0.00     0.043 C 
ATOM     16  H   UNL     1     -46.494  37.951  29.923  1.00  0.00     0.054 H 
ATOM     17  H   UNL     1     -45.055  36.942  29.995  1.00  0.00     0.054 H 
BRANCH  15  18
ATOM     18  N   UNL     1     -44.990  38.451  28.586  1.00  0.00    -0.347 N 
ATOM     19  O   UNL     1     -46.763  39.864  28.228  1.00  0.00    -0.268 OA
ATOM     20  C   UNL     1     -45.569  39.605  28.127  1.00  0.00     0.270 C 
ATOM     21  H   UNL     1     -43.981  38.372  28.499  1.00  0.00     0.164 HD
BRANCH  20  22
ATOM     22  C   UNL     1     -44.570  40.536  27.484  1.00  0.00     0.136 A 
ATOM     23  C   UNL     1     -43.427  40.732  28.146  1.00  0.00     0.035 A 
ATOM     24  N   UNL     1     -44.886  41.116  26.277  1.00  0.00    -0.225 NA
ATOM     25  C   UNL     1     -42.427  41.630  27.557  1.00  0.00     0.258 A 
ATOM     26  H   UNL     1     -43.189  40.268  29.094  1.00  0.00     0.071 H 
ATOM     27  C   UNL     1     -44.000  41.911  25.760  1.00  0.00     0.140 A 
ATOM     28  O   UNL     1     -41.370  41.816  28.160  1.00  0.00    -0.269 OA
ATOM     29  N   UNL     1     -42.771  42.203  26.341  1.00  0.00    -0.268 N 
ATOM     30  C   UNL     1     -44.302  42.564  24.454  1.00  0.00    -0.019 A 
ATOM     31  C   UNL     1     -41.875  43.067  25.722  1.00  0.00     0.014 A 
ATOM     32  C   UNL     1     -43.407  43.388  23.896  1.00  0.00    -0.057 A 
ATOM     33  H   UNL     1     -45.257  42.342  23.994  1.00  0.00     0.066 H 
ATOM     34  C   UNL     1     -42.152  43.650  24.548  1.00  0.00    -0.045 A 
ATOM     35  H   UNL     1     -40.933  43.251  26.232  1.00  0.00     0.082 H 
ATOM     36  H   UNL     1     -43.609  43.872  22.946  1.00  0.00     0.062 H 
ATOM     37  H   UNL     1     -41.445  44.322  24.073  1.00  0.00     0.064 H 
ENDBRANCH  20  22
ENDBRANCH  15  18
ENDBRANCH   1  15
BRANCH   6  38
ATOM     38  C   UNL     1     -46.392  31.859  24.433  1.00  0.00     0.083 C 
ATOM     39  H   UNL     1     -45.555  31.259  24.803  1.00  0.00     0.063 H 
ATOM     40  H   UNL     1     -47.256  31.206  24.282  1.00  0.00     0.063 H 
BRANCH  38  41
ATOM     41  O   UNL     1     -46.024  32.438  23.191  1.00  0.00    -0.390 OA
ATOM     42  H   UNL     1     -45.970  31.701  22.556  1.00  0.00     0.211 HD
ENDBRANCH  38  41
ENDBRANCH   6  38
TORSDOF 5
ENDMDL
MODEL 2
REMARK VINA RESULT:      -9.7      2.505      3.963
REMARK SMILES O=C(NCc1ccc2cc(CO)[nH]c2c1)c1cc(=O)n2ccccc2n1
REMARK SMILES IDX 5 1 6 2 7 3 8 4 9 5 10 6 13 7 14 8 15 9 4 15 3 18 1 19 2 20
REMARK SMILES IDX 16 22 17 23 26 24 18 25 25 27 19 28 20 29 24 30 21 31 23 32
REMARK SMILES IDX 22 34 11 38 12 41
REMARK H PARENT 6 10 7 11 9 12 13 13 15 14 4 16 4 17 3 21 17 26 24 33 21 35
REMARK H PARENT 23 36 22 37 11 39 11 40 12 42
REMARK Flexibility Score: inf
ROOT
ATOM      1  C   UNL     1     -48.075  34.481  26.450  1.00  0.00    -0.027 A 
ATOM      2  C   UNL     1     -46.831  34.634  25.825  1.00  0.00    -0.057 A 
ATOM      3  C   UNL     1     -46.287  33.613  25.034  1.00  0.00    -0.052 A 
ATOM      4  C   UNL     1     -47.009  32.418  24.859  1.00  0.00    -0.000 A 
ATOM      5  C   UNL     1     -46.766  31.210  24.147  1.00  0.00    -0.031 A 
ATOM      6  C   UNL     1     -47.848  30.376  24.341  1.00  0.00     0.042 A 
ATOM      7  N   UNL     1     -48.740  31.046  25.144  1.00  0.00    -0.356 N 
ATOM      8  C   UNL     1     -48.250  32.288  25.477  1.00  0.00     0.046 A 
ATOM      9  C   UNL     1     -48.810  33.297  26.271  1.00  0.00    -0.033 A 
ATOM     10  H   UNL     1     -46.267  35.556  25.949  1.00  0.00     0.063 H 
ATOM     11  H   UNL     1     -45.318  33.745  24.562  1.00  0.00     0.063 H 
ATOM     12  H   UNL     1     -45.889  30.982  23.556  1.00  0.00     0.065 H 
ATOM     13  H   UNL     1     -49.619  30.662  25.466  1.00  0.00     0.166 HD
ATOM     14  H   UNL     1     -49.784  33.169  26.734  1.00  0.00     0.065 H 
ENDROOT
BRANCH   1  15
ATOM     15  C   UNL     1     -48.653  35.604  27.271  1.00  0.00     0.043 C 
ATOM     16  H   UNL     1     -49.593  35.962  26.833  1.00  0.00     0.054 H 
ATOM     17  H   UNL     1     -48.888  35.266  28.287  1.00  0.00     0.054 H 
BRANCH  15  18
ATOM     18  N   UNL     1     -47.729  36.701  27.360  1.00  0.00    -0.347 N 
ATOM     19  O   UNL     1     -47.092  36.300  29.528  1.00  0.00    -0.268 OA
ATOM     20  C   UNL     1     -46.992  36.944  28.489  1.00  0.00     0.270 C 
ATOM     21  H   UNL     1     -47.518  37.262  26.539  1.00  0.00     0.164 HD
BRANCH  20  22
ATOM     22  C   UNL     1     -46.027  38.091  28.315  1.00  0.00     0.136 A 
ATOM     23  C   UNL     1     -46.236  38.890  27.266  1.00  0.00     0.035 A 
ATOM     24  N   UNL     1     -45.010  38.247  29.228  1.00  0.00    -0.225 NA
ATOM     25  C   UNL     1     -45.321  40.019  27.057  1.00  0.00     0.258 A 
ATOM     26  H   UNL     1     -47.040  38.758  26.554  1.00  0.00     0.071 H 
ATOM     27  C   UNL     1     -44.202  39.245  29.040  1.00  0.00     0.140 A 
ATOM     28  O   UNL     1     -45.506  40.761  26.093  1.00  0.00    -0.269 OA
ATOM     29  N   UNL     1     -44.304  40.152  27.991  1.00  0.00    -0.268 N 
ATOM     30  C   UNL     1     -43.085  39.451  30.006  1.00  0.00    -0.019 A 
ATOM     31  C   UNL     1     -43.397  41.198  27.860  1.00  0.00     0.014 A 
ATOM     32  C   UNL     1     -42.237  40.472  29.837  1.00  0.00    -0.057 A 
ATOM     33  H   UNL     1     -42.998  38.749  30.825  1.00  0.00     0.066 H 
ATOM     34  C   UNL     1     -42.395  41.377  28.731  1.00  0.00    -0.045 A 
ATOM     35  H   UNL     1     -43.535  41.869  27.016  1.00  0.00     0.082 H 
ATOM     36  H   UNL     1     -41.417  40.638  30.529  1.00  0.00     0.062 H 
ATOM     37  H   UNL     1     -41.693  42.196  28.619  1.00  0.00     0.064 H 
ENDBRANCH  20  22
ENDBRANCH  15  18
ENDBRANCH   1  15
BRANCH   6  38
ATOM     38  C   UNL     1     -48.134  29.013  23.840  1.00  0.00     0.083 C 
ATOM     39  H   UNL     1     -49.016  28.590  24.329  1.00  0.00     0.063 H 
ATOM     40  H   UNL     1     -48.287  28.994  22.757  1.00  0.00     0.063 H 
BRANCH  38  41
ATOM     41  O   UNL     1     -47.006  28.216  24.164  1.00  0.00    -0.390 OA
ATOM     42  H   UNL     1     -46.542  28.051  23.324  1.00  0.00     0.211 HD
ENDBRANCH  38  41
ENDBRANCH   6  38
TORSDOF 5
ENDMDL
MODEL 3
REMARK VINA RESULT:      -9.6      2.402      3.430
REMARK SMILES O=C(NCc1ccc2cc(CO)[nH]c2c1)c1cc(=O)n2ccccc2n1
REMARK SMILES IDX 5 1 6 2 7 3 8 4 9 5 10 6 13 7 14 8 15 9 4 15 3 18 1 19 2 20
REMARK SMILES IDX 16 22 17 23 26 24 18 25 25 27 19 28 20 29 24 30 21 31 23 32
REMARK SMILES IDX 22 34 11 38 12 41
REMARK H PARENT 6 10 7 11 9 12 13 13 15 14 4 16 4 17 3 21 17 26 24 33 21 35
REMARK H PARENT 23 36 22 37 11 39 11 40 12 42
REMARK Flexibility Score: inf
ROOT
ATOM      1  C   UNL     1     -47.846  35.092  26.652  1.00  0.00    -0.027 A 
ATOM      2  C   UNL     1     -46.586  35.001  26.045  1.00  0.00    -0.057 A 
ATOM      3  C   UNL     1     -46.204  33.855  25.336  1.00  0.00    -0.052 A 
ATOM      4  C   UNL     1     -47.106  32.781  25.225  1.00  0.00    -0.000 A 
ATOM      5  C   UNL     1     -47.051  31.504  24.599  1.00  0.00    -0.031 A 
ATOM      6  C   UNL     1     -48.256  30.868  24.824  1.00  0.00     0.042 A 
ATOM      7  N   UNL     1     -49.037  31.725  25.561  1.00  0.00    -0.356 N 
ATOM      8  C   UNL     1     -48.359  32.892  25.822  1.00  0.00     0.046 A 
ATOM      9  C   UNL     1     -48.759  34.029  26.536  1.00  0.00    -0.033 A 
ATOM     10  H   UNL     1     -45.884  35.828  26.120  1.00  0.00     0.063 H 
ATOM     11  H   UNL     1     -45.222  33.799  24.877  1.00  0.00     0.063 H 
ATOM     12  H   UNL     1     -46.216  31.099  24.044  1.00  0.00     0.065 H 
ATOM     13  H   UNL     1     -49.970  31.508  25.889  1.00  0.00     0.166 HD
ATOM     14  H   UNL     1     -49.746  34.090  26.985  1.00  0.00     0.065 H 
ENDROOT
BRANCH   1  15
ATOM     15  C   UNL     1     -48.246  36.346  27.383  1.00  0.00     0.043 C 
ATOM     16  H   UNL     1     -48.832  37.005  26.733  1.00  0.00     0.054 H 
ATOM     17  H   UNL     1     -48.879  36.110  28.247  1.00  0.00     0.054 H 
BRANCH  15  18
ATOM     18  N   UNL     1     -47.087  37.057  27.851  1.00  0.00    -0.347 N 
ATOM     19  O   UNL     1     -47.181  38.726  26.279  1.00  0.00    -0.268 OA
ATOM     20  C   UNL     1     -46.663  38.223  27.269  1.00  0.00     0.270 C 
ATOM     21  H   UNL     1     -46.618  36.767  28.704  1.00  0.00     0.164 HD
BRANCH  20  22
ATOM     22  C   UNL     1     -45.484  38.832  27.988  1.00  0.00     0.136 A 
ATOM     23  C   UNL     1     -45.174  38.306  29.176  1.00  0.00     0.035 A 
ATOM     24  N   UNL     1     -44.808  39.871  27.391  1.00  0.00    -0.225 NA
ATOM     25  C   UNL     1     -44.035  38.868  29.911  1.00  0.00     0.258 A 
ATOM     26  H   UNL     1     -45.713  37.488  29.636  1.00  0.00     0.071 H 
ATOM     27  C   UNL     1     -43.802  40.366  28.044  1.00  0.00     0.140 A 
ATOM     28  O   UNL     1     -43.742  38.390  31.006  1.00  0.00    -0.269 OA
ATOM     29  N   UNL     1     -43.372  39.915  29.287  1.00  0.00    -0.268 N 
ATOM     30  C   UNL     1     -43.041  41.495  27.434  1.00  0.00    -0.019 A 
ATOM     31  C   UNL     1     -42.282  40.501  29.922  1.00  0.00     0.014 A 
ATOM     32  C   UNL     1     -41.999  42.025  28.084  1.00  0.00    -0.057 A 
ATOM     33  H   UNL     1     -43.369  41.852  26.466  1.00  0.00     0.066 H 
ATOM     34  C   UNL     1     -41.603  41.514  29.369  1.00  0.00    -0.045 A 
ATOM     35  H   UNL     1     -42.001  40.099  30.892  1.00  0.00     0.082 H 
ATOM     36  H   UNL     1     -41.433  42.847  27.656  1.00  0.00     0.062 H 
ATOM     37  H   UNL     1     -40.754  41.964  29.873  1.00  0.00     0.064 H 
ENDBRANCH  20  22
ENDBRANCH  15  18
ENDBRANCH   1  15
BRANCH   6  38
ATOM     38  C   UNL     1     -48.751  29.536  24.408  1.00  0.00     0.083 C 
ATOM     39  H   UNL     1     -49.590  29.215  25.031  1.00  0.00     0.063 H 
ATOM     40  H   UNL     1     -49.061  29.519  23.359  1.00  0.00     0.063 H 
BRANCH  38  41
ATOM     41  O   UNL     1     -47.675  28.628  24.589  1.00  0.00    -0.390 OA
ATOM     42  H   UNL     1     -46.987  28.895  23.953  1.00  0.00     0.211 HD
ENDBRANCH  38  41
ENDBRANCH   6  38
TORSDOF 5
ENDMDL
MODEL 4
REMARK VINA RESULT:      -9.5      2.173      3.231
REMARK SMILES O=C(NCc1ccc2cc(CO)[nH]c2c1)c1cc(=O)n2ccccc2n1
REMARK SMILES IDX 5 1 6 2 7 3 8 4 9 5 10 6 13 7 14 8 15 9 4 15 3 18 1 19 2 20
REMARK SMILES IDX 16 22 17 23 26 24 18 25 25 27 19 28 20 29 24 30 21 31 23 32
REMARK SMILES IDX 22 34 11 38 12 41
REMARK H PARENT 6 10 7 11 9 12 13 13 15 14 4 16 4 17 3 21 17 26 24 33 21 35
REMARK H PARENT 23 36 22 37 11 39 11 40 12 42
REMARK Flexibility Score: inf
ROOT
ATOM      1  C   UNL     1     -47.770  35.917  26.958  1.00  0.00    -0.027 A 
ATOM      2  C   UNL     1     -46.474  35.643  26.500  1.00  0.00    -0.057 A 
ATOM      3  C   UNL     1     -46.148  34.396  25.952  1.00  0.00    -0.052 A 
ATOM      4  C   UNL     1     -47.143  33.406  25.852  1.00  0.00    -0.000 A 
ATOM      5  C   UNL     1     -47.163  32.069  25.365  1.00  0.00    -0.031 A 
ATOM      6  C   UNL     1     -48.443  31.577  25.523  1.00  0.00     0.042 A 
ATOM      7  N   UNL     1     -49.197  32.579  26.085  1.00  0.00    -0.356 N 
ATOM      8  C   UNL     1     -48.429  33.699  26.300  1.00  0.00     0.046 A 
ATOM      9  C   UNL     1     -48.773  34.940  26.851  1.00  0.00    -0.033 A 
ATOM     10  H   UNL     1     -45.699  36.404  26.567  1.00  0.00     0.063 H 
ATOM     11  H   UNL     1     -45.138  34.198  25.607  1.00  0.00     0.063 H 
ATOM     12  H   UNL     1     -46.325  31.529  24.944  1.00  0.00     0.065 H 
ATOM     13  H   UNL     1     -50.174  32.488  26.332  1.00  0.00     0.166 HD
ATOM     14  H   UNL     1     -49.787  35.142  27.185  1.00  0.00     0.065 H 
ENDROOT
BRANCH   1  15
ATOM     15  C   UNL     1     -48.104  37.276  27.516  1.00  0.00     0.043 C 
ATOM     16  H   UNL     1     -48.863  37.773  26.901  1.00  0.00     0.054 H 
ATOM     17  H   UNL     1     -48.523  37.192  28.526  1.00  0.00     0.054 H 
BRANCH  15  18
ATOM     18  N   UNL     1     -46.932  38.106  27.579  1.00  0.00    -0.347 N 
ATOM     19  O   UNL     1     -47.688  39.696  26.106  1.00  0.00    -0.268 OA
ATOM     20  C   UNL     1     -46.833  39.281  26.880  1.00  0.00     0.270 C 
ATOM     21  H   UNL     1     -46.188  37.894  28.237  1.00  0.00     0.164 HD
BRANCH  20  22
ATOM     22  C   UNL     1     -45.551  40.022  27.175  1.00  0.00     0.136 A 
ATOM     23  C   UNL     1     -45.211  40.987  26.317  1.00  0.00     0.035 A 
ATOM     24  N   UNL     1     -44.823  39.669  28.287  1.00  0.00    -0.225 NA
ATOM     25  C   UNL     1     -43.972  41.733  26.565  1.00  0.00     0.258 A 
ATOM     26  H   UNL     1     -45.793  41.256  25.445  1.00  0.00     0.071 H 
ATOM     27  C   UNL     1     -43.727  40.330  28.503  1.00  0.00     0.140 A 
ATOM     28  O   UNL     1     -43.650  42.624  25.780  1.00  0.00    -0.269 OA
ATOM     29  N   UNL     1     -43.255  41.357  27.692  1.00  0.00    -0.268 N 
ATOM     30  C   UNL     1     -42.905  39.980  29.697  1.00  0.00    -0.019 A 
ATOM     31  C   UNL     1     -42.070  42.018  27.993  1.00  0.00     0.014 A 
ATOM     32  C   UNL     1     -41.771  40.645  29.944  1.00  0.00    -0.057 A 
ATOM     33  H   UNL     1     -43.265  39.182  30.333  1.00  0.00     0.066 H 
ATOM     34  C   UNL     1     -41.336  41.698  29.067  1.00  0.00    -0.045 A 
ATOM     35  H   UNL     1     -41.760  42.810  27.315  1.00  0.00     0.082 H 
ATOM     36  H   UNL     1     -41.159  40.405  30.808  1.00  0.00     0.062 H 
ATOM     37  H   UNL     1     -40.412  42.221  29.292  1.00  0.00     0.064 H 
ENDBRANCH  20  22
ENDBRANCH  15  18
ENDBRANCH   1  15
BRANCH   6  38
ATOM     38  C   UNL     1     -49.033  30.261  25.190  1.00  0.00     0.083 C 
ATOM     39  H   UNL     1     -50.122  30.282  25.284  1.00  0.00     0.063 H 
ATOM     40  H   UNL     1     -48.771  29.933  24.180  1.00  0.00     0.063 H 
BRANCH  38  41
ATOM     41  O   UNL     1     -48.511  29.333  26.129  1.00  0.00    -0.390 OA
ATOM     42  H   UNL     1     -47.671  29.711  26.444  1.00  0.00     0.211 HD
ENDBRANCH  38  41
ENDBRANCH   6  38
TORSDOF 5
ENDMDL
MODEL 5
REMARK VINA RESULT:      -9.2      4.635     11.621
REMARK SMILES O=C(NCc1ccc2cc(CO)[nH]c2c1)c1cc(=O)n2ccccc2n1
REMARK SMILES IDX 5 1 6 2 7 3 8 4 9 5 10 6 13 7 14 8 15 9 4 15 3 18 1 19 2 20
REMARK SMILES IDX 16 22 17 23 26 24 18 25 25 27 19 28 20 29 24 30 21 31 23 32
REMARK SMILES IDX 22 34 11 38 12 41
REMARK H PARENT 6 10 7 11 9 12 13 13 15 14 4 16 4 17 3 21 17 26 24 33 21 35
REMARK H PARENT 23 36 22 37 11 39 11 40 12 42
REMARK Flexibility Score: inf
ROOT
ATOM      1  C   UNL     1     -46.744  33.733  25.802  1.00  0.00    -0.027 A 
ATOM      2  C   UNL     1     -48.056  34.147  26.065  1.00  0.00    -0.057 A 
ATOM      3  C   UNL     1     -48.333  35.078  27.074  1.00  0.00    -0.052 A 
ATOM      4  C   UNL     1     -47.273  35.611  27.830  1.00  0.00    -0.000 A 
ATOM      5  C   UNL     1     -47.193  36.547  28.899  1.00  0.00    -0.031 A 
ATOM      6  C   UNL     1     -45.864  36.686  29.244  1.00  0.00     0.042 A 
ATOM      7  N   UNL     1     -45.139  35.867  28.412  1.00  0.00    -0.356 N 
ATOM      8  C   UNL     1     -45.973  35.199  27.546  1.00  0.00     0.046 A 
ATOM      9  C   UNL     1     -45.677  34.269  26.542  1.00  0.00    -0.033 A 
ATOM     10  H   UNL     1     -48.882  33.745  25.482  1.00  0.00     0.063 H 
ATOM     11  H   UNL     1     -49.357  35.383  27.270  1.00  0.00     0.063 H 
ATOM     12  H   UNL     1     -48.024  37.062  29.363  1.00  0.00     0.065 H 
ATOM     13  H   UNL     1     -44.135  35.754  28.455  1.00  0.00     0.166 HD
ATOM     14  H   UNL     1     -44.651  33.972  26.339  1.00  0.00     0.065 H 
ENDROOT
BRANCH   1  15
ATOM     15  C   UNL     1     -46.467  32.754  24.691  1.00  0.00     0.043 C 
ATOM     16  H   UNL     1     -46.747  33.177  23.720  1.00  0.00     0.054 H 
ATOM     17  H   UNL     1     -45.398  32.517  24.635  1.00  0.00     0.054 H 
BRANCH  15  18
ATOM     18  N   UNL     1     -47.191  31.529  24.896  1.00  0.00    -0.347 N 
ATOM     19  O   UNL     1     -47.664  31.158  22.681  1.00  0.00    -0.268 OA
ATOM     20  C   UNL     1     -47.712  30.806  23.855  1.00  0.00     0.270 C 
ATOM     21  H   UNL     1     -47.238  31.109  25.821  1.00  0.00     0.164 HD
BRANCH  20  22
ATOM     22  C   UNL     1     -48.348  29.515  24.308  1.00  0.00     0.136 A 
ATOM     23  C   UNL     1     -49.674  29.425  24.173  1.00  0.00     0.035 A 
ATOM     24  N   UNL     1     -47.544  28.524  24.822  1.00  0.00    -0.225 NA
ATOM     25  C   UNL     1     -50.335  28.186  24.602  1.00  0.00     0.258 A 
ATOM     26  H   UNL     1     -50.297  30.211  23.766  1.00  0.00     0.071 H 
ATOM     27  C   UNL     1     -48.131  27.431  25.201  1.00  0.00     0.140 A 
ATOM     28  O   UNL     1     -51.555  28.094  24.481  1.00  0.00    -0.269 OA
ATOM     29  N   UNL     1     -49.501  27.205  25.118  1.00  0.00    -0.268 N 
ATOM     30  C   UNL     1     -47.298  26.331  25.766  1.00  0.00    -0.019 A 
ATOM     31  C   UNL     1     -50.054  26.003  25.546  1.00  0.00     0.014 A 
ATOM     32  C   UNL     1     -47.876  25.192  26.165  1.00  0.00    -0.057 A 
ATOM     33  H   UNL     1     -46.231  26.499  25.835  1.00  0.00     0.066 H 
ATOM     34  C   UNL     1     -49.299  25.019  26.052  1.00  0.00    -0.045 A 
ATOM     35  H   UNL     1     -51.132  25.894  25.452  1.00  0.00     0.082 H 
ATOM     36  H   UNL     1     -47.286  24.381  26.578  1.00  0.00     0.062 H 
ATOM     37  H   UNL     1     -49.742  24.085  26.384  1.00  0.00     0.064 H 
ENDBRANCH  20  22
ENDBRANCH  15  18
ENDBRANCH   1  15
BRANCH   6  38
ATOM     38  C   UNL     1     -45.203  37.519  30.274  1.00  0.00     0.083 C 
ATOM     39  H   UNL     1     -44.738  36.898  31.046  1.00  0.00     0.063 H 
ATOM     40  H   UNL     1     -44.443  38.181  29.847  1.00  0.00     0.063 H 
BRANCH  38  41
ATOM     41  O   UNL     1     -46.220  38.307  30.874  1.00  0.00    -0.390 OA
ATOM     42  H   UNL     1     -45.891  38.543  31.760  1.00  0.00     0.211 HD
ENDBRANCH  38  41
ENDBRANCH   6  38
TORSDOF 5
ENDMDL
MODEL 6
REMARK VINA RESULT:      -9.0      2.538      9.177
REMARK SMILES O=C(NCc1ccc2cc(CO)[nH]c2c1)c1cc(=O)n2ccccc2n1
REMARK SMILES IDX 5 1 6 2 7 3 8 4 9 5 10 6 13 7 14 8 15 9 4 15 3 18 1 19 2 20
REMARK SMILES IDX 16 22 17 23 26 24 18 25 25 27 19 28 20 29 24 30 21 31 23 32
REMARK SMILES IDX 22 34 11 38 12 41
REMARK H PARENT 6 10 7 11 9 12 13 13 15 14 4 16 4 17 3 21 17 26 24 33 21 35
REMARK H PARENT 23 36 22 37 11 39 11 40 12 42
REMARK Flexibility Score: inf
ROOT
ATOM      1  C   UNL     1     -46.625  37.373  28.358  1.00  0.00    -0.027 A 
ATOM      2  C   UNL     1     -46.761  37.898  27.066  1.00  0.00    -0.057 A 
ATOM      3  C   UNL     1     -45.947  38.947  26.621  1.00  0.00    -0.052 A 
ATOM      4  C   UNL     1     -44.972  39.477  27.486  1.00  0.00    -0.000 A 
ATOM      5  C   UNL     1     -44.004  40.514  27.368  1.00  0.00    -0.031 A 
ATOM      6  C   UNL     1     -43.310  40.585  28.560  1.00  0.00     0.042 A 
ATOM      7  N   UNL     1     -43.826  39.619  29.390  1.00  0.00    -0.356 N 
ATOM      8  C   UNL     1     -44.841  38.935  28.762  1.00  0.00     0.046 A 
ATOM      9  C   UNL     1     -45.646  37.886  29.225  1.00  0.00    -0.033 A 
ATOM     10  H   UNL     1     -47.508  37.491  26.388  1.00  0.00     0.063 H 
ATOM     11  H   UNL     1     -46.070  39.346  25.619  1.00  0.00     0.063 H 
ATOM     12  H   UNL     1     -43.837  41.138  26.501  1.00  0.00     0.065 H 
ATOM     13  H   UNL     1     -43.518  39.459  30.340  1.00  0.00     0.166 HD
ATOM     14  H   UNL     1     -45.515  37.479  30.224  1.00  0.00     0.065 H 
ENDROOT
BRANCH   1  15
ATOM     15  C   UNL     1     -47.491  36.224  28.804  1.00  0.00     0.043 C 
ATOM     16  H   UNL     1     -47.221  35.903  29.817  1.00  0.00     0.054 H 
ATOM     17  H   UNL     1     -48.546  36.518  28.838  1.00  0.00     0.054 H 
BRANCH  15  18
ATOM     18  N   UNL     1     -47.361  35.107  27.908  1.00  0.00    -0.347 N 
ATOM     19  O   UNL     1     -49.516  35.179  27.123  1.00  0.00    -0.268 OA
ATOM     20  C   UNL     1     -48.392  34.690  27.108  1.00  0.00     0.270 C 
ATOM     21  H   UNL     1     -46.456  34.667  27.765  1.00  0.00     0.164 HD
BRANCH  20  22
ATOM     22  C   UNL     1     -47.992  33.561  26.190  1.00  0.00     0.136 A 
ATOM     23  C   UNL     1     -47.059  33.839  25.276  1.00  0.00     0.035 A 
ATOM     24  N   UNL     1     -48.596  32.335  26.344  1.00  0.00    -0.225 NA
ATOM     25  C   UNL     1     -46.639  32.771  24.361  1.00  0.00     0.258 A 
ATOM     26  H   UNL     1     -46.589  34.808  25.164  1.00  0.00     0.071 H 
ATOM     27  C   UNL     1     -48.224  31.392  25.534  1.00  0.00     0.140 A 
ATOM     28  O   UNL     1     -45.780  33.018  23.516  1.00  0.00    -0.269 OA
ATOM     29  N   UNL     1     -47.265  31.545  24.538  1.00  0.00    -0.268 N 
ATOM     30  C   UNL     1     -48.854  30.047  25.665  1.00  0.00    -0.019 A 
ATOM     31  C   UNL     1     -46.921  30.483  23.709  1.00  0.00     0.014 A 
ATOM     32  C   UNL     1     -48.489  29.056  24.843  1.00  0.00    -0.057 A 
ATOM     33  H   UNL     1     -49.601  29.920  26.437  1.00  0.00     0.066 H 
ATOM     34  C   UNL     1     -47.491  29.277  23.832  1.00  0.00    -0.045 A 
ATOM     35  H   UNL     1     -46.164  30.673  22.951  1.00  0.00     0.082 H 
ATOM     36  H   UNL     1     -48.937  28.071  24.923  1.00  0.00     0.062 H 
ATOM     37  H   UNL     1     -47.215  28.456  23.179  1.00  0.00     0.064 H 
ENDBRANCH  20  22
ENDBRANCH  15  18
ENDBRANCH   1  15
BRANCH   6  38
ATOM     38  C   UNL     1     -42.203  41.466  28.995  1.00  0.00     0.083 C 
ATOM     39  H   UNL     1     -41.303  41.292  28.398  1.00  0.00     0.063 H 
ATOM     40  H   UNL     1     -42.468  42.525  28.934  1.00  0.00     0.063 H 
BRANCH  38  41
ATOM     41  O   UNL     1     -41.926  41.133  30.346  1.00  0.00    -0.390 OA
ATOM     42  H   UNL     1     -40.980  40.902  30.379  1.00  0.00     0.211 HD
ENDBRANCH  38  41
ENDBRANCH   6  38
TORSDOF 5
ENDMDL
MODEL 7
REMARK VINA RESULT:      -9.0      1.903      2.790
REMARK SMILES O=C(NCc1ccc2cc(CO)[nH]c2c1)c1cc(=O)n2ccccc2n1
REMARK SMILES IDX 5 1 6 2 7 3 8 4 9 5 10 6 13 7 14 8 15 9 4 15 3 18 1 19 2 20
REMARK SMILES IDX 16 22 17 23 26 24 18 25 25 27 19 28 20 29 24 30 21 31 23 32
REMARK SMILES IDX 22 34 11 38 12 41
REMARK H PARENT 6 10 7 11 9 12 13 13 15 14 4 16 4 17 3 21 17 26 24 33 21 35
REMARK H PARENT 23 36 22 37 11 39 11 40 12 42
REMARK Flexibility Score: inf
ROOT
ATOM      1  C   UNL     1     -46.414  34.629  27.155  1.00  0.00    -0.027 A 
ATOM      2  C   UNL     1     -47.813  34.649  27.080  1.00  0.00    -0.057 A 
ATOM      3  C   UNL     1     -48.505  33.781  26.226  1.00  0.00    -0.052 A 
ATOM      4  C   UNL     1     -47.783  32.867  25.438  1.00  0.00    -0.000 A 
ATOM      5  C   UNL     1     -48.149  31.872  24.490  1.00  0.00    -0.031 A 
ATOM      6  C   UNL     1     -46.993  31.274  24.031  1.00  0.00     0.042 A 
ATOM      7  N   UNL     1     -45.939  31.875  24.678  1.00  0.00    -0.356 N 
ATOM      8  C   UNL     1     -46.393  32.850  25.535  1.00  0.00     0.046 A 
ATOM      9  C   UNL     1     -45.683  33.711  26.382  1.00  0.00    -0.033 A 
ATOM     10  H   UNL     1     -48.382  35.348  27.690  1.00  0.00     0.063 H 
ATOM     11  H   UNL     1     -49.590  33.814  26.176  1.00  0.00     0.063 H 
ATOM     12  H   UNL     1     -49.155  31.622  24.181  1.00  0.00     0.065 H 
ATOM     13  H   UNL     1     -44.967  31.647  24.518  1.00  0.00     0.166 HD
ATOM     14  H   UNL     1     -44.599  33.669  26.441  1.00  0.00     0.065 H 
ENDROOT
BRANCH   1  15
ATOM     15  C   UNL     1     -45.692  35.551  28.102  1.00  0.00     0.043 C 
ATOM     16  H   UNL     1     -46.134  35.503  29.104  1.00  0.00     0.054 H 
ATOM     17  H   UNL     1     -44.640  35.260  28.207  1.00  0.00     0.054 H 
BRANCH  15  18
ATOM     18  N   UNL     1     -45.742  36.909  27.632  1.00  0.00    -0.347 N 
ATOM     19  O   UNL     1     -44.841  37.849  29.522  1.00  0.00    -0.268 OA
ATOM     20  C   UNL     1     -45.277  37.958  28.382  1.00  0.00     0.270 C 
ATOM     21  H   UNL     1     -46.025  37.110  26.677  1.00  0.00     0.164 HD
BRANCH  20  22
ATOM     22  C   UNL     1     -45.351  39.272  27.644  1.00  0.00     0.136 A 
ATOM     23  C   UNL     1     -46.562  39.659  27.236  1.00  0.00     0.035 A 
ATOM     24  N   UNL     1     -44.191  39.984  27.441  1.00  0.00    -0.225 NA
ATOM     25  C   UNL     1     -46.680  40.931  26.514  1.00  0.00     0.258 A 
ATOM     26  H   UNL     1     -47.468  39.091  27.402  1.00  0.00     0.071 H 
ATOM     27  C   UNL     1     -44.299  41.108  26.801  1.00  0.00     0.140 A 
ATOM     28  O   UNL     1     -47.792  41.296  26.134  1.00  0.00    -0.269 OA
ATOM     29  N   UNL     1     -45.496  41.628  26.321  1.00  0.00    -0.268 N 
ATOM     30  C   UNL     1     -43.067  41.912  26.557  1.00  0.00    -0.019 A 
ATOM     31  C   UNL     1     -45.527  42.842  25.644  1.00  0.00     0.014 A 
ATOM     32  C   UNL     1     -43.148  43.075  25.901  1.00  0.00    -0.057 A 
ATOM     33  H   UNL     1     -42.131  41.514  26.928  1.00  0.00     0.066 H 
ATOM     34  C   UNL     1     -44.417  43.559  25.428  1.00  0.00    -0.045 A 
ATOM     35  H   UNL     1     -46.497  43.189  25.296  1.00  0.00     0.082 H 
ATOM     36  H   UNL     1     -42.262  43.674  25.713  1.00  0.00     0.062 H 
ATOM     37  H   UNL     1     -44.453  44.506  24.899  1.00  0.00     0.064 H 
ENDBRANCH  20  22
ENDBRANCH  15  18
ENDBRANCH   1  15
BRANCH   6  38
ATOM     38  C   UNL     1     -46.777  30.187  23.049  1.00  0.00     0.083 C 
ATOM     39  H   UNL     1     -47.697  29.962  22.502  1.00  0.00     0.063 H 
ATOM     40  H   UNL     1     -45.987  30.428  22.332  1.00  0.00     0.063 H 
BRANCH  38  41
ATOM     41  O   UNL     1     -46.396  29.039  23.792  1.00  0.00    -0.390 OA
ATOM     42  H   UNL     1     -46.280  29.339  24.711  1.00  0.00     0.211 HD
ENDBRANCH  38  41
ENDBRANCH   6  38
TORSDOF 5
ENDMDL
