MODEL 1
REMARK VINA RESULT:     -10.9      0.000      0.000
REMARK SMILES Nc1ncnc2c1ccn2[C@@H]1O[C@H](COc2ccc3cnc(N[C@H]4C[C@@H](N)C4)nc3c2)[C@@H](O)[C@@H]1F
REMARK SMILES IDX 15 1 14 2 13 5 11 6 12 7 34 8 32 10 35 11 10 15 2 16 3 17
REMARK SMILES IDX 7 18 4 19 6 20 8 21 5 22 9 24 1 27 33 30 16 32 17 33 31 34
REMARK SMILES IDX 18 35 30 37 19 39 29 41 20 42 22 43 21 44 23 46 24 48 28 49
REMARK SMILES IDX 25 50 26 52 27 58
REMARK H PARENT 14 3 14 4 11 9 34 12 13 13 32 14 4 23 8 25 9 26 1 28 1 29
REMARK H PARENT 33 31 17 36 31 38 18 40 20 45 23 47 24 51 28 53 28 54 25 55
REMARK H PARENT 25 56 26 57 27 59 27 60
REMARK Flexibility Score: inf
ROOT
ATOM      1  O   UNL     1     -47.208  34.696  27.106  1.00  0.00    -0.491 OA
ENDROOT
BRANCH   1   2
ATOM      2  C   UNL     1     -45.942  35.285  27.427  1.00  0.00     0.117 C 
ATOM      3  H   UNL     1     -45.476  35.735  26.544  1.00  0.00     0.073 H 
ATOM      4  H   UNL     1     -45.297  34.449  27.723  1.00  0.00     0.073 H 
BRANCH   2   5
ATOM      5  C   UNL     1     -46.067  36.261  28.599  1.00  0.00     0.123 C 
ATOM      6  C   UNL     1     -45.248  38.357  29.202  1.00  0.00     0.169 C 
ATOM      7  O   UNL     1     -44.862  37.045  28.743  1.00  0.00    -0.345 OA
ATOM      8  C   UNL     1     -46.769  38.398  29.289  1.00  0.00     0.173 C 
ATOM      9  H   UNL     1     -44.826  38.476  30.207  1.00  0.00     0.088 H 
ATOM     10  C   UNL     1     -47.206  37.252  28.404  1.00  0.00     0.119 C 
ATOM     11  F   UNL     1     -47.311  39.565  28.867  1.00  0.00    -0.239 F 
ATOM     12  H   UNL     1     -47.103  38.237  30.321  1.00  0.00     0.074 H 
ATOM     13  H   UNL     1     -46.196  35.707  29.537  1.00  0.00     0.067 H 
ATOM     14  H   UNL     1     -47.315  37.569  27.364  1.00  0.00     0.066 H 
BRANCH   6  15
ATOM     15  N   UNL     1     -44.626  39.366  28.360  1.00  0.00    -0.303 N 
ATOM     16  C   UNL     1     -42.210  41.875  27.718  1.00  0.00     0.136 A 
ATOM     17  N   UNL     1     -41.499  41.883  28.861  1.00  0.00    -0.219 NA
ATOM     18  C   UNL     1     -43.285  40.983  27.593  1.00  0.00     0.061 A 
ATOM     19  C   UNL     1     -41.862  41.034  29.839  1.00  0.00     0.120 A 
ATOM     20  C   UNL     1     -43.545  40.156  28.678  1.00  0.00     0.147 A 
ATOM     21  C   UNL     1     -44.248  40.677  26.593  1.00  0.00    -0.031 A 
ATOM     22  N   UNL     1     -42.859  40.131  29.834  1.00  0.00    -0.218 NA
ATOM     23  H   UNL     1     -41.269  41.081  30.747  1.00  0.00     0.106 H 
ATOM     24  C   UNL     1     -45.059  39.680  27.088  1.00  0.00     0.009 A 
ATOM     25  H   UNL     1     -44.342  41.144  25.622  1.00  0.00     0.065 H 
ATOM     26  H   UNL     1     -45.910  39.177  26.644  1.00  0.00     0.082 H 
BRANCH  16  27
ATOM     27  N   UNL     1     -41.816  42.751  26.717  1.00  0.00    -0.383 N 
ATOM     28  H   UNL     1     -42.412  43.560  26.603  1.00  0.00     0.158 HD
ATOM     29  H   UNL     1     -41.577  42.242  25.874  1.00  0.00     0.158 HD
ENDBRANCH  16  27
ENDBRANCH   6  15
BRANCH  10  30
ATOM     30  O   UNL     1     -48.454  36.700  28.817  1.00  0.00    -0.387 OA
ATOM     31  H   UNL     1     -49.145  37.125  28.275  1.00  0.00     0.211 HD
ENDBRANCH  10  30
ENDBRANCH   2   5
ENDBRANCH   1   2
BRANCH   1  32
ATOM     32  C   UNL     1     -47.237  33.610  26.277  1.00  0.00     0.121 A 
ATOM     33  C   UNL     1     -46.314  33.660  25.233  1.00  0.00    -0.019 A 
ATOM     34  C   UNL     1     -48.074  32.497  26.396  1.00  0.00     0.007 A 
ATOM     35  C   UNL     1     -46.234  32.615  24.316  1.00  0.00    -0.048 A 
ATOM     36  H   UNL     1     -45.656  34.521  25.135  1.00  0.00     0.066 H 
ATOM     37  C   UNL     1     -48.015  31.437  25.495  1.00  0.00     0.079 A 
ATOM     38  H   UNL     1     -48.799  32.412  27.200  1.00  0.00     0.069 H 
ATOM     39  C   UNL     1     -47.088  31.508  24.454  1.00  0.00     0.019 A 
ATOM     40  H   UNL     1     -45.512  32.668  23.505  1.00  0.00     0.063 H 
ATOM     41  N   UNL     1     -48.835  30.389  25.647  1.00  0.00    -0.213 NA
ATOM     42  C   UNL     1     -47.084  30.421  23.597  1.00  0.00     0.040 A 
ATOM     43  C   UNL     1     -48.759  29.390  24.755  1.00  0.00     0.223 A 
ATOM     44  N   UNL     1     -47.899  29.358  23.729  1.00  0.00    -0.221 NA
ATOM     45  H   UNL     1     -46.404  30.368  22.751  1.00  0.00     0.085 H 
BRANCH  43  46
ATOM     46  N   UNL     1     -49.598  28.284  24.879  1.00  0.00    -0.351 N 
ATOM     47  H   UNL     1     -50.053  28.156  23.984  1.00  0.00     0.163 HD
BRANCH  46  48
ATOM     48  C   UNL     1     -49.243  27.106  25.594  1.00  0.00     0.032 C 
ATOM     49  C   UNL     1     -47.914  26.463  25.117  1.00  0.00    -0.017 C 
ATOM     50  C   UNL     1     -48.511  27.416  26.925  1.00  0.00    -0.017 C 
ATOM     51  H   UNL     1     -50.079  26.405  25.710  1.00  0.00     0.053 H 
ATOM     52  C   UNL     1     -47.621  26.193  26.610  1.00  0.00     0.008 C 
ATOM     53  H   UNL     1     -47.227  27.156  24.614  1.00  0.00     0.030 H 
ATOM     54  H   UNL     1     -48.024  25.569  24.497  1.00  0.00     0.030 H 
ATOM     55  H   UNL     1     -47.998  28.387  26.949  1.00  0.00     0.030 H 
ATOM     56  H   UNL     1     -49.126  27.326  27.827  1.00  0.00     0.030 H 
ATOM     57  H   UNL     1     -47.982  25.234  26.993  1.00  0.00     0.046 H 
BRANCH  52  58
ATOM     58  N   UNL     1     -46.233  26.518  26.902  1.00  0.00    -0.328 NA
ATOM     59  H   UNL     1     -45.562  25.899  26.450  1.00  0.00     0.119 HD
ATOM     60  H   UNL     1     -46.006  26.506  27.896  1.00  0.00     0.119 HD
ENDBRANCH  52  58
ENDBRANCH  46  48
ENDBRANCH  43  46
ENDBRANCH   1  32
TORSDOF 9
ENDMDL
MODEL 2
REMARK VINA RESULT:     -10.3      1.967      3.113
REMARK SMILES Nc1ncnc2c1ccn2[C@@H]1O[C@H](COc2ccc3cnc(N[C@H]4C[C@@H](N)C4)nc3c2)[C@@H](O)[C@@H]1F
REMARK SMILES IDX 15 1 14 2 13 5 11 6 12 7 34 8 32 10 35 11 10 15 2 16 3 17
REMARK SMILES IDX 7 18 4 19 6 20 8 21 5 22 9 24 1 27 33 30 16 32 17 33 31 34
REMARK SMILES IDX 18 35 30 37 19 39 29 41 20 42 22 43 21 44 23 46 24 48 28 49
REMARK SMILES IDX 25 50 26 52 27 58
REMARK H PARENT 14 3 14 4 11 9 34 12 13 13 32 14 4 23 8 25 9 26 1 28 1 29
REMARK H PARENT 33 31 17 36 31 38 18 40 20 45 23 47 24 51 28 53 28 54 25 55
REMARK H PARENT 25 56 26 57 27 59 27 60
REMARK Flexibility Score: inf
ROOT
ATOM      1  O   UNL     1     -46.296  35.495  26.810  1.00  0.00    -0.491 OA
ENDROOT
BRANCH   1   2
ATOM      2  C   UNL     1     -45.662  35.330  28.085  1.00  0.00     0.117 C 
ATOM      3  H   UNL     1     -44.586  35.151  27.975  1.00  0.00     0.073 H 
ATOM      4  H   UNL     1     -46.085  34.409  28.505  1.00  0.00     0.073 H 
BRANCH   2   5
ATOM      5  C   UNL     1     -45.981  36.500  29.017  1.00  0.00     0.123 C 
ATOM      6  C   UNL     1     -45.299  38.707  29.322  1.00  0.00     0.169 C 
ATOM      7  O   UNL     1     -44.825  37.351  29.184  1.00  0.00    -0.345 OA
ATOM      8  C   UNL     1     -46.815  38.695  29.177  1.00  0.00     0.173 C 
ATOM      9  H   UNL     1     -45.036  39.030  30.336  1.00  0.00     0.088 H 
ATOM     10  C   UNL     1     -47.094  37.385  28.472  1.00  0.00     0.119 C 
ATOM     11  F   UNL     1     -47.307  39.736  28.465  1.00  0.00    -0.239 F 
ATOM     12  H   UNL     1     -47.299  38.713  30.160  1.00  0.00     0.074 H 
ATOM     13  H   UNL     1     -46.241  36.126  30.015  1.00  0.00     0.067 H 
ATOM     14  H   UNL     1     -47.048  37.497  27.386  1.00  0.00     0.066 H 
BRANCH   6  15
ATOM     15  N   UNL     1     -44.573  39.569  28.403  1.00  0.00    -0.303 N 
ATOM     16  C   UNL     1     -41.922  41.769  27.580  1.00  0.00     0.136 A 
ATOM     17  N   UNL     1     -41.227  41.819  28.732  1.00  0.00    -0.219 NA
ATOM     18  C   UNL     1     -43.075  40.973  27.516  1.00  0.00     0.061 A 
ATOM     19  C   UNL     1     -41.682  41.104  29.777  1.00  0.00     0.120 A 
ATOM     20  C   UNL     1     -43.426  40.281  28.668  1.00  0.00     0.147 A 
ATOM     21  C   UNL     1     -44.051  40.665  26.529  1.00  0.00    -0.031 A 
ATOM     22  N   UNL     1     -42.759  40.302  29.835  1.00  0.00    -0.218 NA
ATOM     23  H   UNL     1     -41.098  41.182  30.689  1.00  0.00     0.106 H 
ATOM     24  C   UNL     1     -44.959  39.800  27.098  1.00  0.00     0.009 A 
ATOM     25  H   UNL     1     -44.088  41.044  25.517  1.00  0.00     0.065 H 
ATOM     26  H   UNL     1     -45.848  39.338  26.685  1.00  0.00     0.082 H 
BRANCH  16  27
ATOM     27  N   UNL     1     -41.435  42.505  26.510  1.00  0.00    -0.383 N 
ATOM     28  H   UNL     1     -40.833  41.992  25.881  1.00  0.00     0.158 HD
ATOM     29  H   UNL     1     -41.097  43.407  26.824  1.00  0.00     0.158 HD
ENDBRANCH  16  27
ENDBRANCH   6  15
BRANCH  10  30
ATOM     30  O   UNL     1     -48.380  36.863  28.797  1.00  0.00    -0.387 OA
ATOM     31  H   UNL     1     -48.278  36.353  29.622  1.00  0.00     0.211 HD
ENDBRANCH  10  30
ENDBRANCH   2   5
ENDBRANCH   1   2
BRANCH   1  32
ATOM     32  C   UNL     1     -47.011  34.453  26.290  1.00  0.00     0.121 A 
ATOM     33  C   UNL     1     -48.353  34.432  26.671  1.00  0.00    -0.019 A 
ATOM     34  C   UNL     1     -46.527  33.458  25.435  1.00  0.00     0.007 A 
ATOM     35  C   UNL     1     -49.197  33.426  26.209  1.00  0.00    -0.048 A 
ATOM     36  H   UNL     1     -48.738  35.204  27.333  1.00  0.00     0.066 H 
ATOM     37  C   UNL     1     -47.350  32.442  24.957  1.00  0.00     0.079 A 
ATOM     38  H   UNL     1     -45.493  33.443  25.106  1.00  0.00     0.069 H 
ATOM     39  C   UNL     1     -48.688  32.435  25.353  1.00  0.00     0.019 A 
ATOM     40  H   UNL     1     -50.240  33.419  26.515  1.00  0.00     0.063 H 
ATOM     41  N   UNL     1     -46.845  31.509  24.139  1.00  0.00    -0.213 NA
ATOM     42  C   UNL     1     -49.446  31.397  24.839  1.00  0.00     0.040 A 
ATOM     43  C   UNL     1     -47.662  30.538  23.704  1.00  0.00     0.223 A 
ATOM     44  N   UNL     1     -48.961  30.448  24.017  1.00  0.00    -0.221 NA
ATOM     45  H   UNL     1     -50.500  31.291  25.080  1.00  0.00     0.085 H 
BRANCH  43  46
ATOM     46  N   UNL     1     -47.172  29.548  22.853  1.00  0.00    -0.351 N 
ATOM     47  H   UNL     1     -47.774  28.741  22.961  1.00  0.00     0.163 HD
BRANCH  46  48
ATOM     48  C   UNL     1     -46.678  29.812  21.545  1.00  0.00     0.032 C 
ATOM     49  C   UNL     1     -47.467  30.914  20.791  1.00  0.00    -0.017 C 
ATOM     50  C   UNL     1     -45.481  30.798  21.550  1.00  0.00    -0.017 C 
ATOM     51  H   UNL     1     -46.489  28.901  20.965  1.00  0.00     0.053 H 
ATOM     52  C   UNL     1     -46.098  31.402  20.268  1.00  0.00     0.008 C 
ATOM     53  H   UNL     1     -48.007  31.615  21.441  1.00  0.00     0.030 H 
ATOM     54  H   UNL     1     -48.155  30.552  20.021  1.00  0.00     0.030 H 
ATOM     55  H   UNL     1     -45.442  31.465  22.421  1.00  0.00     0.030 H 
ATOM     56  H   UNL     1     -44.497  30.336  21.421  1.00  0.00     0.030 H 
ATOM     57  H   UNL     1     -45.767  30.953  19.327  1.00  0.00     0.046 H 
BRANCH  52  58
ATOM     58  N   UNL     1     -46.036  32.854  20.340  1.00  0.00    -0.328 NA
ATOM     59  H   UNL     1     -45.823  33.302  19.450  1.00  0.00     0.119 HD
ATOM     60  H   UNL     1     -45.349  33.206  21.007  1.00  0.00     0.119 HD
ENDBRANCH  52  58
ENDBRANCH  46  48
ENDBRANCH  43  46
ENDBRANCH   1  32
TORSDOF 9
ENDMDL
MODEL 3
REMARK VINA RESULT:      -9.6      1.674      2.692
REMARK SMILES Nc1ncnc2c1ccn2[C@@H]1O[C@H](COc2ccc3cnc(N[C@H]4C[C@@H](N)C4)nc3c2)[C@@H](O)[C@@H]1F
REMARK SMILES IDX 15 1 14 2 13 5 11 6 12 7 34 8 32 10 35 11 10 15 2 16 3 17
REMARK SMILES IDX 7 18 4 19 6 20 8 21 5 22 9 24 1 27 33 30 16 32 17 33 31 34
REMARK SMILES IDX 18 35 30 37 19 39 29 41 20 42 22 43 21 44 23 46 24 48 28 49
REMARK SMILES IDX 25 50 26 52 27 58
REMARK H PARENT 14 3 14 4 11 9 34 12 13 13 32 14 4 23 8 25 9 26 1 28 1 29
REMARK H PARENT 33 31 17 36 31 38 18 40 20 45 23 47 24 51 28 53 28 54 25 55
REMARK H PARENT 25 56 26 57 27 59 27 60
REMARK Flexibility Score: inf
ROOT
ATOM      1  O   UNL     1     -47.030  34.363  27.536  1.00  0.00    -0.491 OA
ENDROOT
BRANCH   1   2
ATOM      2  C   UNL     1     -45.955  35.310  27.493  1.00  0.00     0.117 C 
ATOM      3  H   UNL     1     -45.898  35.804  26.517  1.00  0.00     0.073 H 
ATOM      4  H   UNL     1     -45.038  34.717  27.593  1.00  0.00     0.073 H 
BRANCH   2   5
ATOM      5  C   UNL     1     -46.044  36.299  28.658  1.00  0.00     0.123 C 
ATOM      6  C   UNL     1     -45.189  38.391  29.222  1.00  0.00     0.169 C 
ATOM      7  O   UNL     1     -44.827  37.070  28.768  1.00  0.00    -0.345 OA
ATOM      8  C   UNL     1     -46.706  38.451  29.343  1.00  0.00     0.173 C 
ATOM      9  H   UNL     1     -44.742  38.514  30.217  1.00  0.00     0.088 H 
ATOM     10  C   UNL     1     -47.176  37.301  28.479  1.00  0.00     0.119 C 
ATOM     11  F   UNL     1     -47.245  39.619  28.921  1.00  0.00    -0.239 F 
ATOM     12  H   UNL     1     -47.019  38.303  30.383  1.00  0.00     0.074 H 
ATOM     13  H   UNL     1     -46.158  35.756  29.604  1.00  0.00     0.067 H 
ATOM     14  H   UNL     1     -47.304  37.609  27.438  1.00  0.00     0.066 H 
BRANCH   6  15
ATOM     15  N   UNL     1     -44.574  39.385  28.357  1.00  0.00    -0.303 N 
ATOM     16  C   UNL     1     -42.198  41.920  27.667  1.00  0.00     0.136 A 
ATOM     17  N   UNL     1     -41.503  41.978  28.819  1.00  0.00    -0.219 NA
ATOM     18  C   UNL     1     -43.253  41.003  27.556  1.00  0.00     0.061 A 
ATOM     19  C   UNL     1     -41.864  41.153  29.819  1.00  0.00     0.120 A 
ATOM     20  C   UNL     1     -43.513  40.205  28.664  1.00  0.00     0.147 A 
ATOM     21  C   UNL     1     -44.196  40.647  26.554  1.00  0.00    -0.031 A 
ATOM     22  N   UNL     1     -42.842  40.231  29.829  1.00  0.00    -0.218 NA
ATOM     23  H   UNL     1     -41.285  41.241  30.733  1.00  0.00     0.106 H 
ATOM     24  C   UNL     1     -44.995  39.650  27.070  1.00  0.00     0.009 A 
ATOM     25  H   UNL     1     -44.286  41.080  25.567  1.00  0.00     0.065 H 
ATOM     26  H   UNL     1     -45.829  39.116  26.631  1.00  0.00     0.082 H 
BRANCH  16  27
ATOM     27  N   UNL     1     -41.807  42.771  26.644  1.00  0.00    -0.383 N 
ATOM     28  H   UNL     1     -42.424  42.783  25.844  1.00  0.00     0.158 HD
ATOM     29  H   UNL     1     -40.818  42.664  26.452  1.00  0.00     0.158 HD
ENDBRANCH  16  27
ENDBRANCH   6  15
BRANCH  10  30
ATOM     30  O   UNL     1     -48.420  36.767  28.925  1.00  0.00    -0.387 OA
ATOM     31  H   UNL     1     -49.026  36.785  28.160  1.00  0.00     0.211 HD
ENDBRANCH  10  30
ENDBRANCH   2   5
ENDBRANCH   1   2
BRANCH   1  32
ATOM     32  C   UNL     1     -47.164  33.473  26.507  1.00  0.00     0.121 A 
ATOM     33  C   UNL     1     -46.159  33.555  25.543  1.00  0.00    -0.019 A 
ATOM     34  C   UNL     1     -48.177  32.521  26.359  1.00  0.00     0.007 A 
ATOM     35  C   UNL     1     -46.171  32.703  24.443  1.00  0.00    -0.048 A 
ATOM     36  H   UNL     1     -45.365  34.291  25.653  1.00  0.00     0.066 H 
ATOM     37  C   UNL     1     -48.212  31.656  25.269  1.00  0.00     0.079 A 
ATOM     38  H   UNL     1     -48.972  32.416  27.091  1.00  0.00     0.069 H 
ATOM     39  C   UNL     1     -47.201  31.756  24.313  1.00  0.00     0.019 A 
ATOM     40  H   UNL     1     -45.384  32.779  23.697  1.00  0.00     0.063 H 
ATOM     41  N   UNL     1     -49.201  30.757  25.167  1.00  0.00    -0.213 NA
ATOM     42  C   UNL     1     -47.301  30.865  23.259  1.00  0.00     0.040 A 
ATOM     43  C   UNL     1     -49.212  29.945  24.100  1.00  0.00     0.223 A 
ATOM     44  N   UNL     1     -48.285  29.955  23.134  1.00  0.00    -0.221 NA
ATOM     45  H   UNL     1     -46.569  30.853  22.455  1.00  0.00     0.085 H 
BRANCH  43  46
ATOM     46  N   UNL     1     -50.227  28.999  23.957  1.00  0.00    -0.351 N 
ATOM     47  H   UNL     1     -50.438  28.651  24.884  1.00  0.00     0.163 HD
BRANCH  46  48
ATOM     48  C   UNL     1     -51.322  29.152  23.062  1.00  0.00     0.032 C 
ATOM     49  C   UNL     1     -52.338  30.240  23.498  1.00  0.00    -0.017 C 
ATOM     50  C   UNL     1     -50.985  30.075  21.862  1.00  0.00    -0.017 C 
ATOM     51  H   UNL     1     -51.769  28.196  22.763  1.00  0.00     0.053 H 
ATOM     52  C   UNL     1     -52.422  30.623  22.004  1.00  0.00     0.008 C 
ATOM     53  H   UNL     1     -51.925  31.008  24.166  1.00  0.00     0.030 H 
ATOM     54  H   UNL     1     -53.268  29.862  23.934  1.00  0.00     0.030 H 
ATOM     55  H   UNL     1     -50.178  30.795  22.053  1.00  0.00     0.030 H 
ATOM     56  H   UNL     1     -50.773  29.558  20.921  1.00  0.00     0.030 H 
ATOM     57  H   UNL     1     -53.188  30.097  21.427  1.00  0.00     0.046 H 
BRANCH  52  58
ATOM     58  N   UNL     1     -52.402  32.073  21.869  1.00  0.00    -0.328 NA
ATOM     59  H   UNL     1     -52.892  32.562  22.617  1.00  0.00     0.119 HD
ATOM     60  H   UNL     1     -52.804  32.412  20.996  1.00  0.00     0.119 HD
ENDBRANCH  52  58
ENDBRANCH  46  48
ENDBRANCH  43  46
ENDBRANCH   1  32
TORSDOF 9
ENDMDL
MODEL 4
REMARK VINA RESULT:      -9.5      2.566     11.857
REMARK SMILES Nc1ncnc2c1ccn2[C@@H]1O[C@H](COc2ccc3cnc(N[C@H]4C[C@@H](N)C4)nc3c2)[C@@H](O)[C@@H]1F
REMARK SMILES IDX 15 1 14 2 13 5 11 6 12 7 34 8 32 10 35 11 10 15 2 16 3 17
REMARK SMILES IDX 7 18 4 19 6 20 8 21 5 22 9 24 1 27 33 30 16 32 17 33 31 34
REMARK SMILES IDX 18 35 30 37 19 39 29 41 20 42 22 43 21 44 23 46 24 48 28 49
REMARK SMILES IDX 25 50 26 52 27 58
REMARK H PARENT 14 3 14 4 11 9 34 12 13 13 32 14 4 23 8 25 9 26 1 28 1 29
REMARK H PARENT 33 31 17 36 31 38 18 40 20 45 23 47 24 51 28 53 28 54 25 55
REMARK H PARENT 25 56 26 57 27 59 27 60
REMARK Flexibility Score: inf
ROOT
ATOM      1  O   UNL     1     -48.140  34.778  27.666  1.00  0.00    -0.491 OA
ENDROOT
BRANCH   1   2
ATOM      2  C   UNL     1     -48.583  34.086  26.492  1.00  0.00     0.117 C 
ATOM      3  H   UNL     1     -48.587  34.746  25.618  1.00  0.00     0.073 H 
ATOM      4  H   UNL     1     -49.630  33.823  26.684  1.00  0.00     0.073 H 
BRANCH   2   5
ATOM      5  C   UNL     1     -47.776  32.805  26.268  1.00  0.00     0.123 C 
ATOM      6  C   UNL     1     -48.145  30.638  25.498  1.00  0.00     0.169 C 
ATOM      7  O   UNL     1     -48.613  31.638  26.426  1.00  0.00    -0.345 OA
ATOM      8  C   UNL     1     -47.000  31.239  24.693  1.00  0.00     0.173 C 
ATOM      9  H   UNL     1     -47.763  29.804  26.101  1.00  0.00     0.088 H 
ATOM     10  C   UNL     1     -47.190  32.730  24.865  1.00  0.00     0.119 C 
ATOM     11  F   UNL     1     -47.016  30.902  23.381  1.00  0.00    -0.239 F 
ATOM     12  H   UNL     1     -46.032  30.924  25.099  1.00  0.00     0.074 H 
ATOM     13  H   UNL     1     -46.982  32.725  27.021  1.00  0.00     0.067 H 
ATOM     14  H   UNL     1     -47.862  33.138  24.106  1.00  0.00     0.066 H 
BRANCH   6  15
ATOM     15  N   UNL     1     -49.269  30.125  24.732  1.00  0.00    -0.303 N 
ATOM     16  C   UNL     1     -51.271  27.495  23.456  1.00  0.00     0.136 A 
ATOM     17  N   UNL     1     -50.660  26.406  23.958  1.00  0.00    -0.219 NA
ATOM     18  C   UNL     1     -50.750  28.763  23.754  1.00  0.00     0.061 A 
ATOM     19  C   UNL     1     -49.566  26.587  24.719  1.00  0.00     0.120 A 
ATOM     20  C   UNL     1     -49.619  28.805  24.560  1.00  0.00     0.147 A 
ATOM     21  C   UNL     1     -51.084  30.107  23.431  1.00  0.00    -0.031 A 
ATOM     22  N   UNL     1     -48.982  27.742  25.082  1.00  0.00    -0.218 NA
ATOM     23  H   UNL     1     -49.098  25.680  25.093  1.00  0.00     0.106 H 
ATOM     24  C   UNL     1     -50.160  30.924  24.045  1.00  0.00     0.009 A 
ATOM     25  H   UNL     1     -51.905  30.437  22.810  1.00  0.00     0.065 H 
ATOM     26  H   UNL     1     -50.060  32.002  24.042  1.00  0.00     0.082 H 
BRANCH  16  27
ATOM     27  N   UNL     1     -52.402  27.291  22.680  1.00  0.00    -0.383 N 
ATOM     28  H   UNL     1     -52.230  26.852  21.786  1.00  0.00     0.158 HD
ATOM     29  H   UNL     1     -52.982  28.122  22.672  1.00  0.00     0.158 HD
ENDBRANCH  16  27
ENDBRANCH   6  15
BRANCH  10  30
ATOM     30  O   UNL     1     -45.958  33.442  24.776  1.00  0.00    -0.387 OA
ATOM     31  H   UNL     1     -46.118  34.214  24.201  1.00  0.00     0.211 HD
ENDBRANCH  10  30
ENDBRANCH   2   5
ENDBRANCH   1   2
BRANCH   1  32
ATOM     32  C   UNL     1     -47.979  36.134  27.609  1.00  0.00     0.121 A 
ATOM     33  C   UNL     1     -49.108  36.862  27.986  1.00  0.00    -0.019 A 
ATOM     34  C   UNL     1     -46.819  36.817  27.233  1.00  0.00     0.007 A 
ATOM     35  C   UNL     1     -49.079  38.253  27.979  1.00  0.00    -0.048 A 
ATOM     36  H   UNL     1     -50.013  36.338  28.285  1.00  0.00     0.066 H 
ATOM     37  C   UNL     1     -46.763  38.208  27.218  1.00  0.00     0.079 A 
ATOM     38  H   UNL     1     -45.915  36.290  26.943  1.00  0.00     0.069 H 
ATOM     39  C   UNL     1     -47.904  38.919  27.593  1.00  0.00     0.019 A 
ATOM     40  H   UNL     1     -49.966  38.809  28.272  1.00  0.00     0.063 H 
ATOM     41  N   UNL     1     -45.630  38.823  26.851  1.00  0.00    -0.213 NA
ATOM     42  C   UNL     1     -47.775  40.296  27.555  1.00  0.00     0.040 A 
ATOM     43  C   UNL     1     -45.612  40.164  26.838  1.00  0.00     0.223 A 
ATOM     44  N   UNL     1     -46.648  40.936  27.189  1.00  0.00    -0.221 NA
ATOM     45  H   UNL     1     -48.599  40.951  27.827  1.00  0.00     0.085 H 
BRANCH  43  46
ATOM     46  N   UNL     1     -44.453  40.839  26.459  1.00  0.00    -0.351 N 
ATOM     47  H   UNL     1     -44.567  41.102  25.489  1.00  0.00     0.163 HD
BRANCH  46  48
ATOM     48  C   UNL     1     -43.773  41.763  27.301  1.00  0.00     0.032 C 
ATOM     49  C   UNL     1     -43.023  41.095  28.484  1.00  0.00    -0.017 C 
ATOM     50  C   UNL     1     -42.375  42.151  26.751  1.00  0.00    -0.017 C 
ATOM     51  H   UNL     1     -44.388  42.629  27.574  1.00  0.00     0.053 H 
ATOM     52  C   UNL     1     -41.895  42.117  28.219  1.00  0.00     0.008 C 
ATOM     53  H   UNL     1     -42.761  40.042  28.321  1.00  0.00     0.030 H 
ATOM     54  H   UNL     1     -43.513  41.187  29.457  1.00  0.00     0.030 H 
ATOM     55  H   UNL     1     -41.924  41.405  26.084  1.00  0.00     0.030 H 
ATOM     56  H   UNL     1     -42.321  43.130  26.265  1.00  0.00     0.030 H 
ATOM     57  H   UNL     1     -41.979  43.060  28.766  1.00  0.00     0.046 H 
BRANCH  52  58
ATOM     58  N   UNL     1     -40.604  41.448  28.290  1.00  0.00    -0.328 NA
ATOM     59  H   UNL     1     -40.469  40.737  27.573  1.00  0.00     0.119 HD
ATOM     60  H   UNL     1     -40.424  40.990  29.183  1.00  0.00     0.119 HD
ENDBRANCH  52  58
ENDBRANCH  46  48
ENDBRANCH  43  46
ENDBRANCH   1  32
TORSDOF 9
ENDMDL
MODEL 5
REMARK VINA RESULT:      -9.4      2.089      2.852
REMARK SMILES Nc1ncnc2c1ccn2[C@@H]1O[C@H](COc2ccc3cnc(N[C@H]4C[C@@H](N)C4)nc3c2)[C@@H](O)[C@@H]1F
REMARK SMILES IDX 15 1 14 2 13 5 11 6 12 7 34 8 32 10 35 11 10 15 2 16 3 17
REMARK SMILES IDX 7 18 4 19 6 20 8 21 5 22 9 24 1 27 33 30 16 32 17 33 31 34
REMARK SMILES IDX 18 35 30 37 19 39 29 41 20 42 22 43 21 44 23 46 24 48 28 49
REMARK SMILES IDX 25 50 26 52 27 58
REMARK H PARENT 14 3 14 4 11 9 34 12 13 13 32 14 4 23 8 25 9 26 1 28 1 29
REMARK H PARENT 33 31 17 36 31 38 18 40 20 45 23 47 24 51 28 53 28 54 25 55
REMARK H PARENT 25 56 26 57 27 59 27 60
REMARK Flexibility Score: inf
ROOT
ATOM      1  O   UNL     1     -47.828  35.010  26.581  1.00  0.00    -0.491 OA
ENDROOT
BRANCH   1   2
ATOM      2  C   UNL     1     -47.573  35.028  27.991  1.00  0.00     0.117 C 
ATOM      3  H   UNL     1     -47.651  34.023  28.422  1.00  0.00     0.073 H 
ATOM      4  H   UNL     1     -48.389  35.615  28.429  1.00  0.00     0.073 H 
BRANCH   2   5
ATOM      5  C   UNL     1     -46.239  35.709  28.303  1.00  0.00     0.123 C 
ATOM      6  C   UNL     1     -45.161  37.715  27.811  1.00  0.00     0.169 C 
ATOM      7  O   UNL     1     -45.849  36.590  27.226  1.00  0.00    -0.345 OA
ATOM      8  C   UNL     1     -45.178  37.544  29.324  1.00  0.00     0.173 C 
ATOM      9  H   UNL     1     -44.125  37.670  27.454  1.00  0.00     0.088 H 
ATOM     10  C   UNL     1     -46.309  36.567  29.559  1.00  0.00     0.119 C 
ATOM     11  F   UNL     1     -45.392  38.696  30.004  1.00  0.00    -0.239 F 
ATOM     12  H   UNL     1     -44.229  37.127  29.679  1.00  0.00     0.074 H 
ATOM     13  H   UNL     1     -45.445  34.956  28.395  1.00  0.00     0.067 H 
ATOM     14  H   UNL     1     -47.267  37.081  29.663  1.00  0.00     0.066 H 
BRANCH   6  15
ATOM     15  N   UNL     1     -45.731  38.950  27.298  1.00  0.00    -0.303 N 
ATOM     16  C   UNL     1     -45.484  42.292  26.148  1.00  0.00     0.136 A 
ATOM     17  N   UNL     1     -44.160  42.522  26.231  1.00  0.00    -0.219 NA
ATOM     18  C   UNL     1     -45.980  41.036  26.529  1.00  0.00     0.061 A 
ATOM     19  C   UNL     1     -43.371  41.532  26.688  1.00  0.00     0.120 A 
ATOM     20  C   UNL     1     -45.052  40.102  26.975  1.00  0.00     0.147 A 
ATOM     21  C   UNL     1     -47.258  40.419  26.592  1.00  0.00    -0.031 A 
ATOM     22  N   UNL     1     -43.724  40.293  27.070  1.00  0.00    -0.218 NA
ATOM     23  H   UNL     1     -42.313  41.765  26.749  1.00  0.00     0.106 H 
ATOM     24  C   UNL     1     -47.079  39.138  27.066  1.00  0.00     0.009 A 
ATOM     25  H   UNL     1     -48.206  40.867  26.329  1.00  0.00     0.065 H 
ATOM     26  H   UNL     1     -47.797  38.352  27.264  1.00  0.00     0.082 H 
BRANCH  16  27
ATOM     27  N   UNL     1     -46.280  43.320  25.668  1.00  0.00    -0.383 N 
ATOM     28  H   UNL     1     -45.970  44.249  25.917  1.00  0.00     0.158 HD
ATOM     29  H   UNL     1     -47.260  43.113  25.824  1.00  0.00     0.158 HD
ENDBRANCH  16  27
ENDBRANCH   6  15
BRANCH  10  30
ATOM     30  O   UNL     1     -46.109  35.787  30.735  1.00  0.00    -0.387 OA
ATOM     31  H   UNL     1     -46.957  35.780  31.218  1.00  0.00     0.211 HD
ENDBRANCH  10  30
ENDBRANCH   2   5
ENDBRANCH   1   2
BRANCH   1  32
ATOM     32  C   UNL     1     -47.676  33.836  25.899  1.00  0.00     0.121 A 
ATOM     33  C   UNL     1     -46.461  33.720  25.222  1.00  0.00    -0.019 A 
ATOM     34  C   UNL     1     -48.594  32.784  25.840  1.00  0.00     0.007 A 
ATOM     35  C   UNL     1     -46.174  32.571  24.490  1.00  0.00    -0.048 A 
ATOM     36  H   UNL     1     -45.739  34.532  25.266  1.00  0.00     0.066 H 
ATOM     37  C   UNL     1     -48.332  31.624  25.116  1.00  0.00     0.079 A 
ATOM     38  H   UNL     1     -49.546  32.829  26.360  1.00  0.00     0.069 H 
ATOM     39  C   UNL     1     -47.114  31.528  24.441  1.00  0.00     0.019 A 
ATOM     40  H   UNL     1     -45.225  32.494  23.964  1.00  0.00     0.063 H 
ATOM     41  N   UNL     1     -49.241  30.640  25.087  1.00  0.00    -0.213 NA
ATOM     42  C   UNL     1     -46.921  30.348  23.744  1.00  0.00     0.040 A 
ATOM     43  C   UNL     1     -48.961  29.540  24.372  1.00  0.00     0.223 A 
ATOM     44  N   UNL     1     -47.820  29.347  23.699  1.00  0.00    -0.221 NA
ATOM     45  H   UNL     1     -46.010  30.164  23.182  1.00  0.00     0.085 H 
BRANCH  43  46
ATOM     46  N   UNL     1     -49.883  28.496  24.316  1.00  0.00    -0.351 N 
ATOM     47  H   UNL     1     -50.076  28.220  25.271  1.00  0.00     0.163 HD
BRANCH  46  48
ATOM     48  C   UNL     1     -50.974  28.461  23.404  1.00  0.00     0.032 C 
ATOM     49  C   UNL     1     -50.653  27.727  22.075  1.00  0.00    -0.017 C 
ATOM     50  C   UNL     1     -51.961  27.302  23.701  1.00  0.00    -0.017 C 
ATOM     51  H   UNL     1     -51.468  29.433  23.286  1.00  0.00     0.053 H 
ATOM     52  C   UNL     1     -52.078  27.137  22.170  1.00  0.00     0.008 C 
ATOM     53  H   UNL     1     -49.831  27.003  22.141  1.00  0.00     0.030 H 
ATOM     54  H   UNL     1     -50.477  28.377  21.213  1.00  0.00     0.030 H 
ATOM     55  H   UNL     1     -51.520  26.454  24.241  1.00  0.00     0.030 H 
ATOM     56  H   UNL     1     -52.885  27.596  24.210  1.00  0.00     0.030 H 
ATOM     57  H   UNL     1     -52.863  27.727  21.688  1.00  0.00     0.046 H 
BRANCH  52  58
ATOM     58  N   UNL     1     -52.044  25.721  21.832  1.00  0.00    -0.328 NA
ATOM     59  H   UNL     1     -51.254  25.221  22.238  1.00  0.00     0.119 HD
ATOM     60  H   UNL     1     -52.014  25.535  20.831  1.00  0.00     0.119 HD
ENDBRANCH  52  58
ENDBRANCH  46  48
ENDBRANCH  43  46
ENDBRANCH   1  32
TORSDOF 9
ENDMDL
MODEL 6
REMARK VINA RESULT:      -9.3      3.307     11.543
REMARK SMILES Nc1ncnc2c1ccn2[C@@H]1O[C@H](COc2ccc3cnc(N[C@H]4C[C@@H](N)C4)nc3c2)[C@@H](O)[C@@H]1F
REMARK SMILES IDX 15 1 14 2 13 5 11 6 12 7 34 8 32 10 35 11 10 15 2 16 3 17
REMARK SMILES IDX 7 18 4 19 6 20 8 21 5 22 9 24 1 27 33 30 16 32 17 33 31 34
REMARK SMILES IDX 18 35 30 37 19 39 29 41 20 42 22 43 21 44 23 46 24 48 28 49
REMARK SMILES IDX 25 50 26 52 27 58
REMARK H PARENT 14 3 14 4 11 9 34 12 13 13 32 14 4 23 8 25 9 26 1 28 1 29
REMARK H PARENT 33 31 17 36 31 38 18 40 20 45 23 47 24 51 28 53 28 54 25 55
REMARK H PARENT 25 56 26 57 27 59 27 60
REMARK Flexibility Score: inf
ROOT
ATOM      1  O   UNL     1     -46.827  31.973  24.987  1.00  0.00    -0.491 OA
ENDROOT
BRANCH   1   2
ATOM      2  C   UNL     1     -46.068  32.166  23.788  1.00  0.00     0.117 C 
ATOM      3  H   UNL     1     -45.045  32.489  24.012  1.00  0.00     0.073 H 
ATOM      4  H   UNL     1     -46.548  33.005  23.269  1.00  0.00     0.073 H 
BRANCH   2   5
ATOM      5  C   UNL     1     -46.120  30.926  22.894  1.00  0.00     0.123 C 
ATOM      6  C   UNL     1     -47.177  28.850  22.871  1.00  0.00     0.169 C 
ATOM      7  O   UNL     1     -46.378  29.740  23.678  1.00  0.00    -0.345 OA
ATOM      8  C   UNL     1     -47.471  29.547  21.549  1.00  0.00     0.173 C 
ATOM      9  H   UNL     1     -46.563  27.961  22.682  1.00  0.00     0.088 H 
ATOM     10  C   UNL     1     -47.231  31.008  21.856  1.00  0.00     0.119 C 
ATOM     11  F   UNL     1     -48.731  29.353  21.094  1.00  0.00    -0.239 F 
ATOM     12  H   UNL     1     -46.785  29.200  20.767  1.00  0.00     0.074 H 
ATOM     13  H   UNL     1     -45.149  30.774  22.406  1.00  0.00     0.067 H 
ATOM     14  H   UNL     1     -48.133  31.489  22.244  1.00  0.00     0.066 H 
BRANCH   6  15
ATOM     15  N   UNL     1     -48.333  28.411  23.636  1.00  0.00    -0.303 N 
ATOM     16  C   UNL     1     -49.928  26.321  26.010  1.00  0.00     0.136 A 
ATOM     17  N   UNL     1     -48.919  25.524  26.408  1.00  0.00    -0.219 NA
ATOM     18  C   UNL     1     -49.674  27.308  25.047  1.00  0.00     0.061 A 
ATOM     19  C   UNL     1     -47.708  25.708  25.851  1.00  0.00     0.120 A 
ATOM     20  C   UNL     1     -48.374  27.394  24.561  1.00  0.00     0.147 A 
ATOM     21  C   UNL     1     -50.435  28.309  24.384  1.00  0.00    -0.031 A 
ATOM     22  N   UNL     1     -47.340  26.619  24.934  1.00  0.00    -0.218 NA
ATOM     23  H   UNL     1     -46.926  25.036  26.193  1.00  0.00     0.106 H 
ATOM     24  C   UNL     1     -49.588  28.974  23.523  1.00  0.00     0.009 A 
ATOM     25  H   UNL     1     -51.488  28.513  24.515  1.00  0.00     0.065 H 
ATOM     26  H   UNL     1     -49.778  29.791  22.838  1.00  0.00     0.082 H 
BRANCH  16  27
ATOM     27  N   UNL     1     -51.167  26.123  26.601  1.00  0.00    -0.383 N 
ATOM     28  H   UNL     1     -51.438  26.833  27.267  1.00  0.00     0.158 HD
ATOM     29  H   UNL     1     -51.268  25.160  26.899  1.00  0.00     0.158 HD
ENDBRANCH  16  27
ENDBRANCH   6  15
BRANCH  10  30
ATOM     30  O   UNL     1     -46.816  31.739  20.705  1.00  0.00    -0.387 OA
ATOM     31  H   UNL     1     -45.908  31.449  20.498  1.00  0.00     0.211 HD
ENDBRANCH  10  30
ENDBRANCH   2   5
ENDBRANCH   1   2
BRANCH   1  32
ATOM     32  C   UNL     1     -47.354  33.065  25.617  1.00  0.00     0.121 A 
ATOM     33  C   UNL     1     -48.703  32.941  25.950  1.00  0.00    -0.019 A 
ATOM     34  C   UNL     1     -46.673  34.240  25.950  1.00  0.00     0.007 A 
ATOM     35  C   UNL     1     -49.364  33.979  26.600  1.00  0.00    -0.048 A 
ATOM     36  H   UNL     1     -49.239  32.028  25.698  1.00  0.00     0.066 H 
ATOM     37  C   UNL     1     -47.310  35.294  26.601  1.00  0.00     0.079 A 
ATOM     38  H   UNL     1     -45.621  34.375  25.719  1.00  0.00     0.069 H 
ATOM     39  C   UNL     1     -48.660  35.152  26.921  1.00  0.00     0.019 A 
ATOM     40  H   UNL     1     -50.416  33.871  26.851  1.00  0.00     0.063 H 
ATOM     41  N   UNL     1     -46.619  36.402  26.902  1.00  0.00    -0.213 NA
ATOM     42  C   UNL     1     -49.226  36.238  27.567  1.00  0.00     0.040 A 
ATOM     43  C   UNL     1     -47.264  37.402  27.520  1.00  0.00     0.223 A 
ATOM     44  N   UNL     1     -48.554  37.361  27.879  1.00  0.00    -0.221 NA
ATOM     45  H   UNL     1     -50.271  36.239  27.865  1.00  0.00     0.085 H 
BRANCH  43  46
ATOM     46  N   UNL     1     -46.580  38.572  27.848  1.00  0.00    -0.351 N 
ATOM     47  H   UNL     1     -46.781  38.770  28.820  1.00  0.00     0.163 HD
BRANCH  46  48
ATOM     48  C   UNL     1     -45.265  38.865  27.391  1.00  0.00     0.032 C 
ATOM     49  C   UNL     1     -45.168  40.180  26.572  1.00  0.00    -0.017 C 
ATOM     50  C   UNL     1     -44.406  39.578  28.468  1.00  0.00    -0.017 C 
ATOM     51  H   UNL     1     -44.764  38.001  26.937  1.00  0.00     0.053 H 
ATOM     52  C   UNL     1     -43.834  40.428  27.311  1.00  0.00     0.008 C 
ATOM     53  H   UNL     1     -45.968  40.903  26.775  1.00  0.00     0.030 H 
ATOM     54  H   UNL     1     -45.081  40.050  25.489  1.00  0.00     0.030 H 
ATOM     55  H   UNL     1     -44.984  40.127  29.223  1.00  0.00     0.030 H 
ATOM     56  H   UNL     1     -43.680  38.940  28.982  1.00  0.00     0.030 H 
ATOM     57  H   UNL     1     -42.944  40.022  26.822  1.00  0.00     0.046 H 
BRANCH  52  58
ATOM     58  N   UNL     1     -43.757  41.821  27.727  1.00  0.00    -0.328 NA
ATOM     59  H   UNL     1     -44.388  42.057  28.492  1.00  0.00     0.119 HD
ATOM     60  H   UNL     1     -43.954  42.486  26.981  1.00  0.00     0.119 HD
ENDBRANCH  52  58
ENDBRANCH  46  48
ENDBRANCH  43  46
ENDBRANCH   1  32
TORSDOF 9
ENDMDL
MODEL 7
REMARK VINA RESULT:      -9.3      2.273      3.242
REMARK SMILES Nc1ncnc2c1ccn2[C@@H]1O[C@H](COc2ccc3cnc(N[C@H]4C[C@@H](N)C4)nc3c2)[C@@H](O)[C@@H]1F
REMARK SMILES IDX 15 1 14 2 13 5 11 6 12 7 34 8 32 10 35 11 10 15 2 16 3 17
REMARK SMILES IDX 7 18 4 19 6 20 8 21 5 22 9 24 1 27 33 30 16 32 17 33 31 34
REMARK SMILES IDX 18 35 30 37 19 39 29 41 20 42 22 43 21 44 23 46 24 48 28 49
REMARK SMILES IDX 25 50 26 52 27 58
REMARK H PARENT 14 3 14 4 11 9 34 12 13 13 32 14 4 23 8 25 9 26 1 28 1 29
REMARK H PARENT 33 31 17 36 31 38 18 40 20 45 23 47 24 51 28 53 28 54 25 55
REMARK H PARENT 25 56 26 57 27 59 27 60
REMARK Flexibility Score: inf
ROOT
ATOM      1  O   UNL     1     -48.149  35.510  26.939  1.00  0.00    -0.491 OA
ENDROOT
BRANCH   1   2
ATOM      2  C   UNL     1     -47.692  35.601  28.294  1.00  0.00     0.117 C 
ATOM      3  H   UNL     1     -47.769  34.636  28.806  1.00  0.00     0.073 H 
ATOM      4  H   UNL     1     -48.398  36.273  28.796  1.00  0.00     0.073 H 
BRANCH   2   5
ATOM      5  C   UNL     1     -46.287  36.205  28.364  1.00  0.00     0.123 C 
ATOM      6  C   UNL     1     -45.192  38.132  27.648  1.00  0.00     0.169 C 
ATOM      7  O   UNL     1     -46.032  37.042  27.214  1.00  0.00    -0.345 OA
ATOM      8  C   UNL     1     -44.967  37.987  29.148  1.00  0.00     0.173 C 
ATOM      9  H   UNL     1     -44.234  38.017  27.127  1.00  0.00     0.088 H 
ATOM     10  C   UNL     1     -46.098  37.085  29.591  1.00  0.00     0.119 C 
ATOM     11  F   UNL     1     -44.998  39.161  29.823  1.00  0.00    -0.239 F 
ATOM     12  H   UNL     1     -43.998  37.518  29.352  1.00  0.00     0.074 H 
ATOM     13  H   UNL     1     -45.535  35.406  28.344  1.00  0.00     0.067 H 
ATOM     14  H   UNL     1     -46.994  37.659  29.839  1.00  0.00     0.066 H 
BRANCH   6  15
ATOM     15  N   UNL     1     -45.766  39.392  27.204  1.00  0.00    -0.303 N 
ATOM     16  C   UNL     1     -48.433  41.704  26.908  1.00  0.00     0.136 A 
ATOM     17  N   UNL     1     -49.429  41.072  27.557  1.00  0.00    -0.219 NA
ATOM     18  C   UNL     1     -47.181  41.080  26.814  1.00  0.00     0.061 A 
ATOM     19  C   UNL     1     -49.175  39.859  28.080  1.00  0.00     0.120 A 
ATOM     20  C   UNL     1     -47.055  39.829  27.407  1.00  0.00     0.147 A 
ATOM     21  C   UNL     1     -45.922  41.397  26.234  1.00  0.00    -0.031 A 
ATOM     22  N   UNL     1     -48.023  39.167  28.064  1.00  0.00    -0.218 NA
ATOM     23  H   UNL     1     -50.010  39.380  28.584  1.00  0.00     0.106 H 
ATOM     24  C   UNL     1     -45.070  40.345  26.489  1.00  0.00     0.009 A 
ATOM     25  H   UNL     1     -45.672  42.293  25.683  1.00  0.00     0.065 H 
ATOM     26  H   UNL     1     -44.033  40.194  26.214  1.00  0.00     0.082 H 
BRANCH  16  27
ATOM     27  N   UNL     1     -48.710  42.958  26.383  1.00  0.00    -0.383 N 
ATOM     28  H   UNL     1     -49.644  43.066  26.012  1.00  0.00     0.158 HD
ATOM     29  H   UNL     1     -47.949  43.270  25.791  1.00  0.00     0.158 HD
ENDBRANCH  16  27
ENDBRANCH   6  15
BRANCH  10  30
ATOM     30  O   UNL     1     -45.752  36.313  30.738  1.00  0.00    -0.387 OA
ATOM     31  H   UNL     1     -44.935  35.827  30.516  1.00  0.00     0.211 HD
ENDBRANCH  10  30
ENDBRANCH   2   5
ENDBRANCH   1   2
BRANCH   1  32
ATOM     32  C   UNL     1     -47.891  34.368  26.233  1.00  0.00     0.121 A 
ATOM     33  C   UNL     1     -46.639  34.344  25.618  1.00  0.00    -0.019 A 
ATOM     34  C   UNL     1     -48.741  33.267  26.095  1.00  0.00     0.007 A 
ATOM     35  C   UNL     1     -46.245  33.238  24.871  1.00  0.00    -0.048 A 
ATOM     36  H   UNL     1     -45.970  35.196  25.724  1.00  0.00     0.066 H 
ATOM     37  C   UNL     1     -48.372  32.147  25.354  1.00  0.00     0.079 A 
ATOM     38  H   UNL     1     -49.719  33.239  26.565  1.00  0.00     0.069 H 
ATOM     39  C   UNL     1     -47.118  32.144  24.743  1.00  0.00     0.019 A 
ATOM     40  H   UNL     1     -45.269  33.234  24.394  1.00  0.00     0.063 H 
ATOM     41  N   UNL     1     -49.217  31.113  25.249  1.00  0.00    -0.213 NA
ATOM     42  C   UNL     1     -46.819  31.000  24.024  1.00  0.00     0.040 A 
ATOM     43  C   UNL     1     -48.836  30.054  24.520  1.00  0.00     0.223 A 
ATOM     44  N   UNL     1     -47.652  29.949  23.904  1.00  0.00    -0.221 NA
ATOM     45  H   UNL     1     -45.870  30.887  23.507  1.00  0.00     0.085 H 
BRANCH  43  46
ATOM     46  N   UNL     1     -49.689  28.960  24.385  1.00  0.00    -0.351 N 
ATOM     47  H   UNL     1     -50.215  29.098  23.531  1.00  0.00     0.163 HD
BRANCH  46  48
ATOM     48  C   UNL     1     -49.309  27.625  24.698  1.00  0.00     0.032 C 
ATOM     49  C   UNL     1     -49.430  27.278  26.205  1.00  0.00    -0.017 C 
ATOM     50  C   UNL     1     -50.457  26.609  24.463  1.00  0.00    -0.017 C 
ATOM     51  H   UNL     1     -48.362  27.327  24.230  1.00  0.00     0.053 H 
ATOM     52  C   UNL     1     -49.964  25.903  25.746  1.00  0.00     0.008 C 
ATOM     53  H   UNL     1     -50.139  27.904  26.761  1.00  0.00     0.030 H 
ATOM     54  H   UNL     1     -48.484  27.248  26.754  1.00  0.00     0.030 H 
ATOM     55  H   UNL     1     -51.465  27.040  24.513  1.00  0.00     0.030 H 
ATOM     56  H   UNL     1     -50.376  26.019  23.545  1.00  0.00     0.030 H 
ATOM     57  H   UNL     1     -49.205  25.130  25.599  1.00  0.00     0.046 H 
BRANCH  52  58
ATOM     58  N   UNL     1     -51.110  25.527  26.562  1.00  0.00    -0.328 NA
ATOM     59  H   UNL     1     -50.975  24.667  27.090  1.00  0.00     0.119 HD
ATOM     60  H   UNL     1     -51.972  25.403  26.031  1.00  0.00     0.119 HD
ENDBRANCH  52  58
ENDBRANCH  46  48
ENDBRANCH  43  46
ENDBRANCH   1  32
TORSDOF 9
ENDMDL
