MODEL 1
REMARK VINA RESULT:     -10.8      0.000      0.000
REMARK SMILES Cc1cn([C@@H]2O[C@H](COc3ccc4ccc(N)nc4c3)[C@@H](O)[C@H]2O)c2ncnc(N)c12
REMARK SMILES IDX 8 1 7 4 5 5 6 6 23 7 21 9 4 13 2 14 3 15 31 16 25 18 29 19
REMARK SMILES IDX 26 20 28 21 27 22 1 24 30 28 24 31 22 33 9 35 10 36 11 37
REMARK SMILES IDX 20 38 12 39 19 41 13 43 18 45 14 46 16 47 15 48 17 51
REMARK H PARENT 8 2 8 3 5 8 23 10 7 11 21 12 3 17 27 23 1 25 1 26 1 27 30 29
REMARK H PARENT 30 30 24 32 22 34 11 40 20 42 12 44 14 49 15 50 17 52 17 53
REMARK Flexibility Score: inf
ROOT
ATOM      1  C   UNL     1     -47.117  36.181  27.278  1.00  0.00     0.117 C 
ATOM      2  H   UNL     1     -48.024  35.609  27.504  1.00  0.00     0.073 H 
ATOM      3  H   UNL     1     -47.413  37.231  27.175  1.00  0.00     0.073 H 
ENDROOT
BRANCH   1   4
ATOM      4  C   UNL     1     -46.102  35.999  28.414  1.00  0.00     0.123 C 
ATOM      5  C   UNL     1     -44.911  37.890  29.127  1.00  0.00     0.164 C 
ATOM      6  O   UNL     1     -44.928  36.807  28.172  1.00  0.00    -0.345 OA
ATOM      7  C   UNL     1     -46.271  37.918  29.830  1.00  0.00     0.128 C 
ATOM      8  H   UNL     1     -44.127  37.656  29.860  1.00  0.00     0.088 H 
ATOM      9  C   UNL     1     -46.660  36.447  29.765  1.00  0.00     0.114 C 
ATOM     10  H   UNL     1     -47.014  38.526  29.312  1.00  0.00     0.068 H 
ATOM     11  H   UNL     1     -45.763  34.958  28.440  1.00  0.00     0.067 H 
ATOM     12  H   UNL     1     -47.732  36.277  29.896  1.00  0.00     0.066 H 
BRANCH   5  13
ATOM     13  N   UNL     1     -44.488  39.105  28.446  1.00  0.00    -0.303 N 
ATOM     14  C   UNL     1     -44.494  40.781  26.953  1.00  0.00    -0.020 A 
ATOM     15  C   UNL     1     -45.086  39.581  27.298  1.00  0.00     0.012 A 
ATOM     16  C   UNL     1     -43.484  41.040  27.936  1.00  0.00     0.064 A 
ATOM     17  H   UNL     1     -45.896  39.036  26.830  1.00  0.00     0.082 H 
ATOM     18  C   UNL     1     -43.513  39.985  28.844  1.00  0.00     0.147 A 
ATOM     19  C   UNL     1     -42.540  42.052  28.180  1.00  0.00     0.136 A 
ATOM     20  N   UNL     1     -42.722  39.851  29.923  1.00  0.00    -0.218 NA
ATOM     21  N   UNL     1     -41.735  41.955  29.253  1.00  0.00    -0.219 NA
ATOM     22  C   UNL     1     -41.876  40.886  30.056  1.00  0.00     0.120 A 
ATOM     23  H   UNL     1     -41.223  40.859  30.924  1.00  0.00     0.106 H 
BRANCH  14  24
ATOM     24  C   UNL     1     -44.860  41.634  25.794  1.00  0.00    -0.037 C 
ATOM     25  H   UNL     1     -45.186  41.016  24.952  1.00  0.00     0.028 H 
ATOM     26  H   UNL     1     -45.679  42.317  26.046  1.00  0.00     0.028 H 
ATOM     27  H   UNL     1     -44.006  42.239  25.475  1.00  0.00     0.028 H 
ENDBRANCH  14  24
BRANCH  19  28
ATOM     28  N   UNL     1     -42.356  43.163  27.364  1.00  0.00    -0.383 N 
ATOM     29  H   UNL     1     -43.247  43.628  27.228  1.00  0.00     0.158 HD
ATOM     30  H   UNL     1     -41.596  43.759  27.657  1.00  0.00     0.158 HD
ENDBRANCH  19  28
ENDBRANCH   5  13
BRANCH   7  31
ATOM     31  O   UNL     1     -46.199  38.361  31.188  1.00  0.00    -0.386 OA
ATOM     32  H   UNL     1     -46.781  39.149  31.234  1.00  0.00     0.211 HD
ENDBRANCH   7  31
BRANCH   9  33
ATOM     33  O   UNL     1     -45.984  35.775  30.847  1.00  0.00    -0.387 OA
ATOM     34  H   UNL     1     -46.382  36.088  31.681  1.00  0.00     0.211 HD
ENDBRANCH   9  33
ENDBRANCH   1   4
BRANCH   1  35
ATOM     35  O   UNL     1     -46.582  35.634  26.059  1.00  0.00    -0.491 OA
BRANCH  35  36
ATOM     36  C   UNL     1     -47.127  34.409  25.792  1.00  0.00     0.121 A 
ATOM     37  C   UNL     1     -48.361  34.095  26.346  1.00  0.00    -0.019 A 
ATOM     38  C   UNL     1     -46.467  33.505  24.959  1.00  0.00     0.007 A 
ATOM     39  C   UNL     1     -48.912  32.838  26.108  1.00  0.00    -0.049 A 
ATOM     40  H   UNL     1     -48.873  34.808  26.985  1.00  0.00     0.066 H 
ATOM     41  C   UNL     1     -46.992  32.245  24.713  1.00  0.00     0.076 A 
ATOM     42  H   UNL     1     -45.518  33.778  24.508  1.00  0.00     0.069 H 
ATOM     43  C   UNL     1     -48.230  31.910  25.304  1.00  0.00     0.001 A 
ATOM     44  H   UNL     1     -49.863  32.581  26.568  1.00  0.00     0.063 H 
ATOM     45  N   UNL     1     -46.298  31.383  23.948  1.00  0.00    -0.231 NA
ATOM     46  C   UNL     1     -48.738  30.630  25.070  1.00  0.00    -0.049 A 
ATOM     47  C   UNL     1     -46.809  30.156  23.746  1.00  0.00     0.124 A 
ATOM     48  C   UNL     1     -48.019  29.743  24.277  1.00  0.00    -0.019 A 
ATOM     49  H   UNL     1     -49.683  30.316  25.503  1.00  0.00     0.063 H 
ATOM     50  H   UNL     1     -48.402  28.749  24.077  1.00  0.00     0.066 H 
BRANCH  47  51
ATOM     51  N   UNL     1     -46.066  29.300  22.937  1.00  0.00    -0.384 N 
ATOM     52  H   UNL     1     -45.086  29.461  23.161  1.00  0.00     0.158 HD
ATOM     53  H   UNL     1     -46.334  28.334  23.081  1.00  0.00     0.158 HD
ENDBRANCH  47  51
ENDBRANCH  35  36
ENDBRANCH   1  35
TORSDOF 9
ENDMDL
MODEL 2
REMARK VINA RESULT:      -9.7      1.410      2.430
REMARK SMILES Cc1cn([C@@H]2O[C@H](COc3ccc4ccc(N)nc4c3)[C@@H](O)[C@H]2O)c2ncnc(N)c12
REMARK SMILES IDX 8 1 7 4 5 5 6 6 23 7 21 9 4 13 2 14 3 15 31 16 25 18 29 19
REMARK SMILES IDX 26 20 28 21 27 22 1 24 30 28 24 31 22 33 9 35 10 36 11 37
REMARK SMILES IDX 20 38 12 39 19 41 13 43 18 45 14 46 16 47 15 48 17 51
REMARK H PARENT 8 2 8 3 5 8 23 10 7 11 21 12 3 17 27 23 1 25 1 26 1 27 30 29
REMARK H PARENT 30 30 24 32 22 34 11 40 20 42 12 44 14 49 15 50 17 52 17 53
REMARK Flexibility Score: inf
ROOT
ATOM      1  C   UNL     1     -46.982  36.609  27.259  1.00  0.00     0.117 C 
ATOM      2  H   UNL     1     -47.399  37.596  27.491  1.00  0.00     0.073 H 
ATOM      3  H   UNL     1     -46.427  36.704  26.320  1.00  0.00     0.073 H 
ENDROOT
BRANCH   1   4
ATOM      4  C   UNL     1     -46.065  36.160  28.404  1.00  0.00     0.123 C 
ATOM      5  C   UNL     1     -44.791  37.803  29.491  1.00  0.00     0.164 C 
ATOM      6  O   UNL     1     -44.821  36.895  28.369  1.00  0.00    -0.345 OA
ATOM      7  C   UNL     1     -46.191  37.830  30.110  1.00  0.00     0.128 C 
ATOM      8  H   UNL     1     -44.080  37.388  30.217  1.00  0.00     0.088 H 
ATOM      9  C   UNL     1     -46.681  36.427  29.777  1.00  0.00     0.114 C 
ATOM     10  H   UNL     1     -46.850  38.575  29.661  1.00  0.00     0.068 H 
ATOM     11  H   UNL     1     -45.805  35.104  28.274  1.00  0.00     0.067 H 
ATOM     12  H   UNL     1     -47.769  36.329  29.816  1.00  0.00     0.066 H 
BRANCH   5  13
ATOM     13  N   UNL     1     -44.234  39.072  29.049  1.00  0.00    -0.303 N 
ATOM     14  C   UNL     1     -42.830  40.820  28.937  1.00  0.00    -0.020 A 
ATOM     15  C   UNL     1     -43.138  39.668  29.635  1.00  0.00     0.012 A 
ATOM     16  C   UNL     1     -43.792  40.931  27.881  1.00  0.00     0.064 A 
ATOM     17  H   UNL     1     -42.654  39.215  30.491  1.00  0.00     0.082 H 
ATOM     18  C   UNL     1     -44.640  39.832  27.980  1.00  0.00     0.147 A 
ATOM     19  C   UNL     1     -44.052  41.832  26.834  1.00  0.00     0.136 A 
ATOM     20  N   UNL     1     -45.677  39.561  27.168  1.00  0.00    -0.218 NA
ATOM     21  N   UNL     1     -45.078  41.592  25.999  1.00  0.00    -0.219 NA
ATOM     22  C   UNL     1     -45.813  40.483  26.201  1.00  0.00     0.120 A 
ATOM     23  H   UNL     1     -46.616  40.314  25.490  1.00  0.00     0.106 H 
BRANCH  14  24
ATOM     24  C   UNL     1     -41.703  41.743  29.227  1.00  0.00    -0.037 C 
ATOM     25  H   UNL     1     -40.890  41.208  29.727  1.00  0.00     0.028 H 
ATOM     26  H   UNL     1     -41.302  42.182  28.308  1.00  0.00     0.028 H 
ATOM     27  H   UNL     1     -42.032  42.563  29.873  1.00  0.00     0.028 H 
ENDBRANCH  14  24
BRANCH  19  28
ATOM     28  N   UNL     1     -43.323  42.994  26.604  1.00  0.00    -0.383 N 
ATOM     29  H   UNL     1     -43.963  43.760  26.429  1.00  0.00     0.158 HD
ATOM     30  H   UNL     1     -42.613  43.171  27.300  1.00  0.00     0.158 HD
ENDBRANCH  19  28
ENDBRANCH   5  13
BRANCH   7  31
ATOM     31  O   UNL     1     -46.182  38.039  31.525  1.00  0.00    -0.386 OA
ATOM     32  H   UNL     1     -46.812  37.381  31.888  1.00  0.00     0.211 HD
ENDBRANCH   7  31
BRANCH   9  33
ATOM     33  O   UNL     1     -46.134  35.534  30.768  1.00  0.00    -0.387 OA
ATOM     34  H   UNL     1     -46.874  35.217  31.319  1.00  0.00     0.211 HD
ENDBRANCH   9  33
ENDBRANCH   1   4
BRANCH   1  35
ATOM     35  O   UNL     1     -48.100  35.708  27.153  1.00  0.00    -0.491 OA
BRANCH  35  36
ATOM     36  C   UNL     1     -47.777  34.616  26.395  1.00  0.00     0.121 A 
ATOM     37  C   UNL     1     -46.536  34.581  25.774  1.00  0.00    -0.019 A 
ATOM     38  C   UNL     1     -48.669  33.550  26.273  1.00  0.00     0.007 A 
ATOM     39  C   UNL     1     -46.209  33.490  24.973  1.00  0.00    -0.049 A 
ATOM     40  H   UNL     1     -45.844  35.411  25.882  1.00  0.00     0.066 H 
ATOM     41  C   UNL     1     -48.368  32.456  25.476  1.00  0.00     0.076 A 
ATOM     42  H   UNL     1     -49.622  33.578  26.792  1.00  0.00     0.069 H 
ATOM     43  C   UNL     1     -47.121  32.433  24.814  1.00  0.00     0.001 A 
ATOM     44  H   UNL     1     -45.250  33.478  24.461  1.00  0.00     0.063 H 
ATOM     45  N   UNL     1     -49.277  31.473  25.340  1.00  0.00    -0.231 NA
ATOM     46  C   UNL     1     -46.839  31.338  23.994  1.00  0.00    -0.049 A 
ATOM     47  C   UNL     1     -48.979  30.435  24.539  1.00  0.00     0.124 A 
ATOM     48  C   UNL     1     -47.779  30.324  23.858  1.00  0.00    -0.019 A 
ATOM     49  H   UNL     1     -45.897  31.271  23.456  1.00  0.00     0.063 H 
ATOM     50  H   UNL     1     -47.574  29.462  23.234  1.00  0.00     0.066 H 
BRANCH  47  51
ATOM     51  N   UNL     1     -49.942  29.434  24.439  1.00  0.00    -0.384 N 
ATOM     52  H   UNL     1     -50.819  29.892  24.201  1.00  0.00     0.158 HD
ATOM     53  H   UNL     1     -49.679  28.739  23.750  1.00  0.00     0.158 HD
ENDBRANCH  47  51
ENDBRANCH  35  36
ENDBRANCH   1  35
TORSDOF 9
ENDMDL
MODEL 3
REMARK VINA RESULT:      -9.4      4.979     11.696
REMARK SMILES Cc1cn([C@@H]2O[C@H](COc3ccc4ccc(N)nc4c3)[C@@H](O)[C@H]2O)c2ncnc(N)c12
REMARK SMILES IDX 8 1 7 4 5 5 6 6 23 7 21 9 4 13 2 14 3 15 31 16 25 18 29 19
REMARK SMILES IDX 26 20 28 21 27 22 1 24 30 28 24 31 22 33 9 35 10 36 11 37
REMARK SMILES IDX 20 38 12 39 19 41 13 43 18 45 14 46 16 47 15 48 17 51
REMARK H PARENT 8 2 8 3 5 8 23 10 7 11 21 12 3 17 27 23 1 25 1 26 1 27 30 29
REMARK H PARENT 30 30 24 32 22 34 11 40 20 42 12 44 14 49 15 50 17 52 17 53
REMARK Flexibility Score: inf
ROOT
ATOM      1  C   UNL     1     -48.389  31.788  24.068  1.00  0.00     0.117 C 
ATOM      2  H   UNL     1     -48.386  32.823  23.706  1.00  0.00     0.073 H 
ATOM      3  H   UNL     1     -49.416  31.418  23.985  1.00  0.00     0.073 H 
ENDROOT
BRANCH   1   4
ATOM      4  C   UNL     1     -47.424  30.948  23.220  1.00  0.00     0.123 C 
ATOM      5  C   UNL     1     -47.759  28.627  23.165  1.00  0.00     0.164 C 
ATOM      6  O   UNL     1     -47.124  29.702  23.889  1.00  0.00    -0.345 OA
ATOM      7  C   UNL     1     -48.721  29.250  22.148  1.00  0.00     0.128 C 
ATOM      8  H   UNL     1     -46.964  28.089  22.632  1.00  0.00     0.088 H 
ATOM      9  C   UNL     1     -48.023  30.573  21.865  1.00  0.00     0.114 C 
ATOM     10  H   UNL     1     -49.719  29.428  22.549  1.00  0.00     0.068 H 
ATOM     11  H   UNL     1     -46.473  31.480  23.111  1.00  0.00     0.067 H 
ATOM     12  H   UNL     1     -48.687  31.328  21.434  1.00  0.00     0.066 H 
BRANCH   5  13
ATOM     13  N   UNL     1     -48.322  27.688  24.124  1.00  0.00    -0.303 N 
ATOM     14  C   UNL     1     -48.394  26.167  25.773  1.00  0.00    -0.020 A 
ATOM     15  C   UNL     1     -47.555  26.884  24.941  1.00  0.00     0.012 A 
ATOM     16  C   UNL     1     -49.733  26.550  25.438  1.00  0.00     0.064 A 
ATOM     17  H   UNL     1     -46.475  26.900  24.876  1.00  0.00     0.082 H 
ATOM     18  C   UNL     1     -49.648  27.494  24.418  1.00  0.00     0.147 A 
ATOM     19  C   UNL     1     -51.025  26.219  25.880  1.00  0.00     0.136 A 
ATOM     20  N   UNL     1     -50.686  28.109  23.824  1.00  0.00    -0.218 NA
ATOM     21  N   UNL     1     -52.088  26.817  25.313  1.00  0.00    -0.219 NA
ATOM     22  C   UNL     1     -51.863  27.721  24.343  1.00  0.00     0.120 A 
ATOM     23  H   UNL     1     -52.747  28.198  23.929  1.00  0.00     0.106 H 
BRANCH  14  24
ATOM     24  C   UNL     1     -47.970  25.204  26.821  1.00  0.00    -0.037 C 
ATOM     25  H   UNL     1     -48.789  25.019  27.524  1.00  0.00     0.028 H 
ATOM     26  H   UNL     1     -47.678  24.243  26.384  1.00  0.00     0.028 H 
ATOM     27  H   UNL     1     -47.112  25.592  27.378  1.00  0.00     0.028 H 
ENDBRANCH  14  24
BRANCH  19  28
ATOM     28  N   UNL     1     -51.296  25.280  26.870  1.00  0.00    -0.383 N 
ATOM     29  H   UNL     1     -50.428  24.845  27.163  1.00  0.00     0.158 HD
ATOM     30  H   UNL     1     -51.877  25.634  27.616  1.00  0.00     0.158 HD
ENDBRANCH  19  28
ENDBRANCH   5  13
BRANCH   7  31
ATOM     31  O   UNL     1     -48.852  28.481  20.948  1.00  0.00    -0.386 OA
ATOM     32  H   UNL     1     -47.947  28.429  20.575  1.00  0.00     0.211 HD
ENDBRANCH   7  31
BRANCH   9  33
ATOM     33  O   UNL     1     -46.985  30.315  20.899  1.00  0.00    -0.387 OA
ATOM     34  H   UNL     1     -46.920  29.348  20.788  1.00  0.00     0.211 HD
ENDBRANCH   9  33
ENDBRANCH   1   4
BRANCH   1  35
ATOM     35  O   UNL     1     -47.923  31.832  25.429  1.00  0.00    -0.491 OA
BRANCH  35  36
ATOM     36  C   UNL     1     -47.743  33.123  25.843  1.00  0.00     0.121 A 
ATOM     37  C   UNL     1     -46.510  33.724  25.630  1.00  0.00    -0.019 A 
ATOM     38  C   UNL     1     -48.787  33.827  26.444  1.00  0.00     0.007 A 
ATOM     39  C   UNL     1     -46.303  35.027  26.075  1.00  0.00    -0.049 A 
ATOM     40  H   UNL     1     -45.706  33.173  25.152  1.00  0.00     0.066 H 
ATOM     41  C   UNL     1     -48.604  35.122  26.903  1.00  0.00     0.076 A 
ATOM     42  H   UNL     1     -49.755  33.353  26.574  1.00  0.00     0.069 H 
ATOM     43  C   UNL     1     -47.340  35.724  26.718  1.00  0.00     0.001 A 
ATOM     44  H   UNL     1     -45.328  35.486  25.937  1.00  0.00     0.063 H 
ATOM     45  N   UNL     1     -49.619  35.748  27.526  1.00  0.00    -0.231 NA
ATOM     46  C   UNL     1     -47.159  37.021  27.206  1.00  0.00    -0.049 A 
ATOM     47  C   UNL     1     -49.413  36.992  27.990  1.00  0.00     0.124 A 
ATOM     48  C   UNL     1     -48.211  37.664  27.847  1.00  0.00    -0.019 A 
ATOM     49  H   UNL     1     -46.206  37.531  27.097  1.00  0.00     0.063 H 
ATOM     50  H   UNL     1     -48.091  38.674  28.223  1.00  0.00     0.066 H 
BRANCH  47  51
ATOM     51  N   UNL     1     -50.494  37.608  28.615  1.00  0.00    -0.384 N 
ATOM     52  H   UNL     1     -50.110  38.312  29.241  1.00  0.00     0.158 HD
ATOM     53  H   UNL     1     -51.131  38.010  27.937  1.00  0.00     0.158 HD
ENDBRANCH  47  51
ENDBRANCH  35  36
ENDBRANCH   1  35
TORSDOF 9
ENDMDL
MODEL 4
REMARK VINA RESULT:      -9.0      1.852      2.214
REMARK SMILES Cc1cn([C@@H]2O[C@H](COc3ccc4ccc(N)nc4c3)[C@@H](O)[C@H]2O)c2ncnc(N)c12
REMARK SMILES IDX 8 1 7 4 5 5 6 6 23 7 21 9 4 13 2 14 3 15 31 16 25 18 29 19
REMARK SMILES IDX 26 20 28 21 27 22 1 24 30 28 24 31 22 33 9 35 10 36 11 37
REMARK SMILES IDX 20 38 12 39 19 41 13 43 18 45 14 46 16 47 15 48 17 51
REMARK H PARENT 8 2 8 3 5 8 23 10 7 11 21 12 3 17 27 23 1 25 1 26 1 27 30 29
REMARK H PARENT 30 30 24 32 22 34 11 40 20 42 12 44 14 49 15 50 17 52 17 53
REMARK Flexibility Score: inf
ROOT
ATOM      1  C   UNL     1     -46.702  37.092  26.541  1.00  0.00     0.117 C 
ATOM      2  H   UNL     1     -47.637  36.849  26.025  1.00  0.00     0.073 H 
ATOM      3  H   UNL     1     -46.059  37.612  25.823  1.00  0.00     0.073 H 
ENDROOT
BRANCH   1   4
ATOM      4  C   UNL     1     -47.005  37.976  27.758  1.00  0.00     0.123 C 
ATOM      5  C   UNL     1     -46.350  40.226  27.662  1.00  0.00     0.164 C 
ATOM      6  O   UNL     1     -45.912  38.892  27.997  1.00  0.00    -0.345 OA
ATOM      7  C   UNL     1     -47.689  40.111  26.929  1.00  0.00     0.128 C 
ATOM      8  H   UNL     1     -46.498  40.761  28.610  1.00  0.00     0.088 H 
ATOM      9  C   UNL     1     -48.249  38.838  27.550  1.00  0.00     0.114 C 
ATOM     10  H   UNL     1     -47.584  39.989  25.850  1.00  0.00     0.068 H 
ATOM     11  H   UNL     1     -47.088  37.351  28.654  1.00  0.00     0.067 H 
ATOM     12  H   UNL     1     -49.033  38.372  26.947  1.00  0.00     0.066 H 
BRANCH   5  13
ATOM     13  N   UNL     1     -45.269  40.911  26.969  1.00  0.00    -0.303 N 
ATOM     14  C   UNL     1     -44.221  42.112  25.387  1.00  0.00    -0.020 A 
ATOM     15  C   UNL     1     -45.409  41.491  25.726  1.00  0.00     0.012 A 
ATOM     16  C   UNL     1     -43.316  41.888  26.475  1.00  0.00     0.064 A 
ATOM     17  H   UNL     1     -46.348  41.432  25.190  1.00  0.00     0.082 H 
ATOM     18  C   UNL     1     -43.999  41.147  27.435  1.00  0.00     0.147 A 
ATOM     19  C   UNL     1     -41.987  42.232  26.777  1.00  0.00     0.136 A 
ATOM     20  N   UNL     1     -43.502  40.733  28.613  1.00  0.00    -0.218 NA
ATOM     21  N   UNL     1     -41.456  41.840  27.949  1.00  0.00    -0.219 NA
ATOM     22  C   UNL     1     -42.233  41.136  28.792  1.00  0.00     0.120 A 
ATOM     23  H   UNL     1     -41.774  40.860  29.737  1.00  0.00     0.106 H 
BRANCH  14  24
ATOM     24  C   UNL     1     -43.958  42.875  24.141  1.00  0.00    -0.037 C 
ATOM     25  H   UNL     1     -43.211  42.360  23.528  1.00  0.00     0.028 H 
ATOM     26  H   UNL     1     -44.868  42.983  23.541  1.00  0.00     0.028 H 
ATOM     27  H   UNL     1     -43.589  43.878  24.372  1.00  0.00     0.028 H 
ENDBRANCH  14  24
BRANCH  19  28
ATOM     28  N   UNL     1     -41.151  42.946  25.925  1.00  0.00    -0.383 N 
ATOM     29  H   UNL     1     -40.266  42.458  25.841  1.00  0.00     0.158 HD
ATOM     30  H   UNL     1     -41.588  43.205  25.052  1.00  0.00     0.158 HD
ENDBRANCH  19  28
ENDBRANCH   5  13
BRANCH   7  31
ATOM     31  O   UNL     1     -48.564  41.217  27.169  1.00  0.00    -0.386 OA
ATOM     32  H   UNL     1     -48.041  42.015  26.940  1.00  0.00     0.211 HD
ENDBRANCH   7  31
BRANCH   9  33
ATOM     33  O   UNL     1     -48.840  39.200  28.814  1.00  0.00    -0.387 OA
ATOM     34  H   UNL     1     -49.395  39.989  28.664  1.00  0.00     0.211 HD
ENDBRANCH   9  33
ENDBRANCH   1   4
BRANCH   1  35
ATOM     35  O   UNL     1     -46.141  35.841  26.981  1.00  0.00    -0.491 OA
BRANCH  35  36
ATOM     36  C   UNL     1     -46.836  34.784  26.460  1.00  0.00     0.121 A 
ATOM     37  C   UNL     1     -48.189  34.670  26.749  1.00  0.00    -0.019 A 
ATOM     38  C   UNL     1     -46.201  33.856  25.633  1.00  0.00     0.007 A 
ATOM     39  C   UNL     1     -48.901  33.581  26.252  1.00  0.00    -0.049 A 
ATOM     40  H   UNL     1     -48.678  35.402  27.385  1.00  0.00     0.066 H 
ATOM     41  C   UNL     1     -46.887  32.760  25.132  1.00  0.00     0.076 A 
ATOM     42  H   UNL     1     -45.150  33.978  25.390  1.00  0.00     0.069 H 
ATOM     43  C   UNL     1     -48.255  32.623  25.454  1.00  0.00     0.001 A 
ATOM     44  H   UNL     1     -49.952  33.475  26.506  1.00  0.00     0.063 H 
ATOM     45  N   UNL     1     -46.225  31.859  24.383  1.00  0.00    -0.231 NA
ATOM     46  C   UNL     1     -48.929  31.502  24.963  1.00  0.00    -0.049 A 
ATOM     47  C   UNL     1     -46.900  30.788  23.931  1.00  0.00     0.124 A 
ATOM     48  C   UNL     1     -48.243  30.575  24.188  1.00  0.00    -0.019 A 
ATOM     49  H   UNL     1     -49.981  31.342  25.184  1.00  0.00     0.063 H 
ATOM     50  H   UNL     1     -48.753  29.704  23.791  1.00  0.00     0.066 H 
BRANCH  47  51
ATOM     51  N   UNL     1     -46.181  29.887  23.148  1.00  0.00    -0.384 N 
ATOM     52  H   UNL     1     -46.799  29.595  22.395  1.00  0.00     0.158 HD
ATOM     53  H   UNL     1     -45.327  30.306  22.797  1.00  0.00     0.158 HD
ENDBRANCH  47  51
ENDBRANCH  35  36
ENDBRANCH   1  35
TORSDOF 9
ENDMDL
MODEL 5
REMARK VINA RESULT:      -8.8      1.707      2.517
REMARK SMILES Cc1cn([C@@H]2O[C@H](COc3ccc4ccc(N)nc4c3)[C@@H](O)[C@H]2O)c2ncnc(N)c12
REMARK SMILES IDX 8 1 7 4 5 5 6 6 23 7 21 9 4 13 2 14 3 15 31 16 25 18 29 19
REMARK SMILES IDX 26 20 28 21 27 22 1 24 30 28 24 31 22 33 9 35 10 36 11 37
REMARK SMILES IDX 20 38 12 39 19 41 13 43 18 45 14 46 16 47 15 48 17 51
REMARK H PARENT 8 2 8 3 5 8 23 10 7 11 21 12 3 17 27 23 1 25 1 26 1 27 30 29
REMARK H PARENT 30 30 24 32 22 34 11 40 20 42 12 44 14 49 15 50 17 52 17 53
REMARK Flexibility Score: inf
ROOT
ATOM      1  C   UNL     1     -46.246  35.137  27.311  1.00  0.00     0.117 C 
ATOM      2  H   UNL     1     -46.740  35.337  26.354  1.00  0.00     0.073 H 
ATOM      3  H   UNL     1     -45.245  35.580  27.259  1.00  0.00     0.073 H 
ENDROOT
BRANCH   1   4
ATOM      4  C   UNL     1     -47.068  35.755  28.450  1.00  0.00     0.123 C 
ATOM      5  C   UNL     1     -46.662  38.000  28.995  1.00  0.00     0.164 C 
ATOM      6  O   UNL     1     -46.244  36.641  29.241  1.00  0.00    -0.345 OA
ATOM      7  C   UNL     1     -47.615  37.989  27.796  1.00  0.00     0.128 C 
ATOM      8  H   UNL     1     -47.206  38.333  29.889  1.00  0.00     0.088 H 
ATOM      9  C   UNL     1     -48.229  36.601  27.930  1.00  0.00     0.114 C 
ATOM     10  H   UNL     1     -47.106  38.084  26.836  1.00  0.00     0.068 H 
ATOM     11  H   UNL     1     -47.412  34.964  29.125  1.00  0.00     0.067 H 
ATOM     12  H   UNL     1     -48.681  36.238  27.003  1.00  0.00     0.066 H 
BRANCH   5  13
ATOM     13  N   UNL     1     -45.479  38.842  28.896  1.00  0.00    -0.303 N 
ATOM     14  C   UNL     1     -43.452  39.674  29.384  1.00  0.00    -0.020 A 
ATOM     15  C   UNL     1     -44.443  38.807  29.804  1.00  0.00     0.012 A 
ATOM     16  C   UNL     1     -43.916  40.269  28.166  1.00  0.00     0.064 A 
ATOM     17  H   UNL     1     -44.485  38.155  30.668  1.00  0.00     0.082 H 
ATOM     18  C   UNL     1     -45.170  39.727  27.894  1.00  0.00     0.147 A 
ATOM     19  C   UNL     1     -43.424  41.205  27.241  1.00  0.00     0.136 A 
ATOM     20  N   UNL     1     -45.943  40.021  26.834  1.00  0.00    -0.218 NA
ATOM     21  N   UNL     1     -44.167  41.520  26.165  1.00  0.00    -0.219 NA
ATOM     22  C   UNL     1     -45.358  40.912  26.018  1.00  0.00     0.120 A 
ATOM     23  H   UNL     1     -45.915  41.177  25.123  1.00  0.00     0.106 H 
BRANCH  14  24
ATOM     24  C   UNL     1     -42.155  39.917  30.065  1.00  0.00    -0.037 C 
ATOM     25  H   UNL     1     -42.311  40.469  30.998  1.00  0.00     0.028 H 
ATOM     26  H   UNL     1     -41.653  38.975  30.311  1.00  0.00     0.028 H 
ATOM     27  H   UNL     1     -41.484  40.496  29.424  1.00  0.00     0.028 H 
ENDBRANCH  14  24
BRANCH  19  28
ATOM     28  N   UNL     1     -42.205  41.863  27.367  1.00  0.00    -0.383 N 
ATOM     29  H   UNL     1     -41.451  41.197  27.233  1.00  0.00     0.158 HD
ATOM     30  H   UNL     1     -42.141  42.707  26.817  1.00  0.00     0.158 HD
ENDBRANCH  19  28
ENDBRANCH   5  13
BRANCH   7  31
ATOM     31  O   UNL     1     -48.627  38.998  27.866  1.00  0.00    -0.386 OA
ATOM     32  H   UNL     1     -49.241  38.800  27.127  1.00  0.00     0.211 HD
ENDBRANCH   7  31
BRANCH   9  33
ATOM     33  O   UNL     1     -49.281  36.689  28.912  1.00  0.00    -0.387 OA
ATOM     34  H   UNL     1     -49.678  37.577  28.840  1.00  0.00     0.211 HD
ENDBRANCH   9  33
ENDBRANCH   1   4
BRANCH   1  35
ATOM     35  O   UNL     1     -46.211  33.706  27.462  1.00  0.00    -0.491 OA
BRANCH  35  36
ATOM     36  C   UNL     1     -46.872  33.090  26.435  1.00  0.00     0.121 A 
ATOM     37  C   UNL     1     -48.260  33.059  26.461  1.00  0.00    -0.019 A 
ATOM     38  C   UNL     1     -46.164  32.530  25.371  1.00  0.00     0.007 A 
ATOM     39  C   UNL     1     -48.944  32.407  25.439  1.00  0.00    -0.049 A 
ATOM     40  H   UNL     1     -48.803  33.507  27.288  1.00  0.00     0.066 H 
ATOM     41  C   UNL     1     -46.822  31.869  24.345  1.00  0.00     0.076 A 
ATOM     42  H   UNL     1     -45.080  32.591  25.349  1.00  0.00     0.069 H 
ATOM     43  C   UNL     1     -48.232  31.805  24.387  1.00  0.00     0.001 A 
ATOM     44  H   UNL     1     -50.029  32.355  25.477  1.00  0.00     0.063 H 
ATOM     45  N   UNL     1     -46.101  31.294  23.365  1.00  0.00    -0.231 NA
ATOM     46  C   UNL     1     -48.884  31.116  23.362  1.00  0.00    -0.049 A 
ATOM     47  C   UNL     1     -46.756  30.633  22.396  1.00  0.00     0.124 A 
ATOM     48  C   UNL     1     -48.135  30.526  22.350  1.00  0.00    -0.019 A 
ATOM     49  H   UNL     1     -49.967  31.030  23.346  1.00  0.00     0.063 H 
ATOM     50  H   UNL     1     -48.624  29.995  21.541  1.00  0.00     0.066 H 
BRANCH  47  51
ATOM     51  N   UNL     1     -45.972  30.065  21.394  1.00  0.00    -0.384 N 
ATOM     52  H   UNL     1     -45.336  29.416  21.851  1.00  0.00     0.158 HD
ATOM     53  H   UNL     1     -46.544  29.607  20.695  1.00  0.00     0.158 HD
ENDBRANCH  47  51
ENDBRANCH  35  36
ENDBRANCH   1  35
TORSDOF 9
ENDMDL
MODEL 6
REMARK VINA RESULT:      -8.8      3.666     11.262
REMARK SMILES Cc1cn([C@@H]2O[C@H](COc3ccc4ccc(N)nc4c3)[C@@H](O)[C@H]2O)c2ncnc(N)c12
REMARK SMILES IDX 8 1 7 4 5 5 6 6 23 7 21 9 4 13 2 14 3 15 31 16 25 18 29 19
REMARK SMILES IDX 26 20 28 21 27 22 1 24 30 28 24 31 22 33 9 35 10 36 11 37
REMARK SMILES IDX 20 38 12 39 19 41 13 43 18 45 14 46 16 47 15 48 17 51
REMARK H PARENT 8 2 8 3 5 8 23 10 7 11 21 12 3 17 27 23 1 25 1 26 1 27 30 29
REMARK H PARENT 30 30 24 32 22 34 11 40 20 42 12 44 14 49 15 50 17 52 17 53
REMARK Flexibility Score: inf
ROOT
ATOM      1  C   UNL     1     -48.982  32.182  25.787  1.00  0.00     0.117 C 
ATOM      2  H   UNL     1     -49.617  31.467  26.322  1.00  0.00     0.073 H 
ATOM      3  H   UNL     1     -47.952  32.011  26.119  1.00  0.00     0.073 H 
ENDROOT
BRANCH   1   4
ATOM      4  C   UNL     1     -49.123  31.962  24.275  1.00  0.00     0.123 C 
ATOM      5  C   UNL     1     -49.029  29.757  23.481  1.00  0.00     0.164 C 
ATOM      6  O   UNL     1     -48.235  30.909  23.837  1.00  0.00    -0.345 OA
ATOM      7  C   UNL     1     -50.460  30.004  23.968  1.00  0.00     0.128 C 
ATOM      8  H   UNL     1     -49.024  29.693  22.385  1.00  0.00     0.088 H 
ATOM      9  C   UNL     1     -50.534  31.523  23.886  1.00  0.00     0.114 C 
ATOM     10  H   UNL     1     -50.633  29.674  24.993  1.00  0.00     0.068 H 
ATOM     11  H   UNL     1     -48.817  32.868  23.742  1.00  0.00     0.067 H 
ATOM     12  H   UNL     1     -51.332  31.950  24.499  1.00  0.00     0.066 H 
BRANCH   5  13
ATOM     13  N   UNL     1     -48.359  28.560  23.967  1.00  0.00    -0.303 N 
ATOM     14  C   UNL     1     -46.706  27.087  24.336  1.00  0.00    -0.020 A 
ATOM     15  C   UNL     1     -47.051  28.244  23.664  1.00  0.00     0.012 A 
ATOM     16  C   UNL     1     -47.864  26.678  25.074  1.00  0.00     0.064 A 
ATOM     17  H   UNL     1     -46.467  28.878  23.009  1.00  0.00     0.082 H 
ATOM     18  C   UNL     1     -48.863  27.615  24.825  1.00  0.00     0.147 A 
ATOM     19  C   UNL     1     -48.194  25.623  25.942  1.00  0.00     0.136 A 
ATOM     20  N   UNL     1     -50.106  27.596  25.336  1.00  0.00    -0.218 NA
ATOM     21  N   UNL     1     -49.428  25.574  26.477  1.00  0.00    -0.219 NA
ATOM     22  C   UNL     1     -50.295  26.552  26.160  1.00  0.00     0.120 A 
ATOM     23  H   UNL     1     -51.271  26.488  26.632  1.00  0.00     0.106 H 
BRANCH  14  24
ATOM     24  C   UNL     1     -45.379  26.420  24.302  1.00  0.00    -0.037 C 
ATOM     25  H   UNL     1     -44.596  27.141  24.048  1.00  0.00     0.028 H 
ATOM     26  H   UNL     1     -45.130  25.980  25.273  1.00  0.00     0.028 H 
ATOM     27  H   UNL     1     -45.370  25.616  23.559  1.00  0.00     0.028 H 
ENDBRANCH  14  24
BRANCH  19  28
ATOM     28  N   UNL     1     -47.329  24.589  26.281  1.00  0.00    -0.383 N 
ATOM     29  H   UNL     1     -47.868  23.751  26.467  1.00  0.00     0.158 HD
ATOM     30  H   UNL     1     -46.560  24.476  25.635  1.00  0.00     0.158 HD
ENDBRANCH  19  28
ENDBRANCH   5  13
BRANCH   7  31
ATOM     31  O   UNL     1     -51.455  29.404  23.133  1.00  0.00    -0.386 OA
ATOM     32  H   UNL     1     -52.009  28.866  23.737  1.00  0.00     0.211 HD
ENDBRANCH   7  31
BRANCH   9  33
ATOM     33  O   UNL     1     -50.817  31.866  22.514  1.00  0.00    -0.387 OA
ATOM     34  H   UNL     1     -51.762  32.106  22.460  1.00  0.00     0.211 HD
ENDBRANCH   9  33
ENDBRANCH   1   4
BRANCH   1  35
ATOM     35  O   UNL     1     -49.464  33.494  26.132  1.00  0.00    -0.491 OA
BRANCH  35  36
ATOM     36  C   UNL     1     -48.439  34.297  26.552  1.00  0.00     0.121 A 
ATOM     37  C   UNL     1     -47.135  33.847  26.398  1.00  0.00    -0.019 A 
ATOM     38  C   UNL     1     -48.702  35.553  27.100  1.00  0.00     0.007 A 
ATOM     39  C   UNL     1     -46.084  34.640  26.852  1.00  0.00    -0.049 A 
ATOM     40  H   UNL     1     -46.939  32.872  25.962  1.00  0.00     0.066 H 
ATOM     41  C   UNL     1     -47.673  36.358  27.565  1.00  0.00     0.076 A 
ATOM     42  H   UNL     1     -49.726  35.904  27.184  1.00  0.00     0.069 H 
ATOM     43  C   UNL     1     -46.347  35.887  27.442  1.00  0.00     0.001 A 
ATOM     44  H   UNL     1     -45.066  34.273  26.760  1.00  0.00     0.063 H 
ATOM     45  N   UNL     1     -47.971  37.540  28.137  1.00  0.00    -0.231 NA
ATOM     46  C   UNL     1     -45.321  36.696  27.936  1.00  0.00    -0.049 A 
ATOM     47  C   UNL     1     -46.963  38.292  28.608  1.00  0.00     0.124 A 
ATOM     48  C   UNL     1     -45.633  37.916  28.523  1.00  0.00    -0.019 A 
ATOM     49  H   UNL     1     -44.283  36.381  27.873  1.00  0.00     0.063 H 
ATOM     50  H   UNL     1     -44.849  38.560  28.904  1.00  0.00     0.066 H 
BRANCH  47  51
ATOM     51  N   UNL     1     -47.314  39.513  29.179  1.00  0.00    -0.384 N 
ATOM     52  H   UNL     1     -46.500  39.843  29.691  1.00  0.00     0.158 HD
ATOM     53  H   UNL     1     -47.613  40.176  28.473  1.00  0.00     0.158 HD
ENDBRANCH  47  51
ENDBRANCH  35  36
ENDBRANCH   1  35
TORSDOF 9
ENDMDL
MODEL 7
REMARK VINA RESULT:      -8.6      2.001      2.473
REMARK SMILES Cc1cn([C@@H]2O[C@H](COc3ccc4ccc(N)nc4c3)[C@@H](O)[C@H]2O)c2ncnc(N)c12
REMARK SMILES IDX 8 1 7 4 5 5 6 6 23 7 21 9 4 13 2 14 3 15 31 16 25 18 29 19
REMARK SMILES IDX 26 20 28 21 27 22 1 24 30 28 24 31 22 33 9 35 10 36 11 37
REMARK SMILES IDX 20 38 12 39 19 41 13 43 18 45 14 46 16 47 15 48 17 51
REMARK H PARENT 8 2 8 3 5 8 23 10 7 11 21 12 3 17 27 23 1 25 1 26 1 27 30 29
REMARK H PARENT 30 30 24 32 22 34 11 40 20 42 12 44 14 49 15 50 17 52 17 53
REMARK Flexibility Score: inf
ROOT
ATOM      1  C   UNL     1     -46.897  35.330  26.202  1.00  0.00     0.117 C 
ATOM      2  H   UNL     1     -47.837  35.085  25.696  1.00  0.00     0.073 H 
ATOM      3  H   UNL     1     -46.440  36.161  25.654  1.00  0.00     0.073 H 
ENDROOT
BRANCH   1   4
ATOM      4  C   UNL     1     -47.186  35.718  27.659  1.00  0.00     0.123 C 
ATOM      5  C   UNL     1     -46.726  37.923  28.313  1.00  0.00     0.164 C 
ATOM      6  O   UNL     1     -46.158  36.605  28.156  1.00  0.00    -0.345 OA
ATOM      7  C   UNL     1     -48.099  37.926  27.636  1.00  0.00     0.128 C 
ATOM      8  H   UNL     1     -46.852  38.088  29.392  1.00  0.00     0.088 H 
ATOM      9  C   UNL     1     -48.508  36.469  27.804  1.00  0.00     0.114 C 
ATOM     10  H   UNL     1     -48.060  38.186  26.577  1.00  0.00     0.068 H 
ATOM     11  H   UNL     1     -47.155  34.823  28.290  1.00  0.00     0.067 H 
ATOM     12  H   UNL     1     -49.291  36.157  27.108  1.00  0.00     0.066 H 
BRANCH   5  13
ATOM     13  N   UNL     1     -45.756  38.906  27.856  1.00  0.00    -0.303 N 
ATOM     14  C   UNL     1     -44.829  40.495  26.570  1.00  0.00    -0.020 A 
ATOM     15  C   UNL     1     -45.874  39.596  26.669  1.00  0.00     0.012 A 
ATOM     16  C   UNL     1     -44.035  40.335  27.752  1.00  0.00     0.064 A 
ATOM     17  H   UNL     1     -46.702  39.405  25.998  1.00  0.00     0.082 H 
ATOM     18  C   UNL     1     -44.640  39.347  28.524  1.00  0.00     0.147 A 
ATOM     19  C   UNL     1     -42.867  40.914  28.277  1.00  0.00     0.136 A 
ATOM     20  N   UNL     1     -44.208  38.904  29.717  1.00  0.00    -0.218 NA
ATOM     21  N   UNL     1     -42.407  40.499  29.471  1.00  0.00    -0.219 NA
ATOM     22  C   UNL     1     -43.098  39.544  30.118  1.00  0.00     0.120 A 
ATOM     23  H   UNL     1     -42.706  39.255  31.090  1.00  0.00     0.106 H 
BRANCH  14  24
ATOM     24  C   UNL     1     -44.599  41.449  25.455  1.00  0.00    -0.037 C 
ATOM     25  H   UNL     1     -44.204  42.396  25.838  1.00  0.00     0.028 H 
ATOM     26  H   UNL     1     -43.879  41.051  24.733  1.00  0.00     0.028 H 
ATOM     27  H   UNL     1     -45.532  41.650  24.920  1.00  0.00     0.028 H 
ENDBRANCH  14  24
BRANCH  19  28
ATOM     28  N   UNL     1     -42.121  41.894  27.631  1.00  0.00    -0.383 N 
ATOM     29  H   UNL     1     -42.618  42.777  27.677  1.00  0.00     0.158 HD
ATOM     30  H   UNL     1     -41.154  41.924  27.921  1.00  0.00     0.158 HD
ENDBRANCH  19  28
ENDBRANCH   5  13
BRANCH   7  31
ATOM     31  O   UNL     1     -49.043  38.793  28.272  1.00  0.00    -0.386 OA
ATOM     32  H   UNL     1     -48.620  39.678  28.275  1.00  0.00     0.211 HD
ENDBRANCH   7  31
BRANCH   9  33
ATOM     33  O   UNL     1     -49.038  36.323  29.138  1.00  0.00    -0.387 OA
ATOM     34  H   UNL     1     -49.902  36.774  29.162  1.00  0.00     0.211 HD
ENDBRANCH   9  33
ENDBRANCH   1   4
BRANCH   1  35
ATOM     35  O   UNL     1     -46.092  34.137  26.170  1.00  0.00    -0.491 OA
BRANCH  35  36
ATOM     36  C   UNL     1     -46.685  33.169  25.406  1.00  0.00     0.121 A 
ATOM     37  C   UNL     1     -45.877  32.338  24.641  1.00  0.00    -0.019 A 
ATOM     38  C   UNL     1     -48.071  33.006  25.419  1.00  0.00     0.007 A 
ATOM     39  C   UNL     1     -46.470  31.370  23.835  1.00  0.00    -0.049 A 
ATOM     40  H   UNL     1     -44.799  32.465  24.646  1.00  0.00     0.066 H 
ATOM     41  C   UNL     1     -48.684  32.054  24.618  1.00  0.00     0.076 A 
ATOM     42  H   UNL     1     -48.686  33.642  26.047  1.00  0.00     0.069 H 
ATOM     43  C   UNL     1     -47.868  31.231  23.812  1.00  0.00     0.001 A 
ATOM     44  H   UNL     1     -45.839  30.742  23.211  1.00  0.00     0.063 H 
ATOM     45  N   UNL     1     -50.027  31.965  24.617  1.00  0.00    -0.231 NA
ATOM     46  C   UNL     1     -48.498  30.292  22.992  1.00  0.00    -0.049 A 
ATOM     47  C   UNL     1     -50.605  31.056  23.813  1.00  0.00     0.124 A 
ATOM     48  C   UNL     1     -49.884  30.201  22.996  1.00  0.00    -0.019 A 
ATOM     49  H   UNL     1     -47.920  29.636  22.347  1.00  0.00     0.063 H 
ATOM     50  H   UNL     1     -50.390  29.472  22.373  1.00  0.00     0.066 H 
BRANCH  47  51
ATOM     51  N   UNL     1     -51.995  30.987  23.853  1.00  0.00    -0.384 N 
ATOM     52  H   UNL     1     -52.232  30.106  24.302  1.00  0.00     0.158 HD
ATOM     53  H   UNL     1     -52.388  31.781  24.345  1.00  0.00     0.158 HD
ENDBRANCH  47  51
ENDBRANCH  35  36
ENDBRANCH   1  35
TORSDOF 9
ENDMDL
