MODEL 1
REMARK VINA RESULT:     -10.6      0.000      0.000
REMARK SMILES CCc1cc(N2CCOCC2)c2ccc(OCc3cncc(-n4ccc5c(N)ncnc54)c3)cc2n1
REMARK SMILES IDX 17 1 16 4 15 5 3 6 4 7 36 8 5 9 35 11 12 12 34 13 13 14
REMARK SMILES IDX 14 16 2 19 1 22 6 26 7 27 11 28 8 29 10 32 9 35 18 40 19 41
REMARK SMILES IDX 33 42 20 43 22 45 21 47 23 49 24 50 32 51 25 52 26 54 31 55
REMARK SMILES IDX 27 57 30 58 29 59 28 61
REMARK H PARENT 17 2 17 3 4 10 34 15 13 17 14 18 2 20 2 21 1 23 1 24 1 25 7 30
REMARK H PARENT 7 31 11 33 11 34 8 36 8 37 10 38 10 39 19 44 33 46 21 48 24 53
REMARK H PARENT 25 56 30 60 28 62 28 63
REMARK Flexibility Score: inf
ROOT
ATOM      1  C   UNL     1     -47.439  35.195  27.885  1.00  0.00     0.115 C 
ATOM      2  H   UNL     1     -48.508  35.240  28.128  1.00  0.00     0.076 H 
ATOM      3  H   UNL     1     -47.098  34.220  28.253  1.00  0.00     0.076 H 
ENDROOT
BRANCH   1   4
ATOM      4  O   UNL     1     -47.205  35.207  26.466  1.00  0.00    -0.489 OA
BRANCH   4   5
ATOM      5  C   UNL     1     -47.459  33.997  25.876  1.00  0.00     0.122 A 
ATOM      6  C   UNL     1     -46.127  30.426  23.064  1.00  0.00     0.043 A 
ATOM      7  C   UNL     1     -47.224  29.645  23.406  1.00  0.00    -0.016 A 
ATOM      8  N   UNL     1     -45.913  31.651  23.586  1.00  0.00    -0.253 NA
ATOM      9  C   UNL     1     -48.161  30.122  24.328  1.00  0.00     0.048 A 
ATOM     10  H   UNL     1     -47.307  28.658  22.969  1.00  0.00     0.066 H 
ATOM     11  C   UNL     1     -46.817  32.149  24.442  1.00  0.00     0.076 A 
ATOM     12  C   UNL     1     -47.978  31.441  24.832  1.00  0.00     0.024 A 
ATOM     13  C   UNL     1     -46.579  33.410  24.969  1.00  0.00     0.007 A 
ATOM     14  C   UNL     1     -48.903  32.094  25.684  1.00  0.00    -0.047 A 
ATOM     15  H   UNL     1     -45.679  33.937  24.664  1.00  0.00     0.069 H 
ATOM     16  C   UNL     1     -48.648  33.364  26.198  1.00  0.00    -0.019 A 
ATOM     17  H   UNL     1     -49.837  31.607  25.948  1.00  0.00     0.063 H 
ATOM     18  H   UNL     1     -49.358  33.835  26.872  1.00  0.00     0.066 H 
BRANCH   6  19
ATOM     19  C   UNL     1     -45.112  29.926  22.069  1.00  0.00    -0.013 C 
ATOM     20  H   UNL     1     -44.289  30.645  21.981  1.00  0.00     0.033 H 
ATOM     21  H   UNL     1     -45.579  29.863  21.079  1.00  0.00     0.033 H 
BRANCH  19  22
ATOM     22  C   UNL     1     -44.573  28.559  22.460  1.00  0.00    -0.060 C 
ATOM     23  H   UNL     1     -43.969  28.615  23.372  1.00  0.00     0.023 H 
ATOM     24  H   UNL     1     -43.942  28.158  21.660  1.00  0.00     0.023 H 
ATOM     25  H   UNL     1     -45.388  27.849  22.640  1.00  0.00     0.023 H 
ENDBRANCH  19  22
ENDBRANCH   6  19
BRANCH   9  26
ATOM     26  N   UNL     1     -49.229  29.319  24.772  1.00  0.00    -0.366 N 
ATOM     27  C   UNL     1     -48.858  28.311  25.802  1.00  0.00     0.041 C 
ATOM     28  C   UNL     1     -50.247  28.846  23.813  1.00  0.00     0.041 C 
ATOM     29  C   UNL     1     -49.204  26.890  25.330  1.00  0.00     0.064 C 
ATOM     30  H   UNL     1     -49.437  28.533  26.707  1.00  0.00     0.052 H 
ATOM     31  H   UNL     1     -47.797  28.353  26.067  1.00  0.00     0.052 H 
ATOM     32  C   UNL     1     -51.228  27.907  24.533  1.00  0.00     0.064 C 
ATOM     33  H   UNL     1     -49.787  28.285  22.992  1.00  0.00     0.052 H 
ATOM     34  H   UNL     1     -50.789  29.703  23.399  1.00  0.00     0.052 H 
ATOM     35  O   UNL     1     -50.599  26.711  25.030  1.00  0.00    -0.378 OA
ATOM     36  H   UNL     1     -48.631  26.633  24.432  1.00  0.00     0.059 H 
ATOM     37  H   UNL     1     -48.940  26.162  26.104  1.00  0.00     0.059 H 
ATOM     38  H   UNL     1     -51.699  28.415  25.382  1.00  0.00     0.059 H 
ATOM     39  H   UNL     1     -52.025  27.596  23.850  1.00  0.00     0.059 H 
ENDBRANCH   9  26
ENDBRANCH   4   5
ENDBRANCH   1   4
BRANCH   1  40
ATOM     40  C   UNL     1     -46.672  36.284  28.591  1.00  0.00     0.010 A 
ATOM     41  C   UNL     1     -46.359  36.190  29.937  1.00  0.00     0.034 A 
ATOM     42  C   UNL     1     -46.185  37.397  27.888  1.00  0.00    -0.028 A 
ATOM     43  N   UNL     1     -45.632  37.113  30.604  1.00  0.00    -0.262 NA
ATOM     44  H   UNL     1     -46.684  35.345  30.538  1.00  0.00     0.084 H 
ATOM     45  C   UNL     1     -45.389  38.353  28.523  1.00  0.00     0.066 A 
ATOM     46  H   UNL     1     -46.430  37.464  26.835  1.00  0.00     0.065 H 
ATOM     47  C   UNL     1     -45.161  38.164  29.883  1.00  0.00     0.051 A 
ATOM     48  H   UNL     1     -44.562  38.837  30.485  1.00  0.00     0.086 H 
BRANCH  45  49
ATOM     49  N   UNL     1     -44.792  39.445  27.813  1.00  0.00    -0.300 N 
ATOM     50  C   UNL     1     -45.188  39.899  26.561  1.00  0.00     0.012 A 
ATOM     51  C   UNL     1     -43.752  40.281  28.237  1.00  0.00     0.150 A 
ATOM     52  C   UNL     1     -44.453  41.011  26.218  1.00  0.00    -0.031 A 
ATOM     53  H   UNL     1     -45.960  39.403  25.991  1.00  0.00     0.082 H 
ATOM     54  C   UNL     1     -43.553  41.269  27.278  1.00  0.00     0.061 A 
ATOM     55  N   UNL     1     -43.056  40.188  29.387  1.00  0.00    -0.218 NA
ATOM     56  H   UNL     1     -44.552  41.573  25.298  1.00  0.00     0.065 H 
ATOM     57  C   UNL     1     -42.572  42.236  27.542  1.00  0.00     0.136 A 
ATOM     58  C   UNL     1     -42.142  41.154  29.532  1.00  0.00     0.120 A 
ATOM     59  N   UNL     1     -41.880  42.170  28.693  1.00  0.00    -0.219 NA
ATOM     60  H   UNL     1     -41.549  41.118  30.442  1.00  0.00     0.106 H 
BRANCH  57  61
ATOM     61  N   UNL     1     -42.282  43.287  26.688  1.00  0.00    -0.383 N 
ATOM     62  H   UNL     1     -41.747  44.011  27.154  1.00  0.00     0.158 HD
ATOM     63  H   UNL     1     -43.030  43.588  26.080  1.00  0.00     0.158 HD
ENDBRANCH  57  61
ENDBRANCH  45  49
ENDBRANCH   1  40
TORSDOF 8
ENDMDL
MODEL 2
REMARK VINA RESULT:     -10.5      2.726     11.565
REMARK SMILES CCc1cc(N2CCOCC2)c2ccc(OCc3cncc(-n4ccc5c(N)ncnc54)c3)cc2n1
REMARK SMILES IDX 17 1 16 4 15 5 3 6 4 7 36 8 5 9 35 11 12 12 34 13 13 14
REMARK SMILES IDX 14 16 2 19 1 22 6 26 7 27 11 28 8 29 10 32 9 35 18 40 19 41
REMARK SMILES IDX 33 42 20 43 22 45 21 47 23 49 24 50 32 51 25 52 26 54 31 55
REMARK SMILES IDX 27 57 30 58 29 59 28 61
REMARK H PARENT 17 2 17 3 4 10 34 15 13 17 14 18 2 20 2 21 1 23 1 24 1 25 7 30
REMARK H PARENT 7 31 11 33 11 34 8 36 8 37 10 38 10 39 19 44 33 46 21 48 24 53
REMARK H PARENT 25 56 30 60 28 62 28 63
REMARK Flexibility Score: inf
ROOT
ATOM      1  C   UNL     1     -47.475  36.469  26.749  1.00  0.00     0.115 C 
ATOM      2  H   UNL     1     -48.550  36.643  26.610  1.00  0.00     0.076 H 
ATOM      3  H   UNL     1     -46.992  36.927  25.878  1.00  0.00     0.076 H 
ENDROOT
BRANCH   1   4
ATOM      4  O   UNL     1     -46.963  37.145  27.911  1.00  0.00    -0.489 OA
BRANCH   4   5
ATOM      5  C   UNL     1     -46.401  38.358  27.614  1.00  0.00     0.122 A 
ATOM      6  C   UNL     1     -42.926  41.531  28.158  1.00  0.00     0.043 A 
ATOM      7  C   UNL     1     -43.406  42.346  27.141  1.00  0.00    -0.016 A 
ATOM      8  N   UNL     1     -43.522  40.371  28.505  1.00  0.00    -0.253 NA
ATOM      9  C   UNL     1     -44.551  41.975  26.429  1.00  0.00     0.048 A 
ATOM     10  H   UNL     1     -42.852  43.245  26.899  1.00  0.00     0.066 H 
ATOM     11  C   UNL     1     -44.644  40.011  27.865  1.00  0.00     0.076 A 
ATOM     12  C   UNL     1     -45.224  40.787  26.834  1.00  0.00     0.024 A 
ATOM     13  C   UNL     1     -45.241  38.815  28.236  1.00  0.00     0.007 A 
ATOM     14  C   UNL     1     -46.451  40.348  26.279  1.00  0.00    -0.047 A 
ATOM     15  H   UNL     1     -44.779  38.228  29.025  1.00  0.00     0.069 H 
ATOM     16  C   UNL     1     -47.038  39.146  26.668  1.00  0.00    -0.019 A 
ATOM     17  H   UNL     1     -46.958  40.954  25.534  1.00  0.00     0.063 H 
ATOM     18  H   UNL     1     -47.965  38.815  26.210  1.00  0.00     0.066 H 
BRANCH   6  19
ATOM     19  C   UNL     1     -41.696  41.921  28.936  1.00  0.00    -0.013 C 
ATOM     20  H   UNL     1     -41.799  42.948  29.307  1.00  0.00     0.033 H 
ATOM     21  H   UNL     1     -40.829  41.917  28.265  1.00  0.00     0.033 H 
BRANCH  19  22
ATOM     22  C   UNL     1     -41.442  40.969  30.093  1.00  0.00    -0.060 C 
ATOM     23  H   UNL     1     -41.230  39.955  29.737  1.00  0.00     0.023 H 
ATOM     24  H   UNL     1     -42.321  40.920  30.744  1.00  0.00     0.023 H 
ATOM     25  H   UNL     1     -40.589  41.297  30.697  1.00  0.00     0.023 H 
ENDBRANCH  19  22
ENDBRANCH   6  19
BRANCH   9  26
ATOM     26  N   UNL     1     -45.007  42.726  25.328  1.00  0.00    -0.366 N 
ATOM     27  C   UNL     1     -44.095  42.716  24.152  1.00  0.00     0.041 C 
ATOM     28  C   UNL     1     -45.688  44.017  25.546  1.00  0.00     0.041 C 
ATOM     29  C   UNL     1     -43.676  44.144  23.771  1.00  0.00     0.064 C 
ATOM     30  H   UNL     1     -44.643  42.272  23.312  1.00  0.00     0.052 H 
ATOM     31  H   UNL     1     -43.198  42.112  24.322  1.00  0.00     0.052 H 
ATOM     32  C   UNL     1     -45.981  44.674  24.187  1.00  0.00     0.064 C 
ATOM     33  H   UNL     1     -45.058  44.705  26.121  1.00  0.00     0.052 H 
ATOM     34  H   UNL     1     -46.625  43.853  26.089  1.00  0.00     0.052 H 
ATOM     35  O   UNL     1     -44.786  45.000  23.452  1.00  0.00    -0.378 OA
ATOM     36  H   UNL     1     -43.115  44.611  24.588  1.00  0.00     0.059 H 
ATOM     37  H   UNL     1     -43.018  44.122  22.896  1.00  0.00     0.059 H 
ATOM     38  H   UNL     1     -46.589  44.013  23.560  1.00  0.00     0.059 H 
ATOM     39  H   UNL     1     -46.539  45.604  24.329  1.00  0.00     0.059 H 
ENDBRANCH   9  26
ENDBRANCH   4   5
ENDBRANCH   1   4
BRANCH   1  40
ATOM     40  C   UNL     1     -47.160  34.995  26.770  1.00  0.00     0.010 A 
ATOM     41  C   UNL     1     -46.457  34.422  27.818  1.00  0.00     0.034 A 
ATOM     42  C   UNL     1     -47.633  34.140  25.763  1.00  0.00    -0.028 A 
ATOM     43  N   UNL     1     -46.193  33.100  27.908  1.00  0.00    -0.262 NA
ATOM     44  H   UNL     1     -46.080  35.019  28.643  1.00  0.00     0.084 H 
ATOM     45  C   UNL     1     -47.427  32.761  25.838  1.00  0.00     0.066 A 
ATOM     46  H   UNL     1     -48.185  34.593  24.948  1.00  0.00     0.065 H 
ATOM     47  C   UNL     1     -46.687  32.304  26.925  1.00  0.00     0.051 A 
ATOM     48  H   UNL     1     -46.459  31.258  27.091  1.00  0.00     0.086 H 
BRANCH  45  49
ATOM     49  N   UNL     1     -47.983  31.851  24.880  1.00  0.00    -0.300 N 
ATOM     50  C   UNL     1     -49.302  31.417  24.860  1.00  0.00     0.012 A 
ATOM     51  C   UNL     1     -47.346  31.265  23.780  1.00  0.00     0.150 A 
ATOM     52  C   UNL     1     -49.509  30.615  23.760  1.00  0.00    -0.031 A 
ATOM     53  H   UNL     1     -50.009  31.699  25.626  1.00  0.00     0.082 H 
ATOM     54  C   UNL     1     -48.282  30.524  23.064  1.00  0.00     0.061 A 
ATOM     55  N   UNL     1     -46.051  31.393  23.431  1.00  0.00    -0.218 NA
ATOM     56  H   UNL     1     -50.444  30.141  23.493  1.00  0.00     0.065 H 
ATOM     57  C   UNL     1     -47.841  29.889  21.894  1.00  0.00     0.136 A 
ATOM     58  C   UNL     1     -45.739  30.740  22.306  1.00  0.00     0.120 A 
ATOM     59  N   UNL     1     -46.557  30.022  21.519  1.00  0.00    -0.219 NA
ATOM     60  H   UNL     1     -44.703  30.808  21.986  1.00  0.00     0.106 H 
BRANCH  57  61
ATOM     61  N   UNL     1     -48.666  29.138  21.073  1.00  0.00    -0.383 N 
ATOM     62  H   UNL     1     -48.459  28.148  21.138  1.00  0.00     0.158 HD
ATOM     63  H   UNL     1     -48.838  29.511  20.150  1.00  0.00     0.158 HD
ENDBRANCH  57  61
ENDBRANCH  45  49
ENDBRANCH   1  40
TORSDOF 8
ENDMDL
MODEL 3
REMARK VINA RESULT:     -10.1      1.469      2.278
REMARK SMILES CCc1cc(N2CCOCC2)c2ccc(OCc3cncc(-n4ccc5c(N)ncnc54)c3)cc2n1
REMARK SMILES IDX 17 1 16 4 15 5 3 6 4 7 36 8 5 9 35 11 12 12 34 13 13 14
REMARK SMILES IDX 14 16 2 19 1 22 6 26 7 27 11 28 8 29 10 32 9 35 18 40 19 41
REMARK SMILES IDX 33 42 20 43 22 45 21 47 23 49 24 50 32 51 25 52 26 54 31 55
REMARK SMILES IDX 27 57 30 58 29 59 28 61
REMARK H PARENT 17 2 17 3 4 10 34 15 13 17 14 18 2 20 2 21 1 23 1 24 1 25 7 30
REMARK H PARENT 7 31 11 33 11 34 8 36 8 37 10 38 10 39 19 44 33 46 21 48 24 53
REMARK H PARENT 25 56 30 60 28 62 28 63
REMARK Flexibility Score: inf
ROOT
ATOM      1  C   UNL     1     -46.370  34.315  27.002  1.00  0.00     0.115 C 
ATOM      2  H   UNL     1     -45.490  33.931  27.535  1.00  0.00     0.076 H 
ATOM      3  H   UNL     1     -46.105  34.278  25.939  1.00  0.00     0.076 H 
ENDROOT
BRANCH   1   4
ATOM      4  O   UNL     1     -47.519  33.468  27.174  1.00  0.00    -0.489 OA
BRANCH   4   5
ATOM      5  C   UNL     1     -47.713  32.617  26.118  1.00  0.00     0.122 A 
ATOM      6  C   UNL     1     -46.519  31.062  21.806  1.00  0.00     0.043 A 
ATOM      7  C   UNL     1     -47.384  29.976  21.874  1.00  0.00    -0.016 A 
ATOM      8  N   UNL     1     -46.381  31.947  22.815  1.00  0.00    -0.253 NA
ATOM      9  C   UNL     1     -48.154  29.765  23.022  1.00  0.00     0.048 A 
ATOM     10  H   UNL     1     -47.413  29.291  21.036  1.00  0.00     0.066 H 
ATOM     11  C   UNL     1     -47.137  31.791  23.912  1.00  0.00     0.076 A 
ATOM     12  C   UNL     1     -48.063  30.733  24.063  1.00  0.00     0.024 A 
ATOM     13  C   UNL     1     -46.979  32.712  24.938  1.00  0.00     0.007 A 
ATOM     14  C   UNL     1     -48.862  30.709  25.233  1.00  0.00    -0.047 A 
ATOM     15  H   UNL     1     -46.258  33.514  24.808  1.00  0.00     0.069 H 
ATOM     16  C   UNL     1     -48.693  31.645  26.250  1.00  0.00    -0.019 A 
ATOM     17  H   UNL     1     -49.631  29.951  25.351  1.00  0.00     0.063 H 
ATOM     18  H   UNL     1     -49.297  31.592  27.151  1.00  0.00     0.066 H 
BRANCH   6  19
ATOM     19  C   UNL     1     -45.687  31.303  20.573  1.00  0.00    -0.013 C 
ATOM     20  H   UNL     1     -45.277  30.354  20.208  1.00  0.00     0.033 H 
ATOM     21  H   UNL     1     -44.829  31.933  20.836  1.00  0.00     0.033 H 
BRANCH  19  22
ATOM     22  C   UNL     1     -46.495  31.980  19.479  1.00  0.00    -0.060 C 
ATOM     23  H   UNL     1     -46.415  33.071  19.540  1.00  0.00     0.023 H 
ATOM     24  H   UNL     1     -47.553  31.715  19.569  1.00  0.00     0.023 H 
ATOM     25  H   UNL     1     -46.151  31.674  18.485  1.00  0.00     0.023 H 
ENDBRANCH  19  22
ENDBRANCH   6  19
BRANCH   9  26
ATOM     26  N   UNL     1     -48.964  28.623  23.164  1.00  0.00    -0.366 N 
ATOM     27  C   UNL     1     -50.378  28.811  22.742  1.00  0.00     0.041 C 
ATOM     28  C   UNL     1     -48.802  27.744  24.339  1.00  0.00     0.041 C 
ATOM     29  C   UNL     1     -51.342  28.499  23.897  1.00  0.00     0.064 C 
ATOM     30  H   UNL     1     -50.574  28.111  21.920  1.00  0.00     0.052 H 
ATOM     31  H   UNL     1     -50.574  29.822  22.373  1.00  0.00     0.052 H 
ATOM     32  C   UNL     1     -49.874  26.643  24.303  1.00  0.00     0.064 C 
ATOM     33  H   UNL     1     -48.930  28.304  25.272  1.00  0.00     0.052 H 
ATOM     34  H   UNL     1     -47.805  27.292  24.328  1.00  0.00     0.052 H 
ATOM     35  O   UNL     1     -51.214  27.159  24.403  1.00  0.00    -0.378 OA
ATOM     36  H   UNL     1     -51.178  29.191  24.731  1.00  0.00     0.059 H 
ATOM     37  H   UNL     1     -52.378  28.627  23.567  1.00  0.00     0.059 H 
ATOM     38  H   UNL     1     -49.807  26.066  23.373  1.00  0.00     0.059 H 
ATOM     39  H   UNL     1     -49.731  25.947  25.135  1.00  0.00     0.059 H 
ENDBRANCH   9  26
ENDBRANCH   4   5
ENDBRANCH   1   4
BRANCH   1  40
ATOM     40  C   UNL     1     -46.660  35.744  27.388  1.00  0.00     0.010 A 
ATOM     41  C   UNL     1     -47.959  36.214  27.490  1.00  0.00     0.034 A 
ATOM     42  C   UNL     1     -45.622  36.624  27.730  1.00  0.00    -0.028 A 
ATOM     43  N   UNL     1     -48.273  37.469  27.879  1.00  0.00    -0.262 NA
ATOM     44  H   UNL     1     -48.812  35.581  27.262  1.00  0.00     0.084 H 
ATOM     45  C   UNL     1     -45.899  37.915  28.185  1.00  0.00     0.066 A 
ATOM     46  H   UNL     1     -44.608  36.250  27.652  1.00  0.00     0.065 H 
ATOM     47  C   UNL     1     -47.241  38.283  28.222  1.00  0.00     0.051 A 
ATOM     48  H   UNL     1     -47.581  39.258  28.554  1.00  0.00     0.086 H 
BRANCH  45  49
ATOM     49  N   UNL     1     -44.870  38.804  28.637  1.00  0.00    -0.300 N 
ATOM     50  C   UNL     1     -44.125  38.642  29.798  1.00  0.00     0.012 A 
ATOM     51  C   UNL     1     -44.390  39.957  28.005  1.00  0.00     0.150 A 
ATOM     52  C   UNL     1     -43.174  39.634  29.880  1.00  0.00    -0.031 A 
ATOM     53  H   UNL     1     -44.317  37.838  30.493  1.00  0.00     0.082 H 
ATOM     54  C   UNL     1     -43.324  40.462  28.744  1.00  0.00     0.061 A 
ATOM     55  N   UNL     1     -44.845  40.501  26.859  1.00  0.00    -0.218 NA
ATOM     56  H   UNL     1     -42.453  39.751  30.678  1.00  0.00     0.065 H 
ATOM     57  C   UNL     1     -42.677  41.602  28.245  1.00  0.00     0.136 A 
ATOM     58  C   UNL     1     -44.162  41.588  26.481  1.00  0.00     0.120 A 
ATOM     59  N   UNL     1     -43.105  42.148  27.093  1.00  0.00    -0.219 NA
ATOM     60  H   UNL     1     -44.496  42.067  25.565  1.00  0.00     0.106 H 
BRANCH  57  61
ATOM     61  N   UNL     1     -41.592  42.199  28.864  1.00  0.00    -0.383 N 
ATOM     62  H   UNL     1     -41.697  43.206  28.917  1.00  0.00     0.158 HD
ATOM     63  H   UNL     1     -40.681  41.846  28.606  1.00  0.00     0.158 HD
ENDBRANCH  57  61
ENDBRANCH  45  49
ENDBRANCH   1  40
TORSDOF 8
ENDMDL
MODEL 4
REMARK VINA RESULT:      -9.8      2.853     11.453
REMARK SMILES CCc1cc(N2CCOCC2)c2ccc(OCc3cncc(-n4ccc5c(N)ncnc54)c3)cc2n1
REMARK SMILES IDX 17 1 16 4 15 5 3 6 4 7 36 8 5 9 35 11 12 12 34 13 13 14
REMARK SMILES IDX 14 16 2 19 1 22 6 26 7 27 11 28 8 29 10 32 9 35 18 40 19 41
REMARK SMILES IDX 33 42 20 43 22 45 21 47 23 49 24 50 32 51 25 52 26 54 31 55
REMARK SMILES IDX 27 57 30 58 29 59 28 61
REMARK H PARENT 17 2 17 3 4 10 34 15 13 17 14 18 2 20 2 21 1 23 1 24 1 25 7 30
REMARK H PARENT 7 31 11 33 11 34 8 36 8 37 10 38 10 39 19 44 33 46 21 48 24 53
REMARK H PARENT 25 56 30 60 28 62 28 63
REMARK Flexibility Score: inf
ROOT
ATOM      1  C   UNL     1     -46.477  32.690  24.605  1.00  0.00     0.115 C 
ATOM      2  H   UNL     1     -47.102  33.484  24.177  1.00  0.00     0.076 H 
ATOM      3  H   UNL     1     -45.448  32.950  24.329  1.00  0.00     0.076 H 
ENDROOT
BRANCH   1   4
ATOM      4  O   UNL     1     -46.529  32.677  26.042  1.00  0.00    -0.489 OA
BRANCH   4   5
ATOM      5  C   UNL     1     -46.867  33.893  26.573  1.00  0.00     0.122 A 
ATOM      6  C   UNL     1     -45.617  38.060  28.449  1.00  0.00     0.043 A 
ATOM      7  C   UNL     1     -46.917  38.548  28.425  1.00  0.00    -0.016 A 
ATOM      8  N   UNL     1     -45.292  36.831  27.997  1.00  0.00    -0.253 NA
ATOM      9  C   UNL     1     -47.953  37.757  27.915  1.00  0.00     0.048 A 
ATOM     10  H   UNL     1     -47.093  39.558  28.774  1.00  0.00     0.066 H 
ATOM     11  C   UNL     1     -46.271  36.037  27.539  1.00  0.00     0.076 A 
ATOM     12  C   UNL     1     -47.627  36.434  27.499  1.00  0.00     0.024 A 
ATOM     13  C   UNL     1     -45.915  34.777  27.078  1.00  0.00     0.007 A 
ATOM     14  C   UNL     1     -48.588  35.487  27.065  1.00  0.00    -0.047 A 
ATOM     15  H   UNL     1     -44.868  34.490  27.111  1.00  0.00     0.069 H 
ATOM     16  C   UNL     1     -48.212  34.225  26.611  1.00  0.00    -0.019 A 
ATOM     17  H   UNL     1     -49.645  35.736  27.087  1.00  0.00     0.063 H 
ATOM     18  H   UNL     1     -48.962  33.524  26.258  1.00  0.00     0.066 H 
BRANCH   6  19
ATOM     19  C   UNL     1     -44.494  38.899  28.999  1.00  0.00    -0.013 C 
ATOM     20  H   UNL     1     -44.793  39.954  29.023  1.00  0.00     0.033 H 
ATOM     21  H   UNL     1     -43.632  38.835  28.324  1.00  0.00     0.033 H 
BRANCH  19  22
ATOM     22  C   UNL     1     -44.082  38.440  30.388  1.00  0.00    -0.060 C 
ATOM     23  H   UNL     1     -44.869  37.841  30.860  1.00  0.00     0.023 H 
ATOM     24  H   UNL     1     -43.884  39.304  31.030  1.00  0.00     0.023 H 
ATOM     25  H   UNL     1     -43.173  37.829  30.350  1.00  0.00     0.023 H 
ENDBRANCH  19  22
ENDBRANCH   6  19
BRANCH   9  26
ATOM     26  N   UNL     1     -49.262  38.257  27.783  1.00  0.00    -0.366 N 
ATOM     27  C   UNL     1     -49.361  39.742  27.790  1.00  0.00     0.041 C 
ATOM     28  C   UNL     1     -50.383  37.579  28.464  1.00  0.00     0.041 C 
ATOM     29  C   UNL     1     -50.284  40.225  28.920  1.00  0.00     0.064 C 
ATOM     30  H   UNL     1     -49.790  40.050  26.829  1.00  0.00     0.052 H 
ATOM     31  H   UNL     1     -48.385  40.227  27.891  1.00  0.00     0.052 H 
ATOM     32  C   UNL     1     -51.674  38.386  28.247  1.00  0.00     0.064 C 
ATOM     33  H   UNL     1     -50.209  37.513  29.543  1.00  0.00     0.052 H 
ATOM     34  H   UNL     1     -50.504  36.569  28.059  1.00  0.00     0.052 H 
ATOM     35  O   UNL     1     -51.620  39.701  28.831  1.00  0.00    -0.378 OA
ATOM     36  H   UNL     1     -49.876  39.942  29.897  1.00  0.00     0.059 H 
ATOM     37  H   UNL     1     -50.359  41.317  28.903  1.00  0.00     0.059 H 
ATOM     38  H   UNL     1     -51.881  38.505  27.177  1.00  0.00     0.059 H 
ATOM     39  H   UNL     1     -52.526  37.866  28.694  1.00  0.00     0.059 H 
ENDBRANCH   9  26
ENDBRANCH   4   5
ENDBRANCH   1   4
BRANCH   1  40
ATOM     40  C   UNL     1     -46.821  31.346  24.016  1.00  0.00     0.010 A 
ATOM     41  C   UNL     1     -46.322  30.948  22.786  1.00  0.00     0.034 A 
ATOM     42  C   UNL     1     -47.599  30.422  24.730  1.00  0.00    -0.028 A 
ATOM     43  N   UNL     1     -46.559  29.736  22.239  1.00  0.00    -0.262 NA
ATOM     44  H   UNL     1     -45.694  31.603  22.189  1.00  0.00     0.084 H 
ATOM     45  C   UNL     1     -47.831  29.141  24.227  1.00  0.00     0.066 A 
ATOM     46  H   UNL     1     -47.984  30.738  25.693  1.00  0.00     0.065 H 
ATOM     47  C   UNL     1     -47.299  28.863  22.971  1.00  0.00     0.051 A 
ATOM     48  H   UNL     1     -47.413  27.907  22.475  1.00  0.00     0.086 H 
BRANCH  45  49
ATOM     49  N   UNL     1     -48.535  28.141  24.974  1.00  0.00    -0.300 N 
ATOM     50  C   UNL     1     -47.982  27.349  25.972  1.00  0.00     0.012 A 
ATOM     51  C   UNL     1     -49.890  27.797  24.887  1.00  0.00     0.150 A 
ATOM     52  C   UNL     1     -48.961  26.557  26.530  1.00  0.00    -0.031 A 
ATOM     53  H   UNL     1     -46.932  27.392  26.221  1.00  0.00     0.082 H 
ATOM     54  C   UNL     1     -50.173  26.843  25.860  1.00  0.00     0.061 A 
ATOM     55  N   UNL     1     -50.800  28.302  24.032  1.00  0.00    -0.218 NA
ATOM     56  H   UNL     1     -48.813  25.844  27.330  1.00  0.00     0.065 H 
ATOM     57  C   UNL     1     -51.499  26.398  25.960  1.00  0.00     0.136 A 
ATOM     58  C   UNL     1     -52.028  27.802  24.209  1.00  0.00     0.120 A 
ATOM     59  N   UNL     1     -52.425  26.905  25.128  1.00  0.00    -0.219 NA
ATOM     60  H   UNL     1     -52.797  28.173  23.538  1.00  0.00     0.106 H 
BRANCH  57  61
ATOM     61  N   UNL     1     -51.927  25.470  26.894  1.00  0.00    -0.383 N 
ATOM     62  H   UNL     1     -52.937  25.456  26.973  1.00  0.00     0.158 HD
ATOM     63  H   UNL     1     -51.399  25.425  27.754  1.00  0.00     0.158 HD
ENDBRANCH  57  61
ENDBRANCH  45  49
ENDBRANCH   1  40
TORSDOF 8
ENDMDL
MODEL 5
REMARK VINA RESULT:      -9.8      1.665      2.107
REMARK SMILES CCc1cc(N2CCOCC2)c2ccc(OCc3cncc(-n4ccc5c(N)ncnc54)c3)cc2n1
REMARK SMILES IDX 17 1 16 4 15 5 3 6 4 7 36 8 5 9 35 11 12 12 34 13 13 14
REMARK SMILES IDX 14 16 2 19 1 22 6 26 7 27 11 28 8 29 10 32 9 35 18 40 19 41
REMARK SMILES IDX 33 42 20 43 22 45 21 47 23 49 24 50 32 51 25 52 26 54 31 55
REMARK SMILES IDX 27 57 30 58 29 59 28 61
REMARK H PARENT 17 2 17 3 4 10 34 15 13 17 14 18 2 20 2 21 1 23 1 24 1 25 7 30
REMARK H PARENT 7 31 11 33 11 34 8 36 8 37 10 38 10 39 19 44 33 46 21 48 24 53
REMARK H PARENT 25 56 30 60 28 62 28 63
REMARK Flexibility Score: inf
ROOT
ATOM      1  C   UNL     1     -46.558  34.215  27.341  1.00  0.00     0.115 C 
ATOM      2  H   UNL     1     -47.319  33.564  27.791  1.00  0.00     0.076 H 
ATOM      3  H   UNL     1     -45.652  34.058  27.939  1.00  0.00     0.076 H 
ENDROOT
BRANCH   1   4
ATOM      4  O   UNL     1     -46.239  33.825  25.994  1.00  0.00    -0.489 OA
BRANCH   4   5
ATOM      5  C   UNL     1     -46.978  32.755  25.562  1.00  0.00     0.122 A 
ATOM      6  C   UNL     1     -48.593  30.012  22.054  1.00  0.00     0.043 A 
ATOM      7  C   UNL     1     -49.141  29.083  22.930  1.00  0.00    -0.016 A 
ATOM      8  N   UNL     1     -47.930  31.108  22.477  1.00  0.00    -0.253 NA
ATOM      9  C   UNL     1     -49.016  29.264  24.311  1.00  0.00     0.048 A 
ATOM     10  H   UNL     1     -49.629  28.211  22.513  1.00  0.00     0.066 H 
ATOM     11  C   UNL     1     -47.829  31.327  23.797  1.00  0.00     0.076 A 
ATOM     12  C   UNL     1     -48.376  30.453  24.765  1.00  0.00     0.024 A 
ATOM     13  C   UNL     1     -47.142  32.459  24.211  1.00  0.00     0.007 A 
ATOM     14  C   UNL     1     -48.274  30.821  26.129  1.00  0.00    -0.047 A 
ATOM     15  H   UNL     1     -46.723  33.116  23.454  1.00  0.00     0.069 H 
ATOM     16  C   UNL     1     -47.585  31.965  26.525  1.00  0.00    -0.019 A 
ATOM     17  H   UNL     1     -48.743  30.209  26.894  1.00  0.00     0.063 H 
ATOM     18  H   UNL     1     -47.497  32.215  27.578  1.00  0.00     0.066 H 
BRANCH   6  19
ATOM     19  C   UNL     1     -48.725  29.831  20.565  1.00  0.00    -0.013 C 
ATOM     20  H   UNL     1     -47.731  29.819  20.100  1.00  0.00     0.033 H 
ATOM     21  H   UNL     1     -49.255  30.694  20.143  1.00  0.00     0.033 H 
BRANCH  19  22
ATOM     22  C   UNL     1     -49.480  28.558  20.222  1.00  0.00    -0.060 C 
ATOM     23  H   UNL     1     -50.111  28.694  19.336  1.00  0.00     0.023 H 
ATOM     24  H   UNL     1     -50.126  28.264  21.055  1.00  0.00     0.023 H 
ATOM     25  H   UNL     1     -48.790  27.731  20.018  1.00  0.00     0.023 H 
ENDBRANCH  19  22
ENDBRANCH   6  19
BRANCH   9  26
ATOM     26  N   UNL     1     -49.471  28.293  25.223  1.00  0.00    -0.366 N 
ATOM     27  C   UNL     1     -48.395  27.474  25.844  1.00  0.00     0.041 C 
ATOM     28  C   UNL     1     -50.710  27.540  24.944  1.00  0.00     0.041 C 
ATOM     29  C   UNL     1     -48.615  25.979  25.569  1.00  0.00     0.064 C 
ATOM     30  H   UNL     1     -48.433  27.643  26.927  1.00  0.00     0.052 H 
ATOM     31  H   UNL     1     -47.397  27.760  25.496  1.00  0.00     0.052 H 
ATOM     32  C   UNL     1     -50.917  26.478  26.036  1.00  0.00     0.064 C 
ATOM     33  H   UNL     1     -50.650  27.023  23.981  1.00  0.00     0.052 H 
ATOM     34  H   UNL     1     -51.563  28.227  24.927  1.00  0.00     0.052 H 
ATOM     35  O   UNL     1     -49.874  25.486  26.060  1.00  0.00    -0.378 OA
ATOM     36  H   UNL     1     -48.572  25.775  24.492  1.00  0.00     0.059 H 
ATOM     37  H   UNL     1     -47.825  25.388  26.043  1.00  0.00     0.059 H 
ATOM     38  H   UNL     1     -50.959  26.943  27.027  1.00  0.00     0.059 H 
ATOM     39  H   UNL     1     -51.863  25.951  25.877  1.00  0.00     0.059 H 
ENDBRANCH   9  26
ENDBRANCH   4   5
ENDBRANCH   1   4
BRANCH   1  40
ATOM     40  C   UNL     1     -46.960  35.665  27.428  1.00  0.00     0.010 A 
ATOM     41  C   UNL     1     -48.259  36.038  27.734  1.00  0.00     0.034 A 
ATOM     42  C   UNL     1     -46.012  36.688  27.274  1.00  0.00    -0.028 A 
ATOM     43  N   UNL     1     -48.658  37.321  27.872  1.00  0.00    -0.262 NA
ATOM     44  H   UNL     1     -49.040  35.298  27.888  1.00  0.00     0.084 H 
ATOM     45  C   UNL     1     -46.365  38.027  27.456  1.00  0.00     0.066 A 
ATOM     46  H   UNL     1     -44.996  36.391  27.038  1.00  0.00     0.065 H 
ATOM     47  C   UNL     1     -47.705  38.280  27.738  1.00  0.00     0.051 A 
ATOM     48  H   UNL     1     -48.101  39.276  27.897  1.00  0.00     0.086 H 
BRANCH  45  49
ATOM     49  N   UNL     1     -45.402  39.087  27.407  1.00  0.00    -0.300 N 
ATOM     50  C   UNL     1     -45.303  40.032  26.394  1.00  0.00     0.012 A 
ATOM     51  C   UNL     1     -44.423  39.404  28.355  1.00  0.00     0.150 A 
ATOM     52  C   UNL     1     -44.323  40.946  26.708  1.00  0.00    -0.031 A 
ATOM     53  H   UNL     1     -45.930  39.997  25.515  1.00  0.00     0.082 H 
ATOM     54  C   UNL     1     -43.770  40.566  27.953  1.00  0.00     0.061 A 
ATOM     55  N   UNL     1     -44.148  38.734  29.491  1.00  0.00    -0.218 NA
ATOM     56  H   UNL     1     -44.033  41.793  26.100  1.00  0.00     0.065 H 
ATOM     57  C   UNL     1     -42.774  41.072  28.801  1.00  0.00     0.136 A 
ATOM     58  C   UNL     1     -43.177  39.298  30.218  1.00  0.00     0.120 A 
ATOM     59  N   UNL     1     -42.499  40.426  29.948  1.00  0.00    -0.219 NA
ATOM     60  H   UNL     1     -42.914  38.790  31.141  1.00  0.00     0.106 H 
BRANCH  57  61
ATOM     61  N   UNL     1     -42.059  42.228  28.537  1.00  0.00    -0.383 N 
ATOM     62  H   UNL     1     -42.640  43.054  28.619  1.00  0.00     0.158 HD
ATOM     63  H   UNL     1     -41.421  42.190  27.755  1.00  0.00     0.158 HD
ENDBRANCH  57  61
ENDBRANCH  45  49
ENDBRANCH   1  40
TORSDOF 8
ENDMDL
MODEL 6
REMARK VINA RESULT:      -9.7      1.482      2.071
REMARK SMILES CCc1cc(N2CCOCC2)c2ccc(OCc3cncc(-n4ccc5c(N)ncnc54)c3)cc2n1
REMARK SMILES IDX 17 1 16 4 15 5 3 6 4 7 36 8 5 9 35 11 12 12 34 13 13 14
REMARK SMILES IDX 14 16 2 19 1 22 6 26 7 27 11 28 8 29 10 32 9 35 18 40 19 41
REMARK SMILES IDX 33 42 20 43 22 45 21 47 23 49 24 50 32 51 25 52 26 54 31 55
REMARK SMILES IDX 27 57 30 58 29 59 28 61
REMARK H PARENT 17 2 17 3 4 10 34 15 13 17 14 18 2 20 2 21 1 23 1 24 1 25 7 30
REMARK H PARENT 7 31 11 33 11 34 8 36 8 37 10 38 10 39 19 44 33 46 21 48 24 53
REMARK H PARENT 25 56 30 60 28 62 28 63
REMARK Flexibility Score: inf
ROOT
ATOM      1  C   UNL     1     -46.935  35.845  26.554  1.00  0.00     0.115 C 
ATOM      2  H   UNL     1     -45.986  35.400  26.881  1.00  0.00     0.076 H 
ATOM      3  H   UNL     1     -46.902  35.825  25.458  1.00  0.00     0.076 H 
ENDROOT
BRANCH   1   4
ATOM      4  O   UNL     1     -48.069  35.053  26.949  1.00  0.00    -0.489 OA
BRANCH   4   5
ATOM      5  C   UNL     1     -48.184  33.894  26.230  1.00  0.00     0.122 A 
ATOM      6  C   UNL     1     -46.384  30.733  23.195  1.00  0.00     0.043 A 
ATOM      7  C   UNL     1     -47.434  29.842  23.380  1.00  0.00    -0.016 A 
ATOM      8  N   UNL     1     -46.306  31.912  23.846  1.00  0.00    -0.253 NA
ATOM      9  C   UNL     1     -48.466  30.152  24.272  1.00  0.00     0.048 A 
ATOM     10  H   UNL     1     -47.408  28.900  22.846  1.00  0.00     0.066 H 
ATOM     11  C   UNL     1     -47.301  32.252  24.678  1.00  0.00     0.076 A 
ATOM     12  C   UNL     1     -48.424  31.425  24.912  1.00  0.00     0.024 A 
ATOM     13  C   UNL     1     -47.201  33.468  25.338  1.00  0.00     0.007 A 
ATOM     14  C   UNL     1     -49.452  31.917  25.752  1.00  0.00    -0.047 A 
ATOM     15  H   UNL     1     -46.329  34.089  25.151  1.00  0.00     0.069 H 
ATOM     16  C   UNL     1     -49.336  33.144  26.402  1.00  0.00    -0.019 A 
ATOM     17  H   UNL     1     -50.359  31.338  25.899  1.00  0.00     0.063 H 
ATOM     18  H   UNL     1     -50.124  33.491  27.064  1.00  0.00     0.066 H 
BRANCH   6  19
ATOM     19  C   UNL     1     -45.268  30.413  22.234  1.00  0.00    -0.013 C 
ATOM     20  H   UNL     1     -44.424  31.091  22.404  1.00  0.00     0.033 H 
ATOM     21  H   UNL     1     -45.613  30.594  21.209  1.00  0.00     0.033 H 
BRANCH  19  22
ATOM     22  C   UNL     1     -44.816  28.968  22.366  1.00  0.00    -0.060 C 
ATOM     23  H   UNL     1     -43.781  28.842  22.030  1.00  0.00     0.023 H 
ATOM     24  H   UNL     1     -45.450  28.315  21.758  1.00  0.00     0.023 H 
ATOM     25  H   UNL     1     -44.875  28.627  23.406  1.00  0.00     0.023 H 
ENDBRANCH  19  22
ENDBRANCH   6  19
BRANCH   9  26
ATOM     26  N   UNL     1     -49.491  29.231  24.558  1.00  0.00    -0.366 N 
ATOM     27  C   UNL     1     -49.074  28.086  25.412  1.00  0.00     0.041 C 
ATOM     28  C   UNL     1     -50.475  28.874  23.517  1.00  0.00     0.041 C 
ATOM     29  C   UNL     1     -49.338  26.748  24.703  1.00  0.00     0.064 C 
ATOM     30  H   UNL     1     -49.671  28.122  26.331  1.00  0.00     0.052 H 
ATOM     31  H   UNL     1     -48.019  28.139  25.697  1.00  0.00     0.052 H 
ATOM     32  C   UNL     1     -51.409  27.777  24.054  1.00  0.00     0.064 C 
ATOM     33  H   UNL     1     -49.979  28.482  22.622  1.00  0.00     0.052 H 
ATOM     34  H   UNL     1     -51.059  29.759  23.243  1.00  0.00     0.052 H 
ATOM     35  O   UNL     1     -50.719  26.549  24.354  1.00  0.00    -0.378 OA
ATOM     36  H   UNL     1     -48.745  26.676  23.784  1.00  0.00     0.059 H 
ATOM     37  H   UNL     1     -49.041  25.915  25.348  1.00  0.00     0.059 H 
ATOM     38  H   UNL     1     -51.913  28.110  24.968  1.00  0.00     0.059 H 
ATOM     39  H   UNL     1     -52.182  27.543  23.315  1.00  0.00     0.059 H 
ENDBRANCH   9  26
ENDBRANCH   4   5
ENDBRANCH   1   4
BRANCH   1  40
ATOM     40  C   UNL     1     -47.056  37.274  27.018  1.00  0.00     0.010 A 
ATOM     41  C   UNL     1     -48.194  37.730  27.663  1.00  0.00     0.034 A 
ATOM     42  C   UNL     1     -45.987  38.172  26.876  1.00  0.00    -0.028 A 
ATOM     43  N   UNL     1     -48.331  38.986  28.142  1.00  0.00    -0.262 NA
ATOM     44  H   UNL     1     -49.051  37.083  27.828  1.00  0.00     0.084 H 
ATOM     45  C   UNL     1     -46.064  39.465  27.398  1.00  0.00     0.066 A 
ATOM     46  H   UNL     1     -45.098  37.809  26.373  1.00  0.00     0.065 H 
ATOM     47  C   UNL     1     -47.266  39.817  28.004  1.00  0.00     0.051 A 
ATOM     48  H   UNL     1     -47.448  40.791  28.444  1.00  0.00     0.086 H 
BRANCH  45  49
ATOM     49  N   UNL     1     -44.955  40.373  27.360  1.00  0.00    -0.300 N 
ATOM     50  C   UNL     1     -43.816  40.280  28.150  1.00  0.00     0.012 A 
ATOM     51  C   UNL     1     -44.777  41.478  26.519  1.00  0.00     0.150 A 
ATOM     52  C   UNL     1     -42.925  41.267  27.794  1.00  0.00    -0.031 A 
ATOM     53  H   UNL     1     -43.711  39.525  28.914  1.00  0.00     0.082 H 
ATOM     54  C   UNL     1     -43.517  42.021  26.755  1.00  0.00     0.061 A 
ATOM     55  N   UNL     1     -45.648  41.950  25.607  1.00  0.00    -0.218 NA
ATOM     56  H   UNL     1     -41.954  41.430  28.242  1.00  0.00     0.065 H 
ATOM     57  C   UNL     1     -43.133  43.121  25.974  1.00  0.00     0.136 A 
ATOM     58  C   UNL     1     -45.183  43.004  24.926  1.00  0.00     0.120 A 
ATOM     59  N   UNL     1     -43.982  43.594  25.045  1.00  0.00    -0.219 NA
ATOM     60  H   UNL     1     -45.853  43.426  24.182  1.00  0.00     0.106 H 
BRANCH  57  61
ATOM     61  N   UNL     1     -41.903  43.747  26.085  1.00  0.00    -0.383 N 
ATOM     62  H   UNL     1     -41.236  43.174  26.590  1.00  0.00     0.158 HD
ATOM     63  H   UNL     1     -41.921  44.732  26.305  1.00  0.00     0.158 HD
ENDBRANCH  57  61
ENDBRANCH  45  49
ENDBRANCH   1  40
TORSDOF 8
ENDMDL
MODEL 7
REMARK VINA RESULT:      -9.7      2.046      3.689
REMARK SMILES CCc1cc(N2CCOCC2)c2ccc(OCc3cncc(-n4ccc5c(N)ncnc54)c3)cc2n1
REMARK SMILES IDX 17 1 16 4 15 5 3 6 4 7 36 8 5 9 35 11 12 12 34 13 13 14
REMARK SMILES IDX 14 16 2 19 1 22 6 26 7 27 11 28 8 29 10 32 9 35 18 40 19 41
REMARK SMILES IDX 33 42 20 43 22 45 21 47 23 49 24 50 32 51 25 52 26 54 31 55
REMARK SMILES IDX 27 57 30 58 29 59 28 61
REMARK H PARENT 17 2 17 3 4 10 34 15 13 17 14 18 2 20 2 21 1 23 1 24 1 25 7 30
REMARK H PARENT 7 31 11 33 11 34 8 36 8 37 10 38 10 39 19 44 33 46 21 48 24 53
REMARK H PARENT 25 56 30 60 28 62 28 63
REMARK Flexibility Score: inf
ROOT
ATOM      1  C   UNL     1     -46.693  34.160  27.304  1.00  0.00     0.115 C 
ATOM      2  H   UNL     1     -46.044  33.733  28.079  1.00  0.00     0.076 H 
ATOM      3  H   UNL     1     -46.141  34.041  26.365  1.00  0.00     0.076 H 
ENDROOT
BRANCH   1   4
ATOM      4  O   UNL     1     -47.920  33.424  27.159  1.00  0.00    -0.489 OA
BRANCH   4   5
ATOM      5  C   UNL     1     -47.864  32.489  26.161  1.00  0.00     0.122 A 
ATOM      6  C   UNL     1     -48.894  28.176  24.493  1.00  0.00     0.043 A 
ATOM      7  C   UNL     1     -48.434  28.475  23.217  1.00  0.00    -0.016 A 
ATOM      8  N   UNL     1     -48.881  29.073  25.501  1.00  0.00    -0.253 NA
ATOM      9  C   UNL     1     -47.932  29.750  22.935  1.00  0.00     0.048 A 
ATOM     10  H   UNL     1     -48.510  27.712  22.452  1.00  0.00     0.066 H 
ATOM     11  C   UNL     1     -48.369  30.290  25.269  1.00  0.00     0.076 A 
ATOM     12  C   UNL     1     -47.852  30.680  24.011  1.00  0.00     0.024 A 
ATOM     13  C   UNL     1     -48.365  31.198  26.318  1.00  0.00     0.007 A 
ATOM     14  C   UNL     1     -47.267  31.965  23.899  1.00  0.00    -0.047 A 
ATOM     15  H   UNL     1     -48.771  30.884  27.276  1.00  0.00     0.069 H 
ATOM     16  C   UNL     1     -47.268  32.861  24.966  1.00  0.00    -0.019 A 
ATOM     17  H   UNL     1     -46.800  32.271  22.968  1.00  0.00     0.063 H 
ATOM     18  H   UNL     1     -46.838  33.852  24.851  1.00  0.00     0.066 H 
BRANCH   6  19
ATOM     19  C   UNL     1     -49.434  26.806  24.811  1.00  0.00    -0.013 C 
ATOM     20  H   UNL     1     -49.624  26.255  23.882  1.00  0.00     0.033 H 
ATOM     21  H   UNL     1     -50.401  26.908  25.317  1.00  0.00     0.033 H 
BRANCH  19  22
ATOM     22  C   UNL     1     -48.480  26.023  25.698  1.00  0.00    -0.060 C 
ATOM     23  H   UNL     1     -47.587  25.709  25.146  1.00  0.00     0.023 H 
ATOM     24  H   UNL     1     -48.972  25.124  26.083  1.00  0.00     0.023 H 
ATOM     25  H   UNL     1     -48.151  26.624  26.554  1.00  0.00     0.023 H 
ENDBRANCH  19  22
ENDBRANCH   6  19
BRANCH   9  26
ATOM     26  N   UNL     1     -47.551  30.118  21.630  1.00  0.00    -0.366 N 
ATOM     27  C   UNL     1     -46.095  30.378  21.461  1.00  0.00     0.041 C 
ATOM     28  C   UNL     1     -48.415  31.010  20.832  1.00  0.00     0.041 C 
ATOM     29  C   UNL     1     -45.849  31.801  20.937  1.00  0.00     0.064 C 
ATOM     30  H   UNL     1     -45.714  29.660  20.725  1.00  0.00     0.052 H 
ATOM     31  H   UNL     1     -45.534  30.235  22.390  1.00  0.00     0.052 H 
ATOM     32  C   UNL     1     -47.717  31.337  19.501  1.00  0.00     0.064 C 
ATOM     33  H   UNL     1     -48.597  31.955  21.354  1.00  0.00     0.052 H 
ATOM     34  H   UNL     1     -49.374  30.518  20.638  1.00  0.00     0.052 H 
ATOM     35  O   UNL     1     -46.487  32.064  19.675  1.00  0.00    -0.378 OA
ATOM     36  H   UNL     1     -46.211  32.544  21.658  1.00  0.00     0.059 H 
ATOM     37  H   UNL     1     -44.776  31.972  20.803  1.00  0.00     0.059 H 
ATOM     38  H   UNL     1     -47.488  30.419  18.948  1.00  0.00     0.059 H 
ATOM     39  H   UNL     1     -48.371  31.949  18.872  1.00  0.00     0.059 H 
ENDBRANCH   9  26
ENDBRANCH   4   5
ENDBRANCH   1   4
BRANCH   1  40
ATOM     40  C   UNL     1     -46.941  35.627  27.548  1.00  0.00     0.010 A 
ATOM     41  C   UNL     1     -48.225  36.145  27.591  1.00  0.00     0.034 A 
ATOM     42  C   UNL     1     -45.878  36.504  27.813  1.00  0.00    -0.028 A 
ATOM     43  N   UNL     1     -48.502  37.440  27.855  1.00  0.00    -0.262 NA
ATOM     44  H   UNL     1     -49.096  35.519  27.417  1.00  0.00     0.084 H 
ATOM     45  C   UNL     1     -46.117  37.841  28.140  1.00  0.00     0.066 A 
ATOM     46  H   UNL     1     -44.876  36.093  27.782  1.00  0.00     0.065 H 
ATOM     47  C   UNL     1     -47.447  38.252  28.129  1.00  0.00     0.051 A 
ATOM     48  H   UNL     1     -47.759  39.264  28.362  1.00  0.00     0.086 H 
BRANCH  45  49
ATOM     49  N   UNL     1     -45.064  38.737  28.515  1.00  0.00    -0.300 N 
ATOM     50  C   UNL     1     -44.302  38.639  29.672  1.00  0.00     0.012 A 
ATOM     51  C   UNL     1     -44.573  39.835  27.798  1.00  0.00     0.150 A 
ATOM     52  C   UNL     1     -43.332  39.615  29.671  1.00  0.00    -0.031 A 
ATOM     53  H   UNL     1     -44.498  37.888  30.424  1.00  0.00     0.082 H 
ATOM     54  C   UNL     1     -43.485  40.367  28.484  1.00  0.00     0.061 A 
ATOM     55  N   UNL     1     -45.036  40.309  26.625  1.00  0.00    -0.218 NA
ATOM     56  H   UNL     1     -42.595  39.771  30.449  1.00  0.00     0.065 H 
ATOM     57  C   UNL     1     -42.825  41.457  27.899  1.00  0.00     0.136 A 
ATOM     58  C   UNL     1     -44.339  41.353  26.163  1.00  0.00     0.120 A 
ATOM     59  N   UNL     1     -43.261  41.932  26.720  1.00  0.00    -0.219 NA
ATOM     60  H   UNL     1     -44.678  41.776  25.222  1.00  0.00     0.106 H 
BRANCH  57  61
ATOM     61  N   UNL     1     -41.717  42.072  28.459  1.00  0.00    -0.383 N 
ATOM     62  H   UNL     1     -40.875  41.881  27.929  1.00  0.00     0.158 HD
ATOM     63  H   UNL     1     -41.645  42.032  29.466  1.00  0.00     0.158 HD
ENDBRANCH  57  61
ENDBRANCH  45  49
ENDBRANCH   1  40
TORSDOF 8
ENDMDL
