MODEL 1
REMARK VINA RESULT:     -10.5      0.000      0.000
REMARK SMILES CNc1ccc2ccc(OC[C@H]3O[C@@H](n4cc(Cl)c5c(N)ncnc54)[C@@H](F)[C@@H]3O)cc2n1
REMARK SMILES IDX 11 1 10 4 9 5 3 6 4 7 32 8 5 9 31 11 6 12 30 14 7 15 8 17
REMARK SMILES IDX 2 20 1 22 12 26 13 27 28 28 14 30 26 31 27 34 29 36 15 38
REMARK SMILES IDX 16 39 25 40 17 41 19 43 24 44 18 45 20 46 23 47 22 48 21 50
REMARK H PARENT 11 2 11 3 4 10 5 13 30 16 7 18 8 19 2 21 1 23 1 24 1 25 12 29
REMARK H PARENT 28 32 14 33 26 35 29 37 16 42 23 49 21 51 21 52
REMARK Flexibility Score: inf
ROOT
ATOM      1  C   UNL     1     -45.817  35.249  27.357  1.00  0.00     0.117 C 
ATOM      2  H   UNL     1     -45.529  34.248  27.700  1.00  0.00     0.073 H 
ATOM      3  H   UNL     1     -45.011  35.645  26.728  1.00  0.00     0.073 H 
ENDROOT
BRANCH   1   4
ATOM      4  O   UNL     1     -47.045  35.192  26.626  1.00  0.00    -0.491 OA
BRANCH   4   5
ATOM      5  C   UNL     1     -47.326  34.021  25.976  1.00  0.00     0.121 A 
ATOM      6  C   UNL     1     -46.423  30.472  22.936  1.00  0.00     0.126 A 
ATOM      7  C   UNL     1     -47.639  29.859  23.216  1.00  0.00    -0.019 A 
ATOM      8  N   UNL     1     -46.062  31.629  23.529  1.00  0.00    -0.231 NA
ATOM      9  C   UNL     1     -48.498  30.437  24.145  1.00  0.00    -0.049 A 
ATOM     10  H   UNL     1     -47.925  28.945  22.707  1.00  0.00     0.066 H 
ATOM     11  C   UNL     1     -46.888  32.195  24.426  1.00  0.00     0.076 A 
ATOM     12  C   UNL     1     -48.130  31.629  24.772  1.00  0.00     0.001 A 
ATOM     13  H   UNL     1     -49.448  29.960  24.363  1.00  0.00     0.063 H 
ATOM     14  C   UNL     1     -46.509  33.386  25.038  1.00  0.00     0.007 A 
ATOM     15  C   UNL     1     -48.957  32.257  25.715  1.00  0.00    -0.049 A 
ATOM     16  H   UNL     1     -45.546  33.797  24.751  1.00  0.00     0.069 H 
ATOM     17  C   UNL     1     -48.551  33.449  26.313  1.00  0.00    -0.019 A 
ATOM     18  H   UNL     1     -49.916  31.826  25.987  1.00  0.00     0.063 H 
ATOM     19  H   UNL     1     -49.197  33.931  27.042  1.00  0.00     0.066 H 
BRANCH   6  20
ATOM     20  N   UNL     1     -45.593  29.874  21.971  1.00  0.00    -0.373 N 
ATOM     21  H   UNL     1     -46.158  29.607  21.170  1.00  0.00     0.161 HD
BRANCH  20  22
ATOM     22  C   UNL     1     -44.802  28.760  22.469  1.00  0.00     0.005 C 
ATOM     23  H   UNL     1     -44.586  28.033  21.679  1.00  0.00     0.045 H 
ATOM     24  H   UNL     1     -43.845  29.142  22.838  1.00  0.00     0.045 H 
ATOM     25  H   UNL     1     -45.297  28.259  23.308  1.00  0.00     0.045 H 
ENDBRANCH  20  22
ENDBRANCH   6  20
ENDBRANCH   4   5
ENDBRANCH   1   4
BRANCH   1  26
ATOM     26  C   UNL     1     -46.012  36.155  28.572  1.00  0.00     0.123 C 
ATOM     27  O   UNL     1     -44.845  36.960  28.802  1.00  0.00    -0.345 OA
ATOM     28  C   UNL     1     -47.203  37.099  28.418  1.00  0.00     0.119 C 
ATOM     29  H   UNL     1     -46.161  35.521  29.457  1.00  0.00     0.067 H 
ATOM     30  C   UNL     1     -45.294  38.246  29.283  1.00  0.00     0.169 C 
ATOM     31  C   UNL     1     -46.818  38.242  29.331  1.00  0.00     0.173 C 
ATOM     32  H   UNL     1     -47.343  37.454  27.393  1.00  0.00     0.066 H 
ATOM     33  H   UNL     1     -44.898  38.355  30.300  1.00  0.00     0.088 H 
ATOM     34  F   UNL     1     -47.358  39.410  28.913  1.00  0.00    -0.239 F 
ATOM     35  H   UNL     1     -47.174  38.061  30.352  1.00  0.00     0.074 H 
BRANCH  28  36
ATOM     36  O   UNL     1     -48.418  36.476  28.833  1.00  0.00    -0.387 OA
ATOM     37  H   UNL     1     -48.579  36.768  29.752  1.00  0.00     0.211 HD
ENDBRANCH  28  36
BRANCH  30  38
ATOM     38  N   UNL     1     -44.683  39.294  28.478  1.00  0.00    -0.301 N 
ATOM     39  C   UNL     1     -45.146  39.682  27.240  1.00  0.00     0.028 A 
ATOM     40  C   UNL     1     -43.587  40.055  28.812  1.00  0.00     0.149 A 
ATOM     41  C   UNL     1     -44.330  40.693  26.782  1.00  0.00     0.072 A 
ATOM     42  H   UNL     1     -46.010  39.214  26.788  1.00  0.00     0.084 H 
ATOM     43  C   UNL     1     -43.337  40.938  27.765  1.00  0.00     0.080 A 
ATOM     44  N   UNL     1     -42.881  39.961  29.951  1.00  0.00    -0.218 NA
ATOM     45  Cl  UNL     1     -44.498  41.508  25.300  1.00  0.00    -0.082 Cl
ATOM     46  C   UNL     1     -42.243  41.803  27.920  1.00  0.00     0.137 A 
ATOM     47  C   UNL     1     -41.866  40.838  29.986  1.00  0.00     0.120 A 
ATOM     48  N   UNL     1     -41.518  41.743  29.054  1.00  0.00    -0.219 NA
ATOM     49  H   UNL     1     -41.247  40.819  30.879  1.00  0.00     0.106 H 
BRANCH  46  50
ATOM     50  N   UNL     1     -41.854  42.740  26.977  1.00  0.00    -0.383 N 
ATOM     51  H   UNL     1     -42.600  43.169  26.448  1.00  0.00     0.158 HD
ATOM     52  H   UNL     1     -41.123  43.346  27.328  1.00  0.00     0.158 HD
ENDBRANCH  46  50
ENDBRANCH  30  38
ENDBRANCH   1  26
TORSDOF 8
ENDMDL
MODEL 2
REMARK VINA RESULT:     -10.0      1.385      2.074
REMARK SMILES CNc1ccc2ccc(OC[C@H]3O[C@@H](n4cc(Cl)c5c(N)ncnc54)[C@@H](F)[C@@H]3O)cc2n1
REMARK SMILES IDX 11 1 10 4 9 5 3 6 4 7 32 8 5 9 31 11 6 12 30 14 7 15 8 17
REMARK SMILES IDX 2 20 1 22 12 26 13 27 28 28 14 30 26 31 27 34 29 36 15 38
REMARK SMILES IDX 16 39 25 40 17 41 19 43 24 44 18 45 20 46 23 47 22 48 21 50
REMARK H PARENT 11 2 11 3 4 10 5 13 30 16 7 18 8 19 2 21 1 23 1 24 1 25 12 29
REMARK H PARENT 28 32 14 33 26 35 29 37 16 42 23 49 21 51 21 52
REMARK Flexibility Score: inf
ROOT
ATOM      1  C   UNL     1     -46.304  35.560  26.889  1.00  0.00     0.117 C 
ATOM      2  H   UNL     1     -45.434  34.895  26.838  1.00  0.00     0.073 H 
ATOM      3  H   UNL     1     -46.252  36.263  26.049  1.00  0.00     0.073 H 
ENDROOT
BRANCH   1   4
ATOM      4  O   UNL     1     -47.516  34.802  26.837  1.00  0.00    -0.491 OA
BRANCH   4   5
ATOM      5  C   UNL     1     -47.531  33.713  26.008  1.00  0.00     0.121 A 
ATOM      6  C   UNL     1     -49.570  30.016  23.809  1.00  0.00     0.126 A 
ATOM      7  C   UNL     1     -48.375  29.661  23.195  1.00  0.00    -0.019 A 
ATOM      8  N   UNL     1     -49.649  31.075  24.643  1.00  0.00    -0.231 NA
ATOM      9  C   UNL     1     -47.235  30.424  23.426  1.00  0.00    -0.049 A 
ATOM     10  H   UNL     1     -48.325  28.790  22.552  1.00  0.00     0.066 H 
ATOM     11  C   UNL     1     -48.551  31.816  24.872  1.00  0.00     0.076 A 
ATOM     12  C   UNL     1     -47.308  31.528  24.278  1.00  0.00     0.001 A 
ATOM     13  H   UNL     1     -46.301  30.147  22.947  1.00  0.00     0.063 H 
ATOM     14  C   UNL     1     -48.638  32.909  25.729  1.00  0.00     0.007 A 
ATOM     15  C   UNL     1     -46.190  32.331  24.548  1.00  0.00    -0.049 A 
ATOM     16  H   UNL     1     -49.610  33.105  26.171  1.00  0.00     0.069 H 
ATOM     17  C   UNL     1     -46.307  33.420  25.410  1.00  0.00    -0.019 A 
ATOM     18  H   UNL     1     -45.227  32.114  24.093  1.00  0.00     0.063 H 
ATOM     19  H   UNL     1     -45.437  34.038  25.616  1.00  0.00     0.066 H 
BRANCH   6  20
ATOM     20  N   UNL     1     -50.696  29.206  23.576  1.00  0.00    -0.373 N 
ATOM     21  H   UNL     1     -50.587  28.743  22.678  1.00  0.00     0.161 HD
BRANCH  20  22
ATOM     22  C   UNL     1     -51.967  29.904  23.674  1.00  0.00     0.005 C 
ATOM     23  H   UNL     1     -51.958  30.841  23.105  1.00  0.00     0.045 H 
ATOM     24  H   UNL     1     -52.754  29.270  23.253  1.00  0.00     0.045 H 
ATOM     25  H   UNL     1     -52.235  30.107  24.717  1.00  0.00     0.045 H 
ENDBRANCH  20  22
ENDBRANCH   6  20
ENDBRANCH   4   5
ENDBRANCH   1   4
BRANCH   1  26
ATOM     26  C   UNL     1     -46.265  36.331  28.207  1.00  0.00     0.123 C 
ATOM     27  O   UNL     1     -45.014  37.019  28.361  1.00  0.00    -0.345 OA
ATOM     28  C   UNL     1     -47.381  37.368  28.316  1.00  0.00     0.119 C 
ATOM     29  H   UNL     1     -46.355  35.611  29.033  1.00  0.00     0.067 H 
ATOM     30  C   UNL     1     -45.287  38.269  29.031  1.00  0.00     0.169 C 
ATOM     31  C   UNL     1     -46.787  38.368  29.284  1.00  0.00     0.173 C 
ATOM     32  H   UNL     1     -47.619  37.848  27.363  1.00  0.00     0.066 H 
ATOM     33  H   UNL     1     -44.757  38.232  29.991  1.00  0.00     0.088 H 
ATOM     34  F   UNL     1     -47.274  39.612  29.068  1.00  0.00    -0.239 F 
ATOM     35  H   UNL     1     -47.025  38.096  30.319  1.00  0.00     0.074 H 
BRANCH  28  36
ATOM     36  O   UNL     1     -48.583  36.789  28.824  1.00  0.00    -0.387 OA
ATOM     37  H   UNL     1     -48.503  35.824  28.691  1.00  0.00     0.211 HD
ENDBRANCH  28  36
BRANCH  30  38
ATOM     38  N   UNL     1     -44.696  39.357  28.265  1.00  0.00    -0.301 N 
ATOM     39  C   UNL     1     -45.154  39.770  27.034  1.00  0.00     0.028 A 
ATOM     40  C   UNL     1     -43.625  40.137  28.634  1.00  0.00     0.149 A 
ATOM     41  C   UNL     1     -44.362  40.815  26.616  1.00  0.00     0.072 A 
ATOM     42  H   UNL     1     -46.001  39.292  26.556  1.00  0.00     0.084 H 
ATOM     43  C   UNL     1     -43.387  41.058  27.618  1.00  0.00     0.080 A 
ATOM     44  N   UNL     1     -42.929  40.027  29.779  1.00  0.00    -0.218 NA
ATOM     45  Cl  UNL     1     -44.535  41.670  25.156  1.00  0.00    -0.082 Cl
ATOM     46  C   UNL     1     -42.319  41.947  27.812  1.00  0.00     0.137 A 
ATOM     47  C   UNL     1     -41.939  40.930  29.853  1.00  0.00     0.120 A 
ATOM     48  N   UNL     1     -41.606  41.872  28.952  1.00  0.00    -0.219 NA
ATOM     49  H   UNL     1     -41.330  40.901  30.752  1.00  0.00     0.106 H 
BRANCH  46  50
ATOM     50  N   UNL     1     -41.944  42.922  26.902  1.00  0.00    -0.383 N 
ATOM     51  H   UNL     1     -42.649  43.191  26.229  1.00  0.00     0.158 HD
ATOM     52  H   UNL     1     -41.413  43.663  27.342  1.00  0.00     0.158 HD
ENDBRANCH  46  50
ENDBRANCH  30  38
ENDBRANCH   1  26
TORSDOF 8
ENDMDL
MODEL 3
REMARK VINA RESULT:      -9.3      2.180      2.885
REMARK SMILES CNc1ccc2ccc(OC[C@H]3O[C@@H](n4cc(Cl)c5c(N)ncnc54)[C@@H](F)[C@@H]3O)cc2n1
REMARK SMILES IDX 11 1 10 4 9 5 3 6 4 7 32 8 5 9 31 11 6 12 30 14 7 15 8 17
REMARK SMILES IDX 2 20 1 22 12 26 13 27 28 28 14 30 26 31 27 34 29 36 15 38
REMARK SMILES IDX 16 39 25 40 17 41 19 43 24 44 18 45 20 46 23 47 22 48 21 50
REMARK H PARENT 11 2 11 3 4 10 5 13 30 16 7 18 8 19 2 21 1 23 1 24 1 25 12 29
REMARK H PARENT 28 32 14 33 26 35 29 37 16 42 23 49 21 51 21 52
REMARK Flexibility Score: inf
ROOT
ATOM      1  C   UNL     1     -46.223  34.031  26.245  1.00  0.00     0.117 C 
ATOM      2  H   UNL     1     -45.704  33.123  26.576  1.00  0.00     0.073 H 
ATOM      3  H   UNL     1     -45.483  34.714  25.812  1.00  0.00     0.073 H 
ENDROOT
BRANCH   1   4
ATOM      4  O   UNL     1     -47.233  33.708  25.286  1.00  0.00    -0.491 OA
BRANCH   4   5
ATOM      5  C   UNL     1     -47.324  32.399  24.898  1.00  0.00     0.121 A 
ATOM      6  C   UNL     1     -49.121  27.993  25.035  1.00  0.00     0.126 A 
ATOM      7  C   UNL     1     -48.240  27.552  24.054  1.00  0.00    -0.019 A 
ATOM      8  N   UNL     1     -49.103  29.267  25.479  1.00  0.00    -0.231 NA
ATOM      9  C   UNL     1     -47.331  28.447  23.500  1.00  0.00    -0.049 A 
ATOM     10  H   UNL     1     -48.250  26.517  23.731  1.00  0.00     0.066 H 
ATOM     11  C   UNL     1     -48.225  30.138  24.949  1.00  0.00     0.076 A 
ATOM     12  C   UNL     1     -47.310  29.771  23.945  1.00  0.00     0.001 A 
ATOM     13  H   UNL     1     -46.641  28.103  22.734  1.00  0.00     0.063 H 
ATOM     14  C   UNL     1     -48.214  31.451  25.408  1.00  0.00     0.007 A 
ATOM     15  C   UNL     1     -46.414  30.715  23.423  1.00  0.00    -0.049 A 
ATOM     16  H   UNL     1     -48.931  31.703  26.183  1.00  0.00     0.069 H 
ATOM     17  C   UNL     1     -46.426  32.024  23.901  1.00  0.00    -0.019 A 
ATOM     18  H   UNL     1     -45.706  30.439  22.647  1.00  0.00     0.063 H 
ATOM     19  H   UNL     1     -45.729  32.751  23.493  1.00  0.00     0.066 H 
BRANCH   6  20
ATOM     20  N   UNL     1     -50.007  27.054  25.592  1.00  0.00    -0.373 N 
ATOM     21  H   UNL     1     -50.431  27.454  26.424  1.00  0.00     0.161 HD
BRANCH  20  22
ATOM     22  C   UNL     1     -49.410  25.755  25.862  1.00  0.00     0.005 C 
ATOM     23  H   UNL     1     -49.734  25.356  26.829  1.00  0.00     0.045 H 
ATOM     24  H   UNL     1     -49.731  25.050  25.089  1.00  0.00     0.045 H 
ATOM     25  H   UNL     1     -48.316  25.801  25.827  1.00  0.00     0.045 H 
ENDBRANCH  20  22
ENDBRANCH   6  20
ENDBRANCH   4   5
ENDBRANCH   1   4
BRANCH   1  26
ATOM     26  C   UNL     1     -46.887  34.692  27.452  1.00  0.00     0.123 C 
ATOM     27  O   UNL     1     -45.952  35.523  28.159  1.00  0.00    -0.345 OA
ATOM     28  C   UNL     1     -48.080  35.561  27.065  1.00  0.00     0.119 C 
ATOM     29  H   UNL     1     -47.219  33.902  28.140  1.00  0.00     0.067 H 
ATOM     30  C   UNL     1     -46.680  36.668  28.653  1.00  0.00     0.169 C 
ATOM     31  C   UNL     1     -48.134  36.549  28.210  1.00  0.00     0.173 C 
ATOM     32  H   UNL     1     -47.945  36.081  26.113  1.00  0.00     0.066 H 
ATOM     33  H   UNL     1     -46.628  36.623  29.748  1.00  0.00     0.088 H 
ATOM     34  F   UNL     1     -48.660  37.732  27.816  1.00  0.00    -0.239 F 
ATOM     35  H   UNL     1     -48.758  36.166  29.025  1.00  0.00     0.074 H 
BRANCH  28  36
ATOM     36  O   UNL     1     -49.279  34.792  26.974  1.00  0.00    -0.387 OA
ATOM     37  H   UNL     1     -49.362  34.308  27.819  1.00  0.00     0.211 HD
ENDBRANCH  28  36
BRANCH  30  38
ATOM     38  N   UNL     1     -45.986  37.882  28.248  1.00  0.00    -0.301 N 
ATOM     39  C   UNL     1     -46.299  38.608  27.120  1.00  0.00     0.028 A 
ATOM     40  C   UNL     1     -44.946  38.495  28.907  1.00  0.00     0.149 A 
ATOM     41  C   UNL     1     -45.444  39.685  27.060  1.00  0.00     0.072 A 
ATOM     42  H   UNL     1     -47.098  38.303  26.456  1.00  0.00     0.084 H 
ATOM     43  C   UNL     1     -44.579  39.626  28.183  1.00  0.00     0.080 A 
ATOM     44  N   UNL     1     -44.382  38.074  30.052  1.00  0.00    -0.218 NA
ATOM     45  Cl  UNL     1     -45.439  40.882  25.851  1.00  0.00    -0.082 Cl
ATOM     46  C   UNL     1     -43.521  40.388  28.700  1.00  0.00     0.137 A 
ATOM     47  C   UNL     1     -43.388  38.883  30.449  1.00  0.00     0.120 A 
ATOM     48  N   UNL     1     -42.939  40.000  29.851  1.00  0.00    -0.219 NA
ATOM     49  H   UNL     1     -42.882  38.603  31.368  1.00  0.00     0.106 H 
BRANCH  46  50
ATOM     50  N   UNL     1     -43.029  41.539  28.106  1.00  0.00    -0.383 N 
ATOM     51  H   UNL     1     -43.557  42.384  28.278  1.00  0.00     0.158 HD
ATOM     52  H   UNL     1     -42.021  41.597  28.175  1.00  0.00     0.158 HD
ENDBRANCH  46  50
ENDBRANCH  30  38
ENDBRANCH   1  26
TORSDOF 8
ENDMDL
MODEL 4
REMARK VINA RESULT:      -9.0      1.927      2.341
REMARK SMILES CNc1ccc2ccc(OC[C@H]3O[C@@H](n4cc(Cl)c5c(N)ncnc54)[C@@H](F)[C@@H]3O)cc2n1
REMARK SMILES IDX 11 1 10 4 9 5 3 6 4 7 32 8 5 9 31 11 6 12 30 14 7 15 8 17
REMARK SMILES IDX 2 20 1 22 12 26 13 27 28 28 14 30 26 31 27 34 29 36 15 38
REMARK SMILES IDX 16 39 25 40 17 41 19 43 24 44 18 45 20 46 23 47 22 48 21 50
REMARK H PARENT 11 2 11 3 4 10 5 13 30 16 7 18 8 19 2 21 1 23 1 24 1 25 12 29
REMARK H PARENT 28 32 14 33 26 35 29 37 16 42 23 49 21 51 21 52
REMARK Flexibility Score: inf
ROOT
ATOM      1  C   UNL     1     -47.486  35.095  27.762  1.00  0.00     0.117 C 
ATOM      2  H   UNL     1     -48.349  35.675  28.108  1.00  0.00     0.073 H 
ATOM      3  H   UNL     1     -47.533  34.099  28.218  1.00  0.00     0.073 H 
ENDROOT
BRANCH   1   4
ATOM      4  O   UNL     1     -47.488  34.996  26.335  1.00  0.00    -0.491 OA
BRANCH   4   5
ATOM      5  C   UNL     1     -47.591  33.741  25.800  1.00  0.00     0.121 A 
ATOM      6  C   UNL     1     -46.246  30.151  22.978  1.00  0.00     0.126 A 
ATOM      7  C   UNL     1     -47.309  29.360  23.398  1.00  0.00    -0.019 A 
ATOM      8  N   UNL     1     -46.067  31.402  23.452  1.00  0.00    -0.231 NA
ATOM      9  C   UNL     1     -48.199  29.857  24.344  1.00  0.00    -0.049 A 
ATOM     10  H   UNL     1     -47.453  28.369  22.984  1.00  0.00     0.066 H 
ATOM     11  C   UNL     1     -46.924  31.891  24.365  1.00  0.00     0.076 A 
ATOM     12  C   UNL     1     -48.017  31.147  24.849  1.00  0.00     0.001 A 
ATOM     13  H   UNL     1     -49.030  29.240  24.672  1.00  0.00     0.063 H 
ATOM     14  C   UNL     1     -46.731  33.179  24.853  1.00  0.00     0.007 A 
ATOM     15  C   UNL     1     -48.884  31.699  25.802  1.00  0.00    -0.049 A 
ATOM     16  H   UNL     1     -45.881  33.727  24.461  1.00  0.00     0.069 H 
ATOM     17  C   UNL     1     -48.667  32.993  26.274  1.00  0.00    -0.019 A 
ATOM     18  H   UNL     1     -49.729  31.131  26.180  1.00  0.00     0.063 H 
ATOM     19  H   UNL     1     -49.342  33.416  27.013  1.00  0.00     0.066 H 
BRANCH   6  20
ATOM     20  N   UNL     1     -45.383  29.627  22.000  1.00  0.00    -0.373 N 
ATOM     21  H   UNL     1     -45.929  29.368  21.183  1.00  0.00     0.161 HD
BRANCH  20  22
ATOM     22  C   UNL     1     -44.550  28.529  22.463  1.00  0.00     0.005 C 
ATOM     23  H   UNL     1     -44.515  28.483  23.557  1.00  0.00     0.045 H 
ATOM     24  H   UNL     1     -44.975  27.586  22.106  1.00  0.00     0.045 H 
ATOM     25  H   UNL     1     -43.532  28.599  22.063  1.00  0.00     0.045 H 
ENDBRANCH  20  22
ENDBRANCH   6  20
ENDBRANCH   4   5
ENDBRANCH   1   4
BRANCH   1  26
ATOM     26  C   UNL     1     -46.203  35.800  28.201  1.00  0.00     0.123 C 
ATOM     27  O   UNL     1     -45.792  36.771  27.225  1.00  0.00    -0.345 OA
ATOM     28  C   UNL     1     -46.358  36.523  29.538  1.00  0.00     0.119 C 
ATOM     29  H   UNL     1     -45.405  35.049  28.284  1.00  0.00     0.067 H 
ATOM     30  C   UNL     1     -45.219  37.887  27.940  1.00  0.00     0.169 C 
ATOM     31  C   UNL     1     -45.301  37.601  29.435  1.00  0.00     0.173 C 
ATOM     32  H   UNL     1     -47.348  36.966  29.677  1.00  0.00     0.066 H 
ATOM     33  H   UNL     1     -44.167  37.946  27.638  1.00  0.00     0.088 H 
ATOM     34  F   UNL     1     -45.639  38.693  30.160  1.00  0.00    -0.239 F 
ATOM     35  H   UNL     1     -44.339  37.239  29.815  1.00  0.00     0.074 H 
BRANCH  28  36
ATOM     36  O   UNL     1     -46.115  35.646  30.637  1.00  0.00    -0.387 OA
ATOM     37  H   UNL     1     -45.411  35.031  30.349  1.00  0.00     0.211 HD
ENDBRANCH  28  36
BRANCH  30  38
ATOM     38  N   UNL     1     -45.856  39.116  27.489  1.00  0.00    -0.301 N 
ATOM     39  C   UNL     1     -47.211  39.354  27.565  1.00  0.00     0.028 A 
ATOM     40  C   UNL     1     -45.233  40.214  26.942  1.00  0.00     0.149 A 
ATOM     41  C   UNL     1     -47.448  40.610  27.054  1.00  0.00     0.072 A 
ATOM     42  H   UNL     1     -47.892  38.619  27.973  1.00  0.00     0.084 H 
ATOM     43  C   UNL     1     -46.206  41.166  26.653  1.00  0.00     0.080 A 
ATOM     44  N   UNL     1     -43.913  40.342  26.725  1.00  0.00    -0.218 NA
ATOM     45  Cl  UNL     1     -48.969  41.363  26.938  1.00  0.00    -0.082 Cl
ATOM     46  C   UNL     1     -45.760  42.367  26.078  1.00  0.00     0.137 A 
ATOM     47  C   UNL     1     -43.608  41.529  26.178  1.00  0.00     0.120 A 
ATOM     48  N   UNL     1     -44.443  42.533  25.856  1.00  0.00    -0.219 NA
ATOM     49  H   UNL     1     -42.556  41.705  25.972  1.00  0.00     0.106 H 
BRANCH  46  50
ATOM     50  N   UNL     1     -46.593  43.416  25.727  1.00  0.00    -0.383 N 
ATOM     51  H   UNL     1     -46.813  44.071  26.466  1.00  0.00     0.158 HD
ATOM     52  H   UNL     1     -46.355  43.798  24.821  1.00  0.00     0.158 HD
ENDBRANCH  46  50
ENDBRANCH  30  38
ENDBRANCH   1  26
TORSDOF 8
ENDMDL
MODEL 5
REMARK VINA RESULT:      -8.9      4.016     10.453
REMARK SMILES CNc1ccc2ccc(OC[C@H]3O[C@@H](n4cc(Cl)c5c(N)ncnc54)[C@@H](F)[C@@H]3O)cc2n1
REMARK SMILES IDX 11 1 10 4 9 5 3 6 4 7 32 8 5 9 31 11 6 12 30 14 7 15 8 17
REMARK SMILES IDX 2 20 1 22 12 26 13 27 28 28 14 30 26 31 27 34 29 36 15 38
REMARK SMILES IDX 16 39 25 40 17 41 19 43 24 44 18 45 20 46 23 47 22 48 21 50
REMARK H PARENT 11 2 11 3 4 10 5 13 30 16 7 18 8 19 2 21 1 23 1 24 1 25 12 29
REMARK H PARENT 28 32 14 33 26 35 29 37 16 42 23 49 21 51 21 52
REMARK Flexibility Score: inf
ROOT
ATOM      1  C   UNL     1     -46.825  33.287  26.635  1.00  0.00     0.117 C 
ATOM      2  H   UNL     1     -45.865  33.699  26.301  1.00  0.00     0.073 H 
ATOM      3  H   UNL     1     -46.634  32.341  27.156  1.00  0.00     0.073 H 
ENDROOT
BRANCH   1   4
ATOM      4  O   UNL     1     -47.493  34.211  27.498  1.00  0.00    -0.491 OA
BRANCH   4   5
ATOM      5  C   UNL     1     -46.878  35.415  27.711  1.00  0.00     0.121 A 
ATOM      6  C   UNL     1     -45.725  39.903  26.618  1.00  0.00     0.126 A 
ATOM      7  C   UNL     1     -44.953  40.034  27.766  1.00  0.00    -0.019 A 
ATOM      8  N   UNL     1     -46.367  38.752  26.327  1.00  0.00    -0.231 NA
ATOM      9  C   UNL     1     -44.853  38.964  28.649  1.00  0.00    -0.049 A 
ATOM     10  H   UNL     1     -44.421  40.957  27.968  1.00  0.00     0.066 H 
ATOM     11  C   UNL     1     -46.274  37.712  27.174  1.00  0.00     0.076 A 
ATOM     12  C   UNL     1     -45.521  37.772  28.362  1.00  0.00     0.001 A 
ATOM     13  H   UNL     1     -44.249  39.065  29.546  1.00  0.00     0.063 H 
ATOM     14  C   UNL     1     -46.941  36.529  26.871  1.00  0.00     0.007 A 
ATOM     15  C   UNL     1     -45.454  36.660  29.215  1.00  0.00    -0.049 A 
ATOM     16  H   UNL     1     -47.512  36.515  25.948  1.00  0.00     0.069 H 
ATOM     17  C   UNL     1     -46.133  35.488  28.886  1.00  0.00    -0.019 A 
ATOM     18  H   UNL     1     -44.876  36.699  30.134  1.00  0.00     0.063 H 
ATOM     19  H   UNL     1     -46.077  34.630  29.551  1.00  0.00     0.066 H 
BRANCH   6  20
ATOM     20  N   UNL     1     -45.781  40.995  25.735  1.00  0.00    -0.373 N 
ATOM     21  H   UNL     1     -44.843  41.196  25.399  1.00  0.00     0.161 HD
BRANCH  20  22
ATOM     22  C   UNL     1     -46.422  42.179  26.286  1.00  0.00     0.005 C 
ATOM     23  H   UNL     1     -46.760  42.859  25.496  1.00  0.00     0.045 H 
ATOM     24  H   UNL     1     -47.303  41.871  26.858  1.00  0.00     0.045 H 
ATOM     25  H   UNL     1     -45.757  42.712  26.974  1.00  0.00     0.045 H 
ENDBRANCH  20  22
ENDBRANCH   6  20
ENDBRANCH   4   5
ENDBRANCH   1   4
BRANCH   1  26
ATOM     26  C   UNL     1     -47.708  33.031  25.414  1.00  0.00     0.123 C 
ATOM     27  O   UNL     1     -47.066  32.130  24.499  1.00  0.00    -0.345 OA
ATOM     28  C   UNL     1     -49.063  32.431  25.783  1.00  0.00     0.119 C 
ATOM     29  H   UNL     1     -47.862  33.986  24.892  1.00  0.00     0.067 H 
ATOM     30  C   UNL     1     -48.096  31.305  23.911  1.00  0.00     0.169 C 
ATOM     31  C   UNL     1     -49.439  31.702  24.511  1.00  0.00     0.173 C 
ATOM     32  H   UNL     1     -49.013  31.737  26.626  1.00  0.00     0.066 H 
ATOM     33  H   UNL     1     -48.098  31.524  22.836  1.00  0.00     0.088 H 
ATOM     34  F   UNL     1     -50.233  30.637  24.771  1.00  0.00    -0.239 F 
ATOM     35  H   UNL     1     -49.988  32.363  23.832  1.00  0.00     0.074 H 
BRANCH  28  36
ATOM     36  O   UNL     1     -50.011  33.446  26.111  1.00  0.00    -0.387 OA
ATOM     37  H   UNL     1     -49.609  34.297  25.844  1.00  0.00     0.211 HD
ENDBRANCH  28  36
BRANCH  30  38
ATOM     38  N   UNL     1     -47.721  29.905  24.054  1.00  0.00    -0.301 N 
ATOM     39  C   UNL     1     -48.448  28.983  24.774  1.00  0.00     0.028 A 
ATOM     40  C   UNL     1     -46.623  29.286  23.503  1.00  0.00     0.149 A 
ATOM     41  C   UNL     1     -47.800  27.771  24.685  1.00  0.00     0.072 A 
ATOM     42  H   UNL     1     -49.360  29.259  25.288  1.00  0.00     0.084 H 
ATOM     43  C   UNL     1     -46.641  27.948  23.886  1.00  0.00     0.080 A 
ATOM     44  N   UNL     1     -45.694  29.873  22.730  1.00  0.00    -0.218 NA
ATOM     45  Cl  UNL     1     -48.313  26.317  25.402  1.00  0.00    -0.082 Cl
ATOM     46  C   UNL     1     -45.588  27.146  23.420  1.00  0.00     0.137 A 
ATOM     47  C   UNL     1     -44.743  29.009  22.344  1.00  0.00     0.120 A 
ATOM     48  N   UNL     1     -44.644  27.700  22.635  1.00  0.00    -0.219 NA
ATOM     49  H   UNL     1     -43.954  29.414  21.716  1.00  0.00     0.106 H 
BRANCH  46  50
ATOM     50  N   UNL     1     -45.452  25.797  23.708  1.00  0.00    -0.383 N 
ATOM     51  H   UNL     1     -46.308  25.261  23.716  1.00  0.00     0.158 HD
ATOM     52  H   UNL     1     -44.651  25.392  23.239  1.00  0.00     0.158 HD
ENDBRANCH  46  50
ENDBRANCH  30  38
ENDBRANCH   1  26
TORSDOF 8
ENDMDL
MODEL 6
REMARK VINA RESULT:      -8.7      2.941      4.400
REMARK SMILES CNc1ccc2ccc(OC[C@H]3O[C@@H](n4cc(Cl)c5c(N)ncnc54)[C@@H](F)[C@@H]3O)cc2n1
REMARK SMILES IDX 11 1 10 4 9 5 3 6 4 7 32 8 5 9 31 11 6 12 30 14 7 15 8 17
REMARK SMILES IDX 2 20 1 22 12 26 13 27 28 28 14 30 26 31 27 34 29 36 15 38
REMARK SMILES IDX 16 39 25 40 17 41 19 43 24 44 18 45 20 46 23 47 22 48 21 50
REMARK H PARENT 11 2 11 3 4 10 5 13 30 16 7 18 8 19 2 21 1 23 1 24 1 25 12 29
REMARK H PARENT 28 32 14 33 26 35 29 37 16 42 23 49 21 51 21 52
REMARK Flexibility Score: inf
ROOT
ATOM      1  C   UNL     1     -46.047  38.666  28.610  1.00  0.00     0.117 C 
ATOM      2  H   UNL     1     -46.407  39.439  29.299  1.00  0.00     0.073 H 
ATOM      3  H   UNL     1     -45.940  37.728  29.167  1.00  0.00     0.073 H 
ENDROOT
BRANCH   1   4
ATOM      4  O   UNL     1     -46.959  38.503  27.520  1.00  0.00    -0.491 OA
BRANCH   4   5
ATOM      5  C   UNL     1     -47.315  37.222  27.196  1.00  0.00     0.121 A 
ATOM      6  C   UNL     1     -46.564  32.877  25.403  1.00  0.00     0.126 A 
ATOM      7  C   UNL     1     -47.863  32.479  25.697  1.00  0.00    -0.019 A 
ATOM      8  N   UNL     1     -46.125  34.122  25.687  1.00  0.00    -0.231 NA
ATOM      9  C   UNL     1     -48.728  33.375  26.317  1.00  0.00    -0.049 A 
ATOM     10  H   UNL     1     -48.206  31.485  25.434  1.00  0.00     0.066 H 
ATOM     11  C   UNL     1     -46.956  34.994  26.284  1.00  0.00     0.076 A 
ATOM     12  C   UNL     1     -48.281  34.662  26.625  1.00  0.00     0.001 A 
ATOM     13  H   UNL     1     -49.744  33.065  26.546  1.00  0.00     0.063 H 
ATOM     14  C   UNL     1     -46.497  36.273  26.579  1.00  0.00     0.007 A 
ATOM     15  C   UNL     1     -49.111  35.605  27.248  1.00  0.00    -0.049 A 
ATOM     16  H   UNL     1     -45.472  36.498  26.305  1.00  0.00     0.069 H 
ATOM     17  C   UNL     1     -48.624  36.880  27.531  1.00  0.00    -0.019 A 
ATOM     18  H   UNL     1     -50.135  35.356  27.513  1.00  0.00     0.063 H 
ATOM     19  H   UNL     1     -49.272  37.608  28.014  1.00  0.00     0.066 H 
BRANCH   6  20
ATOM     20  N   UNL     1     -45.726  31.955  24.751  1.00  0.00    -0.373 N 
ATOM     21  H   UNL     1     -44.889  32.437  24.435  1.00  0.00     0.161 HD
BRANCH  20  22
ATOM     22  C   UNL     1     -46.368  31.223  23.670  1.00  0.00     0.005 C 
ATOM     23  H   UNL     1     -45.648  30.924  22.902  1.00  0.00     0.045 H 
ATOM     24  H   UNL     1     -46.816  30.311  24.077  1.00  0.00     0.045 H 
ATOM     25  H   UNL     1     -47.176  31.807  23.214  1.00  0.00     0.045 H 
ENDBRANCH  20  22
ENDBRANCH   6  20
ENDBRANCH   4   5
ENDBRANCH   1   4
BRANCH   1  26
ATOM     26  C   UNL     1     -44.689  39.090  28.053  1.00  0.00     0.123 C 
ATOM     27  O   UNL     1     -44.808  39.526  26.689  1.00  0.00    -0.345 OA
ATOM     28  C   UNL     1     -44.055  40.228  28.849  1.00  0.00     0.119 C 
ATOM     29  H   UNL     1     -44.020  38.218  28.068  1.00  0.00     0.067 H 
ATOM     30  C   UNL     1     -43.872  40.609  26.498  1.00  0.00     0.169 C 
ATOM     31  C   UNL     1     -43.154  40.870  27.817  1.00  0.00     0.173 C 
ATOM     32  H   UNL     1     -44.785  40.949  29.227  1.00  0.00     0.066 H 
ATOM     33  H   UNL     1     -43.147  40.267  25.750  1.00  0.00     0.088 H 
ATOM     34  F   UNL     1     -42.981  42.189  28.067  1.00  0.00    -0.239 F 
ATOM     35  H   UNL     1     -42.164  40.401  27.819  1.00  0.00     0.074 H 
BRANCH  28  36
ATOM     36  O   UNL     1     -43.314  39.734  29.964  1.00  0.00    -0.387 OA
ATOM     37  H   UNL     1     -43.259  38.765  29.853  1.00  0.00     0.211 HD
ENDBRANCH  28  36
BRANCH  30  38
ATOM     38  N   UNL     1     -44.574  41.745  25.916  1.00  0.00    -0.301 N 
ATOM     39  C   UNL     1     -43.995  42.645  25.049  1.00  0.00     0.028 A 
ATOM     40  C   UNL     1     -45.890  42.090  26.117  1.00  0.00     0.149 A 
ATOM     41  C   UNL     1     -44.951  43.574  24.704  1.00  0.00     0.072 A 
ATOM     42  H   UNL     1     -42.959  42.554  24.748  1.00  0.00     0.084 H 
ATOM     43  C   UNL     1     -46.156  43.238  25.375  1.00  0.00     0.080 A 
ATOM     44  N   UNL     1     -46.766  41.433  26.896  1.00  0.00    -0.218 NA
ATOM     45  Cl  UNL     1     -44.723  44.887  23.648  1.00  0.00    -0.082 Cl
ATOM     46  C   UNL     1     -47.459  43.751  25.455  1.00  0.00     0.137 A 
ATOM     47  C   UNL     1     -47.976  42.014  26.890  1.00  0.00     0.120 A 
ATOM     48  N   UNL     1     -48.366  43.113  26.219  1.00  0.00    -0.219 NA
ATOM     49  H   UNL     1     -48.738  41.538  27.500  1.00  0.00     0.106 H 
BRANCH  46  50
ATOM     50  N   UNL     1     -47.891  44.884  24.784  1.00  0.00    -0.383 N 
ATOM     51  H   UNL     1     -48.794  44.813  24.337  1.00  0.00     0.158 HD
ATOM     52  H   UNL     1     -47.693  45.728  25.306  1.00  0.00     0.158 HD
ENDBRANCH  46  50
ENDBRANCH  30  38
ENDBRANCH   1  26
TORSDOF 8
ENDMDL
MODEL 7
REMARK VINA RESULT:      -8.7      3.551      4.908
REMARK SMILES CNc1ccc2ccc(OC[C@H]3O[C@@H](n4cc(Cl)c5c(N)ncnc54)[C@@H](F)[C@@H]3O)cc2n1
REMARK SMILES IDX 11 1 10 4 9 5 3 6 4 7 32 8 5 9 31 11 6 12 30 14 7 15 8 17
REMARK SMILES IDX 2 20 1 22 12 26 13 27 28 28 14 30 26 31 27 34 29 36 15 38
REMARK SMILES IDX 16 39 25 40 17 41 19 43 24 44 18 45 20 46 23 47 22 48 21 50
REMARK H PARENT 11 2 11 3 4 10 5 13 30 16 7 18 8 19 2 21 1 23 1 24 1 25 12 29
REMARK H PARENT 28 32 14 33 26 35 29 37 16 42 23 49 21 51 21 52
REMARK Flexibility Score: inf
ROOT
ATOM      1  C   UNL     1     -47.339  33.034  24.999  1.00  0.00     0.117 C 
ATOM      2  H   UNL     1     -46.821  32.270  24.407  1.00  0.00     0.073 H 
ATOM      3  H   UNL     1     -47.767  33.773  24.312  1.00  0.00     0.073 H 
ENDROOT
BRANCH   1   4
ATOM      4  O   UNL     1     -48.363  32.437  25.799  1.00  0.00    -0.491 OA
BRANCH   4   5
ATOM      5  C   UNL     1     -48.821  31.209  25.405  1.00  0.00     0.121 A 
ATOM      6  C   UNL     1     -49.124  26.464  25.626  1.00  0.00     0.126 A 
ATOM      7  C   UNL     1     -50.003  26.422  24.550  1.00  0.00    -0.019 A 
ATOM      8  N   UNL     1     -48.622  27.630  26.083  1.00  0.00    -0.231 NA
ATOM      9  C   UNL     1     -50.393  27.609  23.939  1.00  0.00    -0.049 A 
ATOM     10  H   UNL     1     -50.373  25.473  24.178  1.00  0.00     0.066 H 
ATOM     11  C   UNL     1     -48.992  28.782  25.497  1.00  0.00     0.076 A 
ATOM     12  C   UNL     1     -49.887  28.823  24.411  1.00  0.00     0.001 A 
ATOM     13  H   UNL     1     -51.079  27.578  23.098  1.00  0.00     0.063 H 
ATOM     14  C   UNL     1     -48.475  29.981  25.975  1.00  0.00     0.007 A 
ATOM     15  C   UNL     1     -50.244  30.050  23.833  1.00  0.00    -0.049 A 
ATOM     16  H   UNL     1     -47.788  29.917  26.813  1.00  0.00     0.069 H 
ATOM     17  C   UNL     1     -49.711  31.236  24.332  1.00  0.00    -0.019 A 
ATOM     18  H   UNL     1     -50.935  30.089  22.995  1.00  0.00     0.063 H 
ATOM     19  H   UNL     1     -49.991  32.184  23.880  1.00  0.00     0.066 H 
BRANCH   6  20
ATOM     20  N   UNL     1     -48.730  25.242  26.200  1.00  0.00    -0.373 N 
ATOM     21  H   UNL     1     -49.271  25.085  27.045  1.00  0.00     0.161 HD
BRANCH  20  22
ATOM     22  C   UNL     1     -47.301  25.129  26.444  1.00  0.00     0.005 C 
ATOM     23  H   UNL     1     -46.976  24.083  26.465  1.00  0.00     0.045 H 
ATOM     24  H   UNL     1     -46.762  25.626  25.632  1.00  0.00     0.045 H 
ATOM     25  H   UNL     1     -47.012  25.625  27.378  1.00  0.00     0.045 H 
ENDBRANCH  20  22
ENDBRANCH   6  20
ENDBRANCH   4   5
ENDBRANCH   1   4
BRANCH   1  26
ATOM     26  C   UNL     1     -46.331  33.716  25.923  1.00  0.00     0.123 C 
ATOM     27  O   UNL     1     -46.401  35.144  25.792  1.00  0.00    -0.345 OA
ATOM     28  C   UNL     1     -46.556  33.374  27.394  1.00  0.00     0.119 C 
ATOM     29  H   UNL     1     -45.321  33.401  25.627  1.00  0.00     0.067 H 
ATOM     30  C   UNL     1     -46.160  35.711  27.098  1.00  0.00     0.169 C 
ATOM     31  C   UNL     1     -45.952  34.574  28.091  1.00  0.00     0.173 C 
ATOM     32  H   UNL     1     -47.612  33.266  27.656  1.00  0.00     0.066 H 
ATOM     33  H   UNL     1     -45.237  36.299  27.019  1.00  0.00     0.088 H 
ATOM     34  F   UNL     1     -46.550  34.803  29.283  1.00  0.00    -0.239 F 
ATOM     35  H   UNL     1     -44.885  34.415  28.283  1.00  0.00     0.074 H 
BRANCH  28  36
ATOM     36  O   UNL     1     -45.893  32.163  27.755  1.00  0.00    -0.387 OA
ATOM     37  H   UNL     1     -46.155  31.495  27.092  1.00  0.00     0.211 HD
ENDBRANCH  28  36
BRANCH  30  38
ATOM     38  N   UNL     1     -47.229  36.648  27.414  1.00  0.00    -0.301 N 
ATOM     39  C   UNL     1     -48.535  36.276  27.645  1.00  0.00     0.028 A 
ATOM     40  C   UNL     1     -47.117  38.012  27.543  1.00  0.00     0.149 A 
ATOM     41  C   UNL     1     -49.258  37.416  27.914  1.00  0.00     0.072 A 
ATOM     42  H   UNL     1     -48.844  35.239  27.600  1.00  0.00     0.084 H 
ATOM     43  C   UNL     1     -48.375  38.524  27.851  1.00  0.00     0.080 A 
ATOM     44  N   UNL     1     -45.988  38.727  27.396  1.00  0.00    -0.218 NA
ATOM     45  Cl  UNL     1     -50.919  37.476  28.272  1.00  0.00    -0.082 Cl
ATOM     46  C   UNL     1     -48.464  39.915  28.018  1.00  0.00     0.137 A 
ATOM     47  C   UNL     1     -46.197  40.039  27.583  1.00  0.00     0.120 A 
ATOM     48  N   UNL     1     -47.350  40.661  27.887  1.00  0.00    -0.219 NA
ATOM     49  H   UNL     1     -45.328  40.682  27.478  1.00  0.00     0.106 H 
BRANCH  46  50
ATOM     50  N   UNL     1     -49.636  40.587  28.324  1.00  0.00    -0.383 N 
ATOM     51  H   UNL     1     -49.819  40.729  29.308  1.00  0.00     0.158 HD
ATOM     52  H   UNL     1     -49.794  41.369  27.702  1.00  0.00     0.158 HD
ENDBRANCH  46  50
ENDBRANCH  30  38
ENDBRANCH   1  26
TORSDOF 8
ENDMDL
