MODEL 1
REMARK VINA RESULT:     -10.3      0.000      0.000
REMARK SMILES CC1(CNCc2cc3ccc(CNC(=O)c4cc(=O)n5ccccc5n4)cc3[nH]2)CC1
REMARK SMILES IDX 5 1 4 4 3 6 2 9 30 10 31 11 1 16 6 20 7 21 29 22 8 23 28 25
REMARK SMILES IDX 9 27 27 28 10 29 11 31 12 34 13 37 14 38 15 40 16 41 17 42
REMARK SMILES IDX 26 43 18 44 25 46 19 47 20 48 24 49 21 50 23 51 22 53
REMARK H PARENT 5 2 5 3 4 5 3 7 3 8 30 12 30 13 31 14 31 15 1 17 1 18 1 19
REMARK H PARENT 7 24 29 26 9 30 27 32 10 33 12 35 12 36 13 39 17 45 24 52
REMARK H PARENT 21 54 23 55 22 56
REMARK Flexibility Score: inf
ROOT
ATOM      1  C   UNL     1     -48.564  29.660  23.908  1.00  0.00     0.036 C 
ATOM      2  H   UNL     1     -48.619  29.745  22.817  1.00  0.00     0.049 H 
ATOM      3  H   UNL     1     -49.574  29.470  24.289  1.00  0.00     0.049 H 
ENDROOT
BRANCH   1   4
ATOM      4  N   UNL     1     -47.644  28.594  24.298  1.00  0.00    -0.311 NA
ATOM      5  H   UNL     1     -47.012  28.439  23.513  1.00  0.00     0.123 HD
BRANCH   4   6
ATOM      6  C   UNL     1     -48.337  27.336  24.574  1.00  0.00     0.001 C 
ATOM      7  H   UNL     1     -48.073  26.625  23.783  1.00  0.00     0.043 H 
ATOM      8  H   UNL     1     -49.424  27.475  24.507  1.00  0.00     0.043 H 
BRANCH   6   9
ATOM      9  C   UNL     1     -47.934  26.723  25.899  1.00  0.00    -0.020 C 
ATOM     10  C   UNL     1     -46.576  26.048  25.957  1.00  0.00    -0.046 C 
ATOM     11  C   UNL     1     -47.823  25.214  26.010  1.00  0.00    -0.046 C 
ATOM     12  H   UNL     1     -45.987  26.137  26.863  1.00  0.00     0.027 H 
ATOM     13  H   UNL     1     -45.975  26.003  25.055  1.00  0.00     0.027 H 
ATOM     14  H   UNL     1     -48.082  24.746  26.954  1.00  0.00     0.027 H 
ATOM     15  H   UNL     1     -48.058  24.605  25.144  1.00  0.00     0.027 H 
BRANCH   9  16
ATOM     16  C   UNL     1     -48.357  27.498  27.124  1.00  0.00    -0.058 C 
ATOM     17  H   UNL     1     -47.490  27.974  27.594  1.00  0.00     0.024 H 
ATOM     18  H   UNL     1     -49.080  28.277  26.860  1.00  0.00     0.024 H 
ATOM     19  H   UNL     1     -48.830  26.852  27.872  1.00  0.00     0.024 H 
ENDBRANCH   9  16
ENDBRANCH   6   9
ENDBRANCH   4   6
ENDBRANCH   1   4
BRANCH   1  20
ATOM     20  C   UNL     1     -48.086  30.946  24.485  1.00  0.00     0.030 A 
ATOM     21  C   UNL     1     -46.882  31.611  24.366  1.00  0.00    -0.032 A 
ATOM     22  N   UNL     1     -48.896  31.717  25.285  1.00  0.00    -0.357 N 
ATOM     23  C   UNL     1     -46.967  32.814  25.120  1.00  0.00    -0.000 A 
ATOM     24  H   UNL     1     -46.027  31.272  23.796  1.00  0.00     0.065 H 
ATOM     25  C   UNL     1     -48.239  32.855  25.689  1.00  0.00     0.046 A 
ATOM     26  H   UNL     1     -49.833  31.450  25.561  1.00  0.00     0.166 HD
ATOM     27  C   UNL     1     -46.080  33.876  25.373  1.00  0.00    -0.052 A 
ATOM     28  C   UNL     1     -48.670  33.906  26.507  1.00  0.00    -0.033 A 
ATOM     29  C   UNL     1     -46.493  34.939  26.187  1.00  0.00    -0.057 A 
ATOM     30  H   UNL     1     -45.084  33.875  24.940  1.00  0.00     0.063 H 
ATOM     31  C   UNL     1     -47.770  34.956  26.762  1.00  0.00    -0.027 A 
ATOM     32  H   UNL     1     -49.670  33.912  26.930  1.00  0.00     0.065 H 
ATOM     33  H   UNL     1     -45.801  35.759  26.370  1.00  0.00     0.063 H 
BRANCH  31  34
ATOM     34  C   UNL     1     -48.204  36.124  27.608  1.00  0.00     0.043 C 
ATOM     35  H   UNL     1     -48.876  36.784  27.047  1.00  0.00     0.054 H 
ATOM     36  H   UNL     1     -48.761  35.784  28.490  1.00  0.00     0.054 H 
BRANCH  34  37
ATOM     37  N   UNL     1     -47.067  36.885  28.052  1.00  0.00    -0.347 N 
ATOM     38  C   UNL     1     -46.719  38.080  27.478  1.00  0.00     0.270 C 
ATOM     39  H   UNL     1     -46.531  36.581  28.860  1.00  0.00     0.164 HD
ATOM     40  O   UNL     1     -47.305  38.583  26.527  1.00  0.00    -0.268 OA
BRANCH  38  41
ATOM     41  C   UNL     1     -45.526  38.717  28.149  1.00  0.00     0.136 A 
ATOM     42  C   UNL     1     -45.162  38.206  29.327  1.00  0.00     0.035 A 
ATOM     43  N   UNL     1     -44.895  39.768  27.521  1.00  0.00    -0.225 NA
ATOM     44  C   UNL     1     -44.007  38.796  30.015  1.00  0.00     0.258 A 
ATOM     45  H   UNL     1     -45.666  37.379  29.811  1.00  0.00     0.071 H 
ATOM     46  C   UNL     1     -43.876  40.287  28.133  1.00  0.00     0.140 A 
ATOM     47  O   UNL     1     -43.664  38.331  31.100  1.00  0.00    -0.269 OA
ATOM     48  N   UNL     1     -43.391  39.853  29.361  1.00  0.00    -0.268 N 
ATOM     49  C   UNL     1     -43.163  41.427  27.489  1.00  0.00    -0.019 A 
ATOM     50  C   UNL     1     -42.289  40.464  29.951  1.00  0.00     0.014 A 
ATOM     51  C   UNL     1     -42.107  41.983  28.097  1.00  0.00    -0.057 A 
ATOM     52  H   UNL     1     -43.534  41.773  26.532  1.00  0.00     0.066 H 
ATOM     53  C   UNL     1     -41.654  41.488  29.368  1.00  0.00    -0.045 A 
ATOM     54  H   UNL     1     -41.964  40.074  30.913  1.00  0.00     0.082 H 
ATOM     55  H   UNL     1     -41.576  42.814  27.644  1.00  0.00     0.062 H 
ATOM     56  H   UNL     1     -40.795  41.957  29.837  1.00  0.00     0.064 H 
ENDBRANCH  38  41
ENDBRANCH  34  37
ENDBRANCH  31  34
ENDBRANCH   1  20
TORSDOF 8
ENDMDL
MODEL 2
REMARK VINA RESULT:      -9.6      2.304      3.780
REMARK SMILES CC1(CNCc2cc3ccc(CNC(=O)c4cc(=O)n5ccccc5n4)cc3[nH]2)CC1
REMARK SMILES IDX 5 1 4 4 3 6 2 9 30 10 31 11 1 16 6 20 7 21 29 22 8 23 28 25
REMARK SMILES IDX 9 27 27 28 10 29 11 31 12 34 13 37 14 38 15 40 16 41 17 42
REMARK SMILES IDX 26 43 18 44 25 46 19 47 20 48 24 49 21 50 23 51 22 53
REMARK H PARENT 5 2 5 3 4 5 3 7 3 8 30 12 30 13 31 14 31 15 1 17 1 18 1 19
REMARK H PARENT 7 24 29 26 9 30 27 32 10 33 12 35 12 36 13 39 17 45 24 52
REMARK H PARENT 21 54 23 55 22 56
REMARK Flexibility Score: inf
ROOT
ATOM      1  C   UNL     1     -46.343  32.145  24.783  1.00  0.00     0.036 C 
ATOM      2  H   UNL     1     -45.310  31.853  25.008  1.00  0.00     0.049 H 
ATOM      3  H   UNL     1     -46.390  32.455  23.733  1.00  0.00     0.049 H 
ENDROOT
BRANCH   1   4
ATOM      4  N   UNL     1     -47.263  31.042  25.050  1.00  0.00    -0.311 NA
ATOM      5  H   UNL     1     -46.697  30.208  25.210  1.00  0.00     0.123 HD
BRANCH   4   6
ATOM      6  C   UNL     1     -48.150  30.774  23.918  1.00  0.00     0.001 C 
ATOM      7  H   UNL     1     -48.200  31.682  23.306  1.00  0.00     0.043 H 
ATOM      8  H   UNL     1     -49.173  30.587  24.268  1.00  0.00     0.043 H 
BRANCH   6   9
ATOM      9  C   UNL     1     -47.649  29.650  23.034  1.00  0.00    -0.020 C 
ATOM     10  C   UNL     1     -48.580  28.470  22.832  1.00  0.00    -0.046 C 
ATOM     11  C   UNL     1     -47.339  28.303  23.659  1.00  0.00    -0.046 C 
ATOM     12  H   UNL     1     -48.611  27.989  21.861  1.00  0.00     0.027 H 
ATOM     13  H   UNL     1     -49.535  28.463  23.346  1.00  0.00     0.027 H 
ATOM     14  H   UNL     1     -46.526  27.717  23.243  1.00  0.00     0.027 H 
ATOM     15  H   UNL     1     -47.459  28.180  24.729  1.00  0.00     0.027 H 
BRANCH   9  16
ATOM     16  C   UNL     1     -46.837  30.085  21.837  1.00  0.00    -0.058 C 
ATOM     17  H   UNL     1     -46.048  29.355  21.625  1.00  0.00     0.024 H 
ATOM     18  H   UNL     1     -47.472  30.178  20.950  1.00  0.00     0.024 H 
ATOM     19  H   UNL     1     -46.358  31.056  22.001  1.00  0.00     0.024 H 
ENDBRANCH   9  16
ENDBRANCH   6   9
ENDBRANCH   4   6
ENDBRANCH   1   4
BRANCH   1  20
ATOM     20  C   UNL     1     -46.727  33.310  25.628  1.00  0.00     0.030 A 
ATOM     21  C   UNL     1     -47.959  33.845  25.941  1.00  0.00    -0.032 A 
ATOM     22  N   UNL     1     -45.780  34.062  26.282  1.00  0.00    -0.357 N 
ATOM     23  C   UNL     1     -47.750  34.956  26.805  1.00  0.00    -0.000 A 
ATOM     24  H   UNL     1     -48.915  33.480  25.589  1.00  0.00     0.065 H 
ATOM     25  C   UNL     1     -46.375  35.072  27.000  1.00  0.00     0.046 A 
ATOM     26  H   UNL     1     -44.783  33.904  26.204  1.00  0.00     0.166 HD
ATOM     27  C   UNL     1     -48.603  35.875  27.442  1.00  0.00    -0.052 A 
ATOM     28  C   UNL     1     -45.805  36.070  27.800  1.00  0.00    -0.033 A 
ATOM     29  C   UNL     1     -48.052  36.880  28.248  1.00  0.00    -0.057 A 
ATOM     30  H   UNL     1     -49.679  35.808  27.313  1.00  0.00     0.063 H 
ATOM     31  C   UNL     1     -46.666  36.990  28.422  1.00  0.00    -0.027 A 
ATOM     32  H   UNL     1     -44.729  36.130  27.938  1.00  0.00     0.065 H 
ATOM     33  H   UNL     1     -48.721  37.582  28.742  1.00  0.00     0.063 H 
BRANCH  31  34
ATOM     34  C   UNL     1     -46.098  38.059  29.318  1.00  0.00     0.043 C 
ATOM     35  H   UNL     1     -46.900  38.633  29.798  1.00  0.00     0.054 H 
ATOM     36  H   UNL     1     -45.502  37.617  30.126  1.00  0.00     0.054 H 
BRANCH  34  37
ATOM     37  N   UNL     1     -45.262  38.961  28.574  1.00  0.00    -0.347 N 
ATOM     38  C   UNL     1     -45.774  40.018  27.867  1.00  0.00     0.270 C 
ATOM     39  H   UNL     1     -44.250  38.873  28.614  1.00  0.00     0.164 HD
ATOM     40  O   UNL     1     -46.970  40.267  27.772  1.00  0.00    -0.268 OA
BRANCH  38  41
ATOM     41  C   UNL     1     -44.698  40.852  27.215  1.00  0.00     0.136 A 
ATOM     42  C   UNL     1     -43.542  40.955  27.875  1.00  0.00     0.035 A 
ATOM     43  N   UNL     1     -44.965  41.448  26.003  1.00  0.00    -0.225 NA
ATOM     44  C   UNL     1     -42.468  41.757  27.276  1.00  0.00     0.258 A 
ATOM     45  H   UNL     1     -43.344  40.481  28.827  1.00  0.00     0.071 H 
ATOM     46  C   UNL     1     -44.014  42.157  25.478  1.00  0.00     0.140 A 
ATOM     47  O   UNL     1     -41.400  41.857  27.877  1.00  0.00    -0.269 OA
ATOM     48  N   UNL     1     -42.764  42.347  26.056  1.00  0.00    -0.268 N 
ATOM     49  C   UNL     1     -44.260  42.821  24.166  1.00  0.00    -0.019 A 
ATOM     50  C   UNL     1     -41.796  43.123  25.427  1.00  0.00     0.014 A 
ATOM     51  C   UNL     1     -43.297  43.559  23.600  1.00  0.00    -0.057 A 
ATOM     52  H   UNL     1     -45.231  42.679  23.709  1.00  0.00     0.066 H 
ATOM     53  C   UNL     1     -42.024  43.717  24.249  1.00  0.00    -0.045 A 
ATOM     54  H   UNL     1     -40.841  43.229  25.935  1.00  0.00     0.082 H 
ATOM     55  H   UNL     1     -43.457  44.050  22.646  1.00  0.00     0.062 H 
ATOM     56  H   UNL     1     -41.261  44.320  23.767  1.00  0.00     0.064 H 
ENDBRANCH  38  41
ENDBRANCH  34  37
ENDBRANCH  31  34
ENDBRANCH   1  20
TORSDOF 8
ENDMDL
MODEL 3
REMARK VINA RESULT:      -9.5      1.700      2.911
REMARK SMILES CC1(CNCc2cc3ccc(CNC(=O)c4cc(=O)n5ccccc5n4)cc3[nH]2)CC1
REMARK SMILES IDX 5 1 4 4 3 6 2 9 30 10 31 11 1 16 6 20 7 21 29 22 8 23 28 25
REMARK SMILES IDX 9 27 27 28 10 29 11 31 12 34 13 37 14 38 15 40 16 41 17 42
REMARK SMILES IDX 26 43 18 44 25 46 19 47 20 48 24 49 21 50 23 51 22 53
REMARK H PARENT 5 2 5 3 4 5 3 7 3 8 30 12 30 13 31 14 31 15 1 17 1 18 1 19
REMARK H PARENT 7 24 29 26 9 30 27 32 10 33 12 35 12 36 13 39 17 45 24 52
REMARK H PARENT 21 54 23 55 22 56
REMARK Flexibility Score: inf
ROOT
ATOM      1  C   UNL     1     -46.994  31.113  24.211  1.00  0.00     0.036 C 
ATOM      2  H   UNL     1     -45.925  30.978  24.008  1.00  0.00     0.049 H 
ATOM      3  H   UNL     1     -47.496  31.351  23.267  1.00  0.00     0.049 H 
ENDROOT
BRANCH   1   4
ATOM      4  N   UNL     1     -47.560  29.912  24.822  1.00  0.00    -0.311 NA
ATOM      5  H   UNL     1     -46.926  29.140  24.615  1.00  0.00     0.123 HD
BRANCH   4   6
ATOM      6  C   UNL     1     -48.872  29.576  24.270  1.00  0.00     0.001 C 
ATOM      7  H   UNL     1     -48.993  30.125  23.328  1.00  0.00     0.043 H 
ATOM      8  H   UNL     1     -49.670  29.933  24.933  1.00  0.00     0.043 H 
BRANCH   6   9
ATOM      9  C   UNL     1     -49.020  28.099  23.965  1.00  0.00    -0.020 C 
ATOM     10  C   UNL     1     -49.189  27.714  22.507  1.00  0.00    -0.046 C 
ATOM     11  C   UNL     1     -50.349  27.581  23.450  1.00  0.00    -0.046 C 
ATOM     12  H   UNL     1     -48.720  26.804  22.150  1.00  0.00     0.027 H 
ATOM     13  H   UNL     1     -49.231  28.499  21.760  1.00  0.00     0.027 H 
ATOM     14  H   UNL     1     -50.659  26.582  23.738  1.00  0.00     0.027 H 
ATOM     15  H   UNL     1     -51.174  28.275  23.335  1.00  0.00     0.027 H 
BRANCH   9  16
ATOM     16  C   UNL     1     -48.177  27.179  24.815  1.00  0.00    -0.058 C 
ATOM     17  H   UNL     1     -48.001  26.231  24.295  1.00  0.00     0.024 H 
ATOM     18  H   UNL     1     -47.208  27.636  25.040  1.00  0.00     0.024 H 
ATOM     19  H   UNL     1     -48.661  26.950  25.771  1.00  0.00     0.024 H 
ENDBRANCH   9  16
ENDBRANCH   6   9
ENDBRANCH   4   6
ENDBRANCH   1   4
BRANCH   1  20
ATOM     20  C   UNL     1     -47.184  32.262  25.139  1.00  0.00     0.030 A 
ATOM     21  C   UNL     1     -48.244  33.127  25.317  1.00  0.00    -0.032 A 
ATOM     22  N   UNL     1     -46.212  32.621  26.042  1.00  0.00    -0.357 N 
ATOM     23  C   UNL     1     -47.899  34.038  26.354  1.00  0.00    -0.000 A 
ATOM     24  H   UNL     1     -49.174  33.111  24.763  1.00  0.00     0.065 H 
ATOM     25  C   UNL     1     -46.619  33.701  26.789  1.00  0.00     0.046 A 
ATOM     26  H   UNL     1     -45.310  32.166  26.108  1.00  0.00     0.166 HD
ATOM     27  C   UNL     1     -48.557  35.120  26.966  1.00  0.00    -0.052 A 
ATOM     28  C   UNL     1     -45.956  34.398  27.807  1.00  0.00    -0.033 A 
ATOM     29  C   UNL     1     -47.912  35.829  27.988  1.00  0.00    -0.057 A 
ATOM     30  H   UNL     1     -49.558  35.404  26.652  1.00  0.00     0.063 H 
ATOM     31  C   UNL     1     -46.619  35.484  28.403  1.00  0.00    -0.027 A 
ATOM     32  H   UNL     1     -44.960  34.105  28.128  1.00  0.00     0.065 H 
ATOM     33  H   UNL     1     -48.433  36.660  28.460  1.00  0.00     0.063 H 
BRANCH  31  34
ATOM     34  C   UNL     1     -45.957  36.240  29.525  1.00  0.00     0.043 C 
ATOM     35  H   UNL     1     -46.689  36.520  30.292  1.00  0.00     0.054 H 
ATOM     36  H   UNL     1     -45.201  35.621  30.023  1.00  0.00     0.054 H 
BRANCH  34  37
ATOM     37  N   UNL     1     -45.319  37.432  29.034  1.00  0.00    -0.347 N 
ATOM     38  C   UNL     1     -44.615  38.274  29.854  1.00  0.00     0.270 C 
ATOM     39  H   UNL     1     -45.319  37.640  28.039  1.00  0.00     0.164 HD
ATOM     40  O   UNL     1     -44.496  38.118  31.063  1.00  0.00    -0.268 OA
BRANCH  38  41
ATOM     41  C   UNL     1     -43.990  39.424  29.101  1.00  0.00     0.136 A 
ATOM     42  C   UNL     1     -42.926  39.998  29.666  1.00  0.00     0.035 A 
ATOM     43  N   UNL     1     -44.543  39.807  27.899  1.00  0.00    -0.225 NA
ATOM     44  C   UNL     1     -42.288  41.121  28.967  1.00  0.00     0.258 A 
ATOM     45  H   UNL     1     -42.500  39.688  30.611  1.00  0.00     0.071 H 
ATOM     46  C   UNL     1     -43.977  40.800  27.286  1.00  0.00     0.140 A 
ATOM     47  O   UNL     1     -41.307  41.656  29.480  1.00  0.00    -0.269 OA
ATOM     48  N   UNL     1     -42.865  41.487  27.759  1.00  0.00    -0.268 N 
ATOM     49  C   UNL     1     -44.543  41.249  25.981  1.00  0.00    -0.019 A 
ATOM     50  C   UNL     1     -42.316  42.543  27.039  1.00  0.00     0.014 A 
ATOM     51  C   UNL     1     -43.980  42.271  25.325  1.00  0.00    -0.057 A 
ATOM     52  H   UNL     1     -45.409  40.720  25.604  1.00  0.00     0.066 H 
ATOM     53  C   UNL     1     -42.830  42.940  25.869  1.00  0.00    -0.045 A 
ATOM     54  H   UNL     1     -41.447  43.035  27.469  1.00  0.00     0.082 H 
ATOM     55  H   UNL     1     -44.377  42.612  24.375  1.00  0.00     0.062 H 
ATOM     56  H   UNL     1     -42.393  43.765  25.315  1.00  0.00     0.064 H 
ENDBRANCH  38  41
ENDBRANCH  34  37
ENDBRANCH  31  34
ENDBRANCH   1  20
TORSDOF 8
ENDMDL
MODEL 4
REMARK VINA RESULT:      -9.4      1.563      2.006
REMARK SMILES CC1(CNCc2cc3ccc(CNC(=O)c4cc(=O)n5ccccc5n4)cc3[nH]2)CC1
REMARK SMILES IDX 5 1 4 4 3 6 2 9 30 10 31 11 1 16 6 20 7 21 29 22 8 23 28 25
REMARK SMILES IDX 9 27 27 28 10 29 11 31 12 34 13 37 14 38 15 40 16 41 17 42
REMARK SMILES IDX 26 43 18 44 25 46 19 47 20 48 24 49 21 50 23 51 22 53
REMARK H PARENT 5 2 5 3 4 5 3 7 3 8 30 12 30 13 31 14 31 15 1 17 1 18 1 19
REMARK H PARENT 7 24 29 26 9 30 27 32 10 33 12 35 12 36 13 39 17 45 24 52
REMARK H PARENT 21 54 23 55 22 56
REMARK Flexibility Score: inf
ROOT
ATOM      1  C   UNL     1     -48.837  30.316  24.756  1.00  0.00     0.036 C 
ATOM      2  H   UNL     1     -49.170  30.415  23.716  1.00  0.00     0.049 H 
ATOM      3  H   UNL     1     -49.709  30.080  25.375  1.00  0.00     0.049 H 
ENDROOT
BRANCH   1   4
ATOM      4  N   UNL     1     -47.810  29.284  24.876  1.00  0.00    -0.311 NA
ATOM      5  H   UNL     1     -47.059  29.529  24.230  1.00  0.00     0.123 HD
BRANCH   4   6
ATOM      6  C   UNL     1     -48.309  27.961  24.503  1.00  0.00     0.001 C 
ATOM      7  H   UNL     1     -47.448  27.340  24.228  1.00  0.00     0.043 H 
ATOM      8  H   UNL     1     -48.934  28.026  23.603  1.00  0.00     0.043 H 
BRANCH   6   9
ATOM      9  C   UNL     1     -49.035  27.267  25.637  1.00  0.00    -0.020 C 
ATOM     10  C   UNL     1     -49.627  25.901  25.338  1.00  0.00    -0.046 C 
ATOM     11  C   UNL     1     -50.537  27.077  25.545  1.00  0.00    -0.046 C 
ATOM     12  H   UNL     1     -49.599  25.140  26.110  1.00  0.00     0.027 H 
ATOM     13  H   UNL     1     -49.538  25.501  24.335  1.00  0.00     0.027 H 
ATOM     14  H   UNL     1     -51.119  27.115  26.460  1.00  0.00     0.027 H 
ATOM     15  H   UNL     1     -51.063  27.464  24.680  1.00  0.00     0.027 H 
BRANCH   9  16
ATOM     16  C   UNL     1     -48.423  27.454  27.005  1.00  0.00    -0.058 C 
ATOM     17  H   UNL     1     -47.442  26.970  27.054  1.00  0.00     0.024 H 
ATOM     18  H   UNL     1     -48.297  28.518  27.231  1.00  0.00     0.024 H 
ATOM     19  H   UNL     1     -49.048  27.023  27.794  1.00  0.00     0.024 H 
ENDBRANCH   9  16
ENDBRANCH   6   9
ENDBRANCH   4   6
ENDBRANCH   1   4
BRANCH   1  20
ATOM     20  C   UNL     1     -48.274  31.613  25.224  1.00  0.00     0.030 A 
ATOM     21  C   UNL     1     -47.004  32.145  25.132  1.00  0.00    -0.032 A 
ATOM     22  N   UNL     1     -49.058  32.545  25.863  1.00  0.00    -0.357 N 
ATOM     23  C   UNL     1     -47.020  33.432  25.738  1.00  0.00    -0.000 A 
ATOM     24  H   UNL     1     -46.148  31.663  24.677  1.00  0.00     0.065 H 
ATOM     25  C   UNL     1     -48.319  33.657  26.191  1.00  0.00     0.046 A 
ATOM     26  H   UNL     1     -50.034  32.400  26.088  1.00  0.00     0.166 HD
ATOM     27  C   UNL     1     -46.051  34.430  25.943  1.00  0.00    -0.052 A 
ATOM     28  C   UNL     1     -48.700  34.834  26.848  1.00  0.00    -0.033 A 
ATOM     29  C   UNL     1     -46.412  35.616  26.597  1.00  0.00    -0.057 A 
ATOM     30  H   UNL     1     -45.031  34.286  25.598  1.00  0.00     0.063 H 
ATOM     31  C   UNL     1     -47.720  35.819  27.058  1.00  0.00    -0.027 A 
ATOM     32  H   UNL     1     -49.722  34.982  27.182  1.00  0.00     0.065 H 
ATOM     33  H   UNL     1     -45.657  36.385  26.744  1.00  0.00     0.063 H 
BRANCH  31  34
ATOM     34  C   UNL     1     -48.093  37.115  27.729  1.00  0.00     0.043 C 
ATOM     35  H   UNL     1     -49.027  37.513  27.316  1.00  0.00     0.054 H 
ATOM     36  H   UNL     1     -48.263  36.965  28.803  1.00  0.00     0.054 H 
BRANCH  34  37
ATOM     37  N   UNL     1     -47.054  38.095  27.564  1.00  0.00    -0.347 N 
ATOM     38  C   UNL     1     -46.274  38.515  28.609  1.00  0.00     0.270 C 
ATOM     39  H   UNL     1     -46.829  38.452  26.640  1.00  0.00     0.164 HD
ATOM     40  O   UNL     1     -46.408  38.133  29.765  1.00  0.00    -0.268 OA
BRANCH  38  41
ATOM     41  C   UNL     1     -45.218  39.505  28.180  1.00  0.00     0.136 A 
ATOM     42  C   UNL     1     -44.174  39.654  28.997  1.00  0.00     0.035 A 
ATOM     43  N   UNL     1     -45.390  40.184  26.993  1.00  0.00    -0.225 NA
ATOM     44  C   UNL     1     -43.123  40.607  28.617  1.00  0.00     0.258 A 
ATOM     45  H   UNL     1     -44.050  39.115  29.927  1.00  0.00     0.071 H 
ATOM     46  C   UNL     1     -44.460  41.025  26.662  1.00  0.00     0.140 A 
ATOM     47  O   UNL     1     -42.157  40.751  29.365  1.00  0.00    -0.269 OA
ATOM     48  N   UNL     1     -43.321  41.278  27.419  1.00  0.00    -0.268 N 
ATOM     49  C   UNL     1     -44.604  41.782  25.386  1.00  0.00    -0.019 A 
ATOM     50  C   UNL     1     -42.368  42.197  26.993  1.00  0.00     0.014 A 
ATOM     51  C   UNL     1     -43.660  42.658  25.018  1.00  0.00    -0.057 A 
ATOM     52  H   UNL     1     -45.488  41.593  24.790  1.00  0.00     0.066 H 
ATOM     53  C   UNL     1     -42.505  42.874  25.845  1.00  0.00    -0.045 A 
ATOM     54  H   UNL     1     -41.502  42.345  27.634  1.00  0.00     0.082 H 
ATOM     55  H   UNL     1     -43.748  43.219  24.093  1.00  0.00     0.062 H 
ATOM     56  H   UNL     1     -41.755  43.589  25.523  1.00  0.00     0.064 H 
ENDBRANCH  38  41
ENDBRANCH  34  37
ENDBRANCH  31  34
ENDBRANCH   1  20
TORSDOF 8
ENDMDL
MODEL 5
REMARK VINA RESULT:      -9.4      3.043     11.305
REMARK SMILES CC1(CNCc2cc3ccc(CNC(=O)c4cc(=O)n5ccccc5n4)cc3[nH]2)CC1
REMARK SMILES IDX 5 1 4 4 3 6 2 9 30 10 31 11 1 16 6 20 7 21 29 22 8 23 28 25
REMARK SMILES IDX 9 27 27 28 10 29 11 31 12 34 13 37 14 38 15 40 16 41 17 42
REMARK SMILES IDX 26 43 18 44 25 46 19 47 20 48 24 49 21 50 23 51 22 53
REMARK H PARENT 5 2 5 3 4 5 3 7 3 8 30 12 30 13 31 14 31 15 1 17 1 18 1 19
REMARK H PARENT 7 24 29 26 9 30 27 32 10 33 12 35 12 36 13 39 17 45 24 52
REMARK H PARENT 21 54 23 55 22 56
REMARK Flexibility Score: inf
ROOT
ATOM      1  C   UNL     1     -45.457  37.683  29.848  1.00  0.00     0.036 C 
ATOM      2  H   UNL     1     -44.401  37.417  29.978  1.00  0.00     0.049 H 
ATOM      3  H   UNL     1     -45.958  37.581  30.816  1.00  0.00     0.049 H 
ENDROOT
BRANCH   1   4
ATOM      4  N   UNL     1     -45.589  39.041  29.325  1.00  0.00    -0.311 NA
ATOM      5  H   UNL     1     -46.548  39.144  28.992  1.00  0.00     0.123 HD
BRANCH   4   6
ATOM      6  C   UNL     1     -44.693  39.290  28.197  1.00  0.00     0.001 C 
ATOM      7  H   UNL     1     -44.245  38.333  27.904  1.00  0.00     0.043 H 
ATOM      8  H   UNL     1     -43.859  39.934  28.504  1.00  0.00     0.043 H 
BRANCH   6   9
ATOM      9  C   UNL     1     -45.413  39.850  26.987  1.00  0.00    -0.020 C 
ATOM     10  C   UNL     1     -46.865  40.250  27.179  1.00  0.00    -0.046 C 
ATOM     11  C   UNL     1     -46.530  39.041  26.355  1.00  0.00    -0.046 C 
ATOM     12  H   UNL     1     -47.237  41.128  26.663  1.00  0.00     0.027 H 
ATOM     13  H   UNL     1     -47.328  40.090  28.146  1.00  0.00     0.027 H 
ATOM     14  H   UNL     1     -46.667  39.104  25.280  1.00  0.00     0.027 H 
ATOM     15  H   UNL     1     -46.772  38.068  26.766  1.00  0.00     0.027 H 
BRANCH   9  16
ATOM     16  C   UNL     1     -44.579  40.735  26.093  1.00  0.00    -0.058 C 
ATOM     17  H   UNL     1     -43.665  40.217  25.786  1.00  0.00     0.024 H 
ATOM     18  H   UNL     1     -45.138  41.015  25.194  1.00  0.00     0.024 H 
ATOM     19  H   UNL     1     -44.285  41.662  26.597  1.00  0.00     0.024 H 
ENDBRANCH   9  16
ENDBRANCH   6   9
ENDBRANCH   4   6
ENDBRANCH   1   4
BRANCH   1  20
ATOM     20  C   UNL     1     -46.095  36.734  28.894  1.00  0.00     0.030 A 
ATOM     21  C   UNL     1     -47.420  36.436  28.649  1.00  0.00    -0.032 A 
ATOM     22  N   UNL     1     -45.343  35.969  28.034  1.00  0.00    -0.357 N 
ATOM     23  C   UNL     1     -47.469  35.458  27.617  1.00  0.00    -0.000 A 
ATOM     24  H   UNL     1     -48.270  36.872  29.157  1.00  0.00     0.065 H 
ATOM     25  C   UNL     1     -46.153  35.181  27.252  1.00  0.00     0.046 A 
ATOM     26  H   UNL     1     -44.331  35.969  28.020  1.00  0.00     0.166 HD
ATOM     27  C   UNL     1     -48.510  34.782  26.956  1.00  0.00    -0.052 A 
ATOM     28  C   UNL     1     -45.823  34.252  26.257  1.00  0.00    -0.033 A 
ATOM     29  C   UNL     1     -48.201  33.851  25.957  1.00  0.00    -0.057 A 
ATOM     30  H   UNL     1     -49.546  34.981  27.216  1.00  0.00     0.063 H 
ATOM     31  C   UNL     1     -46.871  33.574  25.612  1.00  0.00    -0.027 A 
ATOM     32  H   UNL     1     -44.787  34.063  25.990  1.00  0.00     0.065 H 
ATOM     33  H   UNL     1     -49.014  33.339  25.447  1.00  0.00     0.063 H 
BRANCH  31  34
ATOM     34  C   UNL     1     -46.563  32.592  24.512  1.00  0.00     0.043 C 
ATOM     35  H   UNL     1     -46.938  32.955  23.548  1.00  0.00     0.054 H 
ATOM     36  H   UNL     1     -45.481  32.458  24.398  1.00  0.00     0.054 H 
BRANCH  34  37
ATOM     37  N   UNL     1     -47.155  31.311  24.789  1.00  0.00    -0.347 N 
ATOM     38  C   UNL     1     -48.114  30.759  23.981  1.00  0.00     0.270 C 
ATOM     39  H   UNL     1     -46.818  30.747  25.565  1.00  0.00     0.164 HD
ATOM     40  O   UNL     1     -48.578  31.309  22.989  1.00  0.00    -0.268 OA
BRANCH  38  41
ATOM     41  C   UNL     1     -48.541  29.387  24.444  1.00  0.00     0.136 A 
ATOM     42  C   UNL     1     -49.849  29.126  24.405  1.00  0.00     0.035 A 
ATOM     43  N   UNL     1     -47.576  28.502  24.871  1.00  0.00    -0.225 NA
ATOM     44  C   UNL     1     -50.308  27.802  24.847  1.00  0.00     0.258 A 
ATOM     45  H   UNL     1     -50.599  29.829  24.067  1.00  0.00     0.071 H 
ATOM     46  C   UNL     1     -47.985  27.335  25.261  1.00  0.00     0.140 A 
ATOM     47  O   UNL     1     -51.511  27.553  24.815  1.00  0.00    -0.269 OA
ATOM     48  N   UNL     1     -49.316  26.931  25.273  1.00  0.00    -0.268 N 
ATOM     49  C   UNL     1     -46.975  26.346  25.732  1.00  0.00    -0.019 A 
ATOM     50  C   UNL     1     -49.673  25.659  25.707  1.00  0.00     0.014 A 
ATOM     51  C   UNL     1     -47.367  25.132  26.141  1.00  0.00    -0.057 A 
ATOM     52  H   UNL     1     -45.936  26.652  25.728  1.00  0.00     0.066 H 
ATOM     53  C   UNL     1     -48.760  24.775  26.129  1.00  0.00    -0.045 A 
ATOM     54  H   UNL     1     -50.731  25.410  25.690  1.00  0.00     0.082 H 
ATOM     55  H   UNL     1     -46.647  24.399  26.488  1.00  0.00     0.062 H 
ATOM     56  H   UNL     1     -49.050  23.785  26.465  1.00  0.00     0.064 H 
ENDBRANCH  38  41
ENDBRANCH  34  37
ENDBRANCH  31  34
ENDBRANCH   1  20
TORSDOF 8
ENDMDL
MODEL 6
REMARK VINA RESULT:      -9.3      2.216      3.403
REMARK SMILES CC1(CNCc2cc3ccc(CNC(=O)c4cc(=O)n5ccccc5n4)cc3[nH]2)CC1
REMARK SMILES IDX 5 1 4 4 3 6 2 9 30 10 31 11 1 16 6 20 7 21 29 22 8 23 28 25
REMARK SMILES IDX 9 27 27 28 10 29 11 31 12 34 13 37 14 38 15 40 16 41 17 42
REMARK SMILES IDX 26 43 18 44 25 46 19 47 20 48 24 49 21 50 23 51 22 53
REMARK H PARENT 5 2 5 3 4 5 3 7 3 8 30 12 30 13 31 14 31 15 1 17 1 18 1 19
REMARK H PARENT 7 24 29 26 9 30 27 32 10 33 12 35 12 36 13 39 17 45 24 52
REMARK H PARENT 21 54 23 55 22 56
REMARK Flexibility Score: inf
ROOT
ATOM      1  C   UNL     1     -46.415  31.030  23.646  1.00  0.00     0.036 C 
ATOM      2  H   UNL     1     -46.418  30.068  24.171  1.00  0.00     0.049 H 
ATOM      3  H   UNL     1     -45.413  31.196  23.238  1.00  0.00     0.049 H 
ENDROOT
BRANCH   1   4
ATOM      4  N   UNL     1     -47.425  31.047  22.590  1.00  0.00    -0.311 NA
ATOM      5  H   UNL     1     -48.295  31.378  23.010  1.00  0.00     0.123 HD
BRANCH   4   6
ATOM      6  C   UNL     1     -47.671  29.716  22.038  1.00  0.00     0.001 C 
ATOM      7  H   UNL     1     -46.864  29.055  22.377  1.00  0.00     0.043 H 
ATOM      8  H   UNL     1     -47.605  29.737  20.942  1.00  0.00     0.043 H 
BRANCH   6   9
ATOM      9  C   UNL     1     -48.982  29.119  22.506  1.00  0.00    -0.020 C 
ATOM     10  C   UNL     1     -48.916  27.761  23.180  1.00  0.00    -0.046 C 
ATOM     11  C   UNL     1     -49.520  27.883  21.811  1.00  0.00    -0.046 C 
ATOM     12  H   UNL     1     -49.581  27.557  24.011  1.00  0.00     0.027 H 
ATOM     13  H   UNL     1     -47.955  27.266  23.266  1.00  0.00     0.027 H 
ATOM     14  H   UNL     1     -50.595  27.770  21.718  1.00  0.00     0.027 H 
ATOM     15  H   UNL     1     -48.967  27.466  20.978  1.00  0.00     0.027 H 
BRANCH   9  16
ATOM     16  C   UNL     1     -49.975  30.108  23.071  1.00  0.00    -0.058 C 
ATOM     17  H   UNL     1     -50.637  29.615  23.791  1.00  0.00     0.024 H 
ATOM     18  H   UNL     1     -49.458  30.929  23.579  1.00  0.00     0.024 H 
ATOM     19  H   UNL     1     -50.601  30.548  22.288  1.00  0.00     0.024 H 
ENDBRANCH   9  16
ENDBRANCH   6   9
ENDBRANCH   4   6
ENDBRANCH   1   4
BRANCH   1  20
ATOM     20  C   UNL     1     -46.708  32.125  24.612  1.00  0.00     0.030 A 
ATOM     21  C   UNL     1     -47.899  32.693  25.018  1.00  0.00    -0.032 A 
ATOM     22  N   UNL     1     -45.702  32.758  25.303  1.00  0.00    -0.357 N 
ATOM     23  C   UNL     1     -47.602  33.701  25.977  1.00  0.00    -0.000 A 
ATOM     24  H   UNL     1     -48.884  32.415  24.666  1.00  0.00     0.065 H 
ATOM     25  C   UNL     1     -46.218  33.723  26.135  1.00  0.00     0.046 A 
ATOM     26  H   UNL     1     -44.718  32.556  25.175  1.00  0.00     0.166 HD
ATOM     27  C   UNL     1     -48.383  34.597  26.729  1.00  0.00    -0.052 A 
ATOM     28  C   UNL     1     -45.569  34.607  27.007  1.00  0.00    -0.033 A 
ATOM     29  C   UNL     1     -47.753  35.487  27.608  1.00  0.00    -0.057 A 
ATOM     30  H   UNL     1     -49.465  34.600  26.631  1.00  0.00     0.063 H 
ATOM     31  C   UNL     1     -46.359  35.506  27.744  1.00  0.00    -0.027 A 
ATOM     32  H   UNL     1     -44.488  34.595  27.112  1.00  0.00     0.065 H 
ATOM     33  H   UNL     1     -48.367  36.172  28.191  1.00  0.00     0.063 H 
BRANCH  31  34
ATOM     34  C   UNL     1     -45.706  36.450  28.719  1.00  0.00     0.043 C 
ATOM     35  H   UNL     1     -46.379  36.675  29.555  1.00  0.00     0.054 H 
ATOM     36  H   UNL     1     -44.803  36.002  29.154  1.00  0.00     0.054 H 
BRANCH  34  37
ATOM     37  N   UNL     1     -45.338  37.681  28.073  1.00  0.00    -0.347 N 
ATOM     38  C   UNL     1     -46.087  38.822  28.194  1.00  0.00     0.270 C 
ATOM     39  H   UNL     1     -44.463  37.749  27.560  1.00  0.00     0.164 HD
ATOM     40  O   UNL     1     -47.139  38.891  28.818  1.00  0.00    -0.268 OA
BRANCH  38  41
ATOM     41  C   UNL     1     -45.471  39.996  27.473  1.00  0.00     0.136 A 
ATOM     42  C   UNL     1     -46.300  40.755  26.754  1.00  0.00     0.035 A 
ATOM     43  N   UNL     1     -44.116  40.213  27.596  1.00  0.00    -0.225 NA
ATOM     44  C   UNL     1     -45.743  41.909  26.036  1.00  0.00     0.258 A 
ATOM     45  H   UNL     1     -47.364  40.575  26.665  1.00  0.00     0.071 H 
ATOM     46  C   UNL     1     -43.628  41.232  26.960  1.00  0.00     0.140 A 
ATOM     47  O   UNL     1     -46.500  42.614  25.371  1.00  0.00    -0.269 OA
ATOM     48  N   UNL     1     -44.376  42.104  26.177  1.00  0.00    -0.268 N 
ATOM     49  C   UNL     1     -42.166  41.505  27.064  1.00  0.00    -0.019 A 
ATOM     50  C   UNL     1     -43.775  43.176  25.526  1.00  0.00     0.014 A 
ATOM     51  C   UNL     1     -41.633  42.549  26.419  1.00  0.00    -0.057 A 
ATOM     52  H   UNL     1     -41.574  40.831  27.672  1.00  0.00     0.066 H 
ATOM     53  C   UNL     1     -42.461  43.414  25.624  1.00  0.00    -0.045 A 
ATOM     54  H   UNL     1     -44.421  43.817  24.930  1.00  0.00     0.082 H 
ATOM     55  H   UNL     1     -40.571  42.763  26.482  1.00  0.00     0.062 H 
ATOM     56  H   UNL     1     -42.003  44.254  25.112  1.00  0.00     0.064 H 
ENDBRANCH  38  41
ENDBRANCH  34  37
ENDBRANCH  31  34
ENDBRANCH   1  20
TORSDOF 8
ENDMDL
MODEL 7
REMARK VINA RESULT:      -8.9      2.989     11.384
REMARK SMILES CC1(CNCc2cc3ccc(CNC(=O)c4cc(=O)n5ccccc5n4)cc3[nH]2)CC1
REMARK SMILES IDX 5 1 4 4 3 6 2 9 30 10 31 11 1 16 6 20 7 21 29 22 8 23 28 25
REMARK SMILES IDX 9 27 27 28 10 29 11 31 12 34 13 37 14 38 15 40 16 41 17 42
REMARK SMILES IDX 26 43 18 44 25 46 19 47 20 48 24 49 21 50 23 51 22 53
REMARK H PARENT 5 2 5 3 4 5 3 7 3 8 30 12 30 13 31 14 31 15 1 17 1 18 1 19
REMARK H PARENT 7 24 29 26 9 30 27 32 10 33 12 35 12 36 13 39 17 45 24 52
REMARK H PARENT 21 54 23 55 22 56
REMARK Flexibility Score: inf
ROOT
ATOM      1  C   UNL     1     -45.828  39.020  29.097  1.00  0.00     0.036 C 
ATOM      2  H   UNL     1     -45.224  38.860  29.998  1.00  0.00     0.049 H 
ATOM      3  H   UNL     1     -46.791  39.443  29.400  1.00  0.00     0.049 H 
ENDROOT
BRANCH   1   4
ATOM      4  N   UNL     1     -45.135  39.901  28.159  1.00  0.00    -0.311 NA
ATOM      5  H   UNL     1     -44.808  40.709  28.689  1.00  0.00     0.123 HD
BRANCH   4   6
ATOM      6  C   UNL     1     -46.019  40.386  27.100  1.00  0.00     0.001 C 
ATOM      7  H   UNL     1     -46.983  40.640  27.555  1.00  0.00     0.043 H 
ATOM      8  H   UNL     1     -46.225  39.587  26.377  1.00  0.00     0.043 H 
BRANCH   6   9
ATOM      9  C   UNL     1     -45.488  41.631  26.419  1.00  0.00    -0.020 C 
ATOM     10  C   UNL     1     -44.369  41.438  25.412  1.00  0.00    -0.046 C 
ATOM     11  C   UNL     1     -44.079  42.098  26.729  1.00  0.00    -0.046 C 
ATOM     12  H   UNL     1     -44.355  42.056  24.522  1.00  0.00     0.027 H 
ATOM     13  H   UNL     1     -43.978  40.440  25.249  1.00  0.00     0.027 H 
ATOM     14  H   UNL     1     -43.877  43.164  26.730  1.00  0.00     0.027 H 
ATOM     15  H   UNL     1     -43.489  41.544  27.450  1.00  0.00     0.027 H 
BRANCH   9  16
ATOM     16  C   UNL     1     -46.527  42.675  26.084  1.00  0.00    -0.058 C 
ATOM     17  H   UNL     1     -47.528  42.230  26.075  1.00  0.00     0.024 H 
ATOM     18  H   UNL     1     -46.514  43.486  26.820  1.00  0.00     0.024 H 
ATOM     19  H   UNL     1     -46.352  43.123  25.100  1.00  0.00     0.024 H 
ENDBRANCH   9  16
ENDBRANCH   6   9
ENDBRANCH   4   6
ENDBRANCH   1   4
BRANCH   1  20
ATOM     20  C   UNL     1     -46.085  37.713  28.432  1.00  0.00     0.030 A 
ATOM     21  C   UNL     1     -45.234  36.691  28.063  1.00  0.00    -0.032 A 
ATOM     22  N   UNL     1     -47.357  37.325  28.084  1.00  0.00    -0.357 N 
ATOM     23  C   UNL     1     -46.014  35.660  27.470  1.00  0.00    -0.000 A 
ATOM     24  H   UNL     1     -44.161  36.681  28.203  1.00  0.00     0.065 H 
ATOM     25  C   UNL     1     -47.341  36.084  27.493  1.00  0.00     0.046 A 
ATOM     26  H   UNL     1     -48.178  37.903  28.217  1.00  0.00     0.166 HD
ATOM     27  C   UNL     1     -45.716  34.402  26.916  1.00  0.00    -0.052 A 
ATOM     28  C   UNL     1     -48.392  35.312  26.982  1.00  0.00    -0.033 A 
ATOM     29  C   UNL     1     -46.753  33.614  26.401  1.00  0.00    -0.057 A 
ATOM     30  H   UNL     1     -44.691  34.042  26.888  1.00  0.00     0.063 H 
ATOM     31  C   UNL     1     -48.080  34.062  26.420  1.00  0.00    -0.027 A 
ATOM     32  H   UNL     1     -49.417  35.668  27.021  1.00  0.00     0.065 H 
ATOM     33  H   UNL     1     -46.513  32.639  25.982  1.00  0.00     0.063 H 
BRANCH  31  34
ATOM     34  C   UNL     1     -49.184  33.184  25.889  1.00  0.00     0.043 C 
ATOM     35  H   UNL     1     -50.062  33.222  26.544  1.00  0.00     0.054 H 
ATOM     36  H   UNL     1     -49.514  33.524  24.900  1.00  0.00     0.054 H 
BRANCH  34  37
ATOM     37  N   UNL     1     -48.744  31.819  25.779  1.00  0.00    -0.347 N 
ATOM     38  C   UNL     1     -48.946  31.076  24.645  1.00  0.00     0.270 C 
ATOM     39  H   UNL     1     -48.205  31.392  26.527  1.00  0.00     0.164 HD
ATOM     40  O   UNL     1     -49.540  31.482  23.654  1.00  0.00    -0.268 OA
BRANCH  38  41
ATOM     41  C   UNL     1     -48.348  29.694  24.747  1.00  0.00     0.136 A 
ATOM     42  C   UNL     1     -47.333  29.422  23.925  1.00  0.00     0.035 A 
ATOM     43  N   UNL     1     -48.875  28.810  25.663  1.00  0.00    -0.225 NA
ATOM     44  C   UNL     1     -46.722  28.088  23.991  1.00  0.00     0.258 A 
ATOM     45  H   UNL     1     -46.927  30.125  23.209  1.00  0.00     0.071 H 
ATOM     46  C   UNL     1     -48.333  27.633  25.718  1.00  0.00     0.140 A 
ATOM     47  O   UNL     1     -45.785  27.829  23.238  1.00  0.00    -0.269 OA
ATOM     48  N   UNL     1     -47.271  27.218  24.921  1.00  0.00    -0.268 N 
ATOM     49  C   UNL     1     -48.871  26.644  26.695  1.00  0.00    -0.019 A 
ATOM     50  C   UNL     1     -46.745  25.936  25.042  1.00  0.00     0.014 A 
ATOM     51  C   UNL     1     -48.332  25.421  26.774  1.00  0.00    -0.057 A 
ATOM     52  H   UNL     1     -49.699  26.959  27.319  1.00  0.00     0.066 H 
ATOM     53  C   UNL     1     -47.235  25.053  25.922  1.00  0.00    -0.045 A 
ATOM     54  H   UNL     1     -45.916  25.678  24.388  1.00  0.00     0.082 H 
ATOM     55  H   UNL     1     -48.711  24.688  27.478  1.00  0.00     0.062 H 
ATOM     56  H   UNL     1     -46.816  24.055  26.007  1.00  0.00     0.064 H 
ENDBRANCH  38  41
ENDBRANCH  34  37
ENDBRANCH  31  34
ENDBRANCH   1  20
TORSDOF 8
ENDMDL
