MODEL 1
REMARK VINA RESULT:     -10.8      0.000      0.000
REMARK SMILES Cn1ccc(-c2cn([C@@H]3C[C@H](CCc4ccc5ccc(N6CCC6)nc5c4)[C@@H](O)C3)c3ncnc(N)c23)n1
REMARK SMILES IDX 9 1 10 2 11 3 28 4 30 5 8 13 6 14 7 15 37 16 31 18 35 19
REMARK SMILES IDX 32 20 34 21 33 22 5 24 2 25 3 26 38 27 4 28 1 31 36 35 12 38
REMARK SMILES IDX 13 41 14 44 15 45 27 46 16 47 26 49 17 51 25 53 18 54 20 55
REMARK SMILES IDX 19 56 21 59 22 60 24 61 23 62 29 69
REMARK H PARENT 9 6 10 7 10 8 11 9 28 10 30 11 30 12 7 17 33 23 3 29 4 30 1 32
REMARK H PARENT 1 33 1 34 36 36 36 37 12 39 12 40 13 42 13 43 15 48 27 50
REMARK H PARENT 16 52 18 57 19 58 22 63 22 64 24 65 24 66 23 67 23 68 29 70
REMARK Flexibility Score: inf
ROOT
ATOM      1  C   UNL     1     -45.902  38.173  28.422  1.00  0.00     0.038 C 
ATOM      2  C   UNL     1     -45.585  36.912  27.603  1.00  0.00    -0.027 C 
ATOM      3  C   UNL     1     -46.924  36.175  27.496  1.00  0.00    -0.013 C 
ATOM      4  C   UNL     1     -47.915  37.332  27.341  1.00  0.00     0.059 C 
ATOM      5  C   UNL     1     -47.425  38.365  28.351  1.00  0.00    -0.006 C 
ATOM      6  H   UNL     1     -45.643  37.978  29.471  1.00  0.00     0.054 H 
ATOM      7  H   UNL     1     -44.828  36.294  28.100  1.00  0.00     0.029 H 
ATOM      8  H   UNL     1     -45.195  37.155  26.608  1.00  0.00     0.029 H 
ATOM      9  H   UNL     1     -47.116  35.645  28.438  1.00  0.00     0.033 H 
ATOM     10  H   UNL     1     -47.893  37.735  26.322  1.00  0.00     0.060 H 
ATOM     11  H   UNL     1     -47.739  39.377  28.073  1.00  0.00     0.031 H 
ATOM     12  H   UNL     1     -47.869  38.169  29.336  1.00  0.00     0.031 H 
ENDROOT
BRANCH   1  13
ATOM     13  N   UNL     1     -45.128  39.335  28.019  1.00  0.00    -0.328 N 
ATOM     14  C   UNL     1     -44.476  41.121  26.857  1.00  0.00     0.033 A 
ATOM     15  C   UNL     1     -45.402  40.097  26.912  1.00  0.00     0.016 A 
ATOM     16  C   UNL     1     -43.569  40.950  27.943  1.00  0.00     0.071 A 
ATOM     17  H   UNL     1     -46.235  39.872  26.257  1.00  0.00     0.083 H 
ATOM     18  C   UNL     1     -44.024  39.844  28.659  1.00  0.00     0.146 A 
ATOM     19  C   UNL     1     -42.403  41.563  28.431  1.00  0.00     0.137 A 
ATOM     20  N   UNL     1     -43.479  39.340  29.781  1.00  0.00    -0.218 NA
ATOM     21  N   UNL     1     -41.833  41.090  29.557  1.00  0.00    -0.219 NA
ATOM     22  C   UNL     1     -42.397  40.032  30.163  1.00  0.00     0.120 A 
ATOM     23  H   UNL     1     -41.909  39.691  31.072  1.00  0.00     0.106 H 
BRANCH  14  24
ATOM     24  C   UNL     1     -44.453  42.177  25.849  1.00  0.00     0.095 A 
ATOM     25  N   UNL     1     -43.750  43.493  24.355  1.00  0.00    -0.275 N 
ATOM     26  C   UNL     1     -45.089  43.745  24.428  1.00  0.00     0.025 A 
ATOM     27  N   UNL     1     -43.337  42.537  25.206  1.00  0.00    -0.173 NA
ATOM     28  C   UNL     1     -45.581  42.890  25.387  1.00  0.00    -0.016 A 
ATOM     29  H   UNL     1     -45.572  44.481  23.802  1.00  0.00     0.084 H 
ATOM     30  H   UNL     1     -46.609  42.791  25.705  1.00  0.00     0.066 H 
BRANCH  25  31
ATOM     31  C   UNL     1     -42.793  44.127  23.482  1.00  0.00     0.030 C 
ATOM     32  H   UNL     1     -41.838  44.230  24.002  1.00  0.00     0.048 H 
ATOM     33  H   UNL     1     -43.178  45.112  23.207  1.00  0.00     0.048 H 
ATOM     34  H   UNL     1     -42.669  43.501  22.594  1.00  0.00     0.048 H 
ENDBRANCH  25  31
ENDBRANCH  14  24
BRANCH  19  35
ATOM     35  N   UNL     1     -41.745  42.620  27.813  1.00  0.00    -0.383 N 
ATOM     36  H   UNL     1     -41.903  43.514  28.264  1.00  0.00     0.158 HD
ATOM     37  H   UNL     1     -41.933  42.601  26.817  1.00  0.00     0.158 HD
ENDBRANCH  19  35
ENDBRANCH   1  13
BRANCH   3  38
ATOM     38  C   UNL     1     -46.926  35.169  26.335  1.00  0.00    -0.044 C 
ATOM     39  H   UNL     1     -45.941  34.689  26.280  1.00  0.00     0.027 H 
ATOM     40  H   UNL     1     -47.054  35.713  25.390  1.00  0.00     0.027 H 
BRANCH  38  41
ATOM     41  C   UNL     1     -48.012  34.088  26.412  1.00  0.00    -0.027 C 
ATOM     42  H   UNL     1     -48.951  34.505  26.025  1.00  0.00     0.032 H 
ATOM     43  H   UNL     1     -48.227  33.822  27.453  1.00  0.00     0.032 H 
BRANCH  41  44
ATOM     44  C   UNL     1     -47.688  32.853  25.608  1.00  0.00    -0.046 A 
ATOM     45  C   UNL     1     -46.704  32.886  24.617  1.00  0.00    -0.058 A 
ATOM     46  C   UNL     1     -48.365  31.646  25.850  1.00  0.00    -0.033 A 
ATOM     47  C   UNL     1     -46.409  31.737  23.887  1.00  0.00    -0.053 A 
ATOM     48  H   UNL     1     -46.164  33.807  24.408  1.00  0.00     0.063 H 
ATOM     49  C   UNL     1     -48.090  30.484  25.138  1.00  0.00     0.073 A 
ATOM     50  H   UNL     1     -49.130  31.603  26.625  1.00  0.00     0.065 H 
ATOM     51  C   UNL     1     -47.096  30.537  24.143  1.00  0.00     0.000 A 
ATOM     52  H   UNL     1     -45.642  31.780  23.118  1.00  0.00     0.063 H 
ATOM     53  N   UNL     1     -48.769  29.356  25.417  1.00  0.00    -0.231 NA
ATOM     54  C   UNL     1     -46.825  29.369  23.430  1.00  0.00    -0.049 A 
ATOM     55  C   UNL     1     -48.495  28.227  24.726  1.00  0.00     0.129 A 
ATOM     56  C   UNL     1     -47.532  28.207  23.722  1.00  0.00    -0.019 A 
ATOM     57  H   UNL     1     -46.074  29.353  22.644  1.00  0.00     0.063 H 
ATOM     58  H   UNL     1     -47.337  27.299  23.162  1.00  0.00     0.066 H 
BRANCH  55  59
ATOM     59  N   UNL     1     -49.224  27.060  25.023  1.00  0.00    -0.356 N 
ATOM     60  C   UNL     1     -48.797  25.983  25.868  1.00  0.00     0.021 C 
ATOM     61  C   UNL     1     -50.548  27.060  25.581  1.00  0.00     0.021 C 
ATOM     62  C   UNL     1     -50.278  25.607  25.989  1.00  0.00    -0.018 C 
ATOM     63  H   UNL     1     -48.329  26.326  26.797  1.00  0.00     0.049 H 
ATOM     64  H   UNL     1     -48.163  25.252  25.360  1.00  0.00     0.049 H 
ATOM     65  H   UNL     1     -51.334  27.208  24.837  1.00  0.00     0.049 H 
ATOM     66  H   UNL     1     -50.663  27.759  26.416  1.00  0.00     0.049 H 
ATOM     67  H   UNL     1     -50.617  24.863  25.259  1.00  0.00     0.030 H 
ATOM     68  H   UNL     1     -50.617  25.322  26.988  1.00  0.00     0.030 H 
ENDBRANCH  55  59
ENDBRANCH  41  44
ENDBRANCH  38  41
ENDBRANCH   3  38
BRANCH   4  69
ATOM     69  O   UNL     1     -49.238  36.932  27.642  1.00  0.00    -0.393 OA
ATOM     70  H   UNL     1     -49.839  37.548  27.187  1.00  0.00     0.210 HD
ENDBRANCH   4  69
TORSDOF 9
ENDMDL
MODEL 2
REMARK VINA RESULT:     -10.1      2.507      3.520
REMARK SMILES Cn1ccc(-c2cn([C@@H]3C[C@H](CCc4ccc5ccc(N6CCC6)nc5c4)[C@@H](O)C3)c3ncnc(N)c23)n1
REMARK SMILES IDX 9 1 10 2 11 3 28 4 30 5 8 13 6 14 7 15 37 16 31 18 35 19
REMARK SMILES IDX 32 20 34 21 33 22 5 24 2 25 3 26 38 27 4 28 1 31 36 35 12 38
REMARK SMILES IDX 13 41 14 44 15 45 27 46 16 47 26 49 17 51 25 53 18 54 20 55
REMARK SMILES IDX 19 56 21 59 22 60 24 61 23 62 29 69
REMARK H PARENT 9 6 10 7 10 8 11 9 28 10 30 11 30 12 7 17 33 23 3 29 4 30 1 32
REMARK H PARENT 1 33 1 34 36 36 36 37 12 39 12 40 13 42 13 43 15 48 27 50
REMARK H PARENT 16 52 18 57 19 58 22 63 22 64 24 65 24 66 23 67 23 68 29 70
REMARK Flexibility Score: inf
ROOT
ATOM      1  C   UNL     1     -45.468  38.054  28.101  1.00  0.00     0.038 C 
ATOM      2  C   UNL     1     -45.898  36.798  27.326  1.00  0.00    -0.027 C 
ATOM      3  C   UNL     1     -45.900  35.681  28.375  1.00  0.00    -0.013 C 
ATOM      4  C   UNL     1     -46.427  36.407  29.615  1.00  0.00     0.059 C 
ATOM      5  C   UNL     1     -45.696  37.746  29.588  1.00  0.00    -0.006 C 
ATOM      6  H   UNL     1     -44.389  38.198  27.955  1.00  0.00     0.054 H 
ATOM      7  H   UNL     1     -45.202  36.577  26.509  1.00  0.00     0.029 H 
ATOM      8  H   UNL     1     -46.891  36.912  26.877  1.00  0.00     0.029 H 
ATOM      9  H   UNL     1     -44.867  35.352  28.548  1.00  0.00     0.033 H 
ATOM     10  H   UNL     1     -47.512  36.549  29.557  1.00  0.00     0.060 H 
ATOM     11  H   UNL     1     -46.255  38.518  30.128  1.00  0.00     0.031 H 
ATOM     12  H   UNL     1     -44.729  37.657  30.100  1.00  0.00     0.031 H 
ENDROOT
BRANCH   1  13
ATOM     13  N   UNL     1     -46.110  39.271  27.632  1.00  0.00    -0.328 N 
ATOM     14  C   UNL     1     -47.692  40.787  27.229  1.00  0.00     0.033 A 
ATOM     15  C   UNL     1     -47.447  39.539  27.770  1.00  0.00     0.016 A 
ATOM     16  C   UNL     1     -46.467  41.280  26.694  1.00  0.00     0.071 A 
ATOM     17  H   UNL     1     -48.123  38.842  28.251  1.00  0.00     0.083 H 
ATOM     18  C   UNL     1     -45.500  40.321  26.987  1.00  0.00     0.146 A 
ATOM     19  C   UNL     1     -46.023  42.405  25.978  1.00  0.00     0.137 A 
ATOM     20  N   UNL     1     -44.191  40.390  26.688  1.00  0.00    -0.218 NA
ATOM     21  N   UNL     1     -44.716  42.511  25.666  1.00  0.00    -0.219 NA
ATOM     22  C   UNL     1     -43.886  41.522  26.040  1.00  0.00     0.120 A 
ATOM     23  H   UNL     1     -42.842  41.655  25.776  1.00  0.00     0.106 H 
BRANCH  14  24
ATOM     24  C   UNL     1     -48.990  41.456  27.219  1.00  0.00     0.095 A 
ATOM     25  N   UNL     1     -50.738  42.407  26.514  1.00  0.00    -0.275 N 
ATOM     26  C   UNL     1     -50.935  42.286  27.858  1.00  0.00     0.025 A 
ATOM     27  N   UNL     1     -49.564  41.903  26.096  1.00  0.00    -0.173 NA
ATOM     28  C   UNL     1     -49.814  41.656  28.347  1.00  0.00    -0.016 A 
ATOM     29  H   UNL     1     -51.835  42.637  28.343  1.00  0.00     0.084 H 
ATOM     30  H   UNL     1     -49.622  41.375  29.373  1.00  0.00     0.066 H 
BRANCH  25  31
ATOM     31  C   UNL     1     -51.641  42.991  25.552  1.00  0.00     0.030 C 
ATOM     32  H   UNL     1     -51.530  44.078  25.562  1.00  0.00     0.048 H 
ATOM     33  H   UNL     1     -52.662  42.717  25.829  1.00  0.00     0.048 H 
ATOM     34  H   UNL     1     -51.392  42.599  24.563  1.00  0.00     0.048 H 
ENDBRANCH  25  31
ENDBRANCH  14  24
BRANCH  19  35
ATOM     35  N   UNL     1     -46.844  43.426  25.516  1.00  0.00    -0.383 N 
ATOM     36  H   UNL     1     -46.363  44.098  24.930  1.00  0.00     0.158 HD
ATOM     37  H   UNL     1     -47.362  43.824  26.292  1.00  0.00     0.158 HD
ENDBRANCH  19  35
ENDBRANCH   1  13
BRANCH   3  38
ATOM     38  C   UNL     1     -46.749  34.483  27.924  1.00  0.00    -0.044 C 
ATOM     39  H   UNL     1     -47.547  34.317  28.660  1.00  0.00     0.027 H 
ATOM     40  H   UNL     1     -46.127  33.578  27.939  1.00  0.00     0.027 H 
BRANCH  38  41
ATOM     41  C   UNL     1     -47.368  34.612  26.527  1.00  0.00    -0.027 C 
ATOM     42  H   UNL     1     -46.843  35.408  25.982  1.00  0.00     0.032 H 
ATOM     43  H   UNL     1     -48.408  34.951  26.589  1.00  0.00     0.032 H 
BRANCH  41  44
ATOM     44  C   UNL     1     -47.271  33.349  25.707  1.00  0.00    -0.046 A 
ATOM     45  C   UNL     1     -46.368  33.258  24.644  1.00  0.00    -0.058 A 
ATOM     46  C   UNL     1     -48.081  32.240  26.005  1.00  0.00    -0.033 A 
ATOM     47  C   UNL     1     -46.282  32.083  23.901  1.00  0.00    -0.053 A 
ATOM     48  H   UNL     1     -45.729  34.101  24.391  1.00  0.00     0.063 H 
ATOM     49  C   UNL     1     -48.014  31.056  25.280  1.00  0.00     0.073 A 
ATOM     50  H   UNL     1     -48.784  32.294  26.836  1.00  0.00     0.065 H 
ATOM     51  C   UNL     1     -47.099  30.983  24.213  1.00  0.00     0.000 A 
ATOM     52  H   UNL     1     -45.577  32.029  23.075  1.00  0.00     0.063 H 
ATOM     53  N   UNL     1     -48.812  30.026  25.615  1.00  0.00    -0.231 NA
ATOM     54  C   UNL     1     -47.039  29.793  23.487  1.00  0.00    -0.049 A 
ATOM     55  C   UNL     1     -48.742  28.873  24.912  1.00  0.00     0.129 A 
ATOM     56  C   UNL     1     -47.869  28.732  23.838  1.00  0.00    -0.019 A 
ATOM     57  H   UNL     1     -46.358  29.682  22.648  1.00  0.00     0.063 H 
ATOM     58  H   UNL     1     -47.837  27.809  23.269  1.00  0.00     0.066 H 
BRANCH  55  59
ATOM     59  N   UNL     1     -49.593  27.811  25.268  1.00  0.00    -0.356 N 
ATOM     60  C   UNL     1     -49.976  26.711  24.431  1.00  0.00     0.021 C 
ATOM     61  C   UNL     1     -49.381  26.957  26.404  1.00  0.00     0.021 C 
ATOM     62  C   UNL     1     -50.332  25.966  25.722  1.00  0.00    -0.018 C 
ATOM     63  H   UNL     1     -49.138  26.288  23.868  1.00  0.00     0.049 H 
ATOM     64  H   UNL     1     -50.815  26.936  23.768  1.00  0.00     0.049 H 
ATOM     65  H   UNL     1     -49.736  27.387  27.343  1.00  0.00     0.049 H 
ATOM     66  H   UNL     1     -48.346  26.613  26.497  1.00  0.00     0.049 H 
ATOM     67  H   UNL     1     -51.380  26.062  26.026  1.00  0.00     0.030 H 
ATOM     68  H   UNL     1     -50.033  24.915  25.763  1.00  0.00     0.030 H 
ENDBRANCH  55  59
ENDBRANCH  41  44
ENDBRANCH  38  41
ENDBRANCH   3  38
BRANCH   4  69
ATOM     69  O   UNL     1     -46.126  35.701  30.804  1.00  0.00    -0.393 OA
ATOM     70  H   UNL     1     -45.752  34.841  30.544  1.00  0.00     0.210 HD
ENDBRANCH   4  69
TORSDOF 9
ENDMDL
MODEL 3
REMARK VINA RESULT:     -10.1      1.894     12.627
REMARK SMILES Cn1ccc(-c2cn([C@@H]3C[C@H](CCc4ccc5ccc(N6CCC6)nc5c4)[C@@H](O)C3)c3ncnc(N)c23)n1
REMARK SMILES IDX 9 1 10 2 11 3 28 4 30 5 8 13 6 14 7 15 37 16 31 18 35 19
REMARK SMILES IDX 32 20 34 21 33 22 5 24 2 25 3 26 38 27 4 28 1 31 36 35 12 38
REMARK SMILES IDX 13 41 14 44 15 45 27 46 16 47 26 49 17 51 25 53 18 54 20 55
REMARK SMILES IDX 19 56 21 59 22 60 24 61 23 62 29 69
REMARK H PARENT 9 6 10 7 10 8 11 9 28 10 30 11 30 12 7 17 33 23 3 29 4 30 1 32
REMARK H PARENT 1 33 1 34 36 36 36 37 12 39 12 40 13 42 13 43 15 48 27 50
REMARK H PARENT 16 52 18 57 19 58 22 63 22 64 24 65 24 66 23 67 23 68 29 70
REMARK Flexibility Score: inf
ROOT
ATOM      1  C   UNL     1     -48.085  32.228  24.535  1.00  0.00     0.038 C 
ATOM      2  C   UNL     1     -47.077  33.045  25.360  1.00  0.00    -0.027 C 
ATOM      3  C   UNL     1     -47.927  34.106  26.067  1.00  0.00    -0.013 C 
ATOM      4  C   UNL     1     -49.201  33.325  26.400  1.00  0.00     0.059 C 
ATOM      5  C   UNL     1     -49.470  32.514  25.136  1.00  0.00    -0.006 C 
ATOM      6  H   UNL     1     -48.085  32.615  23.507  1.00  0.00     0.054 H 
ATOM      7  H   UNL     1     -46.318  33.505  24.717  1.00  0.00     0.029 H 
ATOM      8  H   UNL     1     -46.544  32.425  26.089  1.00  0.00     0.029 H 
ATOM      9  H   UNL     1     -48.160  34.909  25.355  1.00  0.00     0.033 H 
ATOM     10  H   UNL     1     -49.046  32.669  27.264  1.00  0.00     0.060 H 
ATOM     11  H   UNL     1     -50.060  31.617  25.355  1.00  0.00     0.031 H 
ATOM     12  H   UNL     1     -50.065  33.105  24.429  1.00  0.00     0.031 H 
ENDROOT
BRANCH   1  13
ATOM     13  N   UNL     1     -47.747  30.817  24.441  1.00  0.00    -0.328 N 
ATOM     14  C   UNL     1     -47.781  28.623  24.822  1.00  0.00     0.033 A 
ATOM     15  C   UNL     1     -48.333  29.833  25.194  1.00  0.00     0.016 A 
ATOM     16  C   UNL     1     -46.782  28.882  23.839  1.00  0.00     0.071 A 
ATOM     17  H   UNL     1     -49.104  30.054  25.923  1.00  0.00     0.083 H 
ATOM     18  C   UNL     1     -46.809  30.256  23.608  1.00  0.00     0.146 A 
ATOM     19  C   UNL     1     -45.830  28.152  23.106  1.00  0.00     0.137 A 
ATOM     20  N   UNL     1     -46.047  30.933  22.733  1.00  0.00    -0.218 NA
ATOM     21  N   UNL     1     -45.052  28.797  22.214  1.00  0.00    -0.219 NA
ATOM     22  C   UNL     1     -45.207  30.124  22.072  1.00  0.00     0.120 A 
ATOM     23  H   UNL     1     -44.566  30.600  21.336  1.00  0.00     0.106 H 
BRANCH  14  24
ATOM     24  C   UNL     1     -48.169  27.322  25.362  1.00  0.00     0.095 A 
ATOM     25  N   UNL     1     -48.041  25.424  26.277  1.00  0.00    -0.275 N 
ATOM     26  C   UNL     1     -49.376  25.613  26.068  1.00  0.00     0.025 A 
ATOM     27  N   UNL     1     -47.283  26.454  25.862  1.00  0.00    -0.173 NA
ATOM     28  C   UNL     1     -49.494  26.852  25.483  1.00  0.00    -0.016 A 
ATOM     29  H   UNL     1     -50.114  24.878  26.355  1.00  0.00     0.084 H 
ATOM     30  H   UNL     1     -50.409  27.348  25.190  1.00  0.00     0.066 H 
BRANCH  25  31
ATOM     31  C   UNL     1     -47.410  24.277  26.882  1.00  0.00     0.030 C 
ATOM     32  H   UNL     1     -46.803  23.760  26.135  1.00  0.00     0.048 H 
ATOM     33  H   UNL     1     -48.191  23.611  27.255  1.00  0.00     0.048 H 
ATOM     34  H   UNL     1     -46.777  24.625  27.702  1.00  0.00     0.048 H 
ENDBRANCH  25  31
ENDBRANCH  14  24
BRANCH  19  35
ATOM     35  N   UNL     1     -45.587  26.792  23.256  1.00  0.00    -0.383 N 
ATOM     36  H   UNL     1     -44.679  26.586  23.655  1.00  0.00     0.158 HD
ATOM     37  H   UNL     1     -45.794  26.312  22.388  1.00  0.00     0.158 HD
ENDBRANCH  19  35
ENDBRANCH   1  13
BRANCH   3  38
ATOM     38  C   UNL     1     -47.200  34.696  27.283  1.00  0.00    -0.044 C 
ATOM     39  H   UNL     1     -46.128  34.766  27.056  1.00  0.00     0.027 H 
ATOM     40  H   UNL     1     -47.288  33.999  28.127  1.00  0.00     0.027 H 
BRANCH  38  41
ATOM     41  C   UNL     1     -47.709  36.068  27.744  1.00  0.00    -0.027 C 
ATOM     42  H   UNL     1     -48.408  35.921  28.577  1.00  0.00     0.032 H 
ATOM     43  H   UNL     1     -48.301  36.550  26.959  1.00  0.00     0.032 H 
BRANCH  41  44
ATOM     44  C   UNL     1     -46.611  36.988  28.219  1.00  0.00    -0.046 A 
ATOM     45  C   UNL     1     -46.011  36.795  29.466  1.00  0.00    -0.058 A 
ATOM     46  C   UNL     1     -46.169  38.049  27.411  1.00  0.00    -0.033 A 
ATOM     47  C   UNL     1     -44.993  37.646  29.890  1.00  0.00    -0.053 A 
ATOM     48  H   UNL     1     -46.334  35.982  30.113  1.00  0.00     0.063 H 
ATOM     49  C   UNL     1     -45.155  38.912  27.809  1.00  0.00     0.073 A 
ATOM     50  H   UNL     1     -46.623  38.206  26.434  1.00  0.00     0.065 H 
ATOM     51  C   UNL     1     -44.562  38.702  29.068  1.00  0.00     0.000 A 
ATOM     52  H   UNL     1     -44.537  37.484  30.864  1.00  0.00     0.063 H 
ATOM     53  N   UNL     1     -44.770  39.908  26.990  1.00  0.00    -0.231 NA
ATOM     54  C   UNL     1     -43.546  39.573  29.463  1.00  0.00    -0.049 A 
ATOM     55  C   UNL     1     -43.779  40.743  27.377  1.00  0.00     0.129 A 
ATOM     56  C   UNL     1     -43.155  40.602  28.611  1.00  0.00    -0.019 A 
ATOM     57  H   UNL     1     -43.058  39.465  30.428  1.00  0.00     0.063 H 
ATOM     58  H   UNL     1     -42.376  41.292  28.918  1.00  0.00     0.066 H 
BRANCH  55  59
ATOM     59  N   UNL     1     -43.400  41.787  26.513  1.00  0.00    -0.356 N 
ATOM     60  C   UNL     1     -44.208  42.907  26.127  1.00  0.00     0.021 C 
ATOM     61  C   UNL     1     -42.238  42.610  26.708  1.00  0.00     0.021 C 
ATOM     62  C   UNL     1     -42.899  43.612  25.755  1.00  0.00    -0.018 C 
ATOM     63  H   UNL     1     -44.752  43.353  26.966  1.00  0.00     0.049 H 
ATOM     64  H   UNL     1     -44.884  42.693  25.295  1.00  0.00     0.049 H 
ATOM     65  H   UNL     1     -41.314  42.150  26.350  1.00  0.00     0.049 H 
ATOM     66  H   UNL     1     -42.127  42.960  27.739  1.00  0.00     0.049 H 
ATOM     67  H   UNL     1     -42.607  43.498  24.705  1.00  0.00     0.030 H 
ATOM     68  H   UNL     1     -42.826  44.664  26.043  1.00  0.00     0.030 H 
ENDBRANCH  55  59
ENDBRANCH  41  44
ENDBRANCH  38  41
ENDBRANCH   3  38
BRANCH   4  69
ATOM     69  O   UNL     1     -50.288  34.187  26.677  1.00  0.00    -0.393 OA
ATOM     70  H   UNL     1     -50.932  33.685  27.206  1.00  0.00     0.210 HD
ENDBRANCH   4  69
TORSDOF 9
ENDMDL
MODEL 4
REMARK VINA RESULT:      -9.9      2.055      3.068
REMARK SMILES Cn1ccc(-c2cn([C@@H]3C[C@H](CCc4ccc5ccc(N6CCC6)nc5c4)[C@@H](O)C3)c3ncnc(N)c23)n1
REMARK SMILES IDX 9 1 10 2 11 3 28 4 30 5 8 13 6 14 7 15 37 16 31 18 35 19
REMARK SMILES IDX 32 20 34 21 33 22 5 24 2 25 3 26 38 27 4 28 1 31 36 35 12 38
REMARK SMILES IDX 13 41 14 44 15 45 27 46 16 47 26 49 17 51 25 53 18 54 20 55
REMARK SMILES IDX 19 56 21 59 22 60 24 61 23 62 29 69
REMARK H PARENT 9 6 10 7 10 8 11 9 28 10 30 11 30 12 7 17 33 23 3 29 4 30 1 32
REMARK H PARENT 1 33 1 34 36 36 36 37 12 39 12 40 13 42 13 43 15 48 27 50
REMARK H PARENT 16 52 18 57 19 58 22 63 22 64 24 65 24 66 23 67 23 68 29 70
REMARK Flexibility Score: inf
ROOT
ATOM      1  C   UNL     1     -45.127  38.414  27.675  1.00  0.00     0.038 C 
ATOM      2  C   UNL     1     -46.012  37.237  27.235  1.00  0.00    -0.027 C 
ATOM      3  C   UNL     1     -46.045  36.304  28.449  1.00  0.00    -0.013 C 
ATOM      4  C   UNL     1     -46.084  37.297  29.614  1.00  0.00     0.059 C 
ATOM      5  C   UNL     1     -45.078  38.369  29.210  1.00  0.00    -0.006 C 
ATOM      6  H   UNL     1     -44.108  38.237  27.306  1.00  0.00     0.054 H 
ATOM      7  H   UNL     1     -45.595  36.733  26.355  1.00  0.00     0.029 H 
ATOM      8  H   UNL     1     -47.024  37.561  26.966  1.00  0.00     0.029 H 
ATOM      9  H   UNL     1     -45.110  35.729  28.482  1.00  0.00     0.033 H 
ATOM     10  H   UNL     1     -47.087  37.722  29.735  1.00  0.00     0.060 H 
ATOM     11  H   UNL     1     -45.296  39.326  29.696  1.00  0.00     0.031 H 
ATOM     12  H   UNL     1     -44.070  38.083  29.539  1.00  0.00     0.031 H 
ENDROOT
BRANCH   1  13
ATOM     13  N   UNL     1     -45.546  39.692  27.122  1.00  0.00    -0.328 N 
ATOM     14  C   UNL     1     -45.462  41.637  26.040  1.00  0.00     0.033 A 
ATOM     15  C   UNL     1     -44.720  40.537  26.426  1.00  0.00     0.016 A 
ATOM     16  C   UNL     1     -46.779  41.483  26.562  1.00  0.00     0.071 A 
ATOM     17  H   UNL     1     -43.680  40.296  26.242  1.00  0.00     0.083 H 
ATOM     18  C   UNL     1     -46.800  40.247  27.206  1.00  0.00     0.146 A 
ATOM     19  C   UNL     1     -47.975  42.220  26.603  1.00  0.00     0.137 A 
ATOM     20  N   UNL     1     -47.855  39.685  27.821  1.00  0.00    -0.218 NA
ATOM     21  N   UNL     1     -49.056  41.685  27.205  1.00  0.00    -0.219 NA
ATOM     22  C   UNL     1     -48.942  40.467  27.761  1.00  0.00     0.120 A 
ATOM     23  H   UNL     1     -49.840  40.073  28.226  1.00  0.00     0.106 H 
BRANCH  14  24
ATOM     24  C   UNL     1     -44.957  42.749  25.239  1.00  0.00     0.095 A 
ATOM     25  N   UNL     1     -44.493  44.715  24.625  1.00  0.00    -0.275 N 
ATOM     26  C   UNL     1     -43.915  43.919  23.681  1.00  0.00     0.025 A 
ATOM     27  N   UNL     1     -45.130  44.029  25.590  1.00  0.00    -0.173 NA
ATOM     28  C   UNL     1     -44.189  42.625  24.062  1.00  0.00    -0.016 A 
ATOM     29  H   UNL     1     -43.361  44.323  22.846  1.00  0.00     0.084 H 
ATOM     30  H   UNL     1     -43.873  41.720  23.563  1.00  0.00     0.066 H 
BRANCH  25  31
ATOM     31  C   UNL     1     -44.473  46.157  24.676  1.00  0.00     0.030 C 
ATOM     32  H   UNL     1     -44.308  46.554  23.672  1.00  0.00     0.048 H 
ATOM     33  H   UNL     1     -43.662  46.466  25.339  1.00  0.00     0.048 H 
ATOM     34  H   UNL     1     -45.436  46.502  25.061  1.00  0.00     0.048 H 
ENDBRANCH  25  31
ENDBRANCH  14  24
BRANCH  19  35
ATOM     35  N   UNL     1     -48.132  43.505  26.097  1.00  0.00    -0.383 N 
ATOM     36  H   UNL     1     -47.473  44.173  26.481  1.00  0.00     0.158 HD
ATOM     37  H   UNL     1     -49.106  43.777  26.158  1.00  0.00     0.158 HD
ENDBRANCH  19  35
ENDBRANCH   1  13
BRANCH   3  38
ATOM     38  C   UNL     1     -47.237  35.338  28.390  1.00  0.00    -0.044 C 
ATOM     39  H   UNL     1     -47.935  35.585  29.201  1.00  0.00     0.027 H 
ATOM     40  H   UNL     1     -46.883  34.319  28.592  1.00  0.00     0.027 H 
BRANCH  38  41
ATOM     41  C   UNL     1     -47.997  35.322  27.057  1.00  0.00    -0.027 C 
ATOM     42  H   UNL     1     -47.739  36.230  26.496  1.00  0.00     0.032 H 
ATOM     43  H   UNL     1     -49.078  35.387  27.221  1.00  0.00     0.032 H 
BRANCH  41  44
ATOM     44  C   UNL     1     -47.664  34.133  26.189  1.00  0.00    -0.046 A 
ATOM     45  C   UNL     1     -46.484  34.105  25.442  1.00  0.00    -0.058 A 
ATOM     46  C   UNL     1     -48.532  33.030  26.127  1.00  0.00    -0.033 A 
ATOM     47  C   UNL     1     -46.185  32.997  24.652  1.00  0.00    -0.053 A 
ATOM     48  H   UNL     1     -45.794  34.945  25.471  1.00  0.00     0.063 H 
ATOM     49  C   UNL     1     -48.257  31.912  25.348  1.00  0.00     0.073 A 
ATOM     50  H   UNL     1     -49.452  33.035  26.710  1.00  0.00     0.065 H 
ATOM     51  C   UNL     1     -47.064  31.902  24.601  1.00  0.00     0.000 A 
ATOM     52  H   UNL     1     -45.263  32.992  24.074  1.00  0.00     0.063 H 
ATOM     53  N   UNL     1     -49.125  30.884  25.331  1.00  0.00    -0.231 NA
ATOM     54  C   UNL     1     -46.795  30.778  23.819  1.00  0.00    -0.049 A 
ATOM     55  C   UNL     1     -48.852  29.795  24.576  1.00  0.00     0.129 A 
ATOM     56  C   UNL     1     -47.697  29.719  23.805  1.00  0.00    -0.019 A 
ATOM     57  H   UNL     1     -45.893  30.719  23.215  1.00  0.00     0.063 H 
ATOM     58  H   UNL     1     -47.501  28.849  23.188  1.00  0.00     0.066 H 
BRANCH  55  59
ATOM     59  N   UNL     1     -49.778  28.735  24.561  1.00  0.00    -0.356 N 
ATOM     60  C   UNL     1     -51.007  28.692  23.824  1.00  0.00     0.021 C 
ATOM     61  C   UNL     1     -49.444  27.382  24.210  1.00  0.00     0.021 C 
ATOM     62  C   UNL     1     -50.945  27.168  23.979  1.00  0.00    -0.018 C 
ATOM     63  H   UNL     1     -50.906  29.057  22.797  1.00  0.00     0.049 H 
ATOM     64  H   UNL     1     -51.840  29.186  24.332  1.00  0.00     0.049 H 
ATOM     65  H   UNL     1     -49.004  26.816  25.033  1.00  0.00     0.049 H 
ATOM     66  H   UNL     1     -48.825  27.310  23.310  1.00  0.00     0.049 H 
ATOM     67  H   UNL     1     -51.485  26.779  24.849  1.00  0.00     0.030 H 
ATOM     68  H   UNL     1     -51.212  26.588  23.092  1.00  0.00     0.030 H 
ENDBRANCH  55  59
ENDBRANCH  41  44
ENDBRANCH  38  41
ENDBRANCH   3  38
BRANCH   4  69
ATOM     69  O   UNL     1     -45.700  36.690  30.833  1.00  0.00    -0.393 OA
ATOM     70  H   UNL     1     -45.308  37.382  31.393  1.00  0.00     0.210 HD
ENDBRANCH   4  69
TORSDOF 9
ENDMDL
MODEL 5
REMARK VINA RESULT:      -9.8      2.047     12.394
REMARK SMILES Cn1ccc(-c2cn([C@@H]3C[C@H](CCc4ccc5ccc(N6CCC6)nc5c4)[C@@H](O)C3)c3ncnc(N)c23)n1
REMARK SMILES IDX 9 1 10 2 11 3 28 4 30 5 8 13 6 14 7 15 37 16 31 18 35 19
REMARK SMILES IDX 32 20 34 21 33 22 5 24 2 25 3 26 38 27 4 28 1 31 36 35 12 38
REMARK SMILES IDX 13 41 14 44 15 45 27 46 16 47 26 49 17 51 25 53 18 54 20 55
REMARK SMILES IDX 19 56 21 59 22 60 24 61 23 62 29 69
REMARK H PARENT 9 6 10 7 10 8 11 9 28 10 30 11 30 12 7 17 33 23 3 29 4 30 1 32
REMARK H PARENT 1 33 1 34 36 36 36 37 12 39 12 40 13 42 13 43 15 48 27 50
REMARK H PARENT 16 52 18 57 19 58 22 63 22 64 24 65 24 66 23 67 23 68 29 70
REMARK Flexibility Score: inf
ROOT
ATOM      1  C   UNL     1     -47.862  32.535  26.618  1.00  0.00     0.038 C 
ATOM      2  C   UNL     1     -48.269  33.972  26.256  1.00  0.00    -0.027 C 
ATOM      3  C   UNL     1     -47.285  34.857  27.027  1.00  0.00    -0.013 C 
ATOM      4  C   UNL     1     -45.985  34.055  26.925  1.00  0.00     0.059 C 
ATOM      5  C   UNL     1     -46.429  32.615  27.167  1.00  0.00    -0.006 C 
ATOM      6  H   UNL     1     -48.509  32.187  27.434  1.00  0.00     0.054 H 
ATOM      7  H   UNL     1     -49.305  34.178  26.550  1.00  0.00     0.029 H 
ATOM      8  H   UNL     1     -48.201  34.160  25.179  1.00  0.00     0.029 H 
ATOM      9  H   UNL     1     -47.604  34.916  28.076  1.00  0.00     0.033 H 
ATOM     10  H   UNL     1     -45.530  34.166  25.934  1.00  0.00     0.060 H 
ATOM     11  H   UNL     1     -45.733  31.901  26.714  1.00  0.00     0.031 H 
ATOM     12  H   UNL     1     -46.432  32.398  28.243  1.00  0.00     0.031 H 
ENDROOT
BRANCH   1  13
ATOM     13  N   UNL     1     -48.038  31.591  25.526  1.00  0.00    -0.328 N 
ATOM     14  C   UNL     1     -48.810  29.863  24.351  1.00  0.00     0.033 A 
ATOM     15  C   UNL     1     -48.892  30.520  25.565  1.00  0.00     0.016 A 
ATOM     16  C   UNL     1     -47.831  30.530  23.558  1.00  0.00     0.071 A 
ATOM     17  H   UNL     1     -49.503  30.307  26.434  1.00  0.00     0.083 H 
ATOM     18  C   UNL     1     -47.393  31.616  24.313  1.00  0.00     0.146 A 
ATOM     19  C   UNL     1     -47.227  30.369  22.300  1.00  0.00     0.137 A 
ATOM     20  N   UNL     1     -46.485  32.534  23.938  1.00  0.00    -0.218 NA
ATOM     21  N   UNL     1     -46.317  31.273  21.887  1.00  0.00    -0.219 NA
ATOM     22  C   UNL     1     -46.010  32.292  22.708  1.00  0.00     0.120 A 
ATOM     23  H   UNL     1     -45.280  33.001  22.331  1.00  0.00     0.106 H 
BRANCH  14  24
ATOM     24  C   UNL     1     -49.599  28.693  23.977  1.00  0.00     0.095 A 
ATOM     25  N   UNL     1     -50.843  27.398  22.866  1.00  0.00    -0.275 N 
ATOM     26  C   UNL     1     -50.483  26.668  23.961  1.00  0.00     0.025 A 
ATOM     27  N   UNL     1     -50.312  28.633  22.847  1.00  0.00    -0.173 NA
ATOM     28  C   UNL     1     -49.658  27.483  24.701  1.00  0.00    -0.016 A 
ATOM     29  H   UNL     1     -50.823  25.654  24.115  1.00  0.00     0.084 H 
ATOM     30  H   UNL     1     -49.164  27.236  25.631  1.00  0.00     0.066 H 
BRANCH  25  31
ATOM     31  C   UNL     1     -51.693  26.974  21.780  1.00  0.00     0.030 C 
ATOM     32  H   UNL     1     -52.383  26.206  22.137  1.00  0.00     0.048 H 
ATOM     33  H   UNL     1     -51.061  26.569  20.987  1.00  0.00     0.048 H 
ATOM     34  H   UNL     1     -52.252  27.842  21.422  1.00  0.00     0.048 H 
ENDBRANCH  25  31
ENDBRANCH  14  24
BRANCH  19  35
ATOM     35  N   UNL     1     -47.462  29.304  21.438  1.00  0.00    -0.383 N 
ATOM     36  H   UNL     1     -47.890  29.581  20.562  1.00  0.00     0.158 HD
ATOM     37  H   UNL     1     -47.942  28.563  21.936  1.00  0.00     0.158 HD
ENDBRANCH  19  35
ENDBRANCH   1  13
BRANCH   3  38
ATOM     38  C   UNL     1     -47.213  36.273  26.436  1.00  0.00    -0.044 C 
ATOM     39  H   UNL     1     -47.901  36.336  25.583  1.00  0.00     0.027 H 
ATOM     40  H   UNL     1     -46.207  36.440  26.029  1.00  0.00     0.027 H 
BRANCH  38  41
ATOM     41  C   UNL     1     -47.523  37.407  27.420  1.00  0.00    -0.027 C 
ATOM     42  H   UNL     1     -47.793  36.966  28.389  1.00  0.00     0.032 H 
ATOM     43  H   UNL     1     -48.410  37.967  27.106  1.00  0.00     0.032 H 
BRANCH  41  44
ATOM     44  C   UNL     1     -46.360  38.342  27.647  1.00  0.00    -0.046 A 
ATOM     45  C   UNL     1     -45.546  38.204  28.774  1.00  0.00    -0.058 A 
ATOM     46  C   UNL     1     -46.072  39.360  26.723  1.00  0.00    -0.033 A 
ATOM     47  C   UNL     1     -44.470  39.068  28.967  1.00  0.00    -0.053 A 
ATOM     48  H   UNL     1     -45.746  37.425  29.506  1.00  0.00     0.063 H 
ATOM     49  C   UNL     1     -45.005  40.235  26.890  1.00  0.00     0.073 A 
ATOM     50  H   UNL     1     -46.694  39.474  25.836  1.00  0.00     0.065 H 
ATOM     51  C   UNL     1     -44.196  40.081  28.032  1.00  0.00     0.000 A 
ATOM     52  H   UNL     1     -43.847  38.950  29.850  1.00  0.00     0.063 H 
ATOM     53  N   UNL     1     -44.776  41.188  25.969  1.00  0.00    -0.231 NA
ATOM     54  C   UNL     1     -43.127  40.964  28.196  1.00  0.00    -0.049 A 
ATOM     55  C   UNL     1     -43.734  42.034  26.132  1.00  0.00     0.129 A 
ATOM     56  C   UNL     1     -42.898  41.949  27.240  1.00  0.00    -0.019 A 
ATOM     57  H   UNL     1     -42.475  40.898  29.062  1.00  0.00     0.063 H 
ATOM     58  H   UNL     1     -42.078  42.647  27.369  1.00  0.00     0.066 H 
BRANCH  55  59
ATOM     59  N   UNL     1     -43.518  43.033  25.165  1.00  0.00    -0.356 N 
ATOM     60  C   UNL     1     -42.264  43.654  24.850  1.00  0.00     0.021 C 
ATOM     61  C   UNL     1     -43.874  42.902  23.779  1.00  0.00     0.021 C 
ATOM     62  C   UNL     1     -42.896  44.051  23.512  1.00  0.00    -0.018 C 
ATOM     63  H   UNL     1     -41.437  42.940  24.778  1.00  0.00     0.049 H 
ATOM     64  H   UNL     1     -42.005  44.482  25.516  1.00  0.00     0.049 H 
ATOM     65  H   UNL     1     -44.926  43.115  23.578  1.00  0.00     0.049 H 
ATOM     66  H   UNL     1     -43.581  41.939  23.349  1.00  0.00     0.049 H 
ATOM     67  H   UNL     1     -43.357  45.045  23.506  1.00  0.00     0.030 H 
ATOM     68  H   UNL     1     -42.258  43.939  22.631  1.00  0.00     0.030 H 
ENDBRANCH  55  59
ENDBRANCH  41  44
ENDBRANCH  38  41
ENDBRANCH   3  38
BRANCH   4  69
ATOM     69  O   UNL     1     -45.044  34.455  27.903  1.00  0.00    -0.393 OA
ATOM     70  H   UNL     1     -45.436  35.195  28.399  1.00  0.00     0.210 HD
ENDBRANCH   4  69
TORSDOF 9
ENDMDL
MODEL 6
REMARK VINA RESULT:      -9.8      2.273      3.131
REMARK SMILES Cn1ccc(-c2cn([C@@H]3C[C@H](CCc4ccc5ccc(N6CCC6)nc5c4)[C@@H](O)C3)c3ncnc(N)c23)n1
REMARK SMILES IDX 9 1 10 2 11 3 28 4 30 5 8 13 6 14 7 15 37 16 31 18 35 19
REMARK SMILES IDX 32 20 34 21 33 22 5 24 2 25 3 26 38 27 4 28 1 31 36 35 12 38
REMARK SMILES IDX 13 41 14 44 15 45 27 46 16 47 26 49 17 51 25 53 18 54 20 55
REMARK SMILES IDX 19 56 21 59 22 60 24 61 23 62 29 69
REMARK H PARENT 9 6 10 7 10 8 11 9 28 10 30 11 30 12 7 17 33 23 3 29 4 30 1 32
REMARK H PARENT 1 33 1 34 36 36 36 37 12 39 12 40 13 42 13 43 15 48 27 50
REMARK H PARENT 16 52 18 57 19 58 22 63 22 64 24 65 24 66 23 67 23 68 29 70
REMARK Flexibility Score: inf
ROOT
ATOM      1  C   UNL     1     -45.222  38.610  27.620  1.00  0.00     0.038 C 
ATOM      2  C   UNL     1     -46.285  37.562  27.251  1.00  0.00    -0.027 C 
ATOM      3  C   UNL     1     -46.259  36.562  28.411  1.00  0.00    -0.013 C 
ATOM      4  C   UNL     1     -46.030  37.477  29.617  1.00  0.00     0.059 C 
ATOM      5  C   UNL     1     -44.972  38.462  29.128  1.00  0.00    -0.006 C 
ATOM      6  H   UNL     1     -44.288  38.351  27.104  1.00  0.00     0.054 H 
ATOM      7  H   UNL     1     -46.049  37.075  26.298  1.00  0.00     0.029 H 
ATOM      8  H   UNL     1     -47.281  38.008  27.143  1.00  0.00     0.029 H 
ATOM      9  H   UNL     1     -45.399  35.892  28.285  1.00  0.00     0.033 H 
ATOM     10  H   UNL     1     -46.953  37.997  29.899  1.00  0.00     0.060 H 
ATOM     11  H   UNL     1     -45.014  39.403  29.686  1.00  0.00     0.031 H 
ATOM     12  H   UNL     1     -43.968  38.051  29.299  1.00  0.00     0.031 H 
ENDROOT
BRANCH   1  13
ATOM     13  N   UNL     1     -45.564  39.957  27.194  1.00  0.00    -0.328 N 
ATOM     14  C   UNL     1     -46.789  41.730  26.629  1.00  0.00     0.033 A 
ATOM     15  C   UNL     1     -46.847  40.404  27.012  1.00  0.00     0.016 A 
ATOM     16  C   UNL     1     -45.414  42.094  26.522  1.00  0.00     0.071 A 
ATOM     17  H   UNL     1     -47.705  39.763  27.181  1.00  0.00     0.083 H 
ATOM     18  C   UNL     1     -44.684  40.972  26.908  1.00  0.00     0.146 A 
ATOM     19  C   UNL     1     -44.663  43.217  26.137  1.00  0.00     0.137 A 
ATOM     20  N   UNL     1     -43.344  40.879  26.982  1.00  0.00    -0.218 NA
ATOM     21  N   UNL     1     -43.318  43.163  26.204  1.00  0.00    -0.219 NA
ATOM     22  C   UNL     1     -42.744  42.023  26.624  1.00  0.00     0.120 A 
ATOM     23  H   UNL     1     -41.660  42.028  26.672  1.00  0.00     0.106 H 
BRANCH  14  24
ATOM     24  C   UNL     1     -47.947  42.583  26.379  1.00  0.00     0.095 A 
ATOM     25  N   UNL     1     -49.216  44.010  25.478  1.00  0.00    -0.275 N 
ATOM     26  C   UNL     1     -49.962  43.482  26.491  1.00  0.00     0.025 A 
ATOM     27  N   UNL     1     -47.986  43.476  25.383  1.00  0.00    -0.173 NA
ATOM     28  C   UNL     1     -49.165  42.535  27.091  1.00  0.00    -0.016 A 
ATOM     29  H   UNL     1     -50.974  43.803  26.690  1.00  0.00     0.084 H 
ATOM     30  H   UNL     1     -49.427  41.896  27.923  1.00  0.00     0.066 H 
BRANCH  25  31
ATOM     31  C   UNL     1     -49.619  45.034  24.545  1.00  0.00     0.030 C 
ATOM     32  H   UNL     1     -50.367  44.627  23.860  1.00  0.00     0.048 H 
ATOM     33  H   UNL     1     -48.737  45.357  23.988  1.00  0.00     0.048 H 
ATOM     34  H   UNL     1     -50.044  45.867  25.110  1.00  0.00     0.048 H 
ENDBRANCH  25  31
ENDBRANCH  14  24
BRANCH  19  35
ATOM     35  N   UNL     1     -45.201  44.398  25.639  1.00  0.00    -0.383 N 
ATOM     36  H   UNL     1     -46.091  44.271  25.171  1.00  0.00     0.158 HD
ATOM     37  H   UNL     1     -44.498  44.891  25.100  1.00  0.00     0.158 HD
ENDBRANCH  19  35
ENDBRANCH   1  13
BRANCH   3  38
ATOM     38  C   UNL     1     -47.549  35.732  28.472  1.00  0.00    -0.044 C 
ATOM     39  H   UNL     1     -48.215  36.166  29.231  1.00  0.00     0.027 H 
ATOM     40  H   UNL     1     -47.308  34.720  28.822  1.00  0.00     0.027 H 
BRANCH  38  41
ATOM     41  C   UNL     1     -48.308  35.609  27.145  1.00  0.00    -0.027 C 
ATOM     42  H   UNL     1     -48.138  36.521  26.558  1.00  0.00     0.032 H 
ATOM     43  H   UNL     1     -49.390  35.578  27.314  1.00  0.00     0.032 H 
BRANCH  41  44
ATOM     44  C   UNL     1     -47.870  34.432  26.308  1.00  0.00    -0.046 A 
ATOM     45  C   UNL     1     -46.646  34.455  25.635  1.00  0.00    -0.058 A 
ATOM     46  C   UNL     1     -48.682  33.290  26.201  1.00  0.00    -0.033 A 
ATOM     47  C   UNL     1     -46.249  33.358  24.873  1.00  0.00    -0.053 A 
ATOM     48  H   UNL     1     -45.998  35.326  25.700  1.00  0.00     0.063 H 
ATOM     49  C   UNL     1     -48.309  32.183  25.449  1.00  0.00     0.073 A 
ATOM     50  H   UNL     1     -49.635  33.256  26.727  1.00  0.00     0.065 H 
ATOM     51  C   UNL     1     -47.073  32.224  24.777  1.00  0.00     0.000 A 
ATOM     52  H   UNL     1     -45.295  33.392  24.352  1.00  0.00     0.063 H 
ATOM     53  N   UNL     1     -49.127  31.116  25.387  1.00  0.00    -0.231 NA
ATOM     54  C   UNL     1     -46.706  31.109  24.021  1.00  0.00    -0.049 A 
ATOM     55  C   UNL     1     -48.760  30.037  24.658  1.00  0.00     0.129 A 
ATOM     56  C   UNL     1     -47.557  30.010  23.960  1.00  0.00    -0.019 A 
ATOM     57  H   UNL     1     -45.767  31.088  23.474  1.00  0.00     0.063 H 
ATOM     58  H   UNL     1     -47.285  29.147  23.363  1.00  0.00     0.066 H 
BRANCH  55  59
ATOM     59  N   UNL     1     -49.633  28.936  24.595  1.00  0.00    -0.356 N 
ATOM     60  C   UNL     1     -50.886  28.885  23.897  1.00  0.00     0.021 C 
ATOM     61  C   UNL     1     -49.249  27.630  24.134  1.00  0.00     0.021 C 
ATOM     62  C   UNL     1     -50.745  27.359  23.937  1.00  0.00    -0.018 C 
ATOM     63  H   UNL     1     -50.839  29.328  22.897  1.00  0.00     0.049 H 
ATOM     64  H   UNL     1     -51.722  29.298  24.467  1.00  0.00     0.049 H 
ATOM     65  H   UNL     1     -48.752  27.029  24.898  1.00  0.00     0.049 H 
ATOM     66  H   UNL     1     -48.660  27.655  23.211  1.00  0.00     0.049 H 
ATOM     67  H   UNL     1     -51.235  26.881  24.793  1.00  0.00     0.030 H 
ATOM     68  H   UNL     1     -51.016  26.831  23.018  1.00  0.00     0.030 H 
ENDBRANCH  55  59
ENDBRANCH  41  44
ENDBRANCH  38  41
ENDBRANCH   3  38
BRANCH   4  69
ATOM     69  O   UNL     1     -45.556  36.756  30.739  1.00  0.00    -0.393 OA
ATOM     70  H   UNL     1     -44.825  37.268  31.127  1.00  0.00     0.210 HD
ENDBRANCH   4  69
TORSDOF 9
ENDMDL
MODEL 7
REMARK VINA RESULT:      -9.6      2.914      4.796
REMARK SMILES Cn1ccc(-c2cn([C@@H]3C[C@H](CCc4ccc5ccc(N6CCC6)nc5c4)[C@@H](O)C3)c3ncnc(N)c23)n1
REMARK SMILES IDX 9 1 10 2 11 3 28 4 30 5 8 13 6 14 7 15 37 16 31 18 35 19
REMARK SMILES IDX 32 20 34 21 33 22 5 24 2 25 3 26 38 27 4 28 1 31 36 35 12 38
REMARK SMILES IDX 13 41 14 44 15 45 27 46 16 47 26 49 17 51 25 53 18 54 20 55
REMARK SMILES IDX 19 56 21 59 22 60 24 61 23 62 29 69
REMARK H PARENT 9 6 10 7 10 8 11 9 28 10 30 11 30 12 7 17 33 23 3 29 4 30 1 32
REMARK H PARENT 1 33 1 34 36 36 36 37 12 39 12 40 13 42 13 43 15 48 27 50
REMARK H PARENT 16 52 18 57 19 58 22 63 22 64 24 65 24 66 23 67 23 68 29 70
REMARK Flexibility Score: inf
ROOT
ATOM      1  C   UNL     1     -46.308  37.244  27.428  1.00  0.00     0.038 C 
ATOM      2  C   UNL     1     -46.603  36.362  26.203  1.00  0.00    -0.027 C 
ATOM      3  C   UNL     1     -46.293  34.937  26.672  1.00  0.00    -0.013 C 
ATOM      4  C   UNL     1     -46.790  34.961  28.120  1.00  0.00     0.059 C 
ATOM      5  C   UNL     1     -46.307  36.309  28.646  1.00  0.00    -0.006 C 
ATOM      6  H   UNL     1     -45.294  37.653  27.324  1.00  0.00     0.054 H 
ATOM      7  H   UNL     1     -45.978  36.647  25.349  1.00  0.00     0.029 H 
ATOM      8  H   UNL     1     -47.646  36.447  25.877  1.00  0.00     0.029 H 
ATOM      9  H   UNL     1     -45.206  34.785  26.655  1.00  0.00     0.033 H 
ATOM     10  H   UNL     1     -47.883  34.890  28.162  1.00  0.00     0.060 H 
ATOM     11  H   UNL     1     -46.924  36.657  29.482  1.00  0.00     0.031 H 
ATOM     12  H   UNL     1     -45.287  36.215  29.040  1.00  0.00     0.031 H 
ENDROOT
BRANCH   1  13
ATOM     13  N   UNL     1     -47.199  38.387  27.545  1.00  0.00    -0.328 N 
ATOM     14  C   UNL     1     -48.978  39.613  28.089  1.00  0.00     0.033 A 
ATOM     15  C   UNL     1     -48.431  38.345  28.145  1.00  0.00     0.016 A 
ATOM     16  C   UNL     1     -48.068  40.452  27.382  1.00  0.00     0.071 A 
ATOM     17  H   UNL     1     -48.823  37.434  28.580  1.00  0.00     0.083 H 
ATOM     18  C   UNL     1     -46.960  39.660  27.084  1.00  0.00     0.146 A 
ATOM     19  C   UNL     1     -48.017  41.780  26.927  1.00  0.00     0.137 A 
ATOM     20  N   UNL     1     -45.846  40.055  26.444  1.00  0.00    -0.218 NA
ATOM     21  N   UNL     1     -46.912  42.214  26.287  1.00  0.00    -0.219 NA
ATOM     22  C   UNL     1     -45.904  41.347  26.093  1.00  0.00     0.120 A 
ATOM     23  H   UNL     1     -45.031  41.742  25.582  1.00  0.00     0.106 H 
BRANCH  14  24
ATOM     24  C   UNL     1     -50.267  39.996  28.659  1.00  0.00     0.095 A 
ATOM     25  N   UNL     1     -51.745  41.104  29.680  1.00  0.00    -0.275 N 
ATOM     26  C   UNL     1     -52.419  40.042  29.153  1.00  0.00     0.025 A 
ATOM     27  N   UNL     1     -50.433  41.104  29.389  1.00  0.00    -0.173 NA
ATOM     28  C   UNL     1     -51.482  39.304  28.467  1.00  0.00    -0.016 A 
ATOM     29  H   UNL     1     -53.482  39.906  29.293  1.00  0.00     0.084 H 
ATOM     30  H   UNL     1     -51.653  38.398  27.902  1.00  0.00     0.066 H 
BRANCH  25  31
ATOM     31  C   UNL     1     -52.296  42.174  30.475  1.00  0.00     0.030 C 
ATOM     32  H   UNL     1     -53.351  41.973  30.676  1.00  0.00     0.048 H 
ATOM     33  H   UNL     1     -52.193  43.106  29.916  1.00  0.00     0.048 H 
ATOM     34  H   UNL     1     -51.741  42.226  31.415  1.00  0.00     0.048 H 
ENDBRANCH  25  31
ENDBRANCH  14  24
BRANCH  19  35
ATOM     35  N   UNL     1     -49.052  42.700  27.047  1.00  0.00    -0.383 N 
ATOM     36  H   UNL     1     -49.800  42.555  26.379  1.00  0.00     0.158 HD
ATOM     37  H   UNL     1     -48.671  43.639  27.072  1.00  0.00     0.158 HD
ENDBRANCH  19  35
ENDBRANCH   1  13
BRANCH   3  38
ATOM     38  C   UNL     1     -46.970  33.888  25.779  1.00  0.00    -0.044 C 
ATOM     39  H   UNL     1     -46.345  32.985  25.756  1.00  0.00     0.027 H 
ATOM     40  H   UNL     1     -47.002  34.262  24.747  1.00  0.00     0.027 H 
BRANCH  38  41
ATOM     41  C   UNL     1     -48.397  33.504  26.191  1.00  0.00    -0.027 C 
ATOM     42  H   UNL     1     -49.073  34.325  25.919  1.00  0.00     0.032 H 
ATOM     43  H   UNL     1     -48.481  33.416  27.279  1.00  0.00     0.032 H 
BRANCH  41  44
ATOM     44  C   UNL     1     -48.901  32.250  25.519  1.00  0.00    -0.046 A 
ATOM     45  C   UNL     1     -49.886  32.319  24.530  1.00  0.00    -0.058 A 
ATOM     46  C   UNL     1     -48.380  30.993  25.870  1.00  0.00    -0.033 A 
ATOM     47  C   UNL     1     -50.336  31.155  23.911  1.00  0.00    -0.053 A 
ATOM     48  H   UNL     1     -50.307  33.279  24.238  1.00  0.00     0.063 H 
ATOM     49  C   UNL     1     -48.810  29.817  25.268  1.00  0.00     0.073 A 
ATOM     50  H   UNL     1     -47.606  30.926  26.634  1.00  0.00     0.065 H 
ATOM     51  C   UNL     1     -49.803  29.906  24.275  1.00  0.00     0.000 A 
ATOM     52  H   UNL     1     -51.104  31.225  23.145  1.00  0.00     0.063 H 
ATOM     53  N   UNL     1     -48.272  28.642  25.644  1.00  0.00    -0.231 NA
ATOM     54  C   UNL     1     -50.233  28.721  23.676  1.00  0.00    -0.049 A 
ATOM     55  C   UNL     1     -48.688  27.500  25.053  1.00  0.00     0.129 A 
ATOM     56  C   UNL     1     -49.673  27.510  24.071  1.00  0.00    -0.019 A 
ATOM     57  H   UNL     1     -51.003  28.728  22.909  1.00  0.00     0.063 H 
ATOM     58  H   UNL     1     -50.013  26.584  23.620  1.00  0.00     0.066 H 
BRANCH  55  59
ATOM     59  N   UNL     1     -48.123  26.280  25.468  1.00  0.00    -0.356 N 
ATOM     60  C   UNL     1     -46.867  26.110  26.139  1.00  0.00     0.021 C 
ATOM     61  C   UNL     1     -48.785  25.339  26.329  1.00  0.00     0.021 C 
ATOM     62  C   UNL     1     -47.396  24.747  26.598  1.00  0.00    -0.018 C 
ATOM     63  H   UNL     1     -46.707  26.839  26.941  1.00  0.00     0.049 H 
ATOM     64  H   UNL     1     -46.009  26.082  25.463  1.00  0.00     0.049 H 
ATOM     65  H   UNL     1     -49.486  24.687  25.804  1.00  0.00     0.049 H 
ATOM     66  H   UNL     1     -49.260  25.809  27.196  1.00  0.00     0.049 H 
ATOM     67  H   UNL     1     -47.126  23.912  25.942  1.00  0.00     0.030 H 
ATOM     68  H   UNL     1     -47.186  24.479  27.637  1.00  0.00     0.030 H 
ENDBRANCH  55  59
ENDBRANCH  41  44
ENDBRANCH  38  41
ENDBRANCH   3  38
BRANCH   4  69
ATOM     69  O   UNL     1     -46.238  33.904  28.881  1.00  0.00    -0.393 OA
ATOM     70  H   UNL     1     -46.394  34.108  29.820  1.00  0.00     0.210 HD
ENDBRANCH   4  69
TORSDOF 9
ENDMDL
