MODEL 1
REMARK VINA RESULT:     -11.0      0.000      0.000
REMARK SMILES Cn1ccc(-c2cn(-c3cncc(CS(=O)(=O)c4ccc5ccc(N6CCC6)nc5c4)c3)c3ncnc(N)c23)n1
REMARK SMILES IDX 9 1 10 2 11 3 12 4 13 5 32 6 8 10 6 11 7 12 39 13 33 15
REMARK SMILES IDX 37 16 34 17 36 18 35 19 5 21 2 22 3 23 40 24 4 25 1 28 38 32
REMARK SMILES IDX 14 35 15 38 16 39 17 40 18 41 19 42 31 43 20 44 30 46 21 48
REMARK SMILES IDX 29 50 22 51 24 52 23 53 25 56 26 57 28 58 27 59
REMARK H PARENT 10 7 12 8 32 9 7 14 35 20 3 26 4 27 1 29 1 30 1 31 38 33 38 34
REMARK H PARENT 14 36 14 37 19 45 31 47 20 49 22 54 23 55 26 60 26 61 28 62
REMARK H PARENT 28 63 27 64 27 65
REMARK Flexibility Score: inf
ROOT
ATOM      1  C   UNL     1     -47.070  32.739  26.170  1.00  0.00     0.066 A 
ATOM      2  C   UNL     1     -46.312  32.432  27.296  1.00  0.00     0.051 A 
ATOM      3  N   UNL     1     -45.842  33.353  28.174  1.00  0.00    -0.262 NA
ATOM      4  C   UNL     1     -46.140  34.645  27.934  1.00  0.00     0.031 A 
ATOM      5  C   UNL     1     -46.875  35.071  26.835  1.00  0.00    -0.012 A 
ATOM      6  C   UNL     1     -47.329  34.093  25.939  1.00  0.00    -0.031 A 
ATOM      7  H   UNL     1     -46.055  31.417  27.581  1.00  0.00     0.086 H 
ATOM      8  H   UNL     1     -45.763  35.343  28.677  1.00  0.00     0.084 H 
ATOM      9  H   UNL     1     -47.884  34.419  25.064  1.00  0.00     0.065 H 
ENDROOT
BRANCH   1  10
ATOM     10  N   UNL     1     -47.569  31.706  25.315  1.00  0.00    -0.299 N 
ATOM     11  C   UNL     1     -48.833  29.993  24.574  1.00  0.00     0.033 A 
ATOM     12  C   UNL     1     -48.579  30.824  25.644  1.00  0.00     0.021 A 
ATOM     13  C   UNL     1     -47.918  30.324  23.541  1.00  0.00     0.071 A 
ATOM     14  H   UNL     1     -49.057  30.824  26.614  1.00  0.00     0.083 H 
ATOM     15  C   UNL     1     -47.165  31.402  24.013  1.00  0.00     0.150 A 
ATOM     16  C   UNL     1     -47.604  29.854  22.254  1.00  0.00     0.137 A 
ATOM     17  N   UNL     1     -46.218  32.047  23.303  1.00  0.00    -0.218 NA
ATOM     18  N   UNL     1     -46.664  30.487  21.531  1.00  0.00    -0.219 NA
ATOM     19  C   UNL     1     -46.042  31.541  22.077  1.00  0.00     0.120 A 
ATOM     20  H   UNL     1     -45.300  32.035  21.454  1.00  0.00     0.106 H 
BRANCH  11  21
ATOM     21  C   UNL     1     -49.863  28.959  24.548  1.00  0.00     0.095 A 
ATOM     22  N   UNL     1     -50.983  27.252  25.084  1.00  0.00    -0.275 N 
ATOM     23  C   UNL     1     -51.685  27.812  24.058  1.00  0.00     0.025 A 
ATOM     24  N   UNL     1     -49.872  27.937  25.410  1.00  0.00    -0.173 NA
ATOM     25  C   UNL     1     -50.985  28.940  23.694  1.00  0.00    -0.016 A 
ATOM     26  H   UNL     1     -52.605  27.383  23.687  1.00  0.00     0.084 H 
ATOM     27  H   UNL     1     -51.253  29.649  22.923  1.00  0.00     0.066 H 
BRANCH  22  28
ATOM     28  C   UNL     1     -51.320  26.056  25.817  1.00  0.00     0.030 C 
ATOM     29  H   UNL     1     -50.417  25.465  25.986  1.00  0.00     0.048 H 
ATOM     30  H   UNL     1     -51.757  26.351  26.774  1.00  0.00     0.048 H 
ATOM     31  H   UNL     1     -52.037  25.481  25.226  1.00  0.00     0.048 H 
ENDBRANCH  22  28
ENDBRANCH  11  21
BRANCH  16  32
ATOM     32  N   UNL     1     -48.177  28.736  21.658  1.00  0.00    -0.383 N 
ATOM     33  H   UNL     1     -48.325  28.924  20.672  1.00  0.00     0.158 HD
ATOM     34  H   UNL     1     -47.687  27.873  21.859  1.00  0.00     0.158 HD
ENDBRANCH  16  32
ENDBRANCH   1  10
BRANCH   5  35
ATOM     35  C   UNL     1     -47.205  36.521  26.630  1.00  0.00     0.081 C 
ATOM     36  H   UNL     1     -48.091  36.648  25.999  1.00  0.00     0.049 H 
ATOM     37  H   UNL     1     -46.374  37.048  26.150  1.00  0.00     0.049 H 
BRANCH  35  38
ATOM     38  S   UNL     1     -47.524  37.324  28.195  1.00  0.00     0.182 S 
ATOM     39  O   UNL     1     -48.577  38.306  28.008  1.00  0.00    -0.223 OA
ATOM     40  O   UNL     1     -47.674  36.289  29.203  1.00  0.00    -0.223 OA
BRANCH  38  41
ATOM     41  C   UNL     1     -46.027  38.198  28.582  1.00  0.00     0.069 A 
ATOM     42  C   UNL     1     -45.319  37.891  29.741  1.00  0.00    -0.043 A 
ATOM     43  C   UNL     1     -45.583  39.197  27.710  1.00  0.00    -0.017 A 
ATOM     44  C   UNL     1     -44.174  38.622  30.044  1.00  0.00    -0.052 A 
ATOM     45  H   UNL     1     -45.654  37.106  30.417  1.00  0.00     0.064 H 
ATOM     46  C   UNL     1     -44.448  39.938  28.000  1.00  0.00     0.074 A 
ATOM     47  H   UNL     1     -46.126  39.416  26.794  1.00  0.00     0.066 H 
ATOM     48  C   UNL     1     -43.741  39.648  29.184  1.00  0.00     0.000 A 
ATOM     49  H   UNL     1     -43.625  38.396  30.956  1.00  0.00     0.063 H 
ATOM     50  N   UNL     1     -44.074  40.910  27.153  1.00  0.00    -0.231 NA
ATOM     51  C   UNL     1     -42.609  40.415  29.465  1.00  0.00    -0.049 A 
ATOM     52  C   UNL     1     -42.970  41.642  27.430  1.00  0.00     0.129 A 
ATOM     53  C   UNL     1     -42.223  41.420  28.584  1.00  0.00    -0.019 A 
ATOM     54  H   UNL     1     -42.028  40.244  30.368  1.00  0.00     0.063 H 
ATOM     55  H   UNL     1     -41.358  42.031  28.810  1.00  0.00     0.066 H 
BRANCH  52  56
ATOM     56  N   UNL     1     -42.611  42.675  26.547  1.00  0.00    -0.356 N 
ATOM     57  C   UNL     1     -41.372  42.804  25.837  1.00  0.00     0.021 C 
ATOM     58  C   UNL     1     -43.386  43.067  25.404  1.00  0.00     0.021 C 
ATOM     59  C   UNL     1     -42.116  43.756  24.892  1.00  0.00    -0.018 C 
ATOM     60  H   UNL     1     -41.041  41.865  25.381  1.00  0.00     0.049 H 
ATOM     61  H   UNL     1     -40.573  43.253  26.430  1.00  0.00     0.049 H 
ATOM     62  H   UNL     1     -43.724  42.217  24.802  1.00  0.00     0.049 H 
ATOM     63  H   UNL     1     -44.220  43.728  25.648  1.00  0.00     0.049 H 
ATOM     64  H   UNL     1     -42.036  44.814  25.163  1.00  0.00     0.030 H 
ATOM     65  H   UNL     1     -41.903  43.632  23.828  1.00  0.00     0.030 H 
ENDBRANCH  52  56
ENDBRANCH  38  41
ENDBRANCH  35  38
ENDBRANCH   5  35
TORSDOF 8
ENDMDL
MODEL 2
REMARK VINA RESULT:     -10.7      2.170     12.006
REMARK SMILES Cn1ccc(-c2cn(-c3cncc(CS(=O)(=O)c4ccc5ccc(N6CCC6)nc5c4)c3)c3ncnc(N)c23)n1
REMARK SMILES IDX 9 1 10 2 11 3 12 4 13 5 32 6 8 10 6 11 7 12 39 13 33 15
REMARK SMILES IDX 37 16 34 17 36 18 35 19 5 21 2 22 3 23 40 24 4 25 1 28 38 32
REMARK SMILES IDX 14 35 15 38 16 39 17 40 18 41 19 42 31 43 20 44 30 46 21 48
REMARK SMILES IDX 29 50 22 51 24 52 23 53 25 56 26 57 28 58 27 59
REMARK H PARENT 10 7 12 8 32 9 7 14 35 20 3 26 4 27 1 29 1 30 1 31 38 33 38 34
REMARK H PARENT 14 36 14 37 19 45 31 47 20 49 22 54 23 55 26 60 26 61 28 62
REMARK H PARENT 28 63 27 64 27 65
REMARK Flexibility Score: inf
ROOT
ATOM      1  C   UNL     1     -47.708  37.883  27.635  1.00  0.00     0.066 A 
ATOM      2  C   UNL     1     -48.946  38.299  28.118  1.00  0.00     0.051 A 
ATOM      3  N   UNL     1     -50.059  37.523  28.133  1.00  0.00    -0.262 NA
ATOM      4  C   UNL     1     -49.945  36.269  27.653  1.00  0.00     0.031 A 
ATOM      5  C   UNL     1     -48.766  35.751  27.134  1.00  0.00    -0.012 A 
ATOM      6  C   UNL     1     -47.640  36.587  27.117  1.00  0.00    -0.031 A 
ATOM      7  H   UNL     1     -49.116  39.279  28.549  1.00  0.00     0.086 H 
ATOM      8  H   UNL     1     -50.856  35.678  27.709  1.00  0.00     0.084 H 
ATOM      9  H   UNL     1     -46.721  36.197  26.690  1.00  0.00     0.065 H 
ENDROOT
BRANCH   1  10
ATOM     10  N   UNL     1     -46.567  38.746  27.696  1.00  0.00    -0.299 N 
ATOM     11  C   UNL     1     -45.139  40.410  27.179  1.00  0.00     0.033 A 
ATOM     12  C   UNL     1     -46.290  39.756  26.795  1.00  0.00     0.021 A 
ATOM     13  C   UNL     1     -44.637  39.764  28.338  1.00  0.00     0.071 A 
ATOM     14  H   UNL     1     -46.911  39.951  25.933  1.00  0.00     0.083 H 
ATOM     15  C   UNL     1     -45.551  38.756  28.653  1.00  0.00     0.150 A 
ATOM     16  C   UNL     1     -43.516  39.882  29.178  1.00  0.00     0.137 A 
ATOM     17  N   UNL     1     -45.460  37.944  29.726  1.00  0.00    -0.218 NA
ATOM     18  N   UNL     1     -43.411  39.083  30.254  1.00  0.00    -0.219 NA
ATOM     19  C   UNL     1     -44.379  38.182  30.477  1.00  0.00     0.120 A 
ATOM     20  H   UNL     1     -44.265  37.566  31.366  1.00  0.00     0.106 H 
BRANCH  11  21
ATOM     21  C   UNL     1     -44.563  41.558  26.483  1.00  0.00     0.095 A 
ATOM     22  N   UNL     1     -43.133  42.855  25.630  1.00  0.00    -0.275 N 
ATOM     23  C   UNL     1     -44.335  43.398  25.284  1.00  0.00     0.025 A 
ATOM     24  N   UNL     1     -43.243  41.726  26.354  1.00  0.00    -0.173 NA
ATOM     25  C   UNL     1     -45.292  42.564  25.816  1.00  0.00    -0.016 A 
ATOM     26  H   UNL     1     -44.412  44.301  24.695  1.00  0.00     0.084 H 
ATOM     27  H   UNL     1     -46.365  42.667  25.728  1.00  0.00     0.066 H 
BRANCH  22  28
ATOM     28  C   UNL     1     -41.823  43.358  25.294  1.00  0.00     0.030 C 
ATOM     29  H   UNL     1     -41.430  42.807  24.437  1.00  0.00     0.048 H 
ATOM     30  H   UNL     1     -41.916  44.418  25.045  1.00  0.00     0.048 H 
ATOM     31  H   UNL     1     -41.169  43.221  26.158  1.00  0.00     0.048 H 
ENDBRANCH  22  28
ENDBRANCH  11  21
BRANCH  16  32
ATOM     32  N   UNL     1     -42.458  40.759  28.969  1.00  0.00    -0.383 N 
ATOM     33  H   UNL     1     -42.508  41.509  29.650  1.00  0.00     0.158 HD
ATOM     34  H   UNL     1     -41.557  40.300  28.905  1.00  0.00     0.158 HD
ENDBRANCH  16  32
ENDBRANCH   1  10
BRANCH   5  35
ATOM     35  C   UNL     1     -48.685  34.335  26.640  1.00  0.00     0.081 C 
ATOM     36  H   UNL     1     -49.214  34.207  25.691  1.00  0.00     0.049 H 
ATOM     37  H   UNL     1     -49.125  33.641  27.365  1.00  0.00     0.049 H 
BRANCH  35  38
ATOM     38  S   UNL     1     -46.982  33.849  26.392  1.00  0.00     0.182 S 
ATOM     39  O   UNL     1     -46.310  34.883  25.625  1.00  0.00    -0.223 OA
ATOM     40  O   UNL     1     -46.444  33.440  27.678  1.00  0.00    -0.223 OA
BRANCH  38  41
ATOM     41  C   UNL     1     -47.059  32.388  25.384  1.00  0.00     0.069 A 
ATOM     42  C   UNL     1     -46.279  32.292  24.234  1.00  0.00    -0.043 A 
ATOM     43  C   UNL     1     -47.917  31.350  25.762  1.00  0.00    -0.017 A 
ATOM     44  C   UNL     1     -46.392  31.155  23.438  1.00  0.00    -0.052 A 
ATOM     45  H   UNL     1     -45.600  33.091  23.943  1.00  0.00     0.064 H 
ATOM     46  C   UNL     1     -48.046  30.216  24.977  1.00  0.00     0.074 A 
ATOM     47  H   UNL     1     -48.506  31.421  26.673  1.00  0.00     0.066 H 
ATOM     48  C   UNL     1     -47.276  30.123  23.800  1.00  0.00     0.000 A 
ATOM     49  H   UNL     1     -45.795  31.080  22.532  1.00  0.00     0.063 H 
ATOM     50  N   UNL     1     -48.905  29.257  25.358  1.00  0.00    -0.231 NA
ATOM     51  C   UNL     1     -47.430  28.978  23.015  1.00  0.00    -0.049 A 
ATOM     52  C   UNL     1     -49.040  28.148  24.595  1.00  0.00     0.129 A 
ATOM     53  C   UNL     1     -48.321  27.986  23.415  1.00  0.00    -0.019 A 
ATOM     54  H   UNL     1     -46.872  28.853  22.092  1.00  0.00     0.063 H 
ATOM     55  H   UNL     1     -48.459  27.106  22.797  1.00  0.00     0.066 H 
BRANCH  52  56
ATOM     56  N   UNL     1     -49.967  27.169  24.994  1.00  0.00    -0.356 N 
ATOM     57  C   UNL     1     -50.101  26.598  26.303  1.00  0.00     0.021 C 
ATOM     58  C   UNL     1     -51.389  27.284  24.826  1.00  0.00     0.021 C 
ATOM     59  C   UNL     1     -51.512  26.177  25.878  1.00  0.00    -0.018 C 
ATOM     60  H   UNL     1     -50.061  27.346  27.102  1.00  0.00     0.049 H 
ATOM     61  H   UNL     1     -49.401  25.782  26.498  1.00  0.00     0.049 H 
ATOM     62  H   UNL     1     -51.780  28.259  25.135  1.00  0.00     0.049 H 
ATOM     63  H   UNL     1     -51.731  27.027  23.822  1.00  0.00     0.049 H 
ATOM     64  H   UNL     1     -51.576  25.165  25.464  1.00  0.00     0.030 H 
ATOM     65  H   UNL     1     -52.295  26.316  26.627  1.00  0.00     0.030 H 
ENDBRANCH  52  56
ENDBRANCH  38  41
ENDBRANCH  35  38
ENDBRANCH   5  35
TORSDOF 8
ENDMDL
MODEL 3
REMARK VINA RESULT:     -10.7      2.084     12.084
REMARK SMILES Cn1ccc(-c2cn(-c3cncc(CS(=O)(=O)c4ccc5ccc(N6CCC6)nc5c4)c3)c3ncnc(N)c23)n1
REMARK SMILES IDX 9 1 10 2 11 3 12 4 13 5 32 6 8 10 6 11 7 12 39 13 33 15
REMARK SMILES IDX 37 16 34 17 36 18 35 19 5 21 2 22 3 23 40 24 4 25 1 28 38 32
REMARK SMILES IDX 14 35 15 38 16 39 17 40 18 41 19 42 31 43 20 44 30 46 21 48
REMARK SMILES IDX 29 50 22 51 24 52 23 53 25 56 26 57 28 58 27 59
REMARK H PARENT 10 7 12 8 32 9 7 14 35 20 3 26 4 27 1 29 1 30 1 31 38 33 38 34
REMARK H PARENT 14 36 14 37 19 45 31 47 20 49 22 54 23 55 26 60 26 61 28 62
REMARK H PARENT 28 63 27 64 27 65
REMARK Flexibility Score: inf
ROOT
ATOM      1  C   UNL     1     -45.265  37.932  28.656  1.00  0.00     0.066 A 
ATOM      2  C   UNL     1     -45.661  37.808  29.984  1.00  0.00     0.051 A 
ATOM      3  N   UNL     1     -46.150  36.667  30.532  1.00  0.00    -0.262 NA
ATOM      4  C   UNL     1     -46.248  35.589  29.729  1.00  0.00     0.031 A 
ATOM      5  C   UNL     1     -45.898  35.599  28.385  1.00  0.00    -0.012 A 
ATOM      6  C   UNL     1     -45.413  36.801  27.849  1.00  0.00    -0.031 A 
ATOM      7  H   UNL     1     -45.585  38.615  30.705  1.00  0.00     0.086 H 
ATOM      8  H   UNL     1     -46.621  34.692  30.218  1.00  0.00     0.084 H 
ATOM      9  H   UNL     1     -45.161  36.824  26.793  1.00  0.00     0.065 H 
ENDROOT
BRANCH   1  10
ATOM     10  N   UNL     1     -44.715  39.158  28.163  1.00  0.00    -0.299 N 
ATOM     11  C   UNL     1     -44.437  40.996  26.888  1.00  0.00     0.033 A 
ATOM     12  C   UNL     1     -45.164  39.836  27.046  1.00  0.00     0.021 A 
ATOM     13  C   UNL     1     -43.457  41.037  27.913  1.00  0.00     0.071 A 
ATOM     14  H   UNL     1     -45.962  39.460  26.421  1.00  0.00     0.083 H 
ATOM     15  C   UNL     1     -43.665  39.905  28.703  1.00  0.00     0.150 A 
ATOM     16  C   UNL     1     -42.395  41.879  28.290  1.00  0.00     0.137 A 
ATOM     17  N   UNL     1     -42.968  39.605  29.818  1.00  0.00    -0.218 NA
ATOM     18  N   UNL     1     -41.692  41.598  29.400  1.00  0.00    -0.219 NA
ATOM     19  C   UNL     1     -42.019  40.504  30.103  1.00  0.00     0.120 A 
ATOM     20  H   UNL     1     -41.436  40.321  31.002  1.00  0.00     0.106 H 
BRANCH  11  21
ATOM     21  C   UNL     1     -44.660  41.981  25.834  1.00  0.00     0.095 A 
ATOM     22  N   UNL     1     -45.425  43.660  24.809  1.00  0.00    -0.275 N 
ATOM     23  C   UNL     1     -44.466  43.161  23.978  1.00  0.00     0.025 A 
ATOM     24  N   UNL     1     -45.557  42.965  25.953  1.00  0.00    -0.173 NA
ATOM     25  C   UNL     1     -43.936  42.068  24.626  1.00  0.00    -0.016 A 
ATOM     26  H   UNL     1     -44.235  43.615  23.024  1.00  0.00     0.084 H 
ATOM     27  H   UNL     1     -43.137  41.431  24.277  1.00  0.00     0.066 H 
BRANCH  22  28
ATOM     28  C   UNL     1     -46.257  44.816  24.580  1.00  0.00     0.030 C 
ATOM     29  H   UNL     1     -47.037  44.861  25.343  1.00  0.00     0.048 H 
ATOM     30  H   UNL     1     -45.629  45.709  24.636  1.00  0.00     0.048 H 
ATOM     31  H   UNL     1     -46.709  44.725  23.589  1.00  0.00     0.048 H 
ENDBRANCH  22  28
ENDBRANCH  11  21
BRANCH  16  32
ATOM     32  N   UNL     1     -41.978  42.995  27.573  1.00  0.00    -0.383 N 
ATOM     33  H   UNL     1     -42.754  43.345  27.021  1.00  0.00     0.158 HD
ATOM     34  H   UNL     1     -41.511  43.691  28.143  1.00  0.00     0.158 HD
ENDBRANCH  16  32
ENDBRANCH   1  10
BRANCH   5  35
ATOM     35  C   UNL     1     -45.998  34.361  27.542  1.00  0.00     0.081 C 
ATOM     36  H   UNL     1     -46.066  33.458  28.157  1.00  0.00     0.049 H 
ATOM     37  H   UNL     1     -45.123  34.258  26.892  1.00  0.00     0.049 H 
BRANCH  35  38
ATOM     38  S   UNL     1     -47.446  34.425  26.494  1.00  0.00     0.182 S 
ATOM     39  O   UNL     1     -48.628  34.290  27.326  1.00  0.00    -0.223 OA
ATOM     40  O   UNL     1     -47.308  35.574  25.616  1.00  0.00    -0.223 OA
BRANCH  38  41
ATOM     41  C   UNL     1     -47.337  32.982  25.465  1.00  0.00     0.069 A 
ATOM     42  C   UNL     1     -46.125  32.637  24.871  1.00  0.00    -0.043 A 
ATOM     43  C   UNL     1     -48.486  32.210  25.257  1.00  0.00    -0.017 A 
ATOM     44  C   UNL     1     -46.079  31.528  24.032  1.00  0.00    -0.052 A 
ATOM     45  H   UNL     1     -45.226  33.227  25.039  1.00  0.00     0.064 H 
ATOM     46  C   UNL     1     -48.457  31.107  24.421  1.00  0.00     0.074 A 
ATOM     47  H   UNL     1     -49.423  32.470  25.743  1.00  0.00     0.066 H 
ATOM     48  C   UNL     1     -47.239  30.767  23.798  1.00  0.00     0.000 A 
ATOM     49  H   UNL     1     -45.137  31.262  23.554  1.00  0.00     0.063 H 
ATOM     50  N   UNL     1     -49.589  30.413  24.223  1.00  0.00    -0.231 NA
ATOM     51  C   UNL     1     -47.234  29.660  22.947  1.00  0.00    -0.049 A 
ATOM     52  C   UNL     1     -49.571  29.336  23.403  1.00  0.00     0.129 A 
ATOM     53  C   UNL     1     -48.409  28.942  22.747  1.00  0.00    -0.019 A 
ATOM     54  H   UNL     1     -46.327  29.355  22.432  1.00  0.00     0.063 H 
ATOM     55  H   UNL     1     -48.414  28.096  22.071  1.00  0.00     0.066 H 
BRANCH  52  56
ATOM     56  N   UNL     1     -50.773  28.640  23.185  1.00  0.00    -0.356 N 
ATOM     57  C   UNL     1     -50.939  27.218  23.111  1.00  0.00     0.021 C 
ATOM     58  C   UNL     1     -51.959  28.805  23.978  1.00  0.00     0.021 C 
ATOM     59  C   UNL     1     -52.424  27.465  23.397  1.00  0.00    -0.018 C 
ATOM     60  H   UNL     1     -50.398  26.683  23.899  1.00  0.00     0.049 H 
ATOM     61  H   UNL     1     -50.708  26.801  22.128  1.00  0.00     0.049 H 
ATOM     62  H   UNL     1     -51.761  28.797  25.055  1.00  0.00     0.049 H 
ATOM     63  H   UNL     1     -52.552  29.678  23.698  1.00  0.00     0.049 H 
ATOM     64  H   UNL     1     -53.048  27.554  22.501  1.00  0.00     0.030 H 
ATOM     65  H   UNL     1     -52.894  26.777  24.104  1.00  0.00     0.030 H 
ENDBRANCH  52  56
ENDBRANCH  38  41
ENDBRANCH  35  38
ENDBRANCH   5  35
TORSDOF 8
ENDMDL
MODEL 4
REMARK VINA RESULT:     -10.1      1.975      2.535
REMARK SMILES Cn1ccc(-c2cn(-c3cncc(CS(=O)(=O)c4ccc5ccc(N6CCC6)nc5c4)c3)c3ncnc(N)c23)n1
REMARK SMILES IDX 9 1 10 2 11 3 12 4 13 5 32 6 8 10 6 11 7 12 39 13 33 15
REMARK SMILES IDX 37 16 34 17 36 18 35 19 5 21 2 22 3 23 40 24 4 25 1 28 38 32
REMARK SMILES IDX 14 35 15 38 16 39 17 40 18 41 19 42 31 43 20 44 30 46 21 48
REMARK SMILES IDX 29 50 22 51 24 52 23 53 25 56 26 57 28 58 27 59
REMARK H PARENT 10 7 12 8 32 9 7 14 35 20 3 26 4 27 1 29 1 30 1 31 38 33 38 34
REMARK H PARENT 14 36 14 37 19 45 31 47 20 49 22 54 23 55 26 60 26 61 28 62
REMARK H PARENT 28 63 27 64 27 65
REMARK Flexibility Score: inf
ROOT
ATOM      1  C   UNL     1     -49.099  32.853  25.826  1.00  0.00     0.066 A 
ATOM      2  C   UNL     1     -50.341  33.403  26.129  1.00  0.00     0.051 A 
ATOM      3  N   UNL     1     -50.517  34.616  26.710  1.00  0.00    -0.262 NA
ATOM      4  C   UNL     1     -49.411  35.328  27.003  1.00  0.00     0.031 A 
ATOM      5  C   UNL     1     -48.121  34.875  26.760  1.00  0.00    -0.012 A 
ATOM      6  C   UNL     1     -47.976  33.609  26.174  1.00  0.00    -0.031 A 
ATOM      7  H   UNL     1     -51.281  32.913  25.898  1.00  0.00     0.086 H 
ATOM      8  H   UNL     1     -49.603  36.303  27.445  1.00  0.00     0.084 H 
ATOM      9  H   UNL     1     -46.971  33.237  26.004  1.00  0.00     0.065 H 
ENDROOT
BRANCH   1  10
ATOM     10  N   UNL     1     -48.996  31.585  25.169  1.00  0.00    -0.299 N 
ATOM     11  C   UNL     1     -48.400  29.450  24.763  1.00  0.00     0.033 A 
ATOM     12  C   UNL     1     -48.231  30.524  25.611  1.00  0.00     0.021 A 
ATOM     13  C   UNL     1     -49.265  29.856  23.715  1.00  0.00     0.071 A 
ATOM     14  H   UNL     1     -47.606  30.586  26.491  1.00  0.00     0.083 H 
ATOM     15  C   UNL     1     -49.641  31.170  24.002  1.00  0.00     0.150 A 
ATOM     16  C   UNL     1     -49.789  29.296  22.537  1.00  0.00     0.137 A 
ATOM     17  N   UNL     1     -50.506  31.900  23.269  1.00  0.00    -0.218 NA
ATOM     18  N   UNL     1     -50.655  30.008  21.795  1.00  0.00    -0.219 NA
ATOM     19  C   UNL     1     -50.975  31.245  22.201  1.00  0.00     0.120 A 
ATOM     20  H   UNL     1     -51.690  31.782  21.582  1.00  0.00     0.106 H 
BRANCH  11  21
ATOM     21  C   UNL     1     -47.773  28.144  24.941  1.00  0.00     0.095 A 
ATOM     22  N   UNL     1     -47.425  26.181  25.637  1.00  0.00    -0.275 N 
ATOM     23  C   UNL     1     -46.470  26.380  24.685  1.00  0.00     0.025 A 
ATOM     24  N   UNL     1     -48.240  27.238  25.807  1.00  0.00    -0.173 NA
ATOM     25  C   UNL     1     -46.679  27.650  24.199  1.00  0.00    -0.016 A 
ATOM     26  H   UNL     1     -45.746  25.619  24.427  1.00  0.00     0.084 H 
ATOM     27  H   UNL     1     -46.123  28.146  23.416  1.00  0.00     0.066 H 
BRANCH  22  28
ATOM     28  C   UNL     1     -47.630  24.993  26.429  1.00  0.00     0.030 C 
ATOM     29  H   UNL     1     -48.568  25.080  26.982  1.00  0.00     0.048 H 
ATOM     30  H   UNL     1     -47.673  24.134  25.754  1.00  0.00     0.048 H 
ATOM     31  H   UNL     1     -46.794  24.895  27.125  1.00  0.00     0.048 H 
ENDBRANCH  22  28
ENDBRANCH  11  21
BRANCH  16  32
ATOM     32  N   UNL     1     -49.454  28.041  22.040  1.00  0.00    -0.383 N 
ATOM     33  H   UNL     1     -50.140  27.364  22.357  1.00  0.00     0.158 HD
ATOM     34  H   UNL     1     -49.276  28.034  21.043  1.00  0.00     0.158 HD
ENDBRANCH  16  32
ENDBRANCH   1  10
BRANCH   5  35
ATOM     35  C   UNL     1     -46.922  35.721  27.077  1.00  0.00     0.081 C 
ATOM     36  H   UNL     1     -46.899  36.632  26.471  1.00  0.00     0.049 H 
ATOM     37  H   UNL     1     -45.994  35.171  26.891  1.00  0.00     0.049 H 
BRANCH  35  38
ATOM     38  S   UNL     1     -46.928  36.206  28.798  1.00  0.00     0.182 S 
ATOM     39  O   UNL     1     -48.212  36.810  29.107  1.00  0.00    -0.223 OA
ATOM     40  O   UNL     1     -46.455  35.076  29.580  1.00  0.00    -0.223 OA
BRANCH  38  41
ATOM     41  C   UNL     1     -45.687  37.470  28.929  1.00  0.00     0.069 A 
ATOM     42  C   UNL     1     -44.930  37.587  30.092  1.00  0.00    -0.043 A 
ATOM     43  C   UNL     1     -45.493  38.342  27.852  1.00  0.00    -0.017 A 
ATOM     44  C   UNL     1     -43.995  38.615  30.185  1.00  0.00    -0.052 A 
ATOM     45  H   UNL     1     -45.068  36.903  30.927  1.00  0.00     0.064 H 
ATOM     46  C   UNL     1     -44.572  39.373  27.932  1.00  0.00     0.074 A 
ATOM     47  H   UNL     1     -46.071  38.231  26.937  1.00  0.00     0.066 H 
ATOM     48  C   UNL     1     -43.819  39.511  29.116  1.00  0.00     0.000 A 
ATOM     49  H   UNL     1     -43.410  38.719  31.097  1.00  0.00     0.063 H 
ATOM     50  N   UNL     1     -44.440  40.209  26.889  1.00  0.00    -0.231 NA
ATOM     51  C   UNL     1     -42.906  40.565  29.183  1.00  0.00    -0.049 A 
ATOM     52  C   UNL     1     -43.546  41.221  26.960  1.00  0.00     0.129 A 
ATOM     53  C   UNL     1     -42.771  41.427  28.098  1.00  0.00    -0.019 A 
ATOM     54  H   UNL     1     -42.304  40.729  30.072  1.00  0.00     0.063 H 
ATOM     55  H   UNL     1     -42.079  42.259  28.154  1.00  0.00     0.066 H 
BRANCH  52  56
ATOM     56  N   UNL     1     -43.444  42.103  25.870  1.00  0.00    -0.356 N 
ATOM     57  C   UNL     1     -44.527  42.647  25.104  1.00  0.00     0.021 C 
ATOM     58  C   UNL     1     -42.750  43.360  25.907  1.00  0.00     0.021 C 
ATOM     59  C   UNL     1     -43.545  43.732  24.650  1.00  0.00    -0.018 C 
ATOM     60  H   UNL     1     -45.355  43.002  25.726  1.00  0.00     0.049 H 
ATOM     61  H   UNL     1     -44.889  41.977  24.320  1.00  0.00     0.049 H 
ATOM     62  H   UNL     1     -42.987  43.955  26.795  1.00  0.00     0.049 H 
ATOM     63  H   UNL     1     -41.670  43.265  25.777  1.00  0.00     0.049 H 
ATOM     64  H   UNL     1     -43.030  43.511  23.709  1.00  0.00     0.030 H 
ATOM     65  H   UNL     1     -43.940  44.750  24.621  1.00  0.00     0.030 H 
ENDBRANCH  52  56
ENDBRANCH  38  41
ENDBRANCH  35  38
ENDBRANCH   5  35
TORSDOF 8
ENDMDL
MODEL 5
REMARK VINA RESULT:     -10.1      2.716     12.340
REMARK SMILES Cn1ccc(-c2cn(-c3cncc(CS(=O)(=O)c4ccc5ccc(N6CCC6)nc5c4)c3)c3ncnc(N)c23)n1
REMARK SMILES IDX 9 1 10 2 11 3 12 4 13 5 32 6 8 10 6 11 7 12 39 13 33 15
REMARK SMILES IDX 37 16 34 17 36 18 35 19 5 21 2 22 3 23 40 24 4 25 1 28 38 32
REMARK SMILES IDX 14 35 15 38 16 39 17 40 18 41 19 42 31 43 20 44 30 46 21 48
REMARK SMILES IDX 29 50 22 51 24 52 23 53 25 56 26 57 28 58 27 59
REMARK H PARENT 10 7 12 8 32 9 7 14 35 20 3 26 4 27 1 29 1 30 1 31 38 33 38 34
REMARK H PARENT 14 36 14 37 19 45 31 47 20 49 22 54 23 55 26 60 26 61 28 62
REMARK H PARENT 28 63 27 64 27 65
REMARK Flexibility Score: inf
ROOT
ATOM      1  C   UNL     1     -46.737  38.125  27.755  1.00  0.00     0.066 A 
ATOM      2  C   UNL     1     -46.292  37.748  29.019  1.00  0.00     0.051 A 
ATOM      3  N   UNL     1     -46.469  36.514  29.554  1.00  0.00    -0.262 NA
ATOM      4  C   UNL     1     -47.113  35.600  28.800  1.00  0.00     0.031 A 
ATOM      5  C   UNL     1     -47.614  35.867  27.533  1.00  0.00    -0.012 A 
ATOM      6  C   UNL     1     -47.428  37.159  27.020  1.00  0.00    -0.031 A 
ATOM      7  H   UNL     1     -45.738  38.410  29.676  1.00  0.00     0.086 H 
ATOM      8  H   UNL     1     -47.210  34.620  29.261  1.00  0.00     0.084 H 
ATOM      9  H   UNL     1     -47.838  37.383  26.040  1.00  0.00     0.065 H 
ENDROOT
BRANCH   1  10
ATOM     10  N   UNL     1     -46.471  39.434  27.242  1.00  0.00    -0.299 N 
ATOM     11  C   UNL     1     -45.341  41.187  26.386  1.00  0.00     0.033 A 
ATOM     12  C   UNL     1     -45.224  39.903  26.875  1.00  0.00     0.021 A 
ATOM     13  C   UNL     1     -46.703  41.569  26.490  1.00  0.00     0.071 A 
ATOM     14  H   UNL     1     -44.326  39.313  26.987  1.00  0.00     0.083 H 
ATOM     15  C   UNL     1     -47.386  40.461  26.997  1.00  0.00     0.150 A 
ATOM     16  C   UNL     1     -47.474  42.717  26.232  1.00  0.00     0.137 A 
ATOM     17  N   UNL     1     -48.718  40.401  27.193  1.00  0.00    -0.218 NA
ATOM     18  N   UNL     1     -48.804  42.675  26.419  1.00  0.00    -0.219 NA
ATOM     19  C   UNL     1     -49.350  41.535  26.867  1.00  0.00     0.120 A 
ATOM     20  H   UNL     1     -50.430  41.537  26.989  1.00  0.00     0.106 H 
BRANCH  11  21
ATOM     21  C   UNL     1     -44.233  41.985  25.870  1.00  0.00     0.095 A 
ATOM     22  N   UNL     1     -43.046  43.118  24.542  1.00  0.00    -0.275 N 
ATOM     23  C   UNL     1     -42.392  43.197  25.736  1.00  0.00     0.025 A 
ATOM     24  N   UNL     1     -44.177  42.393  24.597  1.00  0.00    -0.173 NA
ATOM     25  C   UNL     1     -43.151  42.476  26.630  1.00  0.00    -0.016 A 
ATOM     26  H   UNL     1     -41.472  43.752  25.854  1.00  0.00     0.084 H 
ATOM     27  H   UNL     1     -42.952  42.332  27.683  1.00  0.00     0.066 H 
BRANCH  22  28
ATOM     28  C   UNL     1     -42.652  43.725  23.294  1.00  0.00     0.030 C 
ATOM     29  H   UNL     1     -43.543  43.978  22.715  1.00  0.00     0.048 H 
ATOM     30  H   UNL     1     -42.082  44.630  23.516  1.00  0.00     0.048 H 
ATOM     31  H   UNL     1     -42.039  43.009  22.741  1.00  0.00     0.048 H 
ENDBRANCH  22  28
ENDBRANCH  11  21
BRANCH  16  32
ATOM     32  N   UNL     1     -46.958  43.939  25.818  1.00  0.00    -0.383 N 
ATOM     33  H   UNL     1     -46.795  43.910  24.816  1.00  0.00     0.158 HD
ATOM     34  H   UNL     1     -47.495  44.736  26.139  1.00  0.00     0.158 HD
ENDBRANCH  16  32
ENDBRANCH   1  10
BRANCH   5  35
ATOM     35  C   UNL     1     -48.298  34.804  26.723  1.00  0.00     0.081 C 
ATOM     36  H   UNL     1     -48.781  35.222  25.834  1.00  0.00     0.049 H 
ATOM     37  H   UNL     1     -49.066  34.294  27.313  1.00  0.00     0.049 H 
BRANCH  35  38
ATOM     38  S   UNL     1     -47.124  33.569  26.182  1.00  0.00     0.182 S 
ATOM     39  O   UNL     1     -46.332  34.122  25.097  1.00  0.00    -0.223 OA
ATOM     40  O   UNL     1     -46.461  33.039  27.361  1.00  0.00    -0.223 OA
BRANCH  38  41
ATOM     41  C   UNL     1     -48.111  32.250  25.517  1.00  0.00     0.069 A 
ATOM     42  C   UNL     1     -49.261  32.539  24.787  1.00  0.00    -0.043 A 
ATOM     43  C   UNL     1     -47.716  30.928  25.747  1.00  0.00    -0.017 A 
ATOM     44  C   UNL     1     -50.041  31.487  24.317  1.00  0.00    -0.052 A 
ATOM     45  H   UNL     1     -49.565  33.566  24.595  1.00  0.00     0.064 H 
ATOM     46  C   UNL     1     -48.485  29.870  25.291  1.00  0.00     0.074 A 
ATOM     47  H   UNL     1     -46.804  30.708  26.297  1.00  0.00     0.066 H 
ATOM     48  C   UNL     1     -49.663  30.156  24.571  1.00  0.00     0.000 A 
ATOM     49  H   UNL     1     -50.948  31.707  23.757  1.00  0.00     0.063 H 
ATOM     50  N   UNL     1     -48.089  28.616  25.561  1.00  0.00    -0.231 NA
ATOM     51  C   UNL     1     -50.432  29.076  24.132  1.00  0.00    -0.049 A 
ATOM     52  C   UNL     1     -48.836  27.576  25.123  1.00  0.00     0.129 A 
ATOM     53  C   UNL     1     -50.016  27.778  24.413  1.00  0.00    -0.019 A 
ATOM     54  H   UNL     1     -51.355  29.233  23.581  1.00  0.00     0.063 H 
ATOM     55  H   UNL     1     -50.621  26.938  24.093  1.00  0.00     0.066 H 
BRANCH  52  56
ATOM     56  N   UNL     1     -48.420  26.271  25.442  1.00  0.00    -0.356 N 
ATOM     57  C   UNL     1     -47.071  25.823  25.628  1.00  0.00     0.021 C 
ATOM     58  C   UNL     1     -48.897  25.524  26.571  1.00  0.00     0.021 C 
ATOM     59  C   UNL     1     -47.666  24.629  26.383  1.00  0.00    -0.018 C 
ATOM     60  H   UNL     1     -46.474  26.507  26.240  1.00  0.00     0.049 H 
ATOM     61  H   UNL     1     -46.556  25.585  24.695  1.00  0.00     0.049 H 
ATOM     62  H   UNL     1     -48.906  26.106  27.499  1.00  0.00     0.049 H 
ATOM     63  H   UNL     1     -49.863  25.046  26.401  1.00  0.00     0.049 H 
ATOM     64  H   UNL     1     -47.842  23.744  25.763  1.00  0.00     0.030 H 
ATOM     65  H   UNL     1     -47.145  24.337  27.298  1.00  0.00     0.030 H 
ENDBRANCH  52  56
ENDBRANCH  38  41
ENDBRANCH  35  38
ENDBRANCH   5  35
TORSDOF 8
ENDMDL
MODEL 6
REMARK VINA RESULT:     -10.0      2.322      2.880
REMARK SMILES Cn1ccc(-c2cn(-c3cncc(CS(=O)(=O)c4ccc5ccc(N6CCC6)nc5c4)c3)c3ncnc(N)c23)n1
REMARK SMILES IDX 9 1 10 2 11 3 12 4 13 5 32 6 8 10 6 11 7 12 39 13 33 15
REMARK SMILES IDX 37 16 34 17 36 18 35 19 5 21 2 22 3 23 40 24 4 25 1 28 38 32
REMARK SMILES IDX 14 35 15 38 16 39 17 40 18 41 19 42 31 43 20 44 30 46 21 48
REMARK SMILES IDX 29 50 22 51 24 52 23 53 25 56 26 57 28 58 27 59
REMARK H PARENT 10 7 12 8 32 9 7 14 35 20 3 26 4 27 1 29 1 30 1 31 38 33 38 34
REMARK H PARENT 14 36 14 37 19 45 31 47 20 49 22 54 23 55 26 60 26 61 28 62
REMARK H PARENT 28 63 27 64 27 65
REMARK Flexibility Score: inf
ROOT
ATOM      1  C   UNL     1     -48.773  32.413  25.699  1.00  0.00     0.066 A 
ATOM      2  C   UNL     1     -49.935  33.052  26.123  1.00  0.00     0.051 A 
ATOM      3  N   UNL     1     -49.973  34.311  26.628  1.00  0.00    -0.262 NA
ATOM      4  C   UNL     1     -48.806  34.979  26.713  1.00  0.00     0.031 A 
ATOM      5  C   UNL     1     -47.584  34.438  26.335  1.00  0.00    -0.012 A 
ATOM      6  C   UNL     1     -47.580  33.128  25.834  1.00  0.00    -0.031 A 
ATOM      7  H   UNL     1     -50.919  32.599  26.059  1.00  0.00     0.086 H 
ATOM      8  H   UNL     1     -48.890  35.991  27.100  1.00  0.00     0.084 H 
ATOM      9  H   UNL     1     -46.625  32.690  25.559  1.00  0.00     0.065 H 
ENDROOT
BRANCH   1  10
ATOM     10  N   UNL     1     -48.820  31.099  25.134  1.00  0.00    -0.299 N 
ATOM     11  C   UNL     1     -48.852  28.850  24.999  1.00  0.00     0.033 A 
ATOM     12  C   UNL     1     -48.727  29.924  25.854  1.00  0.00     0.021 A 
ATOM     13  C   UNL     1     -48.980  29.356  23.681  1.00  0.00     0.071 A 
ATOM     14  H   UNL     1     -48.570  29.909  26.923  1.00  0.00     0.083 H 
ATOM     15  C   UNL     1     -48.984  30.748  23.792  1.00  0.00     0.150 A 
ATOM     16  C   UNL     1     -49.087  28.830  22.381  1.00  0.00     0.137 A 
ATOM     17  N   UNL     1     -49.142  31.602  22.761  1.00  0.00    -0.218 NA
ATOM     18  N   UNL     1     -49.248  29.666  21.341  1.00  0.00    -0.219 NA
ATOM     19  C   UNL     1     -49.282  30.985  21.582  1.00  0.00     0.120 A 
ATOM     20  H   UNL     1     -49.430  31.626  20.717  1.00  0.00     0.106 H 
BRANCH  11  21
ATOM     21  C   UNL     1     -48.840  27.450  25.415  1.00  0.00     0.095 A 
ATOM     22  N   UNL     1     -48.172  25.623  26.236  1.00  0.00    -0.275 N 
ATOM     23  C   UNL     1     -49.470  25.387  25.889  1.00  0.00     0.025 A 
ATOM     24  N   UNL     1     -47.765  26.877  25.966  1.00  0.00    -0.173 NA
ATOM     25  C   UNL     1     -49.940  26.568  25.361  1.00  0.00    -0.016 A 
ATOM     26  H   UNL     1     -49.945  24.430  26.051  1.00  0.00     0.084 H 
ATOM     27  H   UNL     1     -50.938  26.764  24.995  1.00  0.00     0.066 H 
BRANCH  22  28
ATOM     28  C   UNL     1     -47.253  24.694  26.844  1.00  0.00     0.030 C 
ATOM     29  H   UNL     1     -47.671  24.330  27.785  1.00  0.00     0.048 H 
ATOM     30  H   UNL     1     -47.102  23.858  26.156  1.00  0.00     0.048 H 
ATOM     31  H   UNL     1     -46.310  25.214  27.032  1.00  0.00     0.048 H 
ENDBRANCH  22  28
ENDBRANCH  11  21
BRANCH  16  32
ATOM     32  N   UNL     1     -49.005  27.479  22.065  1.00  0.00    -0.383 N 
ATOM     33  H   UNL     1     -48.047  27.251  21.821  1.00  0.00     0.158 HD
ATOM     34  H   UNL     1     -49.424  26.873  22.762  1.00  0.00     0.158 HD
ENDBRANCH  16  32
ENDBRANCH   1  10
BRANCH   5  35
ATOM     35  C   UNL     1     -46.315  35.237  26.421  1.00  0.00     0.081 C 
ATOM     36  H   UNL     1     -46.262  35.997  25.636  1.00  0.00     0.049 H 
ATOM     37  H   UNL     1     -45.437  34.590  26.321  1.00  0.00     0.049 H 
BRANCH  35  38
ATOM     38  S   UNL     1     -46.198  36.067  28.000  1.00  0.00     0.182 S 
ATOM     39  O   UNL     1     -47.199  35.511  28.894  1.00  0.00    -0.223 OA
ATOM     40  O   UNL     1     -44.801  36.073  28.397  1.00  0.00    -0.223 OA
BRANCH  38  41
ATOM     41  C   UNL     1     -46.641  37.755  27.671  1.00  0.00     0.069 A 
ATOM     42  C   UNL     1     -47.923  38.211  27.966  1.00  0.00    -0.043 A 
ATOM     43  C   UNL     1     -45.686  38.607  27.105  1.00  0.00    -0.017 A 
ATOM     44  C   UNL     1     -48.258  39.526  27.656  1.00  0.00    -0.052 A 
ATOM     45  H   UNL     1     -48.665  37.556  28.418  1.00  0.00     0.064 H 
ATOM     46  C   UNL     1     -46.006  39.916  26.784  1.00  0.00     0.074 A 
ATOM     47  H   UNL     1     -44.679  38.253  26.898  1.00  0.00     0.066 H 
ATOM     48  C   UNL     1     -47.309  40.377  27.060  1.00  0.00     0.000 A 
ATOM     49  H   UNL     1     -49.263  39.884  27.872  1.00  0.00     0.063 H 
ATOM     50  N   UNL     1     -45.070  40.691  26.212  1.00  0.00    -0.231 NA
ATOM     51  C   UNL     1     -47.616  41.695  26.716  1.00  0.00    -0.049 A 
ATOM     52  C   UNL     1     -45.375  41.970  25.892  1.00  0.00     0.129 A 
ATOM     53  C   UNL     1     -46.642  42.495  26.126  1.00  0.00    -0.019 A 
ATOM     54  H   UNL     1     -48.606  42.104  26.895  1.00  0.00     0.063 H 
ATOM     55  H   UNL     1     -46.883  43.512  25.838  1.00  0.00     0.066 H 
BRANCH  52  56
ATOM     56  N   UNL     1     -44.391  42.756  25.266  1.00  0.00    -0.356 N 
ATOM     57  C   UNL     1     -44.071  42.777  23.869  1.00  0.00     0.021 C 
ATOM     58  C   UNL     1     -44.307  44.186  25.376  1.00  0.00     0.021 C 
ATOM     59  C   UNL     1     -43.416  44.138  24.130  1.00  0.00    -0.018 C 
ATOM     60  H   UNL     1     -44.958  42.805  23.227  1.00  0.00     0.049 H 
ATOM     61  H   UNL     1     -43.395  41.976  23.563  1.00  0.00     0.049 H 
ATOM     62  H   UNL     1     -45.271  44.685  25.234  1.00  0.00     0.049 H 
ATOM     63  H   UNL     1     -43.823  44.525  26.294  1.00  0.00     0.049 H 
ATOM     64  H   UNL     1     -42.343  44.089  24.343  1.00  0.00     0.030 H 
ATOM     65  H   UNL     1     -43.606  44.909  23.379  1.00  0.00     0.030 H 
ENDBRANCH  52  56
ENDBRANCH  38  41
ENDBRANCH  35  38
ENDBRANCH   5  35
TORSDOF 8
ENDMDL
MODEL 7
REMARK VINA RESULT:      -9.7      2.077      2.583
REMARK SMILES Cn1ccc(-c2cn(-c3cncc(CS(=O)(=O)c4ccc5ccc(N6CCC6)nc5c4)c3)c3ncnc(N)c23)n1
REMARK SMILES IDX 9 1 10 2 11 3 12 4 13 5 32 6 8 10 6 11 7 12 39 13 33 15
REMARK SMILES IDX 37 16 34 17 36 18 35 19 5 21 2 22 3 23 40 24 4 25 1 28 38 32
REMARK SMILES IDX 14 35 15 38 16 39 17 40 18 41 19 42 31 43 20 44 30 46 21 48
REMARK SMILES IDX 29 50 22 51 24 52 23 53 25 56 26 57 28 58 27 59
REMARK H PARENT 10 7 12 8 32 9 7 14 35 20 3 26 4 27 1 29 1 30 1 31 38 33 38 34
REMARK H PARENT 14 36 14 37 19 45 31 47 20 49 22 54 23 55 26 60 26 61 28 62
REMARK H PARENT 28 63 27 64 27 65
REMARK Flexibility Score: inf
ROOT
ATOM      1  C   UNL     1     -46.954  32.846  26.187  1.00  0.00     0.066 A 
ATOM      2  C   UNL     1     -46.332  32.485  27.378  1.00  0.00     0.051 A 
ATOM      3  N   UNL     1     -45.883  33.370  28.304  1.00  0.00    -0.262 NA
ATOM      4  C   UNL     1     -46.063  34.680  28.045  1.00  0.00     0.031 A 
ATOM      5  C   UNL     1     -46.656  35.158  26.884  1.00  0.00    -0.012 A 
ATOM      6  C   UNL     1     -47.091  34.215  25.941  1.00  0.00    -0.031 A 
ATOM      7  H   UNL     1     -46.177  31.454  27.679  1.00  0.00     0.086 H 
ATOM      8  H   UNL     1     -45.709  35.349  28.826  1.00  0.00     0.084 H 
ATOM      9  H   UNL     1     -47.534  34.581  25.020  1.00  0.00     0.065 H 
ENDROOT
BRANCH   1  10
ATOM     10  N   UNL     1     -47.441  31.852  25.280  1.00  0.00    -0.299 N 
ATOM     11  C   UNL     1     -48.674  30.153  24.460  1.00  0.00     0.033 A 
ATOM     12  C   UNL     1     -48.424  30.926  25.574  1.00  0.00     0.021 A 
ATOM     13  C   UNL     1     -47.786  30.567  23.435  1.00  0.00     0.071 A 
ATOM     14  H   UNL     1     -48.885  30.858  26.549  1.00  0.00     0.083 H 
ATOM     15  C   UNL     1     -47.053  31.635  23.956  1.00  0.00     0.150 A 
ATOM     16  C   UNL     1     -47.483  30.181  22.117  1.00  0.00     0.137 A 
ATOM     17  N   UNL     1     -46.134  32.345  23.271  1.00  0.00    -0.218 NA
ATOM     18  N   UNL     1     -46.572  30.879  21.418  1.00  0.00    -0.219 NA
ATOM     19  C   UNL     1     -45.967  31.916  22.015  1.00  0.00     0.120 A 
ATOM     20  H   UNL     1     -45.248  32.464  21.410  1.00  0.00     0.106 H 
BRANCH  11  21
ATOM     21  C   UNL     1     -49.679  29.096  24.390  1.00  0.00     0.095 A 
ATOM     22  N   UNL     1     -51.305  27.938  23.702  1.00  0.00    -0.275 N 
ATOM     23  C   UNL     1     -50.817  27.242  24.769  1.00  0.00     0.025 A 
ATOM     24  N   UNL     1     -50.623  29.068  23.443  1.00  0.00    -0.173 NA
ATOM     25  C   UNL     1     -49.744  27.967  25.233  1.00  0.00    -0.016 A 
ATOM     26  H   UNL     1     -51.253  26.308  25.096  1.00  0.00     0.084 H 
ATOM     27  H   UNL     1     -49.096  27.711  26.060  1.00  0.00     0.066 H 
BRANCH  22  28
ATOM     28  C   UNL     1     -52.424  27.577  22.867  1.00  0.00     0.030 C 
ATOM     29  H   UNL     1     -52.285  27.997  21.869  1.00  0.00     0.048 H 
ATOM     30  H   UNL     1     -52.472  26.486  22.809  1.00  0.00     0.048 H 
ATOM     31  H   UNL     1     -53.335  27.979  23.318  1.00  0.00     0.048 H 
ENDBRANCH  22  28
ENDBRANCH  11  21
BRANCH  16  32
ATOM     32  N   UNL     1     -48.038  29.085  21.466  1.00  0.00    -0.383 N 
ATOM     33  H   UNL     1     -49.040  29.222  21.380  1.00  0.00     0.158 HD
ATOM     34  H   UNL     1     -47.565  28.844  20.603  1.00  0.00     0.158 HD
ENDBRANCH  16  32
ENDBRANCH   1  10
BRANCH   5  35
ATOM     35  C   UNL     1     -46.860  36.628  26.658  1.00  0.00     0.081 C 
ATOM     36  H   UNL     1     -47.467  36.819  25.768  1.00  0.00     0.049 H 
ATOM     37  H   UNL     1     -45.902  37.141  26.526  1.00  0.00     0.049 H 
BRANCH  35  38
ATOM     38  S   UNL     1     -47.685  37.374  28.058  1.00  0.00     0.182 S 
ATOM     39  O   UNL     1     -49.025  36.825  28.155  1.00  0.00    -0.223 OA
ATOM     40  O   UNL     1     -46.787  37.293  29.197  1.00  0.00    -0.223 OA
BRANCH  38  41
ATOM     41  C   UNL     1     -47.831  39.096  27.647  1.00  0.00     0.069 A 
ATOM     42  C   UNL     1     -48.983  39.800  27.988  1.00  0.00    -0.043 A 
ATOM     43  C   UNL     1     -46.778  39.722  26.971  1.00  0.00    -0.017 A 
ATOM     44  C   UNL     1     -49.091  41.136  27.614  1.00  0.00    -0.052 A 
ATOM     45  H   UNL     1     -49.800  39.320  28.524  1.00  0.00     0.064 H 
ATOM     46  C   UNL     1     -46.873  41.049  26.587  1.00  0.00     0.074 A 
ATOM     47  H   UNL     1     -45.871  39.174  26.728  1.00  0.00     0.066 H 
ATOM     48  C   UNL     1     -48.046  41.761  26.909  1.00  0.00     0.000 A 
ATOM     49  H   UNL     1     -49.995  41.687  27.866  1.00  0.00     0.063 H 
ATOM     50  N   UNL     1     -45.853  41.604  25.911  1.00  0.00    -0.231 NA
ATOM     51  C   UNL     1     -48.128  43.093  26.500  1.00  0.00    -0.049 A 
ATOM     52  C   UNL     1     -45.939  42.899  25.528  1.00  0.00     0.129 A 
ATOM     53  C   UNL     1     -47.069  43.664  25.802  1.00  0.00    -0.019 A 
ATOM     54  H   UNL     1     -49.012  43.690  26.711  1.00  0.00     0.063 H 
ATOM     55  H   UNL     1     -47.137  44.691  25.464  1.00  0.00     0.066 H 
BRANCH  52  56
ATOM     56  N   UNL     1     -44.874  43.452  24.795  1.00  0.00    -0.356 N 
ATOM     57  C   UNL     1     -43.973  42.750  23.928  1.00  0.00     0.021 C 
ATOM     58  C   UNL     1     -45.006  44.550  23.880  1.00  0.00     0.021 C 
ATOM     59  C   UNL     1     -43.656  44.111  23.300  1.00  0.00    -0.018 C 
ATOM     60  H   UNL     1     -44.483  42.041  23.267  1.00  0.00     0.049 H 
ATOM     61  H   UNL     1     -43.147  42.266  24.455  1.00  0.00     0.049 H 
ATOM     62  H   UNL     1     -45.857  44.443  23.199  1.00  0.00     0.049 H 
ATOM     63  H   UNL     1     -45.019  45.526  24.369  1.00  0.00     0.049 H 
ATOM     64  H   UNL     1     -42.790  44.620  23.737  1.00  0.00     0.030 H 
ATOM     65  H   UNL     1     -43.578  44.126  22.211  1.00  0.00     0.030 H 
ENDBRANCH  52  56
ENDBRANCH  38  41
ENDBRANCH  35  38
ENDBRANCH   5  35
TORSDOF 8
ENDMDL
