MODEL 1
REMARK VINA RESULT:      -7.9      0.000      0.000
REMARK SMILES CC1(C)CCN(Cc2ccc(N3CCOC4(CCN(c5cc(NCc6ccccc6)ncn5)CC4)C3)cn2)CC1
REMARK SMILES IDX 12 1 13 2 14 3 15 4 16 5 17 6 18 7 19 8 34 9 35 10 36 11
REMARK SMILES IDX 11 26 8 27 9 28 38 29 10 30 37 32 7 35 6 38 2 39 4 40 40 41
REMARK SMILES IDX 5 42 39 45 1 52 3 56 20 60 21 61 33 62 22 63 32 65 31 66
REMARK SMILES IDX 23 68 24 70 25 73 26 74 30 75 27 76 29 78 28 80
REMARK H PARENT 13 12 13 13 14 14 14 15 17 16 17 17 18 18 18 19 34 20 34 21
REMARK H PARENT 35 22 35 23 36 24 36 25 9 31 10 33 37 34 7 36 7 37 4 43 4 44
REMARK H PARENT 40 46 40 47 5 48 5 49 39 50 39 51 1 53 1 54 1 55 3 57 3 58
REMARK H PARENT 3 59 21 64 32 67 23 69 24 71 24 72 26 77 30 79 27 81 29 82
REMARK H PARENT 28 83
REMARK Flexibility Score: inf
ROOT
ATOM      1  N   UNL     1     -43.784  42.235  25.939  1.00  0.00    -0.365 N 
ATOM      2  C   UNL     1     -42.345  42.435  26.179  1.00  0.00     0.041 C 
ATOM      3  C   UNL     1     -41.786  43.523  25.249  1.00  0.00     0.065 C 
ATOM      4  O   UNL     1     -42.442  44.791  25.394  1.00  0.00    -0.371 OA
ATOM      5  C   UNL     1     -43.881  44.708  25.566  1.00  0.00     0.089 C 
ATOM      6  C   UNL     1     -44.178  45.057  27.041  1.00  0.00    -0.004 C 
ATOM      7  C   UNL     1     -45.679  45.086  27.328  1.00  0.00     0.022 C 
ATOM      8  N   UNL     1     -46.412  45.714  26.222  1.00  0.00    -0.356 N 
ATOM      9  C   UNL     1     -45.631  46.576  25.335  1.00  0.00     0.022 C 
ATOM     10  C   UNL     1     -44.507  45.791  24.652  1.00  0.00    -0.004 C 
ATOM     11  C   UNL     1     -44.442  43.304  25.163  1.00  0.00     0.047 C 
ATOM     12  H   UNL     1     -42.181  42.743  27.219  1.00  0.00     0.052 H 
ATOM     13  H   UNL     1     -41.799  41.501  26.001  1.00  0.00     0.052 H 
ATOM     14  H   UNL     1     -41.865  43.216  24.198  1.00  0.00     0.059 H 
ATOM     15  H   UNL     1     -40.723  43.681  25.457  1.00  0.00     0.059 H 
ATOM     16  H   UNL     1     -43.685  44.366  27.734  1.00  0.00     0.032 H 
ATOM     17  H   UNL     1     -43.734  46.036  27.273  1.00  0.00     0.032 H 
ATOM     18  H   UNL     1     -45.867  45.648  28.250  1.00  0.00     0.049 H 
ATOM     19  H   UNL     1     -46.002  44.056  27.511  1.00  0.00     0.049 H 
ATOM     20  H   UNL     1     -45.187  47.376  25.942  1.00  0.00     0.049 H 
ATOM     21  H   UNL     1     -46.246  47.101  24.593  1.00  0.00     0.049 H 
ATOM     22  H   UNL     1     -43.742  46.504  24.314  1.00  0.00     0.032 H 
ATOM     23  H   UNL     1     -44.895  45.330  23.736  1.00  0.00     0.032 H 
ATOM     24  H   UNL     1     -44.235  43.110  24.102  1.00  0.00     0.052 H 
ATOM     25  H   UNL     1     -45.527  43.288  25.269  1.00  0.00     0.052 H 
ENDROOT
BRANCH   1  26
ATOM     26  C   UNL     1     -44.509  41.260  26.604  1.00  0.00     0.055 A 
ATOM     27  C   UNL     1     -45.912  39.241  27.963  1.00  0.00     0.055 A 
ATOM     28  C   UNL     1     -46.560  39.996  26.991  1.00  0.00    -0.037 A 
ATOM     29  N   UNL     1     -44.619  39.462  28.290  1.00  0.00    -0.258 NA
ATOM     30  C   UNL     1     -45.854  41.000  26.322  1.00  0.00    -0.035 A 
ATOM     31  H   UNL     1     -47.598  39.798  26.745  1.00  0.00     0.064 H 
ATOM     32  C   UNL     1     -43.974  40.456  27.619  1.00  0.00     0.051 A 
ATOM     33  H   UNL     1     -46.386  41.560  25.559  1.00  0.00     0.065 H 
ATOM     34  H   UNL     1     -42.957  40.600  27.970  1.00  0.00     0.086 H 
BRANCH  27  35
ATOM     35  C   UNL     1     -46.658  38.149  28.710  1.00  0.00     0.041 C 
ATOM     36  H   UNL     1     -47.674  38.533  28.878  1.00  0.00     0.050 H 
ATOM     37  H   UNL     1     -46.208  38.011  29.700  1.00  0.00     0.050 H 
BRANCH  35  38
ATOM     38  N   UNL     1     -46.731  36.861  27.989  1.00  0.00    -0.297 NA
ATOM     39  C   UNL     1     -47.288  34.320  26.847  1.00  0.00    -0.033 C 
ATOM     40  C   UNL     1     -46.319  34.434  28.053  1.00  0.00    -0.035 C 
ATOM     41  C   UNL     1     -48.467  35.290  27.043  1.00  0.00    -0.035 C 
ATOM     42  C   UNL     1     -46.502  35.720  28.875  1.00  0.00    -0.001 C 
ATOM     43  H   UNL     1     -45.279  34.376  27.703  1.00  0.00     0.029 H 
ATOM     44  H   UNL     1     -46.450  33.586  28.736  1.00  0.00     0.029 H 
ATOM     45  C   UNL     1     -48.022  36.740  27.292  1.00  0.00    -0.001 C 
ATOM     46  H   UNL     1     -49.062  34.959  27.906  1.00  0.00     0.029 H 
ATOM     47  H   UNL     1     -49.143  35.263  26.179  1.00  0.00     0.029 H 
ATOM     48  H   UNL     1     -47.338  35.599  29.575  1.00  0.00     0.043 H 
ATOM     49  H   UNL     1     -45.598  35.851  29.480  1.00  0.00     0.043 H 
ATOM     50  H   UNL     1     -48.826  37.238  27.850  1.00  0.00     0.043 H 
ATOM     51  H   UNL     1     -47.938  37.262  26.330  1.00  0.00     0.043 H 
BRANCH  39  52
ATOM     52  C   UNL     1     -46.543  34.642  25.535  1.00  0.00    -0.060 C 
ATOM     53  H   UNL     1     -47.241  34.980  24.760  1.00  0.00     0.024 H 
ATOM     54  H   UNL     1     -46.011  33.772  25.137  1.00  0.00     0.024 H 
ATOM     55  H   UNL     1     -45.808  35.440  25.686  1.00  0.00     0.024 H 
ENDBRANCH  39  52
BRANCH  39  56
ATOM     56  C   UNL     1     -47.823  32.880  26.745  1.00  0.00    -0.060 C 
ATOM     57  H   UNL     1     -47.322  32.328  25.943  1.00  0.00     0.024 H 
ATOM     58  H   UNL     1     -47.664  32.332  27.681  1.00  0.00     0.024 H 
ATOM     59  H   UNL     1     -48.898  32.872  26.532  1.00  0.00     0.024 H 
ENDBRANCH  39  56
ENDBRANCH  35  38
ENDBRANCH  27  35
ENDBRANCH   1  26
BRANCH   8  60
ATOM     60  C   UNL     1     -47.537  45.086  25.694  1.00  0.00     0.134 A 
ATOM     61  C   UNL     1     -48.174  44.055  26.365  1.00  0.00     0.023 A 
ATOM     62  N   UNL     1     -47.999  45.491  24.499  1.00  0.00    -0.219 NA
ATOM     63  C   UNL     1     -49.247  43.436  25.752  1.00  0.00     0.131 A 
ATOM     64  H   UNL     1     -47.861  43.739  27.351  1.00  0.00     0.070 H 
ATOM     65  C   UNL     1     -49.077  44.862  24.008  1.00  0.00     0.120 A 
ATOM     66  N   UNL     1     -49.725  43.838  24.572  1.00  0.00    -0.219 NA
ATOM     67  H   UNL     1     -49.455  45.214  23.055  1.00  0.00     0.106 H 
BRANCH  63  68
ATOM     68  N   UNL     1     -49.900  42.347  26.345  1.00  0.00    -0.366 N 
ATOM     69  H   UNL     1     -49.664  41.554  25.748  1.00  0.00     0.162 HD
BRANCH  68  70
ATOM     70  C   UNL     1     -49.415  42.086  27.702  1.00  0.00     0.041 C 
ATOM     71  H   UNL     1     -49.376  43.006  28.299  1.00  0.00     0.054 H 
ATOM     72  H   UNL     1     -48.403  41.665  27.659  1.00  0.00     0.054 H 
BRANCH  70  73
ATOM     73  C   UNL     1     -50.341  41.116  28.400  1.00  0.00    -0.029 A 
ATOM     74  C   UNL     1     -50.365  39.764  28.029  1.00  0.00    -0.057 A 
ATOM     75  C   UNL     1     -51.158  41.541  29.460  1.00  0.00    -0.057 A 
ATOM     76  C   UNL     1     -51.189  38.859  28.700  1.00  0.00    -0.062 A 
ATOM     77  H   UNL     1     -49.732  39.407  27.219  1.00  0.00     0.063 H 
ATOM     78  C   UNL     1     -51.982  40.635  30.129  1.00  0.00    -0.062 A 
ATOM     79  H   UNL     1     -51.153  42.587  29.761  1.00  0.00     0.063 H 
ATOM     80  C   UNL     1     -51.996  39.295  29.749  1.00  0.00    -0.062 A 
ATOM     81  H   UNL     1     -51.200  37.813  28.404  1.00  0.00     0.062 H 
ATOM     82  H   UNL     1     -52.612  40.979  30.944  1.00  0.00     0.062 H 
ATOM     83  H   UNL     1     -52.640  38.590  30.270  1.00  0.00     0.062 H 
ENDBRANCH  70  73
ENDBRANCH  68  70
ENDBRANCH  63  68
ENDBRANCH   8  60
TORSDOF 9
ENDMDL
MODEL 2
REMARK VINA RESULT:      -7.7      2.326      5.524
REMARK SMILES CC1(C)CCN(Cc2ccc(N3CCOC4(CCN(c5cc(NCc6ccccc6)ncn5)CC4)C3)cn2)CC1
REMARK SMILES IDX 12 1 13 2 14 3 15 4 16 5 17 6 18 7 19 8 34 9 35 10 36 11
REMARK SMILES IDX 11 26 8 27 9 28 38 29 10 30 37 32 7 35 6 38 2 39 4 40 40 41
REMARK SMILES IDX 5 42 39 45 1 52 3 56 20 60 21 61 33 62 22 63 32 65 31 66
REMARK SMILES IDX 23 68 24 70 25 73 26 74 30 75 27 76 29 78 28 80
REMARK H PARENT 13 12 13 13 14 14 14 15 17 16 17 17 18 18 18 19 34 20 34 21
REMARK H PARENT 35 22 35 23 36 24 36 25 9 31 10 33 37 34 7 36 7 37 4 43 4 44
REMARK H PARENT 40 46 40 47 5 48 5 49 39 50 39 51 1 53 1 54 1 55 3 57 3 58
REMARK H PARENT 3 59 21 64 32 67 23 69 24 71 24 72 26 77 30 79 27 81 29 82
REMARK H PARENT 28 83
REMARK Flexibility Score: inf
ROOT
ATOM      1  N   UNL     1     -49.253  44.618  28.508  1.00  0.00    -0.365 N 
ATOM      2  C   UNL     1     -50.279  45.500  29.090  1.00  0.00     0.041 C 
ATOM      3  C   UNL     1     -49.754  46.940  29.203  1.00  0.00     0.065 C 
ATOM      4  O   UNL     1     -49.346  47.500  27.947  1.00  0.00    -0.371 OA
ATOM      5  C   UNL     1     -48.636  46.577  27.079  1.00  0.00     0.089 C 
ATOM      6  C   UNL     1     -49.599  46.214  25.927  1.00  0.00    -0.004 C 
ATOM      7  C   UNL     1     -48.932  45.308  24.893  1.00  0.00     0.022 C 
ATOM      8  N   UNL     1     -47.549  45.728  24.642  1.00  0.00    -0.356 N 
ATOM      9  C   UNL     1     -47.215  47.105  25.005  1.00  0.00     0.022 C 
ATOM     10  C   UNL     1     -47.422  47.347  26.502  1.00  0.00    -0.004 C 
ATOM     11  C   UNL     1     -48.130  45.315  27.852  1.00  0.00     0.047 C 
ATOM     12  H   UNL     1     -51.172  45.500  28.454  1.00  0.00     0.052 H 
ATOM     13  H   UNL     1     -50.560  45.145  30.088  1.00  0.00     0.052 H 
ATOM     14  H   UNL     1     -48.903  46.992  29.893  1.00  0.00     0.059 H 
ATOM     15  H   UNL     1     -50.536  47.589  29.610  1.00  0.00     0.059 H 
ATOM     16  H   UNL     1     -50.517  45.742  26.291  1.00  0.00     0.032 H 
ATOM     17  H   UNL     1     -49.944  47.140  25.444  1.00  0.00     0.032 H 
ATOM     18  H   UNL     1     -49.496  45.343  23.954  1.00  0.00     0.049 H 
ATOM     19  H   UNL     1     -48.995  44.279  25.264  1.00  0.00     0.049 H 
ATOM     20  H   UNL     1     -47.878  47.776  24.441  1.00  0.00     0.049 H 
ATOM     21  H   UNL     1     -46.202  47.398  24.699  1.00  0.00     0.049 H 
ATOM     22  H   UNL     1     -47.531  48.428  26.667  1.00  0.00     0.032 H 
ATOM     23  H   UNL     1     -46.509  47.065  27.042  1.00  0.00     0.032 H 
ATOM     24  H   UNL     1     -47.428  45.616  28.639  1.00  0.00     0.052 H 
ATOM     25  H   UNL     1     -47.572  44.663  27.180  1.00  0.00     0.052 H 
ENDROOT
BRANCH   1  26
ATOM     26  C   UNL     1     -49.455  43.256  28.364  1.00  0.00     0.055 A 
ATOM     27  C   UNL     1     -49.824  40.480  28.139  1.00  0.00     0.055 A 
ATOM     28  C   UNL     1     -49.775  41.263  26.992  1.00  0.00    -0.037 A 
ATOM     29  N   UNL     1     -49.715  41.019  29.374  1.00  0.00    -0.258 NA
ATOM     30  C   UNL     1     -49.593  42.644  27.114  1.00  0.00    -0.035 A 
ATOM     31  H   UNL     1     -49.862  40.806  26.011  1.00  0.00     0.064 H 
ATOM     32  C   UNL     1     -49.550  42.369  29.445  1.00  0.00     0.051 A 
ATOM     33  H   UNL     1     -49.545  43.224  26.197  1.00  0.00     0.065 H 
ATOM     34  H   UNL     1     -49.516  42.729  30.469  1.00  0.00     0.086 H 
BRANCH  27  35
ATOM     35  C   UNL     1     -50.027  38.978  28.035  1.00  0.00     0.041 C 
ATOM     36  H   UNL     1     -50.398  38.790  27.018  1.00  0.00     0.050 H 
ATOM     37  H   UNL     1     -50.825  38.668  28.721  1.00  0.00     0.050 H 
BRANCH  35  38
ATOM     38  N   UNL     1     -48.804  38.182  28.269  1.00  0.00    -0.297 NA
ATOM     39  C   UNL     1     -46.424  36.631  28.231  1.00  0.00    -0.033 C 
ATOM     40  C   UNL     1     -47.799  35.939  28.420  1.00  0.00    -0.035 C 
ATOM     41  C   UNL     1     -46.558  37.762  27.194  1.00  0.00    -0.035 C 
ATOM     42  C   UNL     1     -48.987  36.774  27.917  1.00  0.00    -0.001 C 
ATOM     43  H   UNL     1     -47.953  35.699  29.481  1.00  0.00     0.029 H 
ATOM     44  H   UNL     1     -47.825  34.978  27.891  1.00  0.00     0.029 H 
ATOM     45  C   UNL     1     -47.669  38.768  27.537  1.00  0.00    -0.001 C 
ATOM     46  H   UNL     1     -46.781  37.321  26.213  1.00  0.00     0.029 H 
ATOM     47  H   UNL     1     -45.608  38.299  27.078  1.00  0.00     0.029 H 
ATOM     48  H   UNL     1     -49.093  36.656  26.831  1.00  0.00     0.043 H 
ATOM     49  H   UNL     1     -49.894  36.357  28.370  1.00  0.00     0.043 H 
ATOM     50  H   UNL     1     -47.995  39.228  26.595  1.00  0.00     0.043 H 
ATOM     51  H   UNL     1     -47.250  39.574  28.151  1.00  0.00     0.043 H 
BRANCH  39  52
ATOM     52  C   UNL     1     -45.923  37.196  29.577  1.00  0.00    -0.060 C 
ATOM     53  H   UNL     1     -45.689  38.263  29.491  1.00  0.00     0.024 H 
ATOM     54  H   UNL     1     -45.018  36.691  29.926  1.00  0.00     0.024 H 
ATOM     55  H   UNL     1     -46.686  37.087  30.356  1.00  0.00     0.024 H 
ENDBRANCH  39  52
BRANCH  39  56
ATOM     56  C   UNL     1     -45.390  35.605  27.736  1.00  0.00    -0.060 C 
ATOM     57  H   UNL     1     -44.500  35.600  28.374  1.00  0.00     0.024 H 
ATOM     58  H   UNL     1     -45.808  34.591  27.734  1.00  0.00     0.024 H 
ATOM     59  H   UNL     1     -45.064  35.832  26.714  1.00  0.00     0.024 H 
ENDBRANCH  39  56
ENDBRANCH  35  38
ENDBRANCH  27  35
ENDBRANCH   1  26
BRANCH   8  60
ATOM     60  C   UNL     1     -46.525  44.784  24.660  1.00  0.00     0.134 A 
ATOM     61  C   UNL     1     -46.604  43.644  25.443  1.00  0.00     0.023 A 
ATOM     62  N   UNL     1     -45.435  45.001  23.906  1.00  0.00    -0.219 NA
ATOM     63  C   UNL     1     -45.524  42.782  25.460  1.00  0.00     0.131 A 
ATOM     64  H   UNL     1     -47.488  43.411  26.021  1.00  0.00     0.070 H 
ATOM     65  C   UNL     1     -44.459  44.083  23.951  1.00  0.00     0.120 A 
ATOM     66  N   UNL     1     -44.441  42.979  24.705  1.00  0.00    -0.219 NA
ATOM     67  H   UNL     1     -43.595  44.257  23.320  1.00  0.00     0.106 H 
BRANCH  63  68
ATOM     68  N   UNL     1     -45.510  41.642  26.276  1.00  0.00    -0.366 N 
ATOM     69  H   UNL     1     -46.333  41.114  25.988  1.00  0.00     0.162 HD
BRANCH  68  70
ATOM     70  C   UNL     1     -44.315  40.824  26.058  1.00  0.00     0.041 C 
ATOM     71  H   UNL     1     -43.703  41.217  25.237  1.00  0.00     0.054 H 
ATOM     72  H   UNL     1     -44.610  39.799  25.802  1.00  0.00     0.054 H 
BRANCH  70  73
ATOM     73  C   UNL     1     -43.467  40.812  27.309  1.00  0.00    -0.029 A 
ATOM     74  C   UNL     1     -42.318  41.611  27.397  1.00  0.00    -0.057 A 
ATOM     75  C   UNL     1     -43.839  40.038  28.420  1.00  0.00    -0.057 A 
ATOM     76  C   UNL     1     -41.557  41.633  28.567  1.00  0.00    -0.062 A 
ATOM     77  H   UNL     1     -42.015  42.230  26.555  1.00  0.00     0.063 H 
ATOM     78  C   UNL     1     -43.077  40.060  29.588  1.00  0.00    -0.062 A 
ATOM     79  H   UNL     1     -44.728  39.412  28.370  1.00  0.00     0.063 H 
ATOM     80  C   UNL     1     -41.937  40.858  29.662  1.00  0.00    -0.062 A 
ATOM     81  H   UNL     1     -40.668  42.255  28.625  1.00  0.00     0.062 H 
ATOM     82  H   UNL     1     -43.374  39.453  30.439  1.00  0.00     0.062 H 
ATOM     83  H   UNL     1     -41.343  40.873  30.572  1.00  0.00     0.062 H 
ENDBRANCH  70  73
ENDBRANCH  68  70
ENDBRANCH  63  68
ENDBRANCH   8  60
TORSDOF 9
ENDMDL
MODEL 3
REMARK VINA RESULT:      -7.5      2.831      7.041
REMARK SMILES CC1(C)CCN(Cc2ccc(N3CCOC4(CCN(c5cc(NCc6ccccc6)ncn5)CC4)C3)cn2)CC1
REMARK SMILES IDX 12 1 13 2 14 3 15 4 16 5 17 6 18 7 19 8 34 9 35 10 36 11
REMARK SMILES IDX 11 26 8 27 9 28 38 29 10 30 37 32 7 35 6 38 2 39 4 40 40 41
REMARK SMILES IDX 5 42 39 45 1 52 3 56 20 60 21 61 33 62 22 63 32 65 31 66
REMARK SMILES IDX 23 68 24 70 25 73 26 74 30 75 27 76 29 78 28 80
REMARK H PARENT 13 12 13 13 14 14 14 15 17 16 17 17 18 18 18 19 34 20 34 21
REMARK H PARENT 35 22 35 23 36 24 36 25 9 31 10 33 37 34 7 36 7 37 4 43 4 44
REMARK H PARENT 40 46 40 47 5 48 5 49 39 50 39 51 1 53 1 54 1 55 3 57 3 58
REMARK H PARENT 3 59 21 64 32 67 23 69 24 71 24 72 26 77 30 79 27 81 29 82
REMARK H PARENT 28 83
REMARK Flexibility Score: inf
ROOT
ATOM      1  N   UNL     1     -49.496  45.482  27.395  1.00  0.00    -0.365 N 
ATOM      2  C   UNL     1     -49.615  46.925  27.661  1.00  0.00     0.041 C 
ATOM      3  C   UNL     1     -51.009  47.261  28.214  1.00  0.00     0.065 C 
ATOM      4  O   UNL     1     -51.329  46.556  29.423  1.00  0.00    -0.371 OA
ATOM      5  C   UNL     1     -50.898  45.170  29.444  1.00  0.00     0.089 C 
ATOM      6  C   UNL     1     -49.701  45.086  30.416  1.00  0.00    -0.004 C 
ATOM      7  C   UNL     1     -49.209  43.651  30.590  1.00  0.00     0.022 C 
ATOM      8  N   UNL     1     -50.336  42.715  30.670  1.00  0.00    -0.356 N 
ATOM      9  C   UNL     1     -51.630  43.291  31.036  1.00  0.00     0.022 C 
ATOM     10  C   UNL     1     -52.076  44.342  30.016  1.00  0.00    -0.004 C 
ATOM     11  C   UNL     1     -50.540  44.644  28.014  1.00  0.00     0.047 C 
ATOM     12  H   UNL     1     -48.862  47.230  28.398  1.00  0.00     0.052 H 
ATOM     13  H   UNL     1     -49.453  47.494  26.739  1.00  0.00     0.052 H 
ATOM     14  H   UNL     1     -51.787  47.038  27.473  1.00  0.00     0.059 H 
ATOM     15  H   UNL     1     -51.074  48.331  28.435  1.00  0.00     0.059 H 
ATOM     16  H   UNL     1     -48.869  45.725  30.101  1.00  0.00     0.032 H 
ATOM     17  H   UNL     1     -50.003  45.498  31.391  1.00  0.00     0.032 H 
ATOM     18  H   UNL     1     -48.611  43.574  31.506  1.00  0.00     0.049 H 
ATOM     19  H   UNL     1     -48.538  43.426  29.753  1.00  0.00     0.049 H 
ATOM     20  H   UNL     1     -51.523  43.772  32.017  1.00  0.00     0.049 H 
ATOM     21  H   UNL     1     -52.412  42.536  31.184  1.00  0.00     0.049 H 
ATOM     22  H   UNL     1     -52.817  44.997  30.493  1.00  0.00     0.032 H 
ATOM     23  H   UNL     1     -52.615  43.845  29.199  1.00  0.00     0.032 H 
ATOM     24  H   UNL     1     -51.425  44.694  27.367  1.00  0.00     0.052 H 
ATOM     25  H   UNL     1     -50.257  43.592  28.062  1.00  0.00     0.052 H 
ENDROOT
BRANCH   1  26
ATOM     26  C   UNL     1     -48.358  44.934  26.827  1.00  0.00     0.055 A 
ATOM     27  C   UNL     1     -46.060  43.756  25.719  1.00  0.00     0.055 A 
ATOM     28  C   UNL     1     -46.150  45.141  25.807  1.00  0.00    -0.037 A 
ATOM     29  N   UNL     1     -47.061  42.950  26.139  1.00  0.00    -0.258 NA
ATOM     30  C   UNL     1     -47.299  45.718  26.357  1.00  0.00    -0.035 A 
ATOM     31  H   UNL     1     -45.332  45.767  25.466  1.00  0.00     0.064 H 
ATOM     32  C   UNL     1     -48.165  43.556  26.659  1.00  0.00     0.051 A 
ATOM     33  H   UNL     1     -47.331  46.801  26.424  1.00  0.00     0.065 H 
ATOM     34  H   UNL     1     -48.939  42.845  26.930  1.00  0.00     0.086 H 
BRANCH  27  35
ATOM     35  C   UNL     1     -44.826  43.104  25.119  1.00  0.00     0.041 C 
ATOM     36  H   UNL     1     -44.363  43.863  24.475  1.00  0.00     0.050 H 
ATOM     37  H   UNL     1     -45.131  42.280  24.463  1.00  0.00     0.050 H 
BRANCH  35  38
ATOM     38  N   UNL     1     -43.842  42.636  26.117  1.00  0.00    -0.297 NA
ATOM     39  C   UNL     1     -42.337  41.556  28.272  1.00  0.00    -0.033 C 
ATOM     40  C   UNL     1     -42.729  43.057  28.273  1.00  0.00    -0.035 C 
ATOM     41  C   UNL     1     -43.511  40.721  27.729  1.00  0.00    -0.035 C 
ATOM     42  C   UNL     1     -43.930  43.385  27.371  1.00  0.00    -0.001 C 
ATOM     43  H   UNL     1     -41.870  43.668  27.964  1.00  0.00     0.029 H 
ATOM     44  H   UNL     1     -42.981  43.390  29.288  1.00  0.00     0.029 H 
ATOM     45  C   UNL     1     -44.002  41.191  26.350  1.00  0.00    -0.001 C 
ATOM     46  H   UNL     1     -44.351  40.785  28.435  1.00  0.00     0.029 H 
ATOM     47  H   UNL     1     -43.241  39.659  27.673  1.00  0.00     0.029 H 
ATOM     48  H   UNL     1     -44.865  43.154  27.895  1.00  0.00     0.043 H 
ATOM     49  H   UNL     1     -43.922  44.467  27.198  1.00  0.00     0.043 H 
ATOM     50  H   UNL     1     -45.052  40.885  26.254  1.00  0.00     0.043 H 
ATOM     51  H   UNL     1     -43.447  40.659  25.568  1.00  0.00     0.043 H 
BRANCH  39  52
ATOM     52  C   UNL     1     -41.079  41.337  27.406  1.00  0.00    -0.060 C 
ATOM     53  H   UNL     1     -40.168  41.438  28.005  1.00  0.00     0.024 H 
ATOM     54  H   UNL     1     -41.011  42.058  26.585  1.00  0.00     0.024 H 
ATOM     55  H   UNL     1     -41.075  40.333  26.967  1.00  0.00     0.024 H 
ENDBRANCH  39  52
BRANCH  39  56
ATOM     56  C   UNL     1     -42.009  41.104  29.706  1.00  0.00    -0.060 C 
ATOM     57  H   UNL     1     -42.254  41.885  30.433  1.00  0.00     0.024 H 
ATOM     58  H   UNL     1     -42.573  40.204  29.975  1.00  0.00     0.024 H 
ATOM     59  H   UNL     1     -40.942  40.874  29.813  1.00  0.00     0.024 H 
ENDBRANCH  39  56
ENDBRANCH  35  38
ENDBRANCH  27  35
ENDBRANCH   1  26
BRANCH   8  60
ATOM     60  C   UNL     1     -50.335  41.563  29.887  1.00  0.00     0.134 A 
ATOM     61  C   UNL     1     -49.228  41.193  29.143  1.00  0.00     0.023 A 
ATOM     62  N   UNL     1     -51.446  40.808  29.852  1.00  0.00    -0.219 NA
ATOM     63  C   UNL     1     -49.320  40.072  28.340  1.00  0.00     0.131 A 
ATOM     64  H   UNL     1     -48.301  41.748  29.188  1.00  0.00     0.070 H 
ATOM     65  C   UNL     1     -51.423  39.710  29.082  1.00  0.00     0.120 A 
ATOM     66  N   UNL     1     -50.412  39.305  28.308  1.00  0.00    -0.219 NA
ATOM     67  H   UNL     1     -52.316  39.096  29.081  1.00  0.00     0.106 H 
BRANCH  63  68
ATOM     68  N   UNL     1     -48.260  39.674  27.514  1.00  0.00    -0.366 N 
ATOM     69  H   UNL     1     -48.013  40.516  26.995  1.00  0.00     0.162 HD
BRANCH  68  70
ATOM     70  C   UNL     1     -47.098  39.228  28.285  1.00  0.00     0.041 C 
ATOM     71  H   UNL     1     -47.312  39.209  29.361  1.00  0.00     0.054 H 
ATOM     72  H   UNL     1     -46.257  39.913  28.117  1.00  0.00     0.054 H 
BRANCH  70  73
ATOM     73  C   UNL     1     -46.708  37.830  27.863  1.00  0.00    -0.029 A 
ATOM     74  C   UNL     1     -45.578  37.209  28.415  1.00  0.00    -0.057 A 
ATOM     75  C   UNL     1     -47.495  37.112  26.948  1.00  0.00    -0.057 A 
ATOM     76  C   UNL     1     -45.240  35.903  28.057  1.00  0.00    -0.062 A 
ATOM     77  H   UNL     1     -44.959  37.740  29.136  1.00  0.00     0.063 H 
ATOM     78  C   UNL     1     -47.155  35.807  26.591  1.00  0.00    -0.062 A 
ATOM     79  H   UNL     1     -48.375  37.578  26.509  1.00  0.00     0.063 H 
ATOM     80  C   UNL     1     -46.029  35.203  27.145  1.00  0.00    -0.062 A 
ATOM     81  H   UNL     1     -44.362  35.432  28.490  1.00  0.00     0.062 H 
ATOM     82  H   UNL     1     -47.770  35.264  25.878  1.00  0.00     0.062 H 
ATOM     83  H   UNL     1     -45.764  34.187  26.865  1.00  0.00     0.062 H 
ENDBRANCH  70  73
ENDBRANCH  68  70
ENDBRANCH  63  68
ENDBRANCH   8  60
TORSDOF 9
ENDMDL
MODEL 4
REMARK VINA RESULT:      -7.3      2.360      7.526
REMARK SMILES CC1(C)CCN(Cc2ccc(N3CCOC4(CCN(c5cc(NCc6ccccc6)ncn5)CC4)C3)cn2)CC1
REMARK SMILES IDX 12 1 13 2 14 3 15 4 16 5 17 6 18 7 19 8 34 9 35 10 36 11
REMARK SMILES IDX 11 26 8 27 9 28 38 29 10 30 37 32 7 35 6 38 2 39 4 40 40 41
REMARK SMILES IDX 5 42 39 45 1 52 3 56 20 60 21 61 33 62 22 63 32 65 31 66
REMARK SMILES IDX 23 68 24 70 25 73 26 74 30 75 27 76 29 78 28 80
REMARK H PARENT 13 12 13 13 14 14 14 15 17 16 17 17 18 18 18 19 34 20 34 21
REMARK H PARENT 35 22 35 23 36 24 36 25 9 31 10 33 37 34 7 36 7 37 4 43 4 44
REMARK H PARENT 40 46 40 47 5 48 5 49 39 50 39 51 1 53 1 54 1 55 3 57 3 58
REMARK H PARENT 3 59 21 64 32 67 23 69 24 71 24 72 26 77 30 79 27 81 29 82
REMARK H PARENT 28 83
REMARK Flexibility Score: inf
ROOT
ATOM      1  N   UNL     1     -49.480  43.796  25.939  1.00  0.00    -0.365 N 
ATOM      2  C   UNL     1     -50.415  44.933  25.942  1.00  0.00     0.041 C 
ATOM      3  C   UNL     1     -51.870  44.437  25.915  1.00  0.00     0.065 C 
ATOM      4  O   UNL     1     -52.203  43.583  27.019  1.00  0.00    -0.371 OA
ATOM      5  C   UNL     1     -51.164  42.638  27.384  1.00  0.00     0.089 C 
ATOM      6  C   UNL     1     -50.559  43.129  28.718  1.00  0.00    -0.004 C 
ATOM      7  C   UNL     1     -49.503  42.163  29.253  1.00  0.00     0.022 C 
ATOM      8  N   UNL     1     -49.920  40.770  29.060  1.00  0.00    -0.356 N 
ATOM      9  C   UNL     1     -51.352  40.545  28.862  1.00  0.00     0.022 C 
ATOM     10  C   UNL     1     -51.858  41.272  27.614  1.00  0.00    -0.004 C 
ATOM     11  C   UNL     1     -50.084  42.489  26.261  1.00  0.00     0.047 C 
ATOM     12  H   UNL     1     -50.266  45.534  26.847  1.00  0.00     0.052 H 
ATOM     13  H   UNL     1     -50.241  45.568  25.067  1.00  0.00     0.052 H 
ATOM     14  H   UNL     1     -52.079  43.892  24.986  1.00  0.00     0.059 H 
ATOM     15  H   UNL     1     -52.554  45.292  25.946  1.00  0.00     0.059 H 
ATOM     16  H   UNL     1     -50.129  44.132  28.630  1.00  0.00     0.032 H 
ATOM     17  H   UNL     1     -51.367  43.245  29.455  1.00  0.00     0.032 H 
ATOM     18  H   UNL     1     -49.344  42.347  30.322  1.00  0.00     0.049 H 
ATOM     19  H   UNL     1     -48.558  42.391  28.747  1.00  0.00     0.049 H 
ATOM     20  H   UNL     1     -51.882  40.936  29.740  1.00  0.00     0.049 H 
ATOM     21  H   UNL     1     -51.620  39.481  28.829  1.00  0.00     0.049 H 
ATOM     22  H   UNL     1     -52.945  41.398  27.702  1.00  0.00     0.032 H 
ATOM     23  H   UNL     1     -51.713  40.627  26.738  1.00  0.00     0.032 H 
ATOM     24  H   UNL     1     -50.551  42.110  25.343  1.00  0.00     0.052 H 
ATOM     25  H   UNL     1     -49.340  41.747  26.552  1.00  0.00     0.052 H 
ENDROOT
BRANCH   1  26
ATOM     26  C   UNL     1     -48.108  43.976  25.892  1.00  0.00     0.055 A 
ATOM     27  C   UNL     1     -45.315  44.277  25.839  1.00  0.00     0.055 A 
ATOM     28  C   UNL     1     -46.129  45.402  25.775  1.00  0.00    -0.037 A 
ATOM     29  N   UNL     1     -45.829  43.029  25.910  1.00  0.00    -0.258 NA
ATOM     30  C   UNL     1     -47.519  45.242  25.799  1.00  0.00    -0.035 A 
ATOM     31  H   UNL     1     -45.693  46.393  25.720  1.00  0.00     0.064 H 
ATOM     32  C   UNL     1     -47.187  42.921  25.921  1.00  0.00     0.051 A 
ATOM     33  H   UNL     1     -48.125  46.141  25.762  1.00  0.00     0.065 H 
ATOM     34  H   UNL     1     -47.520  41.887  25.934  1.00  0.00     0.086 H 
BRANCH  27  35
ATOM     35  C   UNL     1     -43.803  44.422  25.807  1.00  0.00     0.041 C 
ATOM     36  H   UNL     1     -43.589  45.457  26.107  1.00  0.00     0.050 H 
ATOM     37  H   UNL     1     -43.447  44.316  24.775  1.00  0.00     0.050 H 
BRANCH  35  38
ATOM     38  N   UNL     1     -43.085  43.491  26.701  1.00  0.00    -0.297 NA
ATOM     39  C   UNL     1     -42.145  41.500  28.497  1.00  0.00    -0.033 C 
ATOM     40  C   UNL     1     -42.439  42.933  29.011  1.00  0.00    -0.035 C 
ATOM     41  C   UNL     1     -43.221  41.091  27.475  1.00  0.00    -0.035 C 
ATOM     42  C   UNL     1     -43.396  43.730  28.111  1.00  0.00    -0.001 C 
ATOM     43  H   UNL     1     -41.499  43.491  29.119  1.00  0.00     0.029 H 
ATOM     44  H   UNL     1     -42.882  42.901  30.014  1.00  0.00     0.029 H 
ATOM     45  C   UNL     1     -43.376  42.098  26.324  1.00  0.00    -0.001 C 
ATOM     46  H   UNL     1     -44.188  41.004  27.991  1.00  0.00     0.029 H 
ATOM     47  H   UNL     1     -43.008  40.098  27.060  1.00  0.00     0.029 H 
ATOM     48  H   UNL     1     -44.434  43.453  28.331  1.00  0.00     0.043 H 
ATOM     49  H   UNL     1     -43.288  44.788  28.375  1.00  0.00     0.043 H 
ATOM     50  H   UNL     1     -44.397  41.994  25.933  1.00  0.00     0.043 H 
ATOM     51  H   UNL     1     -42.698  41.820  25.507  1.00  0.00     0.043 H 
BRANCH  39  52
ATOM     52  C   UNL     1     -40.745  41.444  27.850  1.00  0.00    -0.060 C 
ATOM     53  H   UNL     1     -39.964  41.346  28.612  1.00  0.00     0.024 H 
ATOM     54  H   UNL     1     -40.522  42.345  27.270  1.00  0.00     0.024 H 
ATOM     55  H   UNL     1     -40.658  40.585  27.175  1.00  0.00     0.024 H 
ENDBRANCH  39  52
BRANCH  39  56
ATOM     56  C   UNL     1     -42.159  40.512  29.677  1.00  0.00    -0.060 C 
ATOM     57  H   UNL     1     -42.777  40.886  30.500  1.00  0.00     0.024 H 
ATOM     58  H   UNL     1     -42.559  39.538  29.372  1.00  0.00     0.024 H 
ATOM     59  H   UNL     1     -41.148  40.349  30.069  1.00  0.00     0.024 H 
ENDBRANCH  39  56
ENDBRANCH  35  38
ENDBRANCH  27  35
ENDBRANCH   1  26
BRANCH   8  60
ATOM     60  C   UNL     1     -49.033  39.855  28.497  1.00  0.00     0.134 A 
ATOM     61  C   UNL     1     -49.422  38.560  28.197  1.00  0.00     0.023 A 
ATOM     62  N   UNL     1     -47.771  40.246  28.257  1.00  0.00    -0.219 NA
ATOM     63  C   UNL     1     -48.472  37.688  27.700  1.00  0.00     0.131 A 
ATOM     64  H   UNL     1     -50.442  38.227  28.329  1.00  0.00     0.070 H 
ATOM     65  C   UNL     1     -46.934  39.342  27.726  1.00  0.00     0.120 A 
ATOM     66  N   UNL     1     -47.219  38.068  27.442  1.00  0.00    -0.219 NA
ATOM     67  H   UNL     1     -45.925  39.677  27.514  1.00  0.00     0.106 H 
BRANCH  63  68
ATOM     68  N   UNL     1     -48.779  36.347  27.431  1.00  0.00    -0.366 N 
ATOM     69  H   UNL     1     -49.042  36.339  26.446  1.00  0.00     0.162 HD
BRANCH  68  70
ATOM     70  C   UNL     1     -47.624  35.468  27.625  1.00  0.00     0.041 C 
ATOM     71  H   UNL     1     -47.635  35.002  28.618  1.00  0.00     0.054 H 
ATOM     72  H   UNL     1     -46.697  36.048  27.531  1.00  0.00     0.054 H 
BRANCH  70  73
ATOM     73  C   UNL     1     -47.640  34.365  26.592  1.00  0.00    -0.029 A 
ATOM     74  C   UNL     1     -46.497  34.089  25.828  1.00  0.00    -0.057 A 
ATOM     75  C   UNL     1     -48.782  33.568  26.412  1.00  0.00    -0.057 A 
ATOM     76  C   UNL     1     -46.497  33.044  24.902  1.00  0.00    -0.062 A 
ATOM     77  H   UNL     1     -45.595  34.684  25.957  1.00  0.00     0.063 H 
ATOM     78  C   UNL     1     -48.780  32.523  25.487  1.00  0.00    -0.062 A 
ATOM     79  H   UNL     1     -49.678  33.766  26.997  1.00  0.00     0.063 H 
ATOM     80  C   UNL     1     -47.638  32.262  24.733  1.00  0.00    -0.062 A 
ATOM     81  H   UNL     1     -45.606  32.839  24.315  1.00  0.00     0.062 H 
ATOM     82  H   UNL     1     -49.672  31.917  25.354  1.00  0.00     0.062 H 
ATOM     83  H   UNL     1     -47.638  31.449  24.011  1.00  0.00     0.062 H 
ENDBRANCH  70  73
ENDBRANCH  68  70
ENDBRANCH  63  68
ENDBRANCH   8  60
TORSDOF 9
ENDMDL
MODEL 5
REMARK VINA RESULT:      -7.2      2.232      5.625
REMARK SMILES CC1(C)CCN(Cc2ccc(N3CCOC4(CCN(c5cc(NCc6ccccc6)ncn5)CC4)C3)cn2)CC1
REMARK SMILES IDX 12 1 13 2 14 3 15 4 16 5 17 6 18 7 19 8 34 9 35 10 36 11
REMARK SMILES IDX 11 26 8 27 9 28 38 29 10 30 37 32 7 35 6 38 2 39 4 40 40 41
REMARK SMILES IDX 5 42 39 45 1 52 3 56 20 60 21 61 33 62 22 63 32 65 31 66
REMARK SMILES IDX 23 68 24 70 25 73 26 74 30 75 27 76 29 78 28 80
REMARK H PARENT 13 12 13 13 14 14 14 15 17 16 17 17 18 18 18 19 34 20 34 21
REMARK H PARENT 35 22 35 23 36 24 36 25 9 31 10 33 37 34 7 36 7 37 4 43 4 44
REMARK H PARENT 40 46 40 47 5 48 5 49 39 50 39 51 1 53 1 54 1 55 3 57 3 58
REMARK H PARENT 3 59 21 64 32 67 23 69 24 71 24 72 26 77 30 79 27 81 29 82
REMARK H PARENT 28 83
REMARK Flexibility Score: inf
ROOT
ATOM      1  N   UNL     1     -49.404  40.991  28.709  1.00  0.00    -0.365 N 
ATOM      2  C   UNL     1     -50.822  40.613  28.827  1.00  0.00     0.041 C 
ATOM      3  C   UNL     1     -51.666  41.811  29.289  1.00  0.00     0.065 C 
ATOM      4  O   UNL     1     -51.578  42.944  28.413  1.00  0.00    -0.371 OA
ATOM      5  C   UNL     1     -50.247  43.202  27.893  1.00  0.00     0.089 C 
ATOM      6  C   UNL     1     -50.262  42.800  26.402  1.00  0.00    -0.004 C 
ATOM      7  C   UNL     1     -48.930  43.106  25.717  1.00  0.00     0.022 C 
ATOM      8  N   UNL     1     -48.395  44.397  26.165  1.00  0.00    -0.356 N 
ATOM      9  C   UNL     1     -49.357  45.327  26.756  1.00  0.00     0.022 C 
ATOM     10  C   UNL     1     -50.008  44.728  28.006  1.00  0.00    -0.004 C 
ATOM     11  C   UNL     1     -49.143  42.443  28.702  1.00  0.00     0.047 C 
ATOM     12  H   UNL     1     -51.198  40.273  27.854  1.00  0.00     0.052 H 
ATOM     13  H   UNL     1     -50.937  39.798  29.550  1.00  0.00     0.052 H 
ATOM     14  H   UNL     1     -51.367  42.134  30.294  1.00  0.00     0.059 H 
ATOM     15  H   UNL     1     -52.721  41.524  29.345  1.00  0.00     0.059 H 
ATOM     16  H   UNL     1     -50.512  41.743  26.263  1.00  0.00     0.032 H 
ATOM     17  H   UNL     1     -51.075  43.339  25.895  1.00  0.00     0.032 H 
ATOM     18  H   UNL     1     -49.072  43.133  24.631  1.00  0.00     0.049 H 
ATOM     19  H   UNL     1     -48.249  42.275  25.929  1.00  0.00     0.049 H 
ATOM     20  H   UNL     1     -50.138  45.528  26.011  1.00  0.00     0.049 H 
ATOM     21  H   UNL     1     -48.926  46.312  26.975  1.00  0.00     0.049 H 
ATOM     22  H   UNL     1     -50.952  45.258  28.193  1.00  0.00     0.032 H 
ATOM     23  H   UNL     1     -49.379  44.945  28.878  1.00  0.00     0.032 H 
ATOM     24  H   UNL     1     -49.149  42.780  29.747  1.00  0.00     0.052 H 
ATOM     25  H   UNL     1     -48.156  42.687  28.309  1.00  0.00     0.052 H 
ENDROOT
BRANCH   1  26
ATOM     26  C   UNL     1     -48.426  40.070  28.373  1.00  0.00     0.055 A 
ATOM     27  C   UNL     1     -46.421  38.197  27.770  1.00  0.00     0.055 A 
ATOM     28  C   UNL     1     -46.809  39.124  26.809  1.00  0.00    -0.037 A 
ATOM     29  N   UNL     1     -46.995  38.157  28.993  1.00  0.00    -0.258 NA
ATOM     30  C   UNL     1     -47.810  40.050  27.118  1.00  0.00    -0.035 A 
ATOM     31  H   UNL     1     -46.331  39.137  25.835  1.00  0.00     0.064 H 
ATOM     32  C   UNL     1     -47.972  39.072  29.246  1.00  0.00     0.051 A 
ATOM     33  H   UNL     1     -48.079  40.768  26.350  1.00  0.00     0.065 H 
ATOM     34  H   UNL     1     -48.413  38.945  30.230  1.00  0.00     0.086 H 
BRANCH  27  35
ATOM     35  C   UNL     1     -45.340  37.175  27.457  1.00  0.00     0.041 C 
ATOM     36  H   UNL     1     -44.775  37.035  28.389  1.00  0.00     0.050 H 
ATOM     37  H   UNL     1     -44.639  37.596  26.727  1.00  0.00     0.050 H 
BRANCH  35  38
ATOM     38  N   UNL     1     -45.855  35.871  26.991  1.00  0.00    -0.297 NA
ATOM     39  C   UNL     1     -47.240  33.471  26.363  1.00  0.00    -0.033 C 
ATOM     40  C   UNL     1     -46.174  33.481  27.490  1.00  0.00    -0.035 C 
ATOM     41  C   UNL     1     -48.057  34.775  26.419  1.00  0.00    -0.035 C 
ATOM     42  C   UNL     1     -45.894  34.878  28.065  1.00  0.00    -0.001 C 
ATOM     43  H   UNL     1     -45.235  33.050  27.118  1.00  0.00     0.029 H 
ATOM     44  H   UNL     1     -46.487  32.839  28.323  1.00  0.00     0.029 H 
ATOM     45  C   UNL     1     -47.183  36.039  26.378  1.00  0.00    -0.001 C 
ATOM     46  H   UNL     1     -48.642  34.790  27.350  1.00  0.00     0.029 H 
ATOM     47  H   UNL     1     -48.787  34.814  25.601  1.00  0.00     0.029 H 
ATOM     48  H   UNL     1     -46.659  35.137  28.806  1.00  0.00     0.043 H 
ATOM     49  H   UNL     1     -44.939  34.824  28.601  1.00  0.00     0.043 H 
ATOM     50  H   UNL     1     -47.749  36.845  26.863  1.00  0.00     0.043 H 
ATOM     51  H   UNL     1     -47.037  36.343  25.333  1.00  0.00     0.043 H 
BRANCH  39  52
ATOM     52  C   UNL     1     -46.558  33.328  24.987  1.00  0.00    -0.060 C 
ATOM     53  H   UNL     1     -47.290  33.086  24.209  1.00  0.00     0.024 H 
ATOM     54  H   UNL     1     -45.803  32.535  24.980  1.00  0.00     0.024 H 
ATOM     55  H   UNL     1     -46.062  34.260  24.694  1.00  0.00     0.024 H 
ENDBRANCH  39  52
BRANCH  39  56
ATOM     56  C   UNL     1     -48.183  32.269  26.550  1.00  0.00    -0.060 C 
ATOM     57  H   UNL     1     -47.924  31.453  25.867  1.00  0.00     0.024 H 
ATOM     58  H   UNL     1     -48.131  31.881  27.574  1.00  0.00     0.024 H 
ATOM     59  H   UNL     1     -49.224  32.549  26.353  1.00  0.00     0.024 H 
ENDBRANCH  39  56
ENDBRANCH  35  38
ENDBRANCH  27  35
ENDBRANCH   1  26
BRANCH   8  60
ATOM     60  C   UNL     1     -47.066  44.490  26.572  1.00  0.00     0.134 A 
ATOM     61  C   UNL     1     -46.072  43.727  25.983  1.00  0.00     0.023 A 
ATOM     62  N   UNL     1     -46.756  45.336  27.569  1.00  0.00    -0.219 NA
ATOM     63  C   UNL     1     -44.786  43.824  26.481  1.00  0.00     0.131 A 
ATOM     64  H   UNL     1     -46.277  43.075  25.145  1.00  0.00     0.070 H 
ATOM     65  C   UNL     1     -45.471  45.398  27.950  1.00  0.00     0.120 A 
ATOM     66  N   UNL     1     -44.462  44.671  27.460  1.00  0.00    -0.219 NA
ATOM     67  H   UNL     1     -45.230  46.102  28.738  1.00  0.00     0.106 H 
BRANCH  63  68
ATOM     68  N   UNL     1     -43.743  43.036  25.974  1.00  0.00    -0.366 N 
ATOM     69  H   UNL     1     -42.911  43.379  26.453  1.00  0.00     0.162 HD
BRANCH  68  70
ATOM     70  C   UNL     1     -43.925  41.617  26.285  1.00  0.00     0.041 C 
ATOM     71  H   UNL     1     -43.527  40.977  25.488  1.00  0.00     0.054 H 
ATOM     72  H   UNL     1     -44.994  41.397  26.397  1.00  0.00     0.054 H 
BRANCH  70  73
ATOM     73  C   UNL     1     -43.198  41.275  27.565  1.00  0.00    -0.029 A 
ATOM     74  C   UNL     1     -43.738  40.344  28.463  1.00  0.00    -0.057 A 
ATOM     75  C   UNL     1     -41.949  41.848  27.854  1.00  0.00    -0.057 A 
ATOM     76  C   UNL     1     -43.048  39.996  29.626  1.00  0.00    -0.062 A 
ATOM     77  H   UNL     1     -44.699  39.876  28.256  1.00  0.00     0.063 H 
ATOM     78  C   UNL     1     -41.261  41.499  29.017  1.00  0.00    -0.062 A 
ATOM     79  H   UNL     1     -41.514  42.572  27.169  1.00  0.00     0.063 H 
ATOM     80  C   UNL     1     -41.810  40.574  29.901  1.00  0.00    -0.062 A 
ATOM     81  H   UNL     1     -43.477  39.273  30.315  1.00  0.00     0.062 H 
ATOM     82  H   UNL     1     -40.297  41.953  29.232  1.00  0.00     0.062 H 
ATOM     83  H   UNL     1     -41.274  40.304  30.808  1.00  0.00     0.062 H 
ENDBRANCH  70  73
ENDBRANCH  68  70
ENDBRANCH  63  68
ENDBRANCH   8  60
TORSDOF 9
ENDMDL
MODEL 6
REMARK VINA RESULT:      -7.2      1.622      5.557
REMARK SMILES CC1(C)CCN(Cc2ccc(N3CCOC4(CCN(c5cc(NCc6ccccc6)ncn5)CC4)C3)cn2)CC1
REMARK SMILES IDX 12 1 13 2 14 3 15 4 16 5 17 6 18 7 19 8 34 9 35 10 36 11
REMARK SMILES IDX 11 26 8 27 9 28 38 29 10 30 37 32 7 35 6 38 2 39 4 40 40 41
REMARK SMILES IDX 5 42 39 45 1 52 3 56 20 60 21 61 33 62 22 63 32 65 31 66
REMARK SMILES IDX 23 68 24 70 25 73 26 74 30 75 27 76 29 78 28 80
REMARK H PARENT 13 12 13 13 14 14 14 15 17 16 17 17 18 18 18 19 34 20 34 21
REMARK H PARENT 35 22 35 23 36 24 36 25 9 31 10 33 37 34 7 36 7 37 4 43 4 44
REMARK H PARENT 40 46 40 47 5 48 5 49 39 50 39 51 1 53 1 54 1 55 3 57 3 58
REMARK H PARENT 3 59 21 64 32 67 23 69 24 71 24 72 26 77 30 79 27 81 29 82
REMARK H PARENT 28 83
REMARK Flexibility Score: inf
ROOT
ATOM      1  N   UNL     1     -46.750  45.354  26.600  1.00  0.00    -0.365 N 
ATOM      2  C   UNL     1     -47.194  46.373  25.635  1.00  0.00     0.041 C 
ATOM      3  C   UNL     1     -45.993  47.158  25.084  1.00  0.00     0.065 C 
ATOM      4  O   UNL     1     -45.016  46.328  24.438  1.00  0.00    -0.371 OA
ATOM      5  C   UNL     1     -44.763  45.065  25.107  1.00  0.00     0.089 C 
ATOM      6  C   UNL     1     -45.404  43.960  24.239  1.00  0.00    -0.004 C 
ATOM      7  C   UNL     1     -45.130  42.565  24.798  1.00  0.00     0.022 C 
ATOM      8  N   UNL     1     -43.752  42.459  25.290  1.00  0.00    -0.356 N 
ATOM      9  C   UNL     1     -42.801  43.440  24.768  1.00  0.00     0.022 C 
ATOM     10  C   UNL     1     -43.226  44.867  25.127  1.00  0.00    -0.004 C 
ATOM     11  C   UNL     1     -45.305  45.057  26.575  1.00  0.00     0.047 C 
ATOM     12  H   UNL     1     -47.713  45.891  24.797  1.00  0.00     0.052 H 
ATOM     13  H   UNL     1     -47.884  47.075  26.117  1.00  0.00     0.052 H 
ATOM     14  H   UNL     1     -45.491  47.715  25.885  1.00  0.00     0.059 H 
ATOM     15  H   UNL     1     -46.334  47.892  24.347  1.00  0.00     0.059 H 
ATOM     16  H   UNL     1     -46.484  44.103  24.122  1.00  0.00     0.032 H 
ATOM     17  H   UNL     1     -45.009  44.036  23.215  1.00  0.00     0.032 H 
ATOM     18  H   UNL     1     -45.292  41.815  24.015  1.00  0.00     0.049 H 
ATOM     19  H   UNL     1     -45.870  42.371  25.583  1.00  0.00     0.049 H 
ATOM     20  H   UNL     1     -42.776  43.342  23.674  1.00  0.00     0.049 H 
ATOM     21  H   UNL     1     -41.767  43.251  25.085  1.00  0.00     0.049 H 
ATOM     22  H   UNL     1     -42.735  45.561  24.431  1.00  0.00     0.032 H 
ATOM     23  H   UNL     1     -42.829  45.122  26.117  1.00  0.00     0.032 H 
ATOM     24  H   UNL     1     -44.802  45.836  27.162  1.00  0.00     0.052 H 
ATOM     25  H   UNL     1     -45.066  44.109  27.058  1.00  0.00     0.052 H 
ENDROOT
BRANCH   1  26
ATOM     26  C   UNL     1     -47.649  44.559  27.290  1.00  0.00     0.055 A 
ATOM     27  C   UNL     1     -49.451  42.980  28.759  1.00  0.00     0.055 A 
ATOM     28  C   UNL     1     -48.913  42.490  27.574  1.00  0.00    -0.037 A 
ATOM     29  N   UNL     1     -49.144  44.212  29.223  1.00  0.00    -0.258 NA
ATOM     30  C   UNL     1     -48.019  43.284  26.849  1.00  0.00    -0.035 A 
ATOM     31  H   UNL     1     -49.173  41.496  27.223  1.00  0.00     0.064 H 
ATOM     32  C   UNL     1     -48.277  44.954  28.479  1.00  0.00     0.051 A 
ATOM     33  H   UNL     1     -47.607  42.865  25.936  1.00  0.00     0.065 H 
ATOM     34  H   UNL     1     -48.118  45.944  28.894  1.00  0.00     0.086 H 
BRANCH  27  35
ATOM     35  C   UNL     1     -50.429  42.140  29.562  1.00  0.00     0.041 C 
ATOM     36  H   UNL     1     -51.311  42.775  29.728  1.00  0.00     0.050 H 
ATOM     37  H   UNL     1     -50.004  41.931  30.552  1.00  0.00     0.050 H 
BRANCH  35  38
ATOM     38  N   UNL     1     -50.841  40.887  28.898  1.00  0.00    -0.297 NA
ATOM     39  C   UNL     1     -51.620  38.282  28.071  1.00  0.00    -0.033 C 
ATOM     40  C   UNL     1     -50.137  38.723  27.957  1.00  0.00    -0.035 C 
ATOM     41  C   UNL     1     -52.216  38.825  29.383  1.00  0.00    -0.035 C 
ATOM     42  C   UNL     1     -49.766  39.894  28.880  1.00  0.00    -0.001 C 
ATOM     43  H   UNL     1     -49.908  38.997  26.918  1.00  0.00     0.029 H 
ATOM     44  H   UNL     1     -49.466  37.889  28.199  1.00  0.00     0.029 H 
ATOM     45  C   UNL     1     -52.050  40.345  29.540  1.00  0.00    -0.001 C 
ATOM     46  H   UNL     1     -51.717  38.333  30.230  1.00  0.00     0.029 H 
ATOM     47  H   UNL     1     -53.279  38.566  29.464  1.00  0.00     0.029 H 
ATOM     48  H   UNL     1     -49.564  39.523  29.891  1.00  0.00     0.043 H 
ATOM     49  H   UNL     1     -48.828  40.320  28.505  1.00  0.00     0.043 H 
ATOM     50  H   UNL     1     -52.066  40.566  30.615  1.00  0.00     0.043 H 
ATOM     51  H   UNL     1     -52.921  40.850  29.102  1.00  0.00     0.043 H 
BRANCH  39  52
ATOM     52  C   UNL     1     -52.424  38.806  26.862  1.00  0.00    -0.060 C 
ATOM     53  H   UNL     1     -53.268  39.422  27.191  1.00  0.00     0.024 H 
ATOM     54  H   UNL     1     -52.832  37.992  26.254  1.00  0.00     0.024 H 
ATOM     55  H   UNL     1     -51.797  39.425  26.211  1.00  0.00     0.024 H 
ENDBRANCH  39  52
BRANCH  39  56
ATOM     56  C   UNL     1     -51.707  36.746  28.067  1.00  0.00    -0.060 C 
ATOM     57  H   UNL     1     -51.486  36.340  27.074  1.00  0.00     0.024 H 
ATOM     58  H   UNL     1     -50.996  36.307  28.775  1.00  0.00     0.024 H 
ATOM     59  H   UNL     1     -52.711  36.406  28.348  1.00  0.00     0.024 H 
ENDBRANCH  39  56
ENDBRANCH  35  38
ENDBRANCH  27  35
ENDBRANCH   1  26
BRANCH   8  60
ATOM     60  C   UNL     1     -43.507  41.925  26.553  1.00  0.00     0.134 A 
ATOM     61  C   UNL     1     -44.135  40.769  26.985  1.00  0.00     0.023 A 
ATOM     62  N   UNL     1     -42.650  42.563  27.367  1.00  0.00    -0.219 NA
ATOM     63  C   UNL     1     -43.893  40.332  28.274  1.00  0.00     0.131 A 
ATOM     64  H   UNL     1     -44.791  40.202  26.339  1.00  0.00     0.070 H 
ATOM     65  C   UNL     1     -42.441  42.035  28.582  1.00  0.00     0.120 A 
ATOM     66  N   UNL     1     -43.033  40.948  29.087  1.00  0.00    -0.219 NA
ATOM     67  H   UNL     1     -41.728  42.545  29.220  1.00  0.00     0.106 H 
BRANCH  63  68
ATOM     68  N   UNL     1     -44.541  39.204  28.798  1.00  0.00    -0.366 N 
ATOM     69  H   UNL     1     -44.518  39.346  29.808  1.00  0.00     0.162 HD
BRANCH  68  70
ATOM     70  C   UNL     1     -45.934  39.115  28.358  1.00  0.00     0.041 C 
ATOM     71  H   UNL     1     -46.108  39.708  27.451  1.00  0.00     0.054 H 
ATOM     72  H   UNL     1     -46.597  39.496  29.146  1.00  0.00     0.054 H 
BRANCH  70  73
ATOM     73  C   UNL     1     -46.283  37.678  28.050  1.00  0.00    -0.029 A 
ATOM     74  C   UNL     1     -46.920  37.342  26.847  1.00  0.00    -0.057 A 
ATOM     75  C   UNL     1     -45.935  36.649  28.940  1.00  0.00    -0.057 A 
ATOM     76  C   UNL     1     -47.206  36.010  26.542  1.00  0.00    -0.062 A 
ATOM     77  H   UNL     1     -47.190  38.119  26.134  1.00  0.00     0.063 H 
ATOM     78  C   UNL     1     -46.222  35.318  28.635  1.00  0.00    -0.062 A 
ATOM     79  H   UNL     1     -45.440  36.890  29.879  1.00  0.00     0.063 H 
ATOM     80  C   UNL     1     -46.856  34.999  27.436  1.00  0.00    -0.062 A 
ATOM     81  H   UNL     1     -47.700  35.761  25.607  1.00  0.00     0.062 H 
ATOM     82  H   UNL     1     -45.951  34.532  29.335  1.00  0.00     0.062 H 
ATOM     83  H   UNL     1     -47.081  33.962  27.200  1.00  0.00     0.062 H 
ENDBRANCH  70  73
ENDBRANCH  68  70
ENDBRANCH  63  68
ENDBRANCH   8  60
TORSDOF 9
ENDMDL
MODEL 7
REMARK VINA RESULT:      -7.2      6.527     13.110
REMARK SMILES CC1(C)CCN(Cc2ccc(N3CCOC4(CCN(c5cc(NCc6ccccc6)ncn5)CC4)C3)cn2)CC1
REMARK SMILES IDX 12 1 13 2 14 3 15 4 16 5 17 6 18 7 19 8 34 9 35 10 36 11
REMARK SMILES IDX 11 26 8 27 9 28 38 29 10 30 37 32 7 35 6 38 2 39 4 40 40 41
REMARK SMILES IDX 5 42 39 45 1 52 3 56 20 60 21 61 33 62 22 63 32 65 31 66
REMARK SMILES IDX 23 68 24 70 25 73 26 74 30 75 27 76 29 78 28 80
REMARK H PARENT 13 12 13 13 14 14 14 15 17 16 17 17 18 18 18 19 34 20 34 21
REMARK H PARENT 35 22 35 23 36 24 36 25 9 31 10 33 37 34 7 36 7 37 4 43 4 44
REMARK H PARENT 40 46 40 47 5 48 5 49 39 50 39 51 1 53 1 54 1 55 3 57 3 58
REMARK H PARENT 3 59 21 64 32 67 23 69 24 71 24 72 26 77 30 79 27 81 29 82
REMARK H PARENT 28 83
REMARK Flexibility Score: inf
ROOT
ATOM      1  N   UNL     1     -47.241  30.999  22.231  1.00  0.00    -0.365 N 
ATOM      2  C   UNL     1     -46.658  31.730  21.094  1.00  0.00     0.041 C 
ATOM      3  C   UNL     1     -46.818  30.926  19.794  1.00  0.00     0.065 C 
ATOM      4  O   UNL     1     -48.183  30.620  19.475  1.00  0.00    -0.371 OA
ATOM      5  C   UNL     1     -48.999  30.248  20.617  1.00  0.00     0.089 C 
ATOM      6  C   UNL     1     -49.952  31.432  20.893  1.00  0.00    -0.004 C 
ATOM      7  C   UNL     1     -50.928  31.125  22.028  1.00  0.00     0.022 C 
ATOM      8  N   UNL     1     -51.416  29.744  21.941  1.00  0.00    -0.356 N 
ATOM      9  C   UNL     1     -51.296  29.096  20.634  1.00  0.00     0.022 C 
ATOM     10  C   UNL     1     -49.833  29.014  20.191  1.00  0.00    -0.004 C 
ATOM     11  C   UNL     1     -48.131  29.881  21.866  1.00  0.00     0.047 C 
ATOM     12  H   UNL     1     -47.165  32.695  20.974  1.00  0.00     0.052 H 
ATOM     13  H   UNL     1     -45.593  31.914  21.269  1.00  0.00     0.052 H 
ATOM     14  H   UNL     1     -46.261  29.982  19.849  1.00  0.00     0.059 H 
ATOM     15  H   UNL     1     -46.406  31.493  18.953  1.00  0.00     0.059 H 
ATOM     16  H   UNL     1     -49.407  32.355  21.116  1.00  0.00     0.032 H 
ATOM     17  H   UNL     1     -50.510  31.663  19.973  1.00  0.00     0.032 H 
ATOM     18  H   UNL     1     -51.780  31.812  21.977  1.00  0.00     0.049 H 
ATOM     19  H   UNL     1     -50.411  31.327  22.973  1.00  0.00     0.049 H 
ATOM     20  H   UNL     1     -51.855  29.697  19.905  1.00  0.00     0.049 H 
ATOM     21  H   UNL     1     -51.771  28.108  20.598  1.00  0.00     0.049 H 
ATOM     22  H   UNL     1     -49.808  28.885  19.100  1.00  0.00     0.032 H 
ATOM     23  H   UNL     1     -49.384  28.100  20.599  1.00  0.00     0.032 H 
ATOM     24  H   UNL     1     -47.493  29.018  21.635  1.00  0.00     0.052 H 
ATOM     25  H   UNL     1     -48.773  29.572  22.691  1.00  0.00     0.052 H 
ENDROOT
BRANCH   1  26
ATOM     26  C   UNL     1     -47.165  31.481  23.527  1.00  0.00     0.055 A 
ATOM     27  C   UNL     1     -46.932  32.458  26.151  1.00  0.00     0.055 A 
ATOM     28  C   UNL     1     -48.038  31.693  25.797  1.00  0.00    -0.037 A 
ATOM     29  N   UNL     1     -45.964  32.764  25.260  1.00  0.00    -0.258 NA
ATOM     30  C   UNL     1     -48.146  31.214  24.488  1.00  0.00    -0.035 A 
ATOM     31  H   UNL     1     -48.801  31.459  26.532  1.00  0.00     0.064 H 
ATOM     32  C   UNL     1     -46.116  32.284  23.994  1.00  0.00     0.051 A 
ATOM     33  H   UNL     1     -49.015  30.608  24.249  1.00  0.00     0.065 H 
ATOM     34  H   UNL     1     -45.322  32.611  23.329  1.00  0.00     0.086 H 
BRANCH  27  35
ATOM     35  C   UNL     1     -46.793  32.997  27.565  1.00  0.00     0.041 C 
ATOM     36  H   UNL     1     -45.895  32.525  27.985  1.00  0.00     0.050 H 
ATOM     37  H   UNL     1     -47.640  32.653  28.172  1.00  0.00     0.050 H 
BRANCH  35  38
ATOM     38  N   UNL     1     -46.662  34.466  27.644  1.00  0.00    -0.297 NA
ATOM     39  C   UNL     1     -46.749  37.262  28.147  1.00  0.00    -0.033 C 
ATOM     40  C   UNL     1     -47.564  36.658  26.974  1.00  0.00    -0.035 C 
ATOM     41  C   UNL     1     -46.815  36.314  29.359  1.00  0.00    -0.035 C 
ATOM     42  C   UNL     1     -47.844  35.154  27.124  1.00  0.00    -0.001 C 
ATOM     43  H   UNL     1     -47.039  36.833  26.025  1.00  0.00     0.029 H 
ATOM     44  H   UNL     1     -48.533  37.164  26.875  1.00  0.00     0.029 H 
ATOM     45  C   UNL     1     -46.377  34.878  29.028  1.00  0.00    -0.001 C 
ATOM     46  H   UNL     1     -47.849  36.283  29.730  1.00  0.00     0.029 H 
ATOM     47  H   UNL     1     -46.205  36.696  30.187  1.00  0.00     0.029 H 
ATOM     48  H   UNL     1     -48.705  34.998  27.785  1.00  0.00     0.043 H 
ATOM     49  H   UNL     1     -48.131  34.776  26.136  1.00  0.00     0.043 H 
ATOM     50  H   UNL     1     -46.865  34.212  29.752  1.00  0.00     0.043 H 
ATOM     51  H   UNL     1     -45.296  34.783  29.194  1.00  0.00     0.043 H 
BRANCH  39  52
ATOM     52  C   UNL     1     -45.282  37.478  27.718  1.00  0.00    -0.060 C 
ATOM     53  H   UNL     1     -44.708  37.965  28.515  1.00  0.00     0.024 H 
ATOM     54  H   UNL     1     -45.201  38.109  26.827  1.00  0.00     0.024 H 
ATOM     55  H   UNL     1     -44.793  36.524  27.495  1.00  0.00     0.024 H 
ENDBRANCH  39  52
BRANCH  39  56
ATOM     56  C   UNL     1     -47.334  38.630  28.536  1.00  0.00    -0.060 C 
ATOM     57  H   UNL     1     -48.282  38.517  29.074  1.00  0.00     0.024 H 
ATOM     58  H   UNL     1     -46.645  39.186  29.183  1.00  0.00     0.024 H 
ATOM     59  H   UNL     1     -47.527  39.245  27.650  1.00  0.00     0.024 H 
ENDBRANCH  39  56
ENDBRANCH  35  38
ENDBRANCH  27  35
ENDBRANCH   1  26
BRANCH   8  60
ATOM     60  C   UNL     1     -51.400  28.932  23.073  1.00  0.00     0.134 A 
ATOM     61  C   UNL     1     -50.402  29.039  24.027  1.00  0.00     0.023 A 
ATOM     62  N   UNL     1     -52.375  28.021  23.225  1.00  0.00    -0.219 NA
ATOM     63  C   UNL     1     -50.415  28.158  25.092  1.00  0.00     0.131 A 
ATOM     64  H   UNL     1     -49.632  29.795  23.963  1.00  0.00     0.070 H 
ATOM     65  C   UNL     1     -52.330  27.244  24.317  1.00  0.00     0.120 A 
ATOM     66  N   UNL     1     -51.386  27.258  25.263  1.00  0.00    -0.219 NA
ATOM     67  H   UNL     1     -53.136  26.530  24.441  1.00  0.00     0.106 H 
BRANCH  63  68
ATOM     68  N   UNL     1     -49.403  28.168  26.062  1.00  0.00    -0.366 N 
ATOM     69  H   UNL     1     -49.875  28.457  26.918  1.00  0.00     0.162 HD
BRANCH  68  70
ATOM     70  C   UNL     1     -48.820  26.839  26.262  1.00  0.00     0.041 C 
ATOM     71  H   UNL     1     -49.518  26.045  25.971  1.00  0.00     0.054 H 
ATOM     72  H   UNL     1     -48.569  26.701  27.322  1.00  0.00     0.054 H 
BRANCH  70  73
ATOM     73  C   UNL     1     -47.572  26.696  25.421  1.00  0.00    -0.029 A 
ATOM     74  C   UNL     1     -46.810  25.520  25.474  1.00  0.00    -0.057 A 
ATOM     75  C   UNL     1     -47.181  27.716  24.539  1.00  0.00    -0.057 A 
ATOM     76  C   UNL     1     -45.681  25.369  24.667  1.00  0.00    -0.062 A 
ATOM     77  H   UNL     1     -47.099  24.709  26.140  1.00  0.00     0.063 H 
ATOM     78  C   UNL     1     -46.052  27.563  23.733  1.00  0.00    -0.062 A 
ATOM     79  H   UNL     1     -47.761  28.635  24.484  1.00  0.00     0.063 H 
ATOM     80  C   UNL     1     -45.303  26.391  23.797  1.00  0.00    -0.062 A 
ATOM     81  H   UNL     1     -45.097  24.454  24.717  1.00  0.00     0.062 H 
ATOM     82  H   UNL     1     -45.758  28.362  23.059  1.00  0.00     0.062 H 
ATOM     83  H   UNL     1     -44.423  26.274  23.171  1.00  0.00     0.062 H 
ENDBRANCH  70  73
ENDBRANCH  68  70
ENDBRANCH  63  68
ENDBRANCH   8  60
TORSDOF 9
ENDMDL
