MODEL 1
REMARK VINA RESULT:      -9.9      0.000      0.000
REMARK SMILES Cn1ccc(-c2cn(-c3cncc(COc4ccc(CN5CCC(CO)CC5)c(N)c4)c3)c3ncnc(N)c23)n1
REMARK SMILES IDX 15 1 14 2 13 5 9 6 10 7 32 8 11 9 12 12 8 14 6 15 7 16 39 17
REMARK SMILES IDX 33 19 37 20 34 21 36 22 35 23 5 25 2 26 3 27 40 28 4 29 1 32
REMARK SMILES IDX 38 36 16 39 17 40 31 41 18 42 29 44 19 46 30 48 20 51 21 54
REMARK SMILES IDX 22 55 28 56 23 57 27 60 24 63 25 69 26 72
REMARK H PARENT 14 3 14 4 10 10 32 11 12 13 7 18 35 24 3 30 4 31 1 33 1 34
REMARK H PARENT 1 35 38 37 38 38 17 43 31 45 18 47 30 49 30 50 20 52 20 53
REMARK H PARENT 22 58 22 59 28 61 28 62 23 64 23 65 27 66 27 67 24 68 25 70
REMARK H PARENT 25 71 26 73
REMARK Flexibility Score: inf
ROOT
ATOM      1  O   UNL     1     -48.207  33.602  26.648  1.00  0.00    -0.489 OA
ENDROOT
BRANCH   1   2
ATOM      2  C   UNL     1     -47.050  34.431  26.781  1.00  0.00     0.115 C 
ATOM      3  H   UNL     1     -46.591  34.487  25.786  1.00  0.00     0.076 H 
ATOM      4  H   UNL     1     -46.300  33.961  27.430  1.00  0.00     0.076 H 
BRANCH   2   5
ATOM      5  C   UNL     1     -47.375  35.839  27.206  1.00  0.00     0.010 A 
ATOM      6  C   UNL     1     -46.712  38.159  27.528  1.00  0.00     0.066 A 
ATOM      7  C   UNL     1     -48.031  38.400  27.909  1.00  0.00     0.051 A 
ATOM      8  C   UNL     1     -46.398  36.845  27.165  1.00  0.00    -0.028 A 
ATOM      9  N   UNL     1     -49.005  37.459  27.946  1.00  0.00    -0.262 NA
ATOM     10  H   UNL     1     -48.398  39.380  28.194  1.00  0.00     0.086 H 
ATOM     11  H   UNL     1     -45.397  36.559  26.864  1.00  0.00     0.065 H 
ATOM     12  C   UNL     1     -48.657  36.203  27.593  1.00  0.00     0.034 A 
ATOM     13  H   UNL     1     -49.464  35.476  27.636  1.00  0.00     0.084 H 
BRANCH   6  14
ATOM     14  N   UNL     1     -45.743  39.214  27.520  1.00  0.00    -0.299 N 
ATOM     15  C   UNL     1     -44.640  41.079  26.874  1.00  0.00     0.033 A 
ATOM     16  C   UNL     1     -45.693  40.236  26.585  1.00  0.00     0.021 A 
ATOM     17  C   UNL     1     -44.005  40.584  28.046  1.00  0.00     0.071 A 
ATOM     18  H   UNL     1     -46.408  40.304  25.779  1.00  0.00     0.083 H 
ATOM     19  C   UNL     1     -44.689  39.424  28.413  1.00  0.00     0.150 A 
ATOM     20  C   UNL     1     -42.923  40.963  28.862  1.00  0.00     0.137 A 
ATOM     21  N   UNL     1     -44.361  38.634  29.457  1.00  0.00    -0.218 NA
ATOM     22  N   UNL     1     -42.574  40.181  29.900  1.00  0.00    -0.219 NA
ATOM     23  C   UNL     1     -43.299  39.081  30.138  1.00  0.00     0.120 A 
ATOM     24  H   UNL     1     -42.986  38.481  30.987  1.00  0.00     0.106 H 
BRANCH  15  25
ATOM     25  C   UNL     1     -44.249  42.260  26.096  1.00  0.00     0.095 A 
ATOM     26  N   UNL     1     -43.392  43.496  24.608  1.00  0.00    -0.275 N 
ATOM     27  C   UNL     1     -44.085  44.357  25.406  1.00  0.00     0.025 A 
ATOM     28  N   UNL     1     -43.479  42.211  25.001  1.00  0.00    -0.173 NA
ATOM     29  C   UNL     1     -44.659  43.581  26.385  1.00  0.00    -0.016 A 
ATOM     30  H   UNL     1     -44.113  45.422  25.219  1.00  0.00     0.084 H 
ATOM     31  H   UNL     1     -45.281  43.928  27.198  1.00  0.00     0.066 H 
BRANCH  26  32
ATOM     32  C   UNL     1     -42.613  43.831  23.441  1.00  0.00     0.030 C 
ATOM     33  H   UNL     1     -41.786  43.121  23.364  1.00  0.00     0.048 H 
ATOM     34  H   UNL     1     -42.236  44.850  23.559  1.00  0.00     0.048 H 
ATOM     35  H   UNL     1     -43.244  43.766  22.551  1.00  0.00     0.048 H 
ENDBRANCH  26  32
ENDBRANCH  15  25
BRANCH  20  36
ATOM     36  N   UNL     1     -42.166  42.110  28.671  1.00  0.00    -0.383 N 
ATOM     37  H   UNL     1     -42.676  42.940  28.941  1.00  0.00     0.158 HD
ATOM     38  H   UNL     1     -41.214  42.017  29.033  1.00  0.00     0.158 HD
ENDBRANCH  20  36
ENDBRANCH   6  14
ENDBRANCH   2   5
ENDBRANCH   1   2
BRANCH   1  39
ATOM     39  C   UNL     1     -48.255  32.710  25.612  1.00  0.00     0.121 A 
ATOM     40  C   UNL     1     -49.399  32.149  25.061  1.00  0.00    -0.019 A 
ATOM     41  C   UNL     1     -47.008  32.376  25.074  1.00  0.00     0.003 A 
ATOM     42  C   UNL     1     -49.288  31.281  23.971  1.00  0.00    -0.052 A 
ATOM     43  H   UNL     1     -50.394  32.381  25.423  1.00  0.00     0.066 H 
ATOM     44  C   UNL     1     -46.875  31.454  24.022  1.00  0.00     0.040 A 
ATOM     45  H   UNL     1     -46.120  32.839  25.498  1.00  0.00     0.068 H 
ATOM     46  C   UNL     1     -48.038  30.956  23.408  1.00  0.00    -0.011 A 
ATOM     47  H   UNL     1     -50.199  30.871  23.535  1.00  0.00     0.063 H 
BRANCH  44  48
ATOM     48  N   UNL     1     -45.590  31.228  23.498  1.00  0.00    -0.398 N 
ATOM     49  H   UNL     1     -45.436  31.631  22.580  1.00  0.00     0.156 HD
ATOM     50  H   UNL     1     -45.307  30.253  23.529  1.00  0.00     0.156 HD
ENDBRANCH  44  48
BRANCH  46  51
ATOM     51  C   UNL     1     -47.988  30.026  22.205  1.00  0.00     0.025 C 
ATOM     52  H   UNL     1     -46.977  30.132  21.789  1.00  0.00     0.048 H 
ATOM     53  H   UNL     1     -48.691  30.345  21.426  1.00  0.00     0.048 H 
BRANCH  51  54
ATOM     54  N   UNL     1     -48.248  28.605  22.519  1.00  0.00    -0.299 NA
ATOM     55  C   UNL     1     -49.694  28.374  22.658  1.00  0.00    -0.001 C 
ATOM     56  C   UNL     1     -47.468  28.142  23.681  1.00  0.00    -0.001 C 
ATOM     57  C   UNL     1     -49.988  27.006  23.271  1.00  0.00    -0.035 C 
ATOM     58  H   UNL     1     -50.156  28.420  21.664  1.00  0.00     0.043 H 
ATOM     59  H   UNL     1     -50.166  29.155  23.266  1.00  0.00     0.043 H 
ATOM     60  C   UNL     1     -48.305  27.915  24.939  1.00  0.00    -0.035 C 
ATOM     61  H   UNL     1     -46.640  28.818  23.922  1.00  0.00     0.043 H 
ATOM     62  H   UNL     1     -46.997  27.191  23.399  1.00  0.00     0.043 H 
ATOM     63  C   UNL     1     -49.412  26.877  24.693  1.00  0.00    -0.016 C 
ATOM     64  H   UNL     1     -49.541  26.230  22.635  1.00  0.00     0.028 H 
ATOM     65  H   UNL     1     -51.068  26.815  23.261  1.00  0.00     0.028 H 
ATOM     66  H   UNL     1     -47.658  27.567  25.754  1.00  0.00     0.028 H 
ATOM     67  H   UNL     1     -48.725  28.873  25.268  1.00  0.00     0.028 H 
ATOM     68  H   UNL     1     -48.967  25.876  24.778  1.00  0.00     0.033 H 
BRANCH  63  69
ATOM     69  C   UNL     1     -50.502  26.972  25.766  1.00  0.00     0.046 C 
ATOM     70  H   UNL     1     -50.558  26.039  26.336  1.00  0.00     0.057 H 
ATOM     71  H   UNL     1     -50.284  27.787  26.464  1.00  0.00     0.057 H 
BRANCH  69  72
ATOM     72  O   UNL     1     -51.773  27.209  25.176  1.00  0.00    -0.396 OA
ATOM     73  H   UNL     1     -52.119  26.345  24.891  1.00  0.00     0.210 HD
ENDBRANCH  69  72
ENDBRANCH  63  69
ENDBRANCH  51  54
ENDBRANCH  46  51
ENDBRANCH   1  39
TORSDOF 12
ENDMDL
MODEL 2
REMARK VINA RESULT:      -9.6      1.704      2.360
REMARK SMILES Cn1ccc(-c2cn(-c3cncc(COc4ccc(CN5CCC(CO)CC5)c(N)c4)c3)c3ncnc(N)c23)n1
REMARK SMILES IDX 15 1 14 2 13 5 9 6 10 7 32 8 11 9 12 12 8 14 6 15 7 16 39 17
REMARK SMILES IDX 33 19 37 20 34 21 36 22 35 23 5 25 2 26 3 27 40 28 4 29 1 32
REMARK SMILES IDX 38 36 16 39 17 40 31 41 18 42 29 44 19 46 30 48 20 51 21 54
REMARK SMILES IDX 22 55 28 56 23 57 27 60 24 63 25 69 26 72
REMARK H PARENT 14 3 14 4 10 10 32 11 12 13 7 18 35 24 3 30 4 31 1 33 1 34
REMARK H PARENT 1 35 38 37 38 38 17 43 31 45 18 47 30 49 30 50 20 52 20 53
REMARK H PARENT 22 58 22 59 28 61 28 62 23 64 23 65 27 66 27 67 24 68 25 70
REMARK H PARENT 25 71 26 73
REMARK Flexibility Score: inf
ROOT
ATOM      1  O   UNL     1     -48.714  34.702  27.498  1.00  0.00    -0.489 OA
ENDROOT
BRANCH   1   2
ATOM      2  C   UNL     1     -48.552  36.089  27.193  1.00  0.00     0.115 C 
ATOM      3  H   UNL     1     -49.440  36.599  27.585  1.00  0.00     0.076 H 
ATOM      4  H   UNL     1     -48.564  36.259  26.109  1.00  0.00     0.076 H 
BRANCH   2   5
ATOM      5  C   UNL     1     -47.349  36.705  27.859  1.00  0.00     0.010 A 
ATOM      6  C   UNL     1     -45.696  38.486  28.015  1.00  0.00     0.066 A 
ATOM      7  C   UNL     1     -45.215  37.832  29.147  1.00  0.00     0.051 A 
ATOM      8  C   UNL     1     -46.793  37.898  27.374  1.00  0.00    -0.028 A 
ATOM      9  N   UNL     1     -45.734  36.688  29.654  1.00  0.00    -0.262 NA
ATOM     10  H   UNL     1     -44.383  38.199  29.737  1.00  0.00     0.086 H 
ATOM     11  H   UNL     1     -47.231  38.329  26.481  1.00  0.00     0.065 H 
ATOM     12  C   UNL     1     -46.788  36.152  29.001  1.00  0.00     0.034 A 
ATOM     13  H   UNL     1     -47.176  35.234  29.437  1.00  0.00     0.084 H 
BRANCH   6  14
ATOM     14  N   UNL     1     -45.085  39.693  27.544  1.00  0.00    -0.299 N 
ATOM     15  C   UNL     1     -44.684  41.509  26.257  1.00  0.00     0.033 A 
ATOM     16  C   UNL     1     -45.484  40.396  26.418  1.00  0.00     0.021 A 
ATOM     17  C   UNL     1     -43.752  41.523  27.331  1.00  0.00     0.071 A 
ATOM     18  H   UNL     1     -46.309  40.067  25.806  1.00  0.00     0.083 H 
ATOM     19  C   UNL     1     -44.005  40.385  28.098  1.00  0.00     0.150 A 
ATOM     20  C   UNL     1     -42.705  42.358  27.767  1.00  0.00     0.137 A 
ATOM     21  N   UNL     1     -43.298  40.017  29.188  1.00  0.00    -0.218 NA
ATOM     22  N   UNL     1     -41.983  42.001  28.844  1.00  0.00    -0.219 NA
ATOM     23  C   UNL     1     -42.313  40.873  29.485  1.00  0.00     0.120 A 
ATOM     24  H   UNL     1     -41.707  40.624  30.351  1.00  0.00     0.106 H 
BRANCH  15  25
ATOM     25  C   UNL     1     -44.780  42.483  25.165  1.00  0.00     0.095 A 
ATOM     26  N   UNL     1     -45.392  44.129  23.984  1.00  0.00    -0.275 N 
ATOM     27  C   UNL     1     -44.359  43.576  23.287  1.00  0.00     0.025 A 
ATOM     28  N   UNL     1     -45.666  43.487  25.136  1.00  0.00    -0.173 NA
ATOM     29  C   UNL     1     -43.935  42.501  24.032  1.00  0.00    -0.016 A 
ATOM     30  H   UNL     1     -44.020  43.980  22.343  1.00  0.00     0.084 H 
ATOM     31  H   UNL     1     -43.132  41.823  23.783  1.00  0.00     0.066 H 
BRANCH  26  32
ATOM     32  C   UNL     1     -46.174  45.282  23.610  1.00  0.00     0.030 C 
ATOM     33  H   UNL     1     -46.693  45.649  24.499  1.00  0.00     0.048 H 
ATOM     34  H   UNL     1     -46.891  44.978  22.843  1.00  0.00     0.048 H 
ATOM     35  H   UNL     1     -45.512  46.058  23.217  1.00  0.00     0.048 H 
ENDBRANCH  26  32
ENDBRANCH  15  25
BRANCH  20  36
ATOM     36  N   UNL     1     -42.351  43.550  27.153  1.00  0.00    -0.383 N 
ATOM     37  H   UNL     1     -41.457  43.886  27.483  1.00  0.00     0.158 HD
ATOM     38  H   UNL     1     -42.487  43.524  26.138  1.00  0.00     0.158 HD
ENDBRANCH  20  36
ENDBRANCH   6  14
ENDBRANCH   2   5
ENDBRANCH   1   2
BRANCH   1  39
ATOM     39  C   UNL     1     -48.246  33.779  26.603  1.00  0.00     0.121 A 
ATOM     40  C   UNL     1     -46.919  33.418  26.410  1.00  0.00    -0.019 A 
ATOM     41  C   UNL     1     -49.238  33.147  25.847  1.00  0.00     0.003 A 
ATOM     42  C   UNL     1     -46.600  32.422  25.483  1.00  0.00    -0.052 A 
ATOM     43  H   UNL     1     -46.107  33.860  26.975  1.00  0.00     0.066 H 
ATOM     44  C   UNL     1     -48.929  32.191  24.865  1.00  0.00     0.040 A 
ATOM     45  H   UNL     1     -50.276  33.420  26.023  1.00  0.00     0.068 H 
ATOM     46  C   UNL     1     -47.595  31.764  24.733  1.00  0.00    -0.011 A 
ATOM     47  H   UNL     1     -45.556  32.135  25.364  1.00  0.00     0.063 H 
BRANCH  44  48
ATOM     48  N   UNL     1     -49.993  31.557  24.199  1.00  0.00    -0.398 N 
ATOM     49  H   UNL     1     -50.556  32.176  23.626  1.00  0.00     0.156 HD
ATOM     50  H   UNL     1     -50.571  30.989  24.812  1.00  0.00     0.156 HD
ENDBRANCH  44  48
BRANCH  46  51
ATOM     51  C   UNL     1     -47.185  30.669  23.760  1.00  0.00     0.025 C 
ATOM     52  H   UNL     1     -46.127  30.465  23.971  1.00  0.00     0.048 H 
ATOM     53  H   UNL     1     -47.243  31.016  22.721  1.00  0.00     0.048 H 
BRANCH  51  54
ATOM     54  N   UNL     1     -47.965  29.419  23.881  1.00  0.00    -0.299 NA
ATOM     55  C   UNL     1     -48.294  29.163  25.291  1.00  0.00    -0.001 C 
ATOM     56  C   UNL     1     -47.298  28.282  23.221  1.00  0.00    -0.001 C 
ATOM     57  C   UNL     1     -48.831  27.748  25.496  1.00  0.00    -0.035 C 
ATOM     58  H   UNL     1     -49.062  29.878  25.610  1.00  0.00     0.043 H 
ATOM     59  H   UNL     1     -47.423  29.319  25.939  1.00  0.00     0.043 H 
ATOM     60  C   UNL     1     -46.708  27.261  24.192  1.00  0.00    -0.035 C 
ATOM     61  H   UNL     1     -46.513  28.607  22.527  1.00  0.00     0.043 H 
ATOM     62  H   UNL     1     -48.050  27.779  22.600  1.00  0.00     0.043 H 
ATOM     63  C   UNL     1     -47.792  26.678  25.115  1.00  0.00    -0.016 C 
ATOM     64  H   UNL     1     -49.724  27.614  24.869  1.00  0.00     0.028 H 
ATOM     65  H   UNL     1     -49.171  27.620  26.530  1.00  0.00     0.028 H 
ATOM     66  H   UNL     1     -46.237  26.446  23.629  1.00  0.00     0.028 H 
ATOM     67  H   UNL     1     -45.907  27.737  24.772  1.00  0.00     0.028 H 
ATOM     68  H   UNL     1     -48.320  25.887  24.564  1.00  0.00     0.033 H 
BRANCH  63  69
ATOM     69  C   UNL     1     -47.166  26.018  26.349  1.00  0.00     0.046 C 
ATOM     70  H   UNL     1     -46.739  25.045  26.085  1.00  0.00     0.057 H 
ATOM     71  H   UNL     1     -46.365  26.646  26.754  1.00  0.00     0.057 H 
BRANCH  69  72
ATOM     72  O   UNL     1     -48.141  25.816  27.363  1.00  0.00    -0.396 OA
ATOM     73  H   UNL     1     -48.895  25.366  26.945  1.00  0.00     0.210 HD
ENDBRANCH  69  72
ENDBRANCH  63  69
ENDBRANCH  51  54
ENDBRANCH  46  51
ENDBRANCH   1  39
TORSDOF 12
ENDMDL
MODEL 3
REMARK VINA RESULT:      -9.5      1.920      2.650
REMARK SMILES Cn1ccc(-c2cn(-c3cncc(COc4ccc(CN5CCC(CO)CC5)c(N)c4)c3)c3ncnc(N)c23)n1
REMARK SMILES IDX 15 1 14 2 13 5 9 6 10 7 32 8 11 9 12 12 8 14 6 15 7 16 39 17
REMARK SMILES IDX 33 19 37 20 34 21 36 22 35 23 5 25 2 26 3 27 40 28 4 29 1 32
REMARK SMILES IDX 38 36 16 39 17 40 31 41 18 42 29 44 19 46 30 48 20 51 21 54
REMARK SMILES IDX 22 55 28 56 23 57 27 60 24 63 25 69 26 72
REMARK H PARENT 14 3 14 4 10 10 32 11 12 13 7 18 35 24 3 30 4 31 1 33 1 34
REMARK H PARENT 1 35 38 37 38 38 17 43 31 45 18 47 30 49 30 50 20 52 20 53
REMARK H PARENT 22 58 22 59 28 61 28 62 23 64 23 65 27 66 27 67 24 68 25 70
REMARK H PARENT 25 71 26 73
REMARK Flexibility Score: inf
ROOT
ATOM      1  O   UNL     1     -46.728  33.449  27.268  1.00  0.00    -0.489 OA
ENDROOT
BRANCH   1   2
ATOM      2  C   UNL     1     -45.762  34.453  26.949  1.00  0.00     0.115 C 
ATOM      3  H   UNL     1     -45.906  34.698  25.889  1.00  0.00     0.076 H 
ATOM      4  H   UNL     1     -44.741  34.058  27.027  1.00  0.00     0.076 H 
BRANCH   2   5
ATOM      5  C   UNL     1     -45.947  35.725  27.733  1.00  0.00     0.010 A 
ATOM      6  C   UNL     1     -46.027  38.156  27.836  1.00  0.00     0.066 A 
ATOM      7  C   UNL     1     -46.373  38.010  29.177  1.00  0.00     0.051 A 
ATOM      8  C   UNL     1     -45.821  36.977  27.112  1.00  0.00    -0.028 A 
ATOM      9  N   UNL     1     -46.519  36.819  29.808  1.00  0.00    -0.262 NA
ATOM     10  H   UNL     1     -46.574  38.848  29.835  1.00  0.00     0.086 H 
ATOM     11  H   UNL     1     -45.540  36.991  26.065  1.00  0.00     0.065 H 
ATOM     12  C   UNL     1     -46.305  35.707  29.074  1.00  0.00     0.034 A 
ATOM     13  H   UNL     1     -46.431  34.772  29.614  1.00  0.00     0.084 H 
BRANCH   6  14
ATOM     14  N   UNL     1     -45.890  39.456  27.247  1.00  0.00    -0.299 N 
ATOM     15  C   UNL     1     -44.929  41.253  26.268  1.00  0.00     0.033 A 
ATOM     16  C   UNL     1     -44.703  39.988  26.769  1.00  0.00     0.021 A 
ATOM     17  C   UNL     1     -46.316  41.530  26.418  1.00  0.00     0.071 A 
ATOM     18  H   UNL     1     -43.776  39.436  26.810  1.00  0.00     0.083 H 
ATOM     19  C   UNL     1     -46.883  40.417  27.042  1.00  0.00     0.150 A 
ATOM     20  C   UNL     1     -47.188  42.591  26.107  1.00  0.00     0.137 A 
ATOM     21  N   UNL     1     -48.181  40.311  27.397  1.00  0.00    -0.218 NA
ATOM     22  N   UNL     1     -48.482  42.508  26.465  1.00  0.00    -0.219 NA
ATOM     23  C   UNL     1     -48.901  41.393  27.077  1.00  0.00     0.120 A 
ATOM     24  H   UNL     1     -49.953  41.365  27.345  1.00  0.00     0.106 H 
BRANCH  15  25
ATOM     25  C   UNL     1     -43.912  42.145  25.700  1.00  0.00     0.095 A 
ATOM     26  N   UNL     1     -42.875  43.430  24.378  1.00  0.00    -0.275 N 
ATOM     27  C   UNL     1     -42.100  43.399  25.499  1.00  0.00     0.025 A 
ATOM     28  N   UNL     1     -43.989  42.680  24.475  1.00  0.00    -0.173 NA
ATOM     29  C   UNL     1     -42.750  42.572  26.383  1.00  0.00    -0.016 A 
ATOM     30  H   UNL     1     -41.173  43.952  25.575  1.00  0.00     0.084 H 
ATOM     31  H   UNL     1     -42.423  42.310  27.379  1.00  0.00     0.066 H 
BRANCH  26  32
ATOM     32  C   UNL     1     -42.613  44.159  23.161  1.00  0.00     0.030 C 
ATOM     33  H   UNL     1     -41.952  44.997  23.398  1.00  0.00     0.048 H 
ATOM     34  H   UNL     1     -43.565  44.519  22.764  1.00  0.00     0.048 H 
ATOM     35  H   UNL     1     -42.131  43.498  22.437  1.00  0.00     0.048 H 
ENDBRANCH  26  32
ENDBRANCH  15  25
BRANCH  20  36
ATOM     36  N   UNL     1     -46.803  43.748  25.447  1.00  0.00    -0.383 N 
ATOM     37  H   UNL     1     -47.557  44.126  24.890  1.00  0.00     0.158 HD
ATOM     38  H   UNL     1     -46.310  44.404  26.059  1.00  0.00     0.158 HD
ENDBRANCH  20  36
ENDBRANCH   6  14
ENDBRANCH   2   5
ENDBRANCH   1   2
BRANCH   1  39
ATOM     39  C   UNL     1     -47.310  32.755  26.244  1.00  0.00     0.121 A 
ATOM     40  C   UNL     1     -48.634  32.340  26.179  1.00  0.00    -0.019 A 
ATOM     41  C   UNL     1     -46.458  32.475  25.172  1.00  0.00     0.003 A 
ATOM     42  C   UNL     1     -49.095  31.673  25.041  1.00  0.00    -0.052 A 
ATOM     43  H   UNL     1     -49.347  32.540  26.970  1.00  0.00     0.066 H 
ATOM     44  C   UNL     1     -46.888  31.748  24.050  1.00  0.00     0.040 A 
ATOM     45  H   UNL     1     -45.429  32.825  25.224  1.00  0.00     0.068 H 
ATOM     46  C   UNL     1     -48.249  31.407  23.946  1.00  0.00    -0.011 A 
ATOM     47  H   UNL     1     -50.143  31.378  24.996  1.00  0.00     0.063 H 
BRANCH  44  48
ATOM     48  N   UNL     1     -45.983  31.571  22.988  1.00  0.00    -0.398 N 
ATOM     49  H   UNL     1     -46.411  31.264  22.121  1.00  0.00     0.156 HD
ATOM     50  H   UNL     1     -45.182  30.997  23.232  1.00  0.00     0.156 HD
ENDBRANCH  44  48
BRANCH  46  51
ATOM     51  C   UNL     1     -48.819  30.701  22.725  1.00  0.00     0.025 C 
ATOM     52  H   UNL     1     -48.085  30.855  21.923  1.00  0.00     0.048 H 
ATOM     53  H   UNL     1     -49.756  31.167  22.397  1.00  0.00     0.048 H 
BRANCH  51  54
ATOM     54  N   UNL     1     -49.055  29.253  22.910  1.00  0.00    -0.299 NA
ATOM     55  C   UNL     1     -50.067  29.035  23.954  1.00  0.00    -0.001 C 
ATOM     56  C   UNL     1     -47.803  28.513  23.146  1.00  0.00    -0.001 C 
ATOM     57  C   UNL     1     -50.124  27.571  24.386  1.00  0.00    -0.035 C 
ATOM     58  H   UNL     1     -51.049  29.322  23.560  1.00  0.00     0.043 H 
ATOM     59  H   UNL     1     -49.878  29.666  24.831  1.00  0.00     0.043 H 
ATOM     60  C   UNL     1     -47.633  28.023  24.583  1.00  0.00    -0.035 C 
ATOM     61  H   UNL     1     -46.917  29.092  22.861  1.00  0.00     0.043 H 
ATOM     62  H   UNL     1     -47.809  27.641  22.479  1.00  0.00     0.043 H 
ATOM     63  C   UNL     1     -48.792  27.100  24.999  1.00  0.00    -0.016 C 
ATOM     64  H   UNL     1     -50.348  26.951  23.507  1.00  0.00     0.028 H 
ATOM     65  H   UNL     1     -50.956  27.416  25.082  1.00  0.00     0.028 H 
ATOM     66  H   UNL     1     -46.686  27.478  24.678  1.00  0.00     0.028 H 
ATOM     67  H   UNL     1     -47.558  28.890  25.251  1.00  0.00     0.028 H 
ATOM     68  H   UNL     1     -48.585  26.095  24.605  1.00  0.00     0.033 H 
BRANCH  63  69
ATOM     69  C   UNL     1     -48.873  26.973  26.524  1.00  0.00     0.046 C 
ATOM     70  H   UNL     1     -49.548  27.731  26.934  1.00  0.00     0.057 H 
ATOM     71  H   UNL     1     -49.252  25.985  26.807  1.00  0.00     0.057 H 
BRANCH  69  72
ATOM     72  O   UNL     1     -47.593  27.152  27.115  1.00  0.00    -0.396 OA
ATOM     73  H   UNL     1     -47.116  27.800  26.567  1.00  0.00     0.210 HD
ENDBRANCH  69  72
ENDBRANCH  63  69
ENDBRANCH  51  54
ENDBRANCH  46  51
ENDBRANCH   1  39
TORSDOF 12
ENDMDL
MODEL 4
REMARK VINA RESULT:      -9.4      1.577      2.148
REMARK SMILES Cn1ccc(-c2cn(-c3cncc(COc4ccc(CN5CCC(CO)CC5)c(N)c4)c3)c3ncnc(N)c23)n1
REMARK SMILES IDX 15 1 14 2 13 5 9 6 10 7 32 8 11 9 12 12 8 14 6 15 7 16 39 17
REMARK SMILES IDX 33 19 37 20 34 21 36 22 35 23 5 25 2 26 3 27 40 28 4 29 1 32
REMARK SMILES IDX 38 36 16 39 17 40 31 41 18 42 29 44 19 46 30 48 20 51 21 54
REMARK SMILES IDX 22 55 28 56 23 57 27 60 24 63 25 69 26 72
REMARK H PARENT 14 3 14 4 10 10 32 11 12 13 7 18 35 24 3 30 4 31 1 33 1 34
REMARK H PARENT 1 35 38 37 38 38 17 43 31 45 18 47 30 49 30 50 20 52 20 53
REMARK H PARENT 22 58 22 59 28 61 28 62 23 64 23 65 27 66 27 67 24 68 25 70
REMARK H PARENT 25 71 26 73
REMARK Flexibility Score: inf
ROOT
ATOM      1  O   UNL     1     -48.052  33.742  26.466  1.00  0.00    -0.489 OA
ENDROOT
BRANCH   1   2
ATOM      2  C   UNL     1     -46.906  34.574  26.659  1.00  0.00     0.115 C 
ATOM      3  H   UNL     1     -46.423  34.670  25.679  1.00  0.00     0.076 H 
ATOM      4  H   UNL     1     -46.168  34.087  27.309  1.00  0.00     0.076 H 
BRANCH   2   5
ATOM      5  C   UNL     1     -47.255  35.963  27.126  1.00  0.00     0.010 A 
ATOM      6  C   UNL     1     -46.660  38.303  27.437  1.00  0.00     0.066 A 
ATOM      7  C   UNL     1     -47.956  38.488  27.911  1.00  0.00     0.051 A 
ATOM      8  C   UNL     1     -46.322  37.007  27.033  1.00  0.00    -0.028 A 
ATOM      9  N   UNL     1     -48.889  37.510  28.001  1.00  0.00    -0.262 NA
ATOM     10  H   UNL     1     -48.340  39.449  28.235  1.00  0.00     0.086 H 
ATOM     11  H   UNL     1     -45.333  36.764  26.659  1.00  0.00     0.065 H 
ATOM     12  C   UNL     1     -48.519  36.273  27.606  1.00  0.00     0.034 A 
ATOM     13  H   UNL     1     -49.294  35.514  27.694  1.00  0.00     0.084 H 
BRANCH   6  14
ATOM     14  N   UNL     1     -45.734  39.395  27.377  1.00  0.00    -0.299 N 
ATOM     15  C   UNL     1     -44.729  41.291  26.663  1.00  0.00     0.033 A 
ATOM     16  C   UNL     1     -45.758  40.403  26.426  1.00  0.00     0.021 A 
ATOM     17  C   UNL     1     -44.035  40.841  27.819  1.00  0.00     0.071 A 
ATOM     18  H   UNL     1     -46.503  40.429  25.645  1.00  0.00     0.083 H 
ATOM     19  C   UNL     1     -44.658  39.661  28.229  1.00  0.00     0.150 A 
ATOM     20  C   UNL     1     -42.940  41.276  28.590  1.00  0.00     0.137 A 
ATOM     21  N   UNL     1     -44.262  38.903  29.272  1.00  0.00    -0.218 NA
ATOM     22  N   UNL     1     -42.524  40.527  29.627  1.00  0.00    -0.219 NA
ATOM     23  C   UNL     1     -43.196  39.403  29.908  1.00  0.00     0.120 A 
ATOM     24  H   UNL     1     -42.830  38.830  30.754  1.00  0.00     0.106 H 
BRANCH  15  25
ATOM     25  C   UNL     1     -44.413  42.473  25.853  1.00  0.00     0.095 A 
ATOM     26  N   UNL     1     -44.106  44.479  25.256  1.00  0.00    -0.275 N 
ATOM     27  C   UNL     1     -43.768  43.743  24.159  1.00  0.00     0.025 A 
ATOM     28  N   UNL     1     -44.496  43.731  26.305  1.00  0.00    -0.173 NA
ATOM     29  C   UNL     1     -43.955  42.429  24.517  1.00  0.00    -0.016 A 
ATOM     30  H   UNL     1     -43.433  44.201  23.238  1.00  0.00     0.084 H 
ATOM     31  H   UNL     1     -43.788  41.562  23.893  1.00  0.00     0.066 H 
BRANCH  26  32
ATOM     32  C   UNL     1     -44.082  45.916  25.377  1.00  0.00     0.030 C 
ATOM     33  H   UNL     1     -45.044  46.244  25.779  1.00  0.00     0.048 H 
ATOM     34  H   UNL     1     -43.913  46.343  24.386  1.00  0.00     0.048 H 
ATOM     35  H   UNL     1     -43.276  46.211  26.054  1.00  0.00     0.048 H 
ENDBRANCH  26  32
ENDBRANCH  15  25
BRANCH  20  36
ATOM     36  N   UNL     1     -42.237  42.448  28.354  1.00  0.00    -0.383 N 
ATOM     37  H   UNL     1     -42.237  43.051  29.166  1.00  0.00     0.158 HD
ATOM     38  H   UNL     1     -41.332  42.280  27.906  1.00  0.00     0.158 HD
ENDBRANCH  20  36
ENDBRANCH   6  14
ENDBRANCH   2   5
ENDBRANCH   1   2
BRANCH   1  39
ATOM     39  C   UNL     1     -47.925  32.627  25.686  1.00  0.00     0.121 A 
ATOM     40  C   UNL     1     -48.681  31.466  25.778  1.00  0.00    -0.019 A 
ATOM     41  C   UNL     1     -46.939  32.717  24.698  1.00  0.00     0.003 A 
ATOM     42  C   UNL     1     -48.460  30.422  24.876  1.00  0.00    -0.052 A 
ATOM     43  H   UNL     1     -49.469  31.341  26.512  1.00  0.00     0.066 H 
ATOM     44  C   UNL     1     -46.660  31.651  23.826  1.00  0.00     0.040 A 
ATOM     45  H   UNL     1     -46.369  33.640  24.619  1.00  0.00     0.068 H 
ATOM     46  C   UNL     1     -47.484  30.513  23.864  1.00  0.00    -0.011 A 
ATOM     47  H   UNL     1     -49.081  29.529  24.948  1.00  0.00     0.063 H 
BRANCH  44  48
ATOM     48  N   UNL     1     -45.699  31.854  22.819  1.00  0.00    -0.398 N 
ATOM     49  H   UNL     1     -44.809  32.206  23.156  1.00  0.00     0.156 HD
ATOM     50  H   UNL     1     -46.044  32.402  22.037  1.00  0.00     0.156 HD
ENDBRANCH  44  48
BRANCH  46  51
ATOM     51  C   UNL     1     -47.312  29.352  22.895  1.00  0.00     0.025 C 
ATOM     52  H   UNL     1     -47.441  28.442  23.497  1.00  0.00     0.048 H 
ATOM     53  H   UNL     1     -46.295  29.324  22.485  1.00  0.00     0.048 H 
BRANCH  51  54
ATOM     54  N   UNL     1     -48.272  29.344  21.772  1.00  0.00    -0.299 NA
ATOM     55  C   UNL     1     -48.713  30.716  21.473  1.00  0.00    -0.001 C 
ATOM     56  C   UNL     1     -49.388  28.410  22.002  1.00  0.00    -0.001 C 
ATOM     57  C   UNL     1     -49.916  30.728  20.534  1.00  0.00    -0.035 C 
ATOM     58  H   UNL     1     -47.887  31.255  20.993  1.00  0.00     0.043 H 
ATOM     59  H   UNL     1     -48.961  31.263  22.391  1.00  0.00     0.043 H 
ATOM     60  C   UNL     1     -50.720  29.096  22.304  1.00  0.00    -0.035 C 
ATOM     61  H   UNL     1     -49.170  27.690  22.800  1.00  0.00     0.043 H 
ATOM     62  H   UNL     1     -49.504  27.810  21.090  1.00  0.00     0.043 H 
ATOM     63  C   UNL     1     -51.139  30.029  21.156  1.00  0.00    -0.016 C 
ATOM     64  H   UNL     1     -49.646  30.208  19.604  1.00  0.00     0.028 H 
ATOM     65  H   UNL     1     -50.154  31.757  20.241  1.00  0.00     0.028 H 
ATOM     66  H   UNL     1     -51.499  28.338  22.456  1.00  0.00     0.028 H 
ATOM     67  H   UNL     1     -50.635  29.644  23.250  1.00  0.00     0.028 H 
ATOM     68  H   UNL     1     -51.604  29.417  20.371  1.00  0.00     0.033 H 
BRANCH  63  69
ATOM     69  C   UNL     1     -52.199  31.032  21.623  1.00  0.00     0.046 C 
ATOM     70  H   UNL     1     -53.024  31.077  20.905  1.00  0.00     0.057 H 
ATOM     71  H   UNL     1     -52.607  30.735  22.595  1.00  0.00     0.057 H 
BRANCH  69  72
ATOM     72  O   UNL     1     -51.644  32.335  21.745  1.00  0.00    -0.396 OA
ATOM     73  H   UNL     1     -52.336  32.903  22.126  1.00  0.00     0.210 HD
ENDBRANCH  69  72
ENDBRANCH  63  69
ENDBRANCH  51  54
ENDBRANCH  46  51
ENDBRANCH   1  39
TORSDOF 12
ENDMDL
MODEL 5
REMARK VINA RESULT:      -9.3      2.500      5.102
REMARK SMILES Cn1ccc(-c2cn(-c3cncc(COc4ccc(CN5CCC(CO)CC5)c(N)c4)c3)c3ncnc(N)c23)n1
REMARK SMILES IDX 15 1 14 2 13 5 9 6 10 7 32 8 11 9 12 12 8 14 6 15 7 16 39 17
REMARK SMILES IDX 33 19 37 20 34 21 36 22 35 23 5 25 2 26 3 27 40 28 4 29 1 32
REMARK SMILES IDX 38 36 16 39 17 40 31 41 18 42 29 44 19 46 30 48 20 51 21 54
REMARK SMILES IDX 22 55 28 56 23 57 27 60 24 63 25 69 26 72
REMARK H PARENT 14 3 14 4 10 10 32 11 12 13 7 18 35 24 3 30 4 31 1 33 1 34
REMARK H PARENT 1 35 38 37 38 38 17 43 31 45 18 47 30 49 30 50 20 52 20 53
REMARK H PARENT 22 58 22 59 28 61 28 62 23 64 23 65 27 66 27 67 24 68 25 70
REMARK H PARENT 25 71 26 73
REMARK Flexibility Score: inf
ROOT
ATOM      1  O   UNL     1     -45.010  37.321  28.033  1.00  0.00    -0.489 OA
ENDROOT
BRANCH   1   2
ATOM      2  C   UNL     1     -45.529  38.600  28.406  1.00  0.00     0.115 C 
ATOM      3  H   UNL     1     -45.914  38.494  29.427  1.00  0.00     0.076 H 
ATOM      4  H   UNL     1     -46.394  38.871  27.787  1.00  0.00     0.076 H 
BRANCH   2   5
ATOM      5  C   UNL     1     -44.479  39.680  28.432  1.00  0.00     0.010 A 
ATOM      6  C   UNL     1     -43.593  41.791  27.603  1.00  0.00     0.066 A 
ATOM      7  C   UNL     1     -42.596  41.660  28.567  1.00  0.00     0.051 A 
ATOM      8  C   UNL     1     -44.552  40.773  27.554  1.00  0.00    -0.028 A 
ATOM      9  N   UNL     1     -42.501  40.629  29.441  1.00  0.00    -0.262 NA
ATOM     10  H   UNL     1     -41.810  42.392  28.713  1.00  0.00     0.086 H 
ATOM     11  H   UNL     1     -45.360  40.783  26.832  1.00  0.00     0.065 H 
ATOM     12  C   UNL     1     -43.443  39.665  29.355  1.00  0.00     0.034 A 
ATOM     13  H   UNL     1     -43.334  38.854  30.071  1.00  0.00     0.084 H 
BRANCH   6  14
ATOM     14  N   UNL     1     -43.618  42.916  26.715  1.00  0.00    -0.299 N 
ATOM     15  C   UNL     1     -43.445  44.120  24.810  1.00  0.00     0.033 A 
ATOM     16  C   UNL     1     -43.323  42.862  25.362  1.00  0.00     0.021 A 
ATOM     17  C   UNL     1     -43.850  45.004  25.847  1.00  0.00     0.071 A 
ATOM     18  H   UNL     1     -43.049  41.938  24.876  1.00  0.00     0.083 H 
ATOM     19  C   UNL     1     -43.929  44.244  27.016  1.00  0.00     0.150 A 
ATOM     20  C   UNL     1     -44.165  46.372  25.963  1.00  0.00     0.137 A 
ATOM     21  N   UNL     1     -44.242  44.733  28.234  1.00  0.00    -0.218 NA
ATOM     22  N   UNL     1     -44.467  46.879  27.172  1.00  0.00    -0.219 NA
ATOM     23  C   UNL     1     -44.491  46.048  28.221  1.00  0.00     0.120 A 
ATOM     24  H   UNL     1     -44.743  46.498  29.177  1.00  0.00     0.106 H 
BRANCH  15  25
ATOM     25  C   UNL     1     -43.189  44.471  23.408  1.00  0.00     0.095 A 
ATOM     26  N   UNL     1     -43.350  45.355  21.493  1.00  0.00    -0.275 N 
ATOM     27  C   UNL     1     -42.232  44.579  21.416  1.00  0.00     0.025 A 
ATOM     28  N   UNL     1     -43.949  45.314  22.699  1.00  0.00    -0.173 NA
ATOM     29  C   UNL     1     -42.097  43.990  22.650  1.00  0.00    -0.016 A 
ATOM     30  H   UNL     1     -41.640  44.509  20.513  1.00  0.00     0.084 H 
ATOM     31  H   UNL     1     -41.320  43.303  22.954  1.00  0.00     0.066 H 
BRANCH  26  32
ATOM     32  C   UNL     1     -43.913  46.173  20.447  1.00  0.00     0.030 C 
ATOM     33  H   UNL     1     -44.900  46.513  20.770  1.00  0.00     0.048 H 
ATOM     34  H   UNL     1     -43.992  45.567  19.541  1.00  0.00     0.048 H 
ATOM     35  H   UNL     1     -43.263  47.033  20.267  1.00  0.00     0.048 H 
ENDBRANCH  26  32
ENDBRANCH  15  25
BRANCH  20  36
ATOM     36  N   UNL     1     -44.183  47.260  24.898  1.00  0.00    -0.383 N 
ATOM     37  H   UNL     1     -45.125  47.426  24.569  1.00  0.00     0.158 HD
ATOM     38  H   UNL     1     -43.602  48.086  25.065  1.00  0.00     0.158 HD
ENDBRANCH  20  36
ENDBRANCH   6  14
ENDBRANCH   2   5
ENDBRANCH   1   2
BRANCH   1  39
ATOM     39  C   UNL     1     -45.885  36.364  27.598  1.00  0.00     0.121 A 
ATOM     40  C   UNL     1     -47.032  36.579  26.845  1.00  0.00    -0.019 A 
ATOM     41  C   UNL     1     -45.539  35.056  27.949  1.00  0.00     0.003 A 
ATOM     42  C   UNL     1     -47.806  35.489  26.437  1.00  0.00    -0.052 A 
ATOM     43  H   UNL     1     -47.345  37.567  26.529  1.00  0.00     0.066 H 
ATOM     44  C   UNL     1     -46.341  33.956  27.603  1.00  0.00     0.040 A 
ATOM     45  H   UNL     1     -44.626  34.898  28.518  1.00  0.00     0.068 H 
ATOM     46  C   UNL     1     -47.452  34.166  26.767  1.00  0.00    -0.011 A 
ATOM     47  H   UNL     1     -48.688  35.675  25.825  1.00  0.00     0.063 H 
BRANCH  44  48
ATOM     48  N   UNL     1     -45.882  32.670  27.938  1.00  0.00    -0.398 N 
ATOM     49  H   UNL     1     -46.461  31.915  27.588  1.00  0.00     0.156 HD
ATOM     50  H   UNL     1     -45.683  32.558  28.928  1.00  0.00     0.156 HD
ENDBRANCH  44  48
BRANCH  46  51
ATOM     51  C   UNL     1     -48.322  33.021  26.268  1.00  0.00     0.025 C 
ATOM     52  H   UNL     1     -48.960  33.452  25.486  1.00  0.00     0.048 H 
ATOM     53  H   UNL     1     -48.988  32.654  27.059  1.00  0.00     0.048 H 
BRANCH  51  54
ATOM     54  N   UNL     1     -47.569  31.875  25.718  1.00  0.00    -0.299 NA
ATOM     55  C   UNL     1     -47.016  32.219  24.399  1.00  0.00    -0.001 C 
ATOM     56  C   UNL     1     -48.369  30.637  25.711  1.00  0.00    -0.001 C 
ATOM     57  C   UNL     1     -46.493  30.984  23.669  1.00  0.00    -0.035 C 
ATOM     58  H   UNL     1     -46.186  32.923  24.536  1.00  0.00     0.043 H 
ATOM     59  H   UNL     1     -47.763  32.723  23.773  1.00  0.00     0.043 H 
ATOM     60  C   UNL     1     -48.817  30.195  24.319  1.00  0.00    -0.035 C 
ATOM     61  H   UNL     1     -49.248  30.707  26.362  1.00  0.00     0.043 H 
ATOM     62  H   UNL     1     -47.745  29.844  26.144  1.00  0.00     0.043 H 
ATOM     63  C   UNL     1     -47.611  29.962  23.393  1.00  0.00    -0.016 C 
ATOM     64  H   UNL     1     -45.722  30.506  24.288  1.00  0.00     0.028 H 
ATOM     65  H   UNL     1     -45.989  31.281  22.741  1.00  0.00     0.028 H 
ATOM     66  H   UNL     1     -49.398  29.269  24.395  1.00  0.00     0.028 H 
ATOM     67  H   UNL     1     -49.496  30.951  23.904  1.00  0.00     0.028 H 
ATOM     68  H   UNL     1     -47.205  28.963  23.606  1.00  0.00     0.033 H 
BRANCH  63  69
ATOM     69  C   UNL     1     -48.041  29.962  21.921  1.00  0.00     0.046 C 
ATOM     70  H   UNL     1     -47.221  29.615  21.285  1.00  0.00     0.057 H 
ATOM     71  H   UNL     1     -48.897  29.295  21.772  1.00  0.00     0.057 H 
BRANCH  69  72
ATOM     72  O   UNL     1     -48.407  31.270  21.502  1.00  0.00    -0.396 OA
ATOM     73  H   UNL     1     -47.823  31.891  21.970  1.00  0.00     0.210 HD
ENDBRANCH  69  72
ENDBRANCH  63  69
ENDBRANCH  51  54
ENDBRANCH  46  51
ENDBRANCH   1  39
TORSDOF 12
ENDMDL
MODEL 6
REMARK VINA RESULT:      -9.2      2.050      2.735
REMARK SMILES Cn1ccc(-c2cn(-c3cncc(COc4ccc(CN5CCC(CO)CC5)c(N)c4)c3)c3ncnc(N)c23)n1
REMARK SMILES IDX 15 1 14 2 13 5 9 6 10 7 32 8 11 9 12 12 8 14 6 15 7 16 39 17
REMARK SMILES IDX 33 19 37 20 34 21 36 22 35 23 5 25 2 26 3 27 40 28 4 29 1 32
REMARK SMILES IDX 38 36 16 39 17 40 31 41 18 42 29 44 19 46 30 48 20 51 21 54
REMARK SMILES IDX 22 55 28 56 23 57 27 60 24 63 25 69 26 72
REMARK H PARENT 14 3 14 4 10 10 32 11 12 13 7 18 35 24 3 30 4 31 1 33 1 34
REMARK H PARENT 1 35 38 37 38 38 17 43 31 45 18 47 30 49 30 50 20 52 20 53
REMARK H PARENT 22 58 22 59 28 61 28 62 23 64 23 65 27 66 27 67 24 68 25 70
REMARK H PARENT 25 71 26 73
REMARK Flexibility Score: inf
ROOT
ATOM      1  O   UNL     1     -48.540  36.072  26.925  1.00  0.00    -0.489 OA
ENDROOT
BRANCH   1   2
ATOM      2  C   UNL     1     -48.517  36.341  28.329  1.00  0.00     0.115 C 
ATOM      3  H   UNL     1     -48.642  35.375  28.833  1.00  0.00     0.076 H 
ATOM      4  H   UNL     1     -49.380  36.948  28.629  1.00  0.00     0.076 H 
BRANCH   2   5
ATOM      5  C   UNL     1     -47.211  36.927  28.798  1.00  0.00     0.010 A 
ATOM      6  C   UNL     1     -45.468  38.619  28.630  1.00  0.00     0.066 A 
ATOM      7  C   UNL     1     -44.877  38.006  29.733  1.00  0.00     0.051 A 
ATOM      8  C   UNL     1     -46.665  38.057  28.171  1.00  0.00    -0.028 A 
ATOM      9  N   UNL     1     -45.382  36.924  30.374  1.00  0.00    -0.262 NA
ATOM     10  H   UNL     1     -43.960  38.360  30.190  1.00  0.00     0.086 H 
ATOM     11  H   UNL     1     -47.192  38.459  27.314  1.00  0.00     0.065 H 
ATOM     12  C   UNL     1     -46.534  36.410  29.894  1.00  0.00     0.034 A 
ATOM     13  H   UNL     1     -46.907  35.543  30.433  1.00  0.00     0.084 H 
BRANCH   6  14
ATOM     14  N   UNL     1     -44.865  39.761  28.010  1.00  0.00    -0.299 N 
ATOM     15  C   UNL     1     -44.534  41.460  26.556  1.00  0.00     0.033 A 
ATOM     16  C   UNL     1     -45.354  40.400  26.882  1.00  0.00     0.021 A 
ATOM     17  C   UNL     1     -43.494  41.509  27.523  1.00  0.00     0.071 A 
ATOM     18  H   UNL     1     -46.252  40.066  26.384  1.00  0.00     0.083 H 
ATOM     19  C   UNL     1     -43.707  40.440  28.396  1.00  0.00     0.150 A 
ATOM     20  C   UNL     1     -42.376  42.324  27.786  1.00  0.00     0.137 A 
ATOM     21  N   UNL     1     -42.903  40.119  29.432  1.00  0.00    -0.218 NA
ATOM     22  N   UNL     1     -41.557  42.012  28.806  1.00  0.00    -0.219 NA
ATOM     23  C   UNL     1     -41.860  40.948  29.561  1.00  0.00     0.120 A 
ATOM     24  H   UNL     1     -41.176  40.734  30.376  1.00  0.00     0.106 H 
BRANCH  15  25
ATOM     25  C   UNL     1     -44.709  42.359  25.409  1.00  0.00     0.095 A 
ATOM     26  N   UNL     1     -45.433  43.897  24.150  1.00  0.00    -0.275 N 
ATOM     27  C   UNL     1     -44.396  43.349  23.455  1.00  0.00     0.025 A 
ATOM     28  N   UNL     1     -45.642  43.317  25.347  1.00  0.00    -0.173 NA
ATOM     29  C   UNL     1     -43.899  42.344  24.250  1.00  0.00    -0.016 A 
ATOM     30  H   UNL     1     -44.104  43.708  22.477  1.00  0.00     0.084 H 
ATOM     31  H   UNL     1     -43.072  41.689  24.018  1.00  0.00     0.066 H 
BRANCH  26  32
ATOM     32  C   UNL     1     -46.280  44.987  23.730  1.00  0.00     0.030 C 
ATOM     33  H   UNL     1     -46.968  44.614  22.968  1.00  0.00     0.048 H 
ATOM     34  H   UNL     1     -45.646  45.778  23.323  1.00  0.00     0.048 H 
ATOM     35  H   UNL     1     -46.843  45.362  24.589  1.00  0.00     0.048 H 
ENDBRANCH  26  32
ENDBRANCH  15  25
BRANCH  20  36
ATOM     36  N   UNL     1     -42.044  43.452  27.050  1.00  0.00    -0.383 N 
ATOM     37  H   UNL     1     -42.656  43.568  26.254  1.00  0.00     0.158 HD
ATOM     38  H   UNL     1     -41.894  44.275  27.640  1.00  0.00     0.158 HD
ENDBRANCH  20  36
ENDBRANCH   6  14
ENDBRANCH   2   5
ENDBRANCH   1   2
BRANCH   1  39
ATOM     39  C   UNL     1     -48.470  34.772  26.509  1.00  0.00     0.121 A 
ATOM     40  C   UNL     1     -49.512  33.853  26.497  1.00  0.00    -0.019 A 
ATOM     41  C   UNL     1     -47.213  34.378  26.038  1.00  0.00     0.003 A 
ATOM     42  C   UNL     1     -49.294  32.566  25.999  1.00  0.00    -0.052 A 
ATOM     43  H   UNL     1     -50.511  34.102  26.834  1.00  0.00     0.066 H 
ATOM     44  C   UNL     1     -46.961  33.069  25.596  1.00  0.00     0.040 A 
ATOM     45  H   UNL     1     -46.411  35.112  26.030  1.00  0.00     0.068 H 
ATOM     46  C   UNL     1     -48.037  32.168  25.502  1.00  0.00    -0.011 A 
ATOM     47  H   UNL     1     -50.130  31.867  25.974  1.00  0.00     0.063 H 
BRANCH  44  48
ATOM     48  N   UNL     1     -45.687  32.779  25.076  1.00  0.00    -0.398 N 
ATOM     49  H   UNL     1     -45.358  33.443  24.384  1.00  0.00     0.156 HD
ATOM     50  H   UNL     1     -45.593  31.822  24.748  1.00  0.00     0.156 HD
ENDBRANCH  44  48
BRANCH  46  51
ATOM     51  C   UNL     1     -47.873  30.760  24.948  1.00  0.00     0.025 C 
ATOM     52  H   UNL     1     -48.746  30.197  25.303  1.00  0.00     0.048 H 
ATOM     53  H   UNL     1     -46.984  30.270  25.364  1.00  0.00     0.048 H 
BRANCH  51  54
ATOM     54  N   UNL     1     -47.802  30.687  23.473  1.00  0.00    -0.299 NA
ATOM     55  C   UNL     1     -49.096  31.064  22.885  1.00  0.00    -0.001 C 
ATOM     56  C   UNL     1     -47.306  29.381  23.005  1.00  0.00    -0.001 C 
ATOM     57  C   UNL     1     -49.162  30.718  21.399  1.00  0.00    -0.035 C 
ATOM     58  H   UNL     1     -49.235  32.146  22.999  1.00  0.00     0.043 H 
ATOM     59  H   UNL     1     -49.929  30.578  23.409  1.00  0.00     0.043 H 
ATOM     60  C   UNL     1     -48.379  28.503  22.363  1.00  0.00    -0.035 C 
ATOM     61  H   UNL     1     -46.813  28.813  23.804  1.00  0.00     0.043 H 
ATOM     62  H   UNL     1     -46.525  29.577  22.260  1.00  0.00     0.043 H 
ATOM     63  C   UNL     1     -49.023  29.204  21.155  1.00  0.00    -0.016 C 
ATOM     64  H   UNL     1     -48.345  31.237  20.878  1.00  0.00     0.028 H 
ATOM     65  H   UNL     1     -50.089  31.107  20.963  1.00  0.00     0.028 H 
ATOM     66  H   UNL     1     -47.935  27.555  22.037  1.00  0.00     0.028 H 
ATOM     67  H   UNL     1     -49.131  28.245  23.119  1.00  0.00     0.028 H 
ATOM     68  H   UNL     1     -48.360  29.069  20.289  1.00  0.00     0.033 H 
BRANCH  63  69
ATOM     69  C   UNL     1     -50.364  28.554  20.793  1.00  0.00     0.046 C 
ATOM     70  H   UNL     1     -50.278  27.463  20.822  1.00  0.00     0.057 H 
ATOM     71  H   UNL     1     -51.140  28.856  21.504  1.00  0.00     0.057 H 
BRANCH  69  72
ATOM     72  O   UNL     1     -50.773  28.934  19.487  1.00  0.00    -0.396 OA
ATOM     73  H   UNL     1     -49.969  28.986  18.942  1.00  0.00     0.210 HD
ENDBRANCH  69  72
ENDBRANCH  63  69
ENDBRANCH  51  54
ENDBRANCH  46  51
ENDBRANCH   1  39
TORSDOF 12
ENDMDL
MODEL 7
REMARK VINA RESULT:      -9.2      2.630     12.913
REMARK SMILES Cn1ccc(-c2cn(-c3cncc(COc4ccc(CN5CCC(CO)CC5)c(N)c4)c3)c3ncnc(N)c23)n1
REMARK SMILES IDX 15 1 14 2 13 5 9 6 10 7 32 8 11 9 12 12 8 14 6 15 7 16 39 17
REMARK SMILES IDX 33 19 37 20 34 21 36 22 35 23 5 25 2 26 3 27 40 28 4 29 1 32
REMARK SMILES IDX 38 36 16 39 17 40 31 41 18 42 29 44 19 46 30 48 20 51 21 54
REMARK SMILES IDX 22 55 28 56 23 57 27 60 24 63 25 69 26 72
REMARK H PARENT 14 3 14 4 10 10 32 11 12 13 7 18 35 24 3 30 4 31 1 33 1 34
REMARK H PARENT 1 35 38 37 38 38 17 43 31 45 18 47 30 49 30 50 20 52 20 53
REMARK H PARENT 22 58 22 59 28 61 28 62 23 64 23 65 27 66 27 67 24 68 25 70
REMARK H PARENT 25 71 26 73
REMARK Flexibility Score: inf
ROOT
ATOM      1  O   UNL     1     -48.168  35.773  28.233  1.00  0.00    -0.489 OA
ENDROOT
BRANCH   1   2
ATOM      2  C   UNL     1     -48.701  35.348  26.977  1.00  0.00     0.115 C 
ATOM      3  H   UNL     1     -48.708  36.231  26.327  1.00  0.00     0.076 H 
ATOM      4  H   UNL     1     -49.750  35.042  27.077  1.00  0.00     0.076 H 
BRANCH   2   5
ATOM      5  C   UNL     1     -47.858  34.299  26.301  1.00  0.00     0.010 A 
ATOM      6  C   UNL     1     -47.644  32.126  25.223  1.00  0.00     0.066 A 
ATOM      7  C   UNL     1     -46.308  32.455  25.004  1.00  0.00     0.051 A 
ATOM      8  C   UNL     1     -48.422  33.085  25.881  1.00  0.00    -0.028 A 
ATOM      9  N   UNL     1     -45.731  33.622  25.380  1.00  0.00    -0.262 NA
ATOM     10  H   UNL     1     -45.611  31.802  24.489  1.00  0.00     0.086 H 
ATOM     11  H   UNL     1     -49.470  32.915  26.104  1.00  0.00     0.065 H 
ATOM     12  C   UNL     1     -46.516  34.516  26.018  1.00  0.00     0.034 A 
ATOM     13  H   UNL     1     -46.019  35.439  26.305  1.00  0.00     0.084 H 
BRANCH   6  14
ATOM     14  N   UNL     1     -48.173  30.866  24.792  1.00  0.00    -0.299 N 
ATOM     15  C   UNL     1     -49.104  28.808  24.894  1.00  0.00     0.033 A 
ATOM     16  C   UNL     1     -48.676  29.889  25.637  1.00  0.00     0.021 A 
ATOM     17  C   UNL     1     -48.881  29.116  23.524  1.00  0.00     0.071 A 
ATOM     18  H   UNL     1     -48.703  30.022  26.708  1.00  0.00     0.083 H 
ATOM     19  C   UNL     1     -48.288  30.380  23.488  1.00  0.00     0.150 A 
ATOM     20  C   UNL     1     -49.101  28.487  22.284  1.00  0.00     0.137 A 
ATOM     21  N   UNL     1     -47.881  31.008  22.365  1.00  0.00    -0.218 NA
ATOM     22  N   UNL     1     -48.691  29.093  21.155  1.00  0.00    -0.219 NA
ATOM     23  C   UNL     1     -48.116  30.299  21.254  1.00  0.00     0.120 A 
ATOM     24  H   UNL     1     -47.804  30.755  20.319  1.00  0.00     0.106 H 
BRANCH  15  25
ATOM     25  C   UNL     1     -49.672  27.568  25.434  1.00  0.00     0.095 A 
ATOM     26  N   UNL     1     -51.034  26.157  26.228  1.00  0.00    -0.275 N 
ATOM     27  C   UNL     1     -49.868  25.463  26.091  1.00  0.00     0.025 A 
ATOM     28  N   UNL     1     -50.945  27.440  25.829  1.00  0.00    -0.173 NA
ATOM     29  C   UNL     1     -48.960  26.355  25.571  1.00  0.00    -0.016 A 
ATOM     30  H   UNL     1     -49.781  24.421  26.367  1.00  0.00     0.084 H 
ATOM     31  H   UNL     1     -47.925  26.154  25.334  1.00  0.00     0.066 H 
BRANCH  26  32
ATOM     32  C   UNL     1     -52.286  25.657  26.739  1.00  0.00     0.030 C 
ATOM     33  H   UNL     1     -53.022  26.464  26.697  1.00  0.00     0.048 H 
ATOM     34  H   UNL     1     -52.132  25.330  27.771  1.00  0.00     0.048 H 
ATOM     35  H   UNL     1     -52.620  24.816  26.126  1.00  0.00     0.048 H 
ENDBRANCH  26  32
ENDBRANCH  15  25
BRANCH  20  36
ATOM     36  N   UNL     1     -49.720  27.255  22.134  1.00  0.00    -0.383 N 
ATOM     37  H   UNL     1     -49.527  26.646  22.916  1.00  0.00     0.158 HD
ATOM     38  H   UNL     1     -50.699  27.340  21.847  1.00  0.00     0.158 HD
ENDBRANCH  20  36
ENDBRANCH   6  14
ENDBRANCH   2   5
ENDBRANCH   1   2
BRANCH   1  39
ATOM     39  C   UNL     1     -47.187  36.726  28.237  1.00  0.00     0.121 A 
ATOM     40  C   UNL     1     -45.832  36.513  28.452  1.00  0.00    -0.019 A 
ATOM     41  C   UNL     1     -47.637  38.024  27.972  1.00  0.00     0.003 A 
ATOM     42  C   UNL     1     -44.942  37.589  28.381  1.00  0.00    -0.052 A 
ATOM     43  H   UNL     1     -45.421  35.530  28.646  1.00  0.00     0.066 H 
ATOM     44  C   UNL     1     -46.764  39.125  27.963  1.00  0.00     0.040 A 
ATOM     45  H   UNL     1     -48.696  38.176  27.782  1.00  0.00     0.068 H 
ATOM     46  C   UNL     1     -45.383  38.895  28.093  1.00  0.00    -0.011 A 
ATOM     47  H   UNL     1     -43.880  37.397  28.527  1.00  0.00     0.063 H 
BRANCH  44  48
ATOM     48  N   UNL     1     -47.291  40.384  27.621  1.00  0.00    -0.398 N 
ATOM     49  H   UNL     1     -47.048  41.128  28.267  1.00  0.00     0.156 HD
ATOM     50  H   UNL     1     -48.289  40.366  27.433  1.00  0.00     0.156 HD
ENDBRANCH  44  48
BRANCH  46  51
ATOM     51  C   UNL     1     -44.360  40.018  28.003  1.00  0.00     0.025 C 
ATOM     52  H   UNL     1     -43.441  39.553  27.624  1.00  0.00     0.048 H 
ATOM     53  H   UNL     1     -44.128  40.426  28.994  1.00  0.00     0.048 H 
BRANCH  51  54
ATOM     54  N   UNL     1     -44.753  41.134  27.117  1.00  0.00    -0.299 NA
ATOM     55  C   UNL     1     -44.375  40.834  25.727  1.00  0.00    -0.001 C 
ATOM     56  C   UNL     1     -44.238  42.430  27.594  1.00  0.00    -0.001 C 
ATOM     57  C   UNL     1     -44.486  42.068  24.835  1.00  0.00    -0.035 C 
ATOM     58  H   UNL     1     -45.046  40.058  25.339  1.00  0.00     0.043 H 
ATOM     59  H   UNL     1     -43.356  40.432  25.669  1.00  0.00     0.043 H 
ATOM     60  C   UNL     1     -43.099  42.995  26.748  1.00  0.00    -0.035 C 
ATOM     61  H   UNL     1     -43.915  42.389  28.642  1.00  0.00     0.043 H 
ATOM     62  H   UNL     1     -45.074  43.141  27.573  1.00  0.00     0.043 H 
ATOM     63  C   UNL     1     -43.535  43.191  25.286  1.00  0.00    -0.016 C 
ATOM     64  H   UNL     1     -45.518  42.441  24.873  1.00  0.00     0.028 H 
ATOM     65  H   UNL     1     -44.306  41.793  23.789  1.00  0.00     0.028 H 
ATOM     66  H   UNL     1     -42.775  43.959  27.160  1.00  0.00     0.028 H 
ATOM     67  H   UNL     1     -42.233  42.325  26.817  1.00  0.00     0.028 H 
ATOM     68  H   UNL     1     -44.088  44.138  25.219  1.00  0.00     0.033 H 
BRANCH  63  69
ATOM     69  C   UNL     1     -42.318  43.321  24.363  1.00  0.00     0.046 C 
ATOM     70  H   UNL     1     -41.783  44.254  24.567  1.00  0.00     0.057 H 
ATOM     71  H   UNL     1     -41.626  42.487  24.521  1.00  0.00     0.057 H 
BRANCH  69  72
ATOM     72  O   UNL     1     -42.717  43.326  22.999  1.00  0.00    -0.396 OA
ATOM     73  H   UNL     1     -43.641  43.630  22.975  1.00  0.00     0.210 HD
ENDBRANCH  69  72
ENDBRANCH  63  69
ENDBRANCH  51  54
ENDBRANCH  46  51
ENDBRANCH   1  39
TORSDOF 12
ENDMDL
