MODEL 1
REMARK VINA RESULT:     -10.2      0.000      0.000
REMARK SMILES CC(C)c1nc(N)c2ccc(OCc3cncc(-n4ccc5c(N)ncnc54)c3)cc2n1
REMARK SMILES IDX 13 1 12 4 11 5 4 6 5 7 32 8 6 9 31 10 8 11 30 12 9 13 10 15
REMARK SMILES IDX 2 18 1 20 3 24 7 28 14 31 15 32 29 33 16 34 18 36 17 38
REMARK SMILES IDX 19 40 20 41 28 42 21 43 22 45 27 46 23 48 26 49 25 50 24 52
REMARK H PARENT 13 2 13 3 30 14 9 16 10 17 2 19 1 21 1 22 1 23 3 25 3 26 3 27
REMARK H PARENT 7 29 7 30 15 35 29 37 17 39 20 44 21 47 26 51 24 53 24 54
REMARK Flexibility Score: inf
ROOT
ATOM      1  C   UNL     1     -47.610  36.221  26.747  1.00  0.00     0.115 C 
ATOM      2  H   UNL     1     -48.377  36.924  26.399  1.00  0.00     0.076 H 
ATOM      3  H   UNL     1     -46.952  36.067  25.883  1.00  0.00     0.076 H 
ENDROOT
BRANCH   1   4
ATOM      4  O   UNL     1     -48.169  34.945  27.070  1.00  0.00    -0.489 OA
BRANCH   4   5
ATOM      5  C   UNL     1     -47.872  33.870  26.279  1.00  0.00     0.122 A 
ATOM      6  C   UNL     1     -48.604  29.577  24.427  1.00  0.00     0.133 A 
ATOM      7  N   UNL     1     -47.472  29.587  23.709  1.00  0.00    -0.215 NA
ATOM      8  N   UNL     1     -49.014  30.584  25.220  1.00  0.00    -0.232 NA
ATOM      9  C   UNL     1     -46.700  30.677  23.797  1.00  0.00     0.135 A 
ATOM     10  C   UNL     1     -48.232  31.664  25.303  1.00  0.00     0.080 A 
ATOM     11  C   UNL     1     -47.029  31.780  24.600  1.00  0.00     0.043 A 
ATOM     12  C   UNL     1     -48.635  32.711  26.126  1.00  0.00     0.007 A 
ATOM     13  C   UNL     1     -46.252  32.955  24.740  1.00  0.00    -0.045 A 
ATOM     14  H   UNL     1     -49.576  32.577  26.647  1.00  0.00     0.069 H 
ATOM     15  C   UNL     1     -46.676  33.986  25.574  1.00  0.00    -0.019 A 
ATOM     16  H   UNL     1     -45.313  33.070  24.205  1.00  0.00     0.063 H 
ATOM     17  H   UNL     1     -46.070  34.883  25.681  1.00  0.00     0.066 H 
BRANCH   6  18
ATOM     18  C   UNL     1     -49.457  28.331  24.357  1.00  0.00     0.013 C 
ATOM     19  H   UNL     1     -50.510  28.630  24.438  1.00  0.00     0.038 H 
BRANCH  18  20
ATOM     20  C   UNL     1     -49.152  27.383  25.518  1.00  0.00    -0.056 C 
ATOM     21  H   UNL     1     -48.678  26.457  25.174  1.00  0.00     0.024 H 
ATOM     22  H   UNL     1     -48.477  27.855  26.240  1.00  0.00     0.024 H 
ATOM     23  H   UNL     1     -50.073  27.111  26.045  1.00  0.00     0.024 H 
ENDBRANCH  18  20
BRANCH  18  24
ATOM     24  C   UNL     1     -49.269  27.630  23.012  1.00  0.00    -0.056 C 
ATOM     25  H   UNL     1     -48.243  27.731  22.642  1.00  0.00     0.024 H 
ATOM     26  H   UNL     1     -49.493  26.561  23.097  1.00  0.00     0.024 H 
ATOM     27  H   UNL     1     -49.938  28.053  22.253  1.00  0.00     0.024 H 
ENDBRANCH  18  24
ENDBRANCH   6  18
BRANCH   9  28
ATOM     28  N   UNL     1     -45.519  30.652  23.034  1.00  0.00    -0.383 N 
ATOM     29  H   UNL     1     -45.667  31.150  22.163  1.00  0.00     0.158 HD
ATOM     30  H   UNL     1     -44.775  31.112  23.549  1.00  0.00     0.158 HD
ENDBRANCH   9  28
ENDBRANCH   4   5
ENDBRANCH   1   4
BRANCH   1  31
ATOM     31  C   UNL     1     -46.774  36.768  27.871  1.00  0.00     0.010 A 
ATOM     32  C   UNL     1     -46.847  36.221  29.144  1.00  0.00     0.034 A 
ATOM     33  C   UNL     1     -45.898  37.843  27.677  1.00  0.00    -0.028 A 
ATOM     34  N   UNL     1     -46.121  36.661  30.195  1.00  0.00    -0.262 NA
ATOM     35  H   UNL     1     -47.513  35.390  29.364  1.00  0.00     0.084 H 
ATOM     36  C   UNL     1     -45.153  38.353  28.745  1.00  0.00     0.066 A 
ATOM     37  H   UNL     1     -45.812  38.257  26.679  1.00  0.00     0.065 H 
ATOM     38  C   UNL     1     -45.298  37.717  29.973  1.00  0.00     0.051 A 
ATOM     39  H   UNL     1     -44.781  38.037  30.871  1.00  0.00     0.086 H 
BRANCH  36  40
ATOM     40  N   UNL     1     -44.290  39.484  28.597  1.00  0.00    -0.300 N 
ATOM     41  C   UNL     1     -43.271  39.832  29.473  1.00  0.00     0.012 A 
ATOM     42  C   UNL     1     -44.309  40.446  27.582  1.00  0.00     0.150 A 
ATOM     43  C   UNL     1     -42.655  40.979  29.027  1.00  0.00    -0.031 A 
ATOM     44  H   UNL     1     -43.037  39.233  30.342  1.00  0.00     0.082 H 
ATOM     45  C   UNL     1     -43.307  41.378  27.837  1.00  0.00     0.061 A 
ATOM     46  N   UNL     1     -45.165  40.506  26.542  1.00  0.00    -0.218 NA
ATOM     47  H   UNL     1     -41.830  41.482  29.515  1.00  0.00     0.065 H 
ATOM     48  C   UNL     1     -43.174  42.441  26.932  1.00  0.00     0.136 A 
ATOM     49  C   UNL     1     -44.956  41.573  25.759  1.00  0.00     0.120 A 
ATOM     50  N   UNL     1     -44.013  42.522  25.886  1.00  0.00    -0.219 NA
ATOM     51  H   UNL     1     -45.631  41.683  24.914  1.00  0.00     0.106 H 
BRANCH  48  52
ATOM     52  N   UNL     1     -42.209  43.431  27.049  1.00  0.00    -0.383 N 
ATOM     53  H   UNL     1     -42.145  43.864  27.959  1.00  0.00     0.158 HD
ATOM     54  H   UNL     1     -41.336  43.128  26.631  1.00  0.00     0.158 HD
ENDBRANCH  48  52
ENDBRANCH  36  40
ENDBRANCH   1  31
TORSDOF 9
ENDMDL
MODEL 2
REMARK VINA RESULT:      -9.8      1.848     10.775
REMARK SMILES CC(C)c1nc(N)c2ccc(OCc3cncc(-n4ccc5c(N)ncnc54)c3)cc2n1
REMARK SMILES IDX 13 1 12 4 11 5 4 6 5 7 32 8 6 9 31 10 8 11 30 12 9 13 10 15
REMARK SMILES IDX 2 18 1 20 3 24 7 28 14 31 15 32 29 33 16 34 18 36 17 38
REMARK SMILES IDX 19 40 20 41 28 42 21 43 22 45 27 46 23 48 26 49 25 50 24 52
REMARK H PARENT 13 2 13 3 30 14 9 16 10 17 2 19 1 21 1 22 1 23 3 25 3 26 3 27
REMARK H PARENT 7 29 7 30 15 35 29 37 17 39 20 44 21 47 26 51 24 53 24 54
REMARK Flexibility Score: inf
ROOT
ATOM      1  C   UNL     1     -46.953  36.548  26.727  1.00  0.00     0.115 C 
ATOM      2  H   UNL     1     -46.353  36.967  25.909  1.00  0.00     0.076 H 
ATOM      3  H   UNL     1     -47.984  36.847  26.504  1.00  0.00     0.076 H 
ENDROOT
BRANCH   1   4
ATOM      4  O   UNL     1     -46.617  37.136  27.985  1.00  0.00    -0.489 OA
BRANCH   4   5
ATOM      5  C   UNL     1     -45.737  38.183  28.016  1.00  0.00     0.122 A 
ATOM      6  C   UNL     1     -43.596  42.036  26.297  1.00  0.00     0.133 A 
ATOM      7  N   UNL     1     -42.792  42.183  27.359  1.00  0.00    -0.215 NA
ATOM      8  N   UNL     1     -44.515  41.063  26.164  1.00  0.00    -0.232 NA
ATOM      9  C   UNL     1     -42.917  41.292  28.350  1.00  0.00     0.135 A 
ATOM     10  C   UNL     1     -44.626  40.176  27.156  1.00  0.00     0.080 A 
ATOM     11  C   UNL     1     -43.837  40.233  28.309  1.00  0.00     0.043 A 
ATOM     12  C   UNL     1     -45.565  39.157  27.031  1.00  0.00     0.007 A 
ATOM     13  C   UNL     1     -44.010  39.256  29.319  1.00  0.00    -0.045 A 
ATOM     14  H   UNL     1     -46.156  39.157  26.122  1.00  0.00     0.069 H 
ATOM     15  C   UNL     1     -44.954  38.243  29.166  1.00  0.00    -0.019 A 
ATOM     16  H   UNL     1     -43.410  39.277  30.224  1.00  0.00     0.063 H 
ATOM     17  H   UNL     1     -45.077  37.493  29.945  1.00  0.00     0.066 H 
BRANCH   6  18
ATOM     18  C   UNL     1     -43.429  43.021  25.161  1.00  0.00     0.013 C 
ATOM     19  H   UNL     1     -43.551  42.479  24.215  1.00  0.00     0.038 H 
BRANCH  18  20
ATOM     20  C   UNL     1     -42.031  43.641  25.164  1.00  0.00    -0.056 C 
ATOM     21  H   UNL     1     -41.975  44.521  24.515  1.00  0.00     0.024 H 
ATOM     22  H   UNL     1     -41.744  43.952  26.174  1.00  0.00     0.024 H 
ATOM     23  H   UNL     1     -41.289  42.918  24.811  1.00  0.00     0.024 H 
ENDBRANCH  18  20
BRANCH  18  24
ATOM     24  C   UNL     1     -44.509  44.101  25.228  1.00  0.00    -0.056 C 
ATOM     25  H   UNL     1     -45.421  43.732  25.708  1.00  0.00     0.024 H 
ATOM     26  H   UNL     1     -44.155  44.967  25.797  1.00  0.00     0.024 H 
ATOM     27  H   UNL     1     -44.780  44.447  24.224  1.00  0.00     0.024 H 
ENDBRANCH  18  24
ENDBRANCH   6  18
BRANCH   9  28
ATOM     28  N   UNL     1     -42.055  41.472  29.446  1.00  0.00    -0.383 N 
ATOM     29  H   UNL     1     -41.788  40.568  29.821  1.00  0.00     0.158 HD
ATOM     30  H   UNL     1     -41.218  41.958  29.141  1.00  0.00     0.158 HD
ENDBRANCH   9  28
ENDBRANCH   4   5
ENDBRANCH   1   4
BRANCH   1  31
ATOM     31  C   UNL     1     -46.911  35.046  26.781  1.00  0.00     0.010 A 
ATOM     32  C   UNL     1     -46.255  34.388  27.813  1.00  0.00     0.034 A 
ATOM     33  C   UNL     1     -47.525  34.259  25.799  1.00  0.00    -0.028 A 
ATOM     34  N   UNL     1     -46.185  33.044  27.923  1.00  0.00    -0.262 NA
ATOM     35  H   UNL     1     -45.751  34.939  28.602  1.00  0.00     0.084 H 
ATOM     36  C   UNL     1     -47.448  32.864  25.855  1.00  0.00     0.066 A 
ATOM     37  H   UNL     1     -48.066  34.764  25.006  1.00  0.00     0.065 H 
ATOM     38  C   UNL     1     -46.775  32.315  26.942  1.00  0.00     0.051 A 
ATOM     39  H   UNL     1     -46.641  31.248  27.078  1.00  0.00     0.086 H 
BRANCH  36  40
ATOM     40  N   UNL     1     -48.016  32.030  24.842  1.00  0.00    -0.300 N 
ATOM     41  C   UNL     1     -49.324  31.565  24.829  1.00  0.00     0.012 A 
ATOM     42  C   UNL     1     -47.385  31.516  23.705  1.00  0.00     0.150 A 
ATOM     43  C   UNL     1     -49.523  30.783  23.715  1.00  0.00    -0.031 A 
ATOM     44  H   UNL     1     -50.033  31.836  25.600  1.00  0.00     0.082 H 
ATOM     45  C   UNL     1     -48.302  30.741  23.002  1.00  0.00     0.061 A 
ATOM     46  N   UNL     1     -46.097  31.694  23.346  1.00  0.00    -0.218 NA
ATOM     47  H   UNL     1     -50.447  30.285  23.451  1.00  0.00     0.065 H 
ATOM     48  C   UNL     1     -47.851  30.120  21.828  1.00  0.00     0.136 A 
ATOM     49  C   UNL     1     -45.776  31.040  22.222  1.00  0.00     0.120 A 
ATOM     50  N   UNL     1     -46.573  30.285  21.447  1.00  0.00    -0.219 NA
ATOM     51  H   UNL     1     -44.744  31.131  21.895  1.00  0.00     0.106 H 
BRANCH  48  52
ATOM     52  N   UNL     1     -48.658  29.336  21.016  1.00  0.00    -0.383 N 
ATOM     53  H   UNL     1     -49.646  29.381  21.221  1.00  0.00     0.158 HD
ATOM     54  H   UNL     1     -48.393  29.440  20.043  1.00  0.00     0.158 HD
ENDBRANCH  48  52
ENDBRANCH  36  40
ENDBRANCH   1  31
TORSDOF 9
ENDMDL
MODEL 3
REMARK VINA RESULT:      -9.7      1.473      2.449
REMARK SMILES CC(C)c1nc(N)c2ccc(OCc3cncc(-n4ccc5c(N)ncnc54)c3)cc2n1
REMARK SMILES IDX 13 1 12 4 11 5 4 6 5 7 32 8 6 9 31 10 8 11 30 12 9 13 10 15
REMARK SMILES IDX 2 18 1 20 3 24 7 28 14 31 15 32 29 33 16 34 18 36 17 38
REMARK SMILES IDX 19 40 20 41 28 42 21 43 22 45 27 46 23 48 26 49 25 50 24 52
REMARK H PARENT 13 2 13 3 30 14 9 16 10 17 2 19 1 21 1 22 1 23 3 25 3 26 3 27
REMARK H PARENT 7 29 7 30 15 35 29 37 17 39 20 44 21 47 26 51 24 53 24 54
REMARK Flexibility Score: inf
ROOT
ATOM      1  C   UNL     1     -47.381  34.394  27.090  1.00  0.00     0.115 C 
ATOM      2  H   UNL     1     -46.325  34.147  26.924  1.00  0.00     0.076 H 
ATOM      3  H   UNL     1     -47.670  33.819  27.978  1.00  0.00     0.076 H 
ENDROOT
BRANCH   1   4
ATOM      4  O   UNL     1     -48.206  33.934  26.017  1.00  0.00    -0.489 OA
BRANCH   4   5
ATOM      5  C   UNL     1     -47.906  32.747  25.407  1.00  0.00     0.122 A 
ATOM      6  C   UNL     1     -48.610  28.205  24.284  1.00  0.00     0.133 A 
ATOM      7  N   UNL     1     -47.486  28.109  23.560  1.00  0.00    -0.215 NA
ATOM      8  N   UNL     1     -49.023  29.324  24.908  1.00  0.00    -0.232 NA
ATOM      9  C   UNL     1     -46.726  29.206  23.460  1.00  0.00     0.135 A 
ATOM     10  C   UNL     1     -48.252  30.410  24.806  1.00  0.00     0.080 A 
ATOM     11  C   UNL     1     -47.058  30.421  24.078  1.00  0.00     0.043 A 
ATOM     12  C   UNL     1     -48.658  31.572  25.453  1.00  0.00     0.007 A 
ATOM     13  C   UNL     1     -46.292  31.610  24.017  1.00  0.00    -0.045 A 
ATOM     14  H   UNL     1     -49.592  31.516  26.001  1.00  0.00     0.069 H 
ATOM     15  C   UNL     1     -46.720  32.759  24.678  1.00  0.00    -0.019 A 
ATOM     16  H   UNL     1     -45.361  31.645  23.459  1.00  0.00     0.063 H 
ATOM     17  H   UNL     1     -46.122  33.667  24.630  1.00  0.00     0.066 H 
BRANCH   6  18
ATOM     18  C   UNL     1     -49.451  26.956  24.427  1.00  0.00     0.013 C 
ATOM     19  H   UNL     1     -49.369  26.378  23.497  1.00  0.00     0.038 H 
BRANCH  18  20
ATOM     20  C   UNL     1     -50.926  27.300  24.632  1.00  0.00    -0.056 C 
ATOM     21  H   UNL     1     -51.053  28.254  25.155  1.00  0.00     0.024 H 
ATOM     22  H   UNL     1     -51.447  27.374  23.672  1.00  0.00     0.024 H 
ATOM     23  H   UNL     1     -51.423  26.525  25.226  1.00  0.00     0.024 H 
ENDBRANCH  18  20
BRANCH  18  24
ATOM     24  C   UNL     1     -48.925  26.087  25.569  1.00  0.00    -0.056 C 
ATOM     25  H   UNL     1     -47.929  26.405  25.895  1.00  0.00     0.024 H 
ATOM     26  H   UNL     1     -49.594  26.138  26.434  1.00  0.00     0.024 H 
ATOM     27  H   UNL     1     -48.853  25.038  25.262  1.00  0.00     0.024 H 
ENDBRANCH  18  24
ENDBRANCH   6  18
BRANCH   9  28
ATOM     28  N   UNL     1     -45.553  29.068  22.698  1.00  0.00    -0.383 N 
ATOM     29  H   UNL     1     -45.338  28.083  22.579  1.00  0.00     0.158 HD
ATOM     30  H   UNL     1     -45.694  29.482  21.782  1.00  0.00     0.158 HD
ENDBRANCH   9  28
ENDBRANCH   4   5
ENDBRANCH   1   4
BRANCH   1  31
ATOM     31  C   UNL     1     -47.607  35.850  27.388  1.00  0.00     0.010 A 
ATOM     32  C   UNL     1     -48.874  36.324  27.701  1.00  0.00     0.034 A 
ATOM     33  C   UNL     1     -46.557  36.776  27.361  1.00  0.00    -0.028 A 
ATOM     34  N   UNL     1     -49.143  37.617  27.984  1.00  0.00    -0.262 NA
ATOM     35  H   UNL     1     -49.733  35.660  27.731  1.00  0.00     0.084 H 
ATOM     36  C   UNL     1     -46.798  38.130  27.614  1.00  0.00     0.066 A 
ATOM     37  H   UNL     1     -45.559  36.409  27.148  1.00  0.00     0.065 H 
ATOM     38  C   UNL     1     -48.104  38.488  27.928  1.00  0.00     0.051 A 
ATOM     39  H   UNL     1     -48.407  39.510  28.126  1.00  0.00     0.086 H 
BRANCH  36  40
ATOM     40  N   UNL     1     -45.760  39.112  27.541  1.00  0.00    -0.300 N 
ATOM     41  C   UNL     1     -45.588  40.018  26.504  1.00  0.00     0.012 A 
ATOM     42  C   UNL     1     -44.733  39.338  28.462  1.00  0.00     0.150 A 
ATOM     43  C   UNL     1     -44.486  40.803  26.759  1.00  0.00    -0.031 A 
ATOM     44  H   UNL     1     -46.268  40.060  25.665  1.00  0.00     0.082 H 
ATOM     45  C   UNL     1     -43.936  40.377  27.991  1.00  0.00     0.061 A 
ATOM     46  N   UNL     1     -44.506  38.656  29.604  1.00  0.00    -0.218 NA
ATOM     47  H   UNL     1     -44.112  41.591  26.119  1.00  0.00     0.065 H 
ATOM     48  C   UNL     1     -42.832  40.746  28.773  1.00  0.00     0.136 A 
ATOM     49  C   UNL     1     -43.417  39.082  30.256  1.00  0.00     0.120 A 
ATOM     50  N   UNL     1     -42.588  40.084  29.916  1.00  0.00    -0.219 NA
ATOM     51  H   UNL     1     -43.174  38.555  31.175  1.00  0.00     0.106 H 
BRANCH  48  52
ATOM     52  N   UNL     1     -41.964  41.775  28.439  1.00  0.00    -0.383 N 
ATOM     53  H   UNL     1     -41.191  41.909  29.075  1.00  0.00     0.158 HD
ATOM     54  H   UNL     1     -41.736  41.742  27.452  1.00  0.00     0.158 HD
ENDBRANCH  48  52
ENDBRANCH  36  40
ENDBRANCH   1  31
TORSDOF 9
ENDMDL
MODEL 4
REMARK VINA RESULT:      -9.6      1.523      2.798
REMARK SMILES CC(C)c1nc(N)c2ccc(OCc3cncc(-n4ccc5c(N)ncnc54)c3)cc2n1
REMARK SMILES IDX 13 1 12 4 11 5 4 6 5 7 32 8 6 9 31 10 8 11 30 12 9 13 10 15
REMARK SMILES IDX 2 18 1 20 3 24 7 28 14 31 15 32 29 33 16 34 18 36 17 38
REMARK SMILES IDX 19 40 20 41 28 42 21 43 22 45 27 46 23 48 26 49 25 50 24 52
REMARK H PARENT 13 2 13 3 30 14 9 16 10 17 2 19 1 21 1 22 1 23 3 25 3 26 3 27
REMARK H PARENT 7 29 7 30 15 35 29 37 17 39 20 44 21 47 26 51 24 53 24 54
REMARK Flexibility Score: inf
ROOT
ATOM      1  C   UNL     1     -46.470  34.880  28.267  1.00  0.00     0.115 C 
ATOM      2  H   UNL     1     -45.755  34.059  28.405  1.00  0.00     0.076 H 
ATOM      3  H   UNL     1     -47.396  34.533  28.740  1.00  0.00     0.076 H 
ENDROOT
BRANCH   1   4
ATOM      4  O   UNL     1     -46.769  35.094  26.885  1.00  0.00    -0.489 OA
BRANCH   4   5
ATOM      5  C   UNL     1     -47.229  34.047  26.135  1.00  0.00     0.122 A 
ATOM      6  C   UNL     1     -46.955  30.755  22.747  1.00  0.00     0.133 A 
ATOM      7  N   UNL     1     -48.189  30.282  22.971  1.00  0.00    -0.215 NA
ATOM      8  N   UNL     1     -46.387  31.762  23.435  1.00  0.00    -0.232 NA
ATOM      9  C   UNL     1     -48.900  30.862  23.946  1.00  0.00     0.135 A 
ATOM     10  C   UNL     1     -47.108  32.336  24.402  1.00  0.00     0.080 A 
ATOM     11  C   UNL     1     -48.406  31.924  24.719  1.00  0.00     0.043 A 
ATOM     12  C   UNL     1     -46.540  33.385  25.117  1.00  0.00     0.007 A 
ATOM     13  C   UNL     1     -49.110  32.582  25.755  1.00  0.00    -0.045 A 
ATOM     14  H   UNL     1     -45.530  33.665  24.838  1.00  0.00     0.069 H 
ATOM     15  C   UNL     1     -48.520  33.633  26.453  1.00  0.00    -0.019 A 
ATOM     16  H   UNL     1     -50.121  32.283  26.021  1.00  0.00     0.063 H 
ATOM     17  H   UNL     1     -49.070  34.137  27.244  1.00  0.00     0.066 H 
BRANCH   6  18
ATOM     18  C   UNL     1     -46.166  30.125  21.620  1.00  0.00     0.013 C 
ATOM     19  H   UNL     1     -46.821  29.416  21.097  1.00  0.00     0.038 H 
BRANCH  18  20
ATOM     20  C   UNL     1     -44.966  29.343  22.153  1.00  0.00    -0.056 C 
ATOM     21  H   UNL     1     -44.030  29.899  22.028  1.00  0.00     0.024 H 
ATOM     22  H   UNL     1     -45.084  29.124  23.220  1.00  0.00     0.024 H 
ATOM     23  H   UNL     1     -44.861  28.390  21.623  1.00  0.00     0.024 H 
ENDBRANCH  18  20
BRANCH  18  24
ATOM     24  C   UNL     1     -45.728  31.190  20.616  1.00  0.00    -0.056 C 
ATOM     25  H   UNL     1     -46.508  31.941  20.454  1.00  0.00     0.024 H 
ATOM     26  H   UNL     1     -44.829  31.708  20.969  1.00  0.00     0.024 H 
ATOM     27  H   UNL     1     -45.495  30.740  19.644  1.00  0.00     0.024 H 
ENDBRANCH  18  24
ENDBRANCH   6  18
BRANCH   9  28
ATOM     28  N   UNL     1     -50.191  30.345  24.151  1.00  0.00    -0.383 N 
ATOM     29  H   UNL     1     -50.837  30.775  23.496  1.00  0.00     0.158 HD
ATOM     30  H   UNL     1     -50.183  29.343  23.988  1.00  0.00     0.158 HD
ENDBRANCH   9  28
ENDBRANCH   4   5
ENDBRANCH   1   4
BRANCH   1  31
ATOM     31  C   UNL     1     -46.050  36.151  28.952  1.00  0.00     0.010 A 
ATOM     32  C   UNL     1     -46.211  36.308  30.322  1.00  0.00     0.034 A 
ATOM     33  C   UNL     1     -45.484  37.216  28.241  1.00  0.00    -0.028 A 
ATOM     34  N   UNL     1     -45.850  37.420  30.999  1.00  0.00    -0.262 NA
ATOM     35  H   UNL     1     -46.651  35.524  30.932  1.00  0.00     0.084 H 
ATOM     36  C   UNL     1     -45.128  38.398  28.896  1.00  0.00     0.066 A 
ATOM     37  H   UNL     1     -45.326  37.090  27.175  1.00  0.00     0.065 H 
ATOM     38  C   UNL     1     -45.325  38.438  30.272  1.00  0.00     0.051 A 
ATOM     39  H   UNL     1     -45.099  39.308  30.878  1.00  0.00     0.086 H 
BRANCH  36  40
ATOM     40  N   UNL     1     -44.599  39.526  28.194  1.00  0.00    -0.300 N 
ATOM     41  C   UNL     1     -45.065  40.001  26.975  1.00  0.00     0.012 A 
ATOM     42  C   UNL     1     -43.527  40.341  28.571  1.00  0.00     0.150 A 
ATOM     43  C   UNL     1     -44.317  41.090  26.590  1.00  0.00    -0.031 A 
ATOM     44  H   UNL     1     -45.908  39.548  26.473  1.00  0.00     0.082 H 
ATOM     45  C   UNL     1     -43.339  41.309  27.589  1.00  0.00     0.061 A 
ATOM     46  N   UNL     1     -42.764  40.212  29.675  1.00  0.00    -0.218 NA
ATOM     47  H   UNL     1     -44.454  41.658  25.680  1.00  0.00     0.065 H 
ATOM     48  C   UNL     1     -42.291  42.221  27.778  1.00  0.00     0.136 A 
ATOM     49  C   UNL     1     -41.785  41.124  29.739  1.00  0.00     0.120 A 
ATOM     50  N   UNL     1     -41.519  42.116  28.872  1.00  0.00    -0.219 NA
ATOM     51  H   UNL     1     -41.125  41.056  30.600  1.00  0.00     0.106 H 
BRANCH  48  52
ATOM     52  N   UNL     1     -42.000  43.250  26.893  1.00  0.00    -0.383 N 
ATOM     53  H   UNL     1     -41.778  44.137  27.324  1.00  0.00     0.158 HD
ATOM     54  H   UNL     1     -41.367  42.929  26.169  1.00  0.00     0.158 HD
ENDBRANCH  48  52
ENDBRANCH  36  40
ENDBRANCH   1  31
TORSDOF 9
ENDMDL
MODEL 5
REMARK VINA RESULT:      -9.6      1.328      2.126
REMARK SMILES CC(C)c1nc(N)c2ccc(OCc3cncc(-n4ccc5c(N)ncnc54)c3)cc2n1
REMARK SMILES IDX 13 1 12 4 11 5 4 6 5 7 32 8 6 9 31 10 8 11 30 12 9 13 10 15
REMARK SMILES IDX 2 18 1 20 3 24 7 28 14 31 15 32 29 33 16 34 18 36 17 38
REMARK SMILES IDX 19 40 20 41 28 42 21 43 22 45 27 46 23 48 26 49 25 50 24 52
REMARK H PARENT 13 2 13 3 30 14 9 16 10 17 2 19 1 21 1 22 1 23 3 25 3 26 3 27
REMARK H PARENT 7 29 7 30 15 35 29 37 17 39 20 44 21 47 26 51 24 53 24 54
REMARK Flexibility Score: inf
ROOT
ATOM      1  C   UNL     1     -47.207  36.084  27.895  1.00  0.00     0.115 C 
ATOM      2  H   UNL     1     -46.219  35.736  27.569  1.00  0.00     0.076 H 
ATOM      3  H   UNL     1     -47.269  35.810  28.955  1.00  0.00     0.076 H 
ENDROOT
BRANCH   1   4
ATOM      4  O   UNL     1     -48.261  35.385  27.227  1.00  0.00    -0.489 OA
BRANCH   4   5
ATOM      5  C   UNL     1     -47.950  34.317  26.431  1.00  0.00     0.122 A 
ATOM      6  C   UNL     1     -48.715  30.104  24.418  1.00  0.00     0.133 A 
ATOM      7  N   UNL     1     -47.535  30.085  23.781  1.00  0.00    -0.215 NA
ATOM      8  N   UNL     1     -49.140  31.107  25.207  1.00  0.00    -0.232 NA
ATOM      9  C   UNL     1     -46.731  31.141  23.951  1.00  0.00     0.135 A 
ATOM     10  C   UNL     1     -48.325  32.152  25.374  1.00  0.00     0.080 A 
ATOM     11  C   UNL     1     -47.072  32.236  24.758  1.00  0.00     0.043 A 
ATOM     12  C   UNL     1     -48.745  33.194  26.194  1.00  0.00     0.007 A 
ATOM     13  C   UNL     1     -46.262  33.375  24.984  1.00  0.00    -0.045 A 
ATOM     14  H   UNL     1     -49.725  33.086  26.645  1.00  0.00     0.069 H 
ATOM     15  C   UNL     1     -46.705  34.403  25.814  1.00  0.00    -0.019 A 
ATOM     16  H   UNL     1     -45.285  33.465  24.518  1.00  0.00     0.063 H 
ATOM     17  H   UNL     1     -46.073  35.272  25.986  1.00  0.00     0.066 H 
BRANCH   6  18
ATOM     18  C   UNL     1     -49.608  28.894  24.256  1.00  0.00     0.013 C 
ATOM     19  H   UNL     1     -50.389  28.938  25.026  1.00  0.00     0.038 H 
BRANCH  18  20
ATOM     20  C   UNL     1     -48.827  27.596  24.458  1.00  0.00    -0.056 C 
ATOM     21  H   UNL     1     -48.516  27.466  25.501  1.00  0.00     0.024 H 
ATOM     22  H   UNL     1     -49.434  26.727  24.181  1.00  0.00     0.024 H 
ATOM     23  H   UNL     1     -47.925  27.588  23.838  1.00  0.00     0.024 H 
ENDBRANCH  18  20
BRANCH  18  24
ATOM     24  C   UNL     1     -50.293  28.917  22.890  1.00  0.00    -0.056 C 
ATOM     25  H   UNL     1     -51.332  29.256  22.962  1.00  0.00     0.024 H 
ATOM     26  H   UNL     1     -49.766  29.588  22.203  1.00  0.00     0.024 H 
ATOM     27  H   UNL     1     -50.302  27.918  22.439  1.00  0.00     0.024 H 
ENDBRANCH  18  24
ENDBRANCH   6  18
BRANCH   9  28
ATOM     28  N   UNL     1     -45.500  31.087  23.272  1.00  0.00    -0.383 N 
ATOM     29  H   UNL     1     -45.261  32.011  22.928  1.00  0.00     0.158 HD
ATOM     30  H   UNL     1     -44.775  30.781  23.912  1.00  0.00     0.158 HD
ENDBRANCH   9  28
ENDBRANCH   4   5
ENDBRANCH   1   4
BRANCH   1  31
ATOM     31  C   UNL     1     -47.372  37.575  27.794  1.00  0.00     0.010 A 
ATOM     32  C   UNL     1     -48.577  38.183  28.117  1.00  0.00     0.034 A 
ATOM     33  C   UNL     1     -46.323  38.401  27.371  1.00  0.00    -0.028 A 
ATOM     34  N   UNL     1     -48.789  39.515  28.054  1.00  0.00    -0.262 NA
ATOM     35  H   UNL     1     -49.433  37.598  28.444  1.00  0.00     0.084 H 
ATOM     36  C   UNL     1     -46.509  39.782  27.257  1.00  0.00     0.066 A 
ATOM     37  H   UNL     1     -45.369  37.939  27.145  1.00  0.00     0.065 H 
ATOM     38  C   UNL     1     -47.756  40.281  27.621  1.00  0.00     0.051 A 
ATOM     39  H   UNL     1     -48.015  41.332  27.558  1.00  0.00     0.086 H 
BRANCH  36  40
ATOM     40  N   UNL     1     -45.479  40.651  26.778  1.00  0.00    -0.300 N 
ATOM     41  C   UNL     1     -45.520  41.358  25.584  1.00  0.00     0.012 A 
ATOM     42  C   UNL     1     -44.253  40.939  27.386  1.00  0.00     0.150 A 
ATOM     43  C   UNL     1     -44.358  42.080  25.438  1.00  0.00    -0.031 A 
ATOM     44  H   UNL     1     -46.378  41.319  24.928  1.00  0.00     0.082 H 
ATOM     45  C   UNL     1     -43.549  41.817  26.568  1.00  0.00     0.061 A 
ATOM     46  N   UNL     1     -43.790  40.436  28.549  1.00  0.00    -0.218 NA
ATOM     47  H   UNL     1     -44.114  42.720  24.599  1.00  0.00     0.065 H 
ATOM     48  C   UNL     1     -42.276  42.217  27.001  1.00  0.00     0.136 A 
ATOM     49  C   UNL     1     -42.560  40.872  28.850  1.00  0.00     0.120 A 
ATOM     50  N   UNL     1     -41.794  41.733  28.158  1.00  0.00    -0.219 NA
ATOM     51  H   UNL     1     -42.128  40.484  29.768  1.00  0.00     0.106 H 
BRANCH  48  52
ATOM     52  N   UNL     1     -41.470  43.103  26.300  1.00  0.00    -0.383 N 
ATOM     53  H   UNL     1     -41.341  44.004  26.738  1.00  0.00     0.158 HD
ATOM     54  H   UNL     1     -40.633  42.638  25.969  1.00  0.00     0.158 HD
ENDBRANCH  48  52
ENDBRANCH  36  40
ENDBRANCH   1  31
TORSDOF 9
ENDMDL
MODEL 6
REMARK VINA RESULT:      -9.5      1.690     11.266
REMARK SMILES CC(C)c1nc(N)c2ccc(OCc3cncc(-n4ccc5c(N)ncnc54)c3)cc2n1
REMARK SMILES IDX 13 1 12 4 11 5 4 6 5 7 32 8 6 9 31 10 8 11 30 12 9 13 10 15
REMARK SMILES IDX 2 18 1 20 3 24 7 28 14 31 15 32 29 33 16 34 18 36 17 38
REMARK SMILES IDX 19 40 20 41 28 42 21 43 22 45 27 46 23 48 26 49 25 50 24 52
REMARK H PARENT 13 2 13 3 30 14 9 16 10 17 2 19 1 21 1 22 1 23 3 25 3 26 3 27
REMARK H PARENT 7 29 7 30 15 35 29 37 17 39 20 44 21 47 26 51 24 53 24 54
REMARK Flexibility Score: inf
ROOT
ATOM      1  C   UNL     1     -47.937  34.992  27.201  1.00  0.00     0.115 C 
ATOM      2  H   UNL     1     -48.888  34.864  27.732  1.00  0.00     0.076 H 
ATOM      3  H   UNL     1     -47.168  34.956  27.982  1.00  0.00     0.076 H 
ENDROOT
BRANCH   1   4
ATOM      4  O   UNL     1     -47.841  36.281  26.590  1.00  0.00    -0.489 OA
BRANCH   4   5
ATOM      5  C   UNL     1     -46.930  37.180  27.073  1.00  0.00     0.122 A 
ATOM      6  C   UNL     1     -44.380  41.165  26.990  1.00  0.00     0.133 A 
ATOM      7  N   UNL     1     -43.742  40.896  28.138  1.00  0.00    -0.215 NA
ATOM      8  N   UNL     1     -45.312  40.372  26.430  1.00  0.00    -0.232 NA
ATOM      9  C   UNL     1     -44.057  39.753  28.760  1.00  0.00     0.135 A 
ATOM     10  C   UNL     1     -45.612  39.231  27.058  1.00  0.00     0.080 A 
ATOM     11  C   UNL     1     -45.007  38.850  28.260  1.00  0.00     0.043 A 
ATOM     12  C   UNL     1     -46.566  38.394  26.488  1.00  0.00     0.007 A 
ATOM     13  C   UNL     1     -45.376  37.626  28.866  1.00  0.00    -0.045 A 
ATOM     14  H   UNL     1     -47.011  38.734  25.560  1.00  0.00     0.069 H 
ATOM     15  C   UNL     1     -46.330  36.803  28.272  1.00  0.00    -0.019 A 
ATOM     16  H   UNL     1     -44.920  37.306  29.799  1.00  0.00     0.063 H 
ATOM     17  H   UNL     1     -46.603  35.861  28.742  1.00  0.00     0.066 H 
BRANCH   6  18
ATOM     18  C   UNL     1     -43.998  42.437  26.267  1.00  0.00     0.013 C 
ATOM     19  H   UNL     1     -44.528  43.274  26.741  1.00  0.00     0.038 H 
BRANCH  18  20
ATOM     20  C   UNL     1     -44.421  42.391  24.799  1.00  0.00    -0.056 C 
ATOM     21  H   UNL     1     -43.560  42.273  24.131  1.00  0.00     0.024 H 
ATOM     22  H   UNL     1     -45.102  41.553  24.615  1.00  0.00     0.024 H 
ATOM     23  H   UNL     1     -44.938  43.314  24.517  1.00  0.00     0.024 H 
ENDBRANCH  18  20
BRANCH  18  24
ATOM     24  C   UNL     1     -42.497  42.696  26.400  1.00  0.00    -0.056 C 
ATOM     25  H   UNL     1     -41.982  42.590  25.440  1.00  0.00     0.024 H 
ATOM     26  H   UNL     1     -42.311  43.708  26.773  1.00  0.00     0.024 H 
ATOM     27  H   UNL     1     -42.039  41.990  27.101  1.00  0.00     0.024 H 
ENDBRANCH  18  24
ENDBRANCH   6  18
BRANCH   9  28
ATOM     28  N   UNL     1     -43.365  39.500  29.958  1.00  0.00    -0.383 N 
ATOM     29  H   UNL     1     -42.685  40.236  30.119  1.00  0.00     0.158 HD
ATOM     30  H   UNL     1     -44.022  39.491  30.732  1.00  0.00     0.158 HD
ENDBRANCH   9  28
ENDBRANCH   4   5
ENDBRANCH   1   4
BRANCH   1  31
ATOM     31  C   UNL     1     -47.653  33.886  26.223  1.00  0.00     0.010 A 
ATOM     32  C   UNL     1     -46.386  33.720  25.682  1.00  0.00     0.034 A 
ATOM     33  C   UNL     1     -48.650  32.987  25.823  1.00  0.00    -0.028 A 
ATOM     34  N   UNL     1     -46.064  32.745  24.805  1.00  0.00    -0.262 NA
ATOM     35  H   UNL     1     -45.569  34.388  25.944  1.00  0.00     0.084 H 
ATOM     36  C   UNL     1     -48.369  31.984  24.891  1.00  0.00     0.066 A 
ATOM     37  H   UNL     1     -49.635  33.089  26.264  1.00  0.00     0.065 H 
ATOM     38  C   UNL     1     -47.060  31.906  24.426  1.00  0.00     0.051 A 
ATOM     39  H   UNL     1     -46.735  31.179  23.691  1.00  0.00     0.086 H 
BRANCH  36  40
ATOM     40  N   UNL     1     -49.374  31.083  24.418  1.00  0.00    -0.300 N 
ATOM     41  C   UNL     1     -50.405  31.418  23.551  1.00  0.00     0.012 A 
ATOM     42  C   UNL     1     -49.527  29.730  24.738  1.00  0.00     0.150 A 
ATOM     43  C   UNL     1     -51.190  30.311  23.321  1.00  0.00    -0.031 A 
ATOM     44  H   UNL     1     -50.503  32.412  23.140  1.00  0.00     0.082 H 
ATOM     45  C   UNL     1     -50.646  29.241  24.071  1.00  0.00     0.061 A 
ATOM     46  N   UNL     1     -48.758  29.006  25.577  1.00  0.00    -0.218 NA
ATOM     47  H   UNL     1     -52.067  30.280  22.689  1.00  0.00     0.065 H 
ATOM     48  C   UNL     1     -50.979  27.894  24.277  1.00  0.00     0.136 A 
ATOM     49  C   UNL     1     -49.182  27.743  25.711  1.00  0.00     0.120 A 
ATOM     50  N   UNL     1     -50.226  27.152  25.106  1.00  0.00    -0.219 NA
ATOM     51  H   UNL     1     -48.611  27.117  26.391  1.00  0.00     0.106 H 
BRANCH  48  52
ATOM     52  N   UNL     1     -52.054  27.267  23.663  1.00  0.00    -0.383 N 
ATOM     53  H   UNL     1     -52.695  26.802  24.290  1.00  0.00     0.158 HD
ATOM     54  H   UNL     1     -52.466  27.872  22.962  1.00  0.00     0.158 HD
ENDBRANCH  48  52
ENDBRANCH  36  40
ENDBRANCH   1  31
TORSDOF 9
ENDMDL
MODEL 7
REMARK VINA RESULT:      -9.3      1.781     10.790
REMARK SMILES CC(C)c1nc(N)c2ccc(OCc3cncc(-n4ccc5c(N)ncnc54)c3)cc2n1
REMARK SMILES IDX 13 1 12 4 11 5 4 6 5 7 32 8 6 9 31 10 8 11 30 12 9 13 10 15
REMARK SMILES IDX 2 18 1 20 3 24 7 28 14 31 15 32 29 33 16 34 18 36 17 38
REMARK SMILES IDX 19 40 20 41 28 42 21 43 22 45 27 46 23 48 26 49 25 50 24 52
REMARK H PARENT 13 2 13 3 30 14 9 16 10 17 2 19 1 21 1 22 1 23 3 25 3 26 3 27
REMARK H PARENT 7 29 7 30 15 35 29 37 17 39 20 44 21 47 26 51 24 53 24 54
REMARK Flexibility Score: inf
ROOT
ATOM      1  C   UNL     1     -48.636  35.095  27.079  1.00  0.00     0.115 C 
ATOM      2  H   UNL     1     -48.800  36.036  26.539  1.00  0.00     0.076 H 
ATOM      3  H   UNL     1     -49.639  34.747  27.355  1.00  0.00     0.076 H 
ENDROOT
BRANCH   1   4
ATOM      4  O   UNL     1     -47.922  35.303  28.300  1.00  0.00    -0.489 OA
BRANCH   4   5
ATOM      5  C   UNL     1     -47.056  36.357  28.392  1.00  0.00     0.122 A 
ATOM      6  C   UNL     1     -45.034  40.385  26.950  1.00  0.00     0.133 A 
ATOM      7  N   UNL     1     -44.190  40.448  27.990  1.00  0.00    -0.215 NA
ATOM      8  N   UNL     1     -45.946  39.414  26.765  1.00  0.00    -0.232 NA
ATOM      9  C   UNL     1     -44.264  39.468  28.898  1.00  0.00     0.135 A 
ATOM     10  C   UNL     1     -46.006  38.438  27.676  1.00  0.00     0.080 A 
ATOM     11  C   UNL     1     -45.171  38.402  28.797  1.00  0.00     0.043 A 
ATOM     12  C   UNL     1     -46.936  37.419  27.494  1.00  0.00     0.007 A 
ATOM     13  C   UNL     1     -45.291  37.335  29.719  1.00  0.00    -0.045 A 
ATOM     14  H   UNL     1     -47.563  37.493  26.613  1.00  0.00     0.069 H 
ATOM     15  C   UNL     1     -46.228  36.325  29.511  1.00  0.00    -0.019 A 
ATOM     16  H   UNL     1     -44.655  37.283  30.598  1.00  0.00     0.063 H 
ATOM     17  H   UNL     1     -46.309  35.505  30.222  1.00  0.00     0.066 H 
BRANCH   6  18
ATOM     18  C   UNL     1     -44.926  41.472  25.904  1.00  0.00     0.013 C 
ATOM     19  H   UNL     1     -44.936  40.999  24.914  1.00  0.00     0.038 H 
BRANCH  18  20
ATOM     20  C   UNL     1     -43.612  42.243  26.038  1.00  0.00    -0.056 C 
ATOM     21  H   UNL     1     -42.984  41.839  26.840  1.00  0.00     0.024 H 
ATOM     22  H   UNL     1     -43.036  42.197  25.108  1.00  0.00     0.024 H 
ATOM     23  H   UNL     1     -43.805  43.297  26.264  1.00  0.00     0.024 H 
ENDBRANCH  18  20
BRANCH  18  24
ATOM     24  C   UNL     1     -46.127  42.414  25.987  1.00  0.00    -0.056 C 
ATOM     25  H   UNL     1     -46.565  42.425  26.991  1.00  0.00     0.024 H 
ATOM     26  H   UNL     1     -45.832  43.439  25.738  1.00  0.00     0.024 H 
ATOM     27  H   UNL     1     -46.912  42.111  25.286  1.00  0.00     0.024 H 
ENDBRANCH  18  24
ENDBRANCH   6  18
BRANCH   9  28
ATOM     28  N   UNL     1     -43.361  39.562  29.972  1.00  0.00    -0.383 N 
ATOM     29  H   UNL     1     -42.808  40.408  29.878  1.00  0.00     0.158 HD
ATOM     30  H   UNL     1     -43.878  39.607  30.845  1.00  0.00     0.158 HD
ENDBRANCH   9  28
ENDBRANCH   4   5
ENDBRANCH   1   4
BRANCH   1  31
ATOM     31  C   UNL     1     -47.997  34.031  26.230  1.00  0.00     0.010 A 
ATOM     32  C   UNL     1     -46.692  34.169  25.777  1.00  0.00     0.034 A 
ATOM     33  C   UNL     1     -48.689  32.869  25.866  1.00  0.00    -0.028 A 
ATOM     34  N   UNL     1     -46.059  33.250  25.017  1.00  0.00    -0.262 NA
ATOM     35  H   UNL     1     -46.102  35.050  26.016  1.00  0.00     0.084 H 
ATOM     36  C   UNL     1     -48.083  31.907  25.052  1.00  0.00     0.066 A 
ATOM     37  H   UNL     1     -49.698  32.739  26.241  1.00  0.00     0.065 H 
ATOM     38  C   UNL     1     -46.768  32.147  24.669  1.00  0.00     0.051 A 
ATOM     39  H   UNL     1     -46.207  31.477  24.026  1.00  0.00     0.086 H 
BRANCH  36  40
ATOM     40  N   UNL     1     -48.777  30.735  24.616  1.00  0.00    -0.300 N 
ATOM     41  C   UNL     1     -48.856  29.543  25.323  1.00  0.00     0.012 A 
ATOM     42  C   UNL     1     -49.479  30.554  23.420  1.00  0.00     0.150 A 
ATOM     43  C   UNL     1     -49.590  28.629  24.601  1.00  0.00    -0.031 A 
ATOM     44  H   UNL     1     -48.404  29.427  26.297  1.00  0.00     0.082 H 
ATOM     45  C   UNL     1     -49.983  29.257  23.395  1.00  0.00     0.061 A 
ATOM     46  N   UNL     1     -49.626  31.452  22.425  1.00  0.00    -0.218 NA
ATOM     47  H   UNL     1     -49.809  27.615  24.907  1.00  0.00     0.065 H 
ATOM     48  C   UNL     1     -50.710  28.872  22.259  1.00  0.00     0.136 A 
ATOM     49  C   UNL     1     -50.320  30.968  21.387  1.00  0.00     0.120 A 
ATOM     50  N   UNL     1     -50.874  29.750  21.257  1.00  0.00    -0.219 NA
ATOM     51  H   UNL     1     -50.453  31.643  20.546  1.00  0.00     0.106 H 
BRANCH  48  52
ATOM     52  N   UNL     1     -51.288  27.620  22.106  1.00  0.00    -0.383 N 
ATOM     53  H   UNL     1     -51.437  27.108  22.965  1.00  0.00     0.158 HD
ATOM     54  H   UNL     1     -52.072  27.665  21.466  1.00  0.00     0.158 HD
ENDBRANCH  48  52
ENDBRANCH  36  40
ENDBRANCH   1  31
TORSDOF 9
ENDMDL
