MODEL 1
REMARK VINA RESULT:     -10.6      0.000      0.000
REMARK SMILES O=C(NCc1ccc2cc(CN3CCOCC3)[nH]c2c1)c1cc(=O)n2ccccc2n1
REMARK SMILES IDX 5 1 6 2 7 3 8 4 9 5 10 6 18 7 19 8 20 9 4 15 3 18 1 19 2 20
REMARK SMILES IDX 21 22 22 23 31 24 23 25 30 27 24 28 25 29 29 30 26 31 28 32
REMARK SMILES IDX 27 34 11 38 12 41 13 42 17 43 14 44 16 47 15 50
REMARK H PARENT 6 10 7 11 9 12 18 13 20 14 4 16 4 17 3 21 22 26 29 33 26 35
REMARK H PARENT 28 36 27 37 11 39 11 40 13 45 13 46 17 48 17 49 14 51 14 52
REMARK H PARENT 16 53 16 54
REMARK Flexibility Score: inf
ROOT
ATOM      1  C   UNL     1     -47.766  34.722  26.549  1.00  0.00    -0.027 A 
ATOM      2  C   UNL     1     -46.526  34.665  25.900  1.00  0.00    -0.057 A 
ATOM      3  C   UNL     1     -46.178  33.571  25.096  1.00  0.00    -0.052 A 
ATOM      4  C   UNL     1     -47.096  32.516  24.932  1.00  0.00    -0.000 A 
ATOM      5  C   UNL     1     -47.078  31.293  24.205  1.00  0.00    -0.032 A 
ATOM      6  C   UNL     1     -48.284  30.654  24.417  1.00  0.00     0.030 A 
ATOM      7  N   UNL     1     -49.026  31.455  25.253  1.00  0.00    -0.357 N 
ATOM      8  C   UNL     1     -48.327  32.594  25.579  1.00  0.00     0.046 A 
ATOM      9  C   UNL     1     -48.692  33.677  26.385  1.00  0.00    -0.033 A 
ATOM     10  H   UNL     1     -45.811  35.476  26.015  1.00  0.00     0.063 H 
ATOM     11  H   UNL     1     -45.212  33.540  24.602  1.00  0.00     0.063 H 
ATOM     12  H   UNL     1     -46.267  30.923  23.593  1.00  0.00     0.065 H 
ATOM     13  H   UNL     1     -49.969  31.243  25.551  1.00  0.00     0.166 HD
ATOM     14  H   UNL     1     -49.665  33.714  26.869  1.00  0.00     0.065 H 
ENDROOT
BRANCH   1  15
ATOM     15  C   UNL     1     -48.134  35.918  27.391  1.00  0.00     0.043 C 
ATOM     16  H   UNL     1     -49.032  36.402  26.990  1.00  0.00     0.054 H 
ATOM     17  H   UNL     1     -48.366  35.607  28.416  1.00  0.00     0.054 H 
BRANCH  15  18
ATOM     18  N   UNL     1     -47.040  36.851  27.463  1.00  0.00    -0.347 N 
ATOM     19  O   UNL     1     -46.488  36.465  29.664  1.00  0.00    -0.268 OA
ATOM     20  C   UNL     1     -46.352  37.100  28.626  1.00  0.00     0.270 C 
ATOM     21  H   UNL     1     -46.915  37.528  26.718  1.00  0.00     0.164 HD
BRANCH  20  22
ATOM     22  C   UNL     1     -45.405  38.269  28.492  1.00  0.00     0.136 A 
ATOM     23  C   UNL     1     -44.553  38.462  29.501  1.00  0.00     0.035 A 
ATOM     24  N   UNL     1     -45.479  39.057  27.364  1.00  0.00    -0.225 NA
ATOM     25  C   UNL     1     -43.618  39.590  29.417  1.00  0.00     0.258 A 
ATOM     26  H   UNL     1     -44.506  37.837  30.383  1.00  0.00     0.071 H 
ATOM     27  C   UNL     1     -44.653  40.055  27.296  1.00  0.00     0.140 A 
ATOM     28  O   UNL     1     -42.828  39.773  30.340  1.00  0.00    -0.269 OA
ATOM     29  N   UNL     1     -43.714  40.369  28.273  1.00  0.00    -0.268 N 
ATOM     30  C   UNL     1     -44.698  40.937  26.095  1.00  0.00    -0.019 A 
ATOM     31  C   UNL     1     -42.862  41.459  28.122  1.00  0.00     0.014 A 
ATOM     32  C   UNL     1     -43.858  41.975  25.996  1.00  0.00    -0.057 A 
ATOM     33  H   UNL     1     -45.426  40.702  25.329  1.00  0.00     0.066 H 
ATOM     34  C   UNL     1     -42.908  42.246  27.041  1.00  0.00    -0.045 A 
ATOM     35  H   UNL     1     -42.153  41.646  28.925  1.00  0.00     0.082 H 
ATOM     36  H   UNL     1     -43.875  42.628  25.129  1.00  0.00     0.062 H 
ATOM     37  H   UNL     1     -42.239  43.094  26.934  1.00  0.00     0.064 H 
ENDBRANCH  20  22
ENDBRANCH  15  18
ENDBRANCH   1  15
BRANCH   6  38
ATOM     38  C   UNL     1     -48.811  29.351  23.917  1.00  0.00     0.039 C 
ATOM     39  H   UNL     1     -49.349  29.491  22.971  1.00  0.00     0.050 H 
ATOM     40  H   UNL     1     -47.938  28.723  23.696  1.00  0.00     0.050 H 
BRANCH  38  41
ATOM     41  N   UNL     1     -49.656  28.688  24.920  1.00  0.00    -0.293 NA
ATOM     42  C   UNL     1     -48.873  27.736  25.739  1.00  0.00     0.022 C 
ATOM     43  C   UNL     1     -50.803  27.994  24.280  1.00  0.00     0.022 C 
ATOM     44  C   UNL     1     -48.996  26.277  25.273  1.00  0.00     0.059 C 
ATOM     45  H   UNL     1     -49.263  27.802  26.762  1.00  0.00     0.045 H 
ATOM     46  H   UNL     1     -47.817  28.023  25.799  1.00  0.00     0.045 H 
ATOM     47  C   UNL     1     -51.321  26.829  25.136  1.00  0.00     0.059 C 
ATOM     48  H   UNL     1     -50.510  27.587  23.303  1.00  0.00     0.045 H 
ATOM     49  H   UNL     1     -51.617  28.710  24.120  1.00  0.00     0.045 H 
ATOM     50  O   UNL     1     -50.345  25.790  25.301  1.00  0.00    -0.379 OA
ATOM     51  H   UNL     1     -48.401  25.625  25.919  1.00  0.00     0.058 H 
ATOM     52  H   UNL     1     -48.613  26.160  24.252  1.00  0.00     0.058 H 
ATOM     53  H   UNL     1     -51.627  27.176  26.129  1.00  0.00     0.058 H 
ATOM     54  H   UNL     1     -52.200  26.377  24.664  1.00  0.00     0.058 H 
ENDBRANCH  38  41
ENDBRANCH   6  38
TORSDOF 5
ENDMDL
MODEL 2
REMARK VINA RESULT:     -10.2      2.143      2.934
REMARK SMILES O=C(NCc1ccc2cc(CN3CCOCC3)[nH]c2c1)c1cc(=O)n2ccccc2n1
REMARK SMILES IDX 5 1 6 2 7 3 8 4 9 5 10 6 18 7 19 8 20 9 4 15 3 18 1 19 2 20
REMARK SMILES IDX 21 22 22 23 31 24 23 25 30 27 24 28 25 29 29 30 26 31 28 32
REMARK SMILES IDX 27 34 11 38 12 41 13 42 17 43 14 44 16 47 15 50
REMARK H PARENT 6 10 7 11 9 12 18 13 20 14 4 16 4 17 3 21 22 26 29 33 26 35
REMARK H PARENT 28 36 27 37 11 39 11 40 13 45 13 46 17 48 17 49 14 51 14 52
REMARK H PARENT 16 53 16 54
REMARK Flexibility Score: inf
ROOT
ATOM      1  C   UNL     1     -47.826  34.857  26.629  1.00  0.00    -0.027 A 
ATOM      2  C   UNL     1     -46.573  34.750  26.011  1.00  0.00    -0.057 A 
ATOM      3  C   UNL     1     -46.247  33.639  25.221  1.00  0.00    -0.052 A 
ATOM      4  C   UNL     1     -47.198  32.617  25.042  1.00  0.00    -0.000 A 
ATOM      5  C   UNL     1     -47.207  31.389  24.324  1.00  0.00    -0.032 A 
ATOM      6  C   UNL     1     -48.440  30.795  24.510  1.00  0.00     0.030 A 
ATOM      7  N   UNL     1     -49.172  31.629  25.323  1.00  0.00    -0.357 N 
ATOM      8  C   UNL     1     -48.440  32.743  25.659  1.00  0.00     0.046 A 
ATOM      9  C   UNL     1     -48.785  33.844  26.450  1.00  0.00    -0.033 A 
ATOM     10  H   UNL     1     -45.832  35.536  26.137  1.00  0.00     0.063 H 
ATOM     11  H   UNL     1     -45.271  33.570  24.751  1.00  0.00     0.063 H 
ATOM     12  H   UNL     1     -46.395  30.986  23.733  1.00  0.00     0.065 H 
ATOM     13  H   UNL     1     -50.129  31.453  25.599  1.00  0.00     0.166 HD
ATOM     14  H   UNL     1     -49.767  33.920  26.910  1.00  0.00     0.065 H 
ENDROOT
BRANCH   1  15
ATOM     15  C   UNL     1     -48.171  36.071  27.455  1.00  0.00     0.043 C 
ATOM     16  H   UNL     1     -49.101  36.523  27.094  1.00  0.00     0.054 H 
ATOM     17  H   UNL     1     -48.333  35.788  28.501  1.00  0.00     0.054 H 
BRANCH  15  18
ATOM     18  N   UNL     1     -47.095  37.029  27.432  1.00  0.00    -0.347 N 
ATOM     19  O   UNL     1     -46.486  36.817  29.641  1.00  0.00    -0.268 OA
ATOM     20  C   UNL     1     -46.387  37.376  28.557  1.00  0.00     0.270 C 
ATOM     21  H   UNL     1     -47.003  37.652  26.637  1.00  0.00     0.164 HD
BRANCH  20  22
ATOM     22  C   UNL     1     -45.469  38.552  28.314  1.00  0.00     0.136 A 
ATOM     23  C   UNL     1     -45.701  39.268  27.212  1.00  0.00     0.035 A 
ATOM     24  N   UNL     1     -44.464  38.806  29.221  1.00  0.00    -0.225 NA
ATOM     25  C   UNL     1     -44.830  40.416  26.933  1.00  0.00     0.258 A 
ATOM     26  H   UNL     1     -46.493  39.057  26.506  1.00  0.00     0.071 H 
ATOM     27  C   UNL     1     -43.694  39.819  28.967  1.00  0.00     0.140 A 
ATOM     28  O   UNL     1     -45.038  41.083  25.922  1.00  0.00    -0.269 OA
ATOM     29  N   UNL     1     -43.824  40.650  27.859  1.00  0.00    -0.268 N 
ATOM     30  C   UNL     1     -42.590  40.132  29.919  1.00  0.00    -0.019 A 
ATOM     31  C   UNL     1     -42.956  41.719  27.660  1.00  0.00     0.014 A 
ATOM     32  C   UNL     1     -41.780  41.172  29.685  1.00  0.00    -0.057 A 
ATOM     33  H   UNL     1     -42.480  39.491  30.784  1.00  0.00     0.066 H 
ATOM     34  C   UNL     1     -41.967  41.993  28.520  1.00  0.00    -0.045 A 
ATOM     35  H   UNL     1     -43.115  42.326  26.773  1.00  0.00     0.082 H 
ATOM     36  H   UNL     1     -40.971  41.415  30.366  1.00  0.00     0.062 H 
ATOM     37  H   UNL     1     -41.295  42.830  28.355  1.00  0.00     0.064 H 
ENDBRANCH  20  22
ENDBRANCH  15  18
ENDBRANCH   1  15
BRANCH   6  38
ATOM     38  C   UNL     1     -49.001  29.509  24.005  1.00  0.00     0.039 C 
ATOM     39  H   UNL     1     -48.218  28.743  23.949  1.00  0.00     0.050 H 
ATOM     40  H   UNL     1     -49.727  29.167  24.755  1.00  0.00     0.050 H 
BRANCH  38  41
ATOM     41  N   UNL     1     -49.674  29.683  22.710  1.00  0.00    -0.293 NA
ATOM     42  C   UNL     1     -48.762  29.380  21.585  1.00  0.00     0.022 C 
ATOM     43  C   UNL     1     -50.224  31.055  22.572  1.00  0.00     0.022 C 
ATOM     44  C   UNL     1     -48.125  30.629  20.955  1.00  0.00     0.059 C 
ATOM     45  H   UNL     1     -49.363  28.878  20.816  1.00  0.00     0.045 H 
ATOM     46  H   UNL     1     -47.983  28.666  21.874  1.00  0.00     0.045 H 
ATOM     47  C   UNL     1     -50.359  31.477  21.101  1.00  0.00     0.059 C 
ATOM     48  H   UNL     1     -49.570  31.784  23.069  1.00  0.00     0.045 H 
ATOM     49  H   UNL     1     -51.209  31.102  23.049  1.00  0.00     0.045 H 
ATOM     50  O   UNL     1     -49.093  31.549  20.430  1.00  0.00    -0.379 OA
ATOM     51  H   UNL     1     -47.468  30.340  20.130  1.00  0.00     0.058 H 
ATOM     52  H   UNL     1     -47.510  31.163  21.688  1.00  0.00     0.058 H 
ATOM     53  H   UNL     1     -51.002  30.781  20.551  1.00  0.00     0.058 H 
ATOM     54  H   UNL     1     -50.820  32.468  21.034  1.00  0.00     0.058 H 
ENDBRANCH  38  41
ENDBRANCH   6  38
TORSDOF 5
ENDMDL
MODEL 3
REMARK VINA RESULT:      -9.8      2.447      4.182
REMARK SMILES O=C(NCc1ccc2cc(CN3CCOCC3)[nH]c2c1)c1cc(=O)n2ccccc2n1
REMARK SMILES IDX 5 1 6 2 7 3 8 4 9 5 10 6 18 7 19 8 20 9 4 15 3 18 1 19 2 20
REMARK SMILES IDX 21 22 22 23 31 24 23 25 30 27 24 28 25 29 29 30 26 31 28 32
REMARK SMILES IDX 27 34 11 38 12 41 13 42 17 43 14 44 16 47 15 50
REMARK H PARENT 6 10 7 11 9 12 18 13 20 14 4 16 4 17 3 21 22 26 29 33 26 35
REMARK H PARENT 28 36 27 37 11 39 11 40 13 45 13 46 17 48 17 49 14 51 14 52
REMARK H PARENT 16 53 16 54
REMARK Flexibility Score: inf
ROOT
ATOM      1  C   UNL     1     -46.021  36.947  28.151  1.00  0.00    -0.027 A 
ATOM      2  C   UNL     1     -47.383  37.226  27.976  1.00  0.00    -0.057 A 
ATOM      3  C   UNL     1     -48.233  36.314  27.335  1.00  0.00    -0.052 A 
ATOM      4  C   UNL     1     -47.709  35.095  26.867  1.00  0.00    -0.000 A 
ATOM      5  C   UNL     1     -48.268  33.970  26.198  1.00  0.00    -0.032 A 
ATOM      6  C   UNL     1     -47.257  33.050  25.995  1.00  0.00     0.030 A 
ATOM      7  N   UNL     1     -46.106  33.590  26.518  1.00  0.00    -0.357 N 
ATOM      8  C   UNL     1     -46.355  34.831  27.056  1.00  0.00     0.046 A 
ATOM      9  C   UNL     1     -45.490  35.728  27.693  1.00  0.00    -0.033 A 
ATOM     10  H   UNL     1     -47.800  38.163  28.338  1.00  0.00     0.063 H 
ATOM     11  H   UNL     1     -49.285  36.546  27.205  1.00  0.00     0.063 H 
ATOM     12  H   UNL     1     -49.300  33.849  25.899  1.00  0.00     0.065 H 
ATOM     13  H   UNL     1     -45.214  33.115  26.534  1.00  0.00     0.166 HD
ATOM     14  H   UNL     1     -44.439  35.490  27.836  1.00  0.00     0.065 H 
ENDROOT
BRANCH   1  15
ATOM     15  C   UNL     1     -45.125  37.928  28.865  1.00  0.00     0.043 C 
ATOM     16  H   UNL     1     -45.606  38.282  29.783  1.00  0.00     0.054 H 
ATOM     17  H   UNL     1     -44.186  37.444  29.157  1.00  0.00     0.054 H 
BRANCH  15  18
ATOM     18  N   UNL     1     -44.789  39.034  28.006  1.00  0.00    -0.347 N 
ATOM     19  O   UNL     1     -43.273  40.035  29.420  1.00  0.00    -0.268 OA
ATOM     20  C   UNL     1     -43.938  40.042  28.392  1.00  0.00     0.270 C 
ATOM     21  H   UNL     1     -45.365  39.225  27.193  1.00  0.00     0.164 HD
BRANCH  20  22
ATOM     22  C   UNL     1     -43.922  41.186  27.407  1.00  0.00     0.136 A 
ATOM     23  C   UNL     1     -42.721  41.595  26.991  1.00  0.00     0.035 A 
ATOM     24  N   UNL     1     -45.121  41.735  27.007  1.00  0.00    -0.225 NA
ATOM     25  C   UNL     1     -42.656  42.709  26.038  1.00  0.00     0.258 A 
ATOM     26  H   UNL     1     -41.786  41.157  27.314  1.00  0.00     0.071 H 
ATOM     27  C   UNL     1     -45.058  42.722  26.167  1.00  0.00     0.140 A 
ATOM     28  O   UNL     1     -41.555  43.090  25.648  1.00  0.00    -0.269 OA
ATOM     29  N   UNL     1     -43.876  43.246  25.654  1.00  0.00    -0.268 N 
ATOM     30  C   UNL     1     -46.330  43.350  25.709  1.00  0.00    -0.019 A 
ATOM     31  C   UNL     1     -43.896  44.307  24.754  1.00  0.00     0.014 A 
ATOM     32  C   UNL     1     -46.298  44.369  24.842  1.00  0.00    -0.057 A 
ATOM     33  H   UNL     1     -47.255  42.950  26.103  1.00  0.00     0.066 H 
ATOM     34  C   UNL     1     -45.042  44.865  24.346  1.00  0.00    -0.045 A 
ATOM     35  H   UNL     1     -42.935  44.666  24.393  1.00  0.00     0.082 H 
ATOM     36  H   UNL     1     -47.213  44.839  24.497  1.00  0.00     0.062 H 
ATOM     37  H   UNL     1     -45.046  45.693  23.644  1.00  0.00     0.064 H 
ENDBRANCH  20  22
ENDBRANCH  15  18
ENDBRANCH   1  15
BRANCH   6  38
ATOM     38  C   UNL     1     -47.262  31.707  25.344  1.00  0.00     0.039 C 
ATOM     39  H   UNL     1     -46.371  31.136  25.634  1.00  0.00     0.050 H 
ATOM     40  H   UNL     1     -48.130  31.168  25.745  1.00  0.00     0.050 H 
BRANCH  38  41
ATOM     41  N   UNL     1     -47.378  31.814  23.883  1.00  0.00    -0.293 NA
ATOM     42  C   UNL     1     -48.520  31.024  23.374  1.00  0.00     0.022 C 
ATOM     43  C   UNL     1     -46.121  31.392  23.214  1.00  0.00     0.022 C 
ATOM     44  C   UNL     1     -48.120  29.645  22.828  1.00  0.00     0.059 C 
ATOM     45  H   UNL     1     -48.965  31.601  22.553  1.00  0.00     0.045 H 
ATOM     46  H   UNL     1     -49.308  30.916  24.129  1.00  0.00     0.045 H 
ATOM     47  C   UNL     1     -46.369  30.897  21.781  1.00  0.00     0.059 C 
ATOM     48  H   UNL     1     -45.644  30.575  23.771  1.00  0.00     0.045 H 
ATOM     49  H   UNL     1     -45.423  32.236  23.184  1.00  0.00     0.045 H 
ATOM     50  O   UNL     1     -47.189  29.720  21.740  1.00  0.00    -0.379 OA
ATOM     51  H   UNL     1     -49.005  29.114  22.464  1.00  0.00     0.058 H 
ATOM     52  H   UNL     1     -47.674  29.028  23.617  1.00  0.00     0.058 H 
ATOM     53  H   UNL     1     -46.849  31.673  21.175  1.00  0.00     0.058 H 
ATOM     54  H   UNL     1     -45.419  30.648  21.298  1.00  0.00     0.058 H 
ENDBRANCH  38  41
ENDBRANCH   6  38
TORSDOF 5
ENDMDL
MODEL 4
REMARK VINA RESULT:      -9.8      2.501      3.500
REMARK SMILES O=C(NCc1ccc2cc(CN3CCOCC3)[nH]c2c1)c1cc(=O)n2ccccc2n1
REMARK SMILES IDX 5 1 6 2 7 3 8 4 9 5 10 6 18 7 19 8 20 9 4 15 3 18 1 19 2 20
REMARK SMILES IDX 21 22 22 23 31 24 23 25 30 27 24 28 25 29 29 30 26 31 28 32
REMARK SMILES IDX 27 34 11 38 12 41 13 42 17 43 14 44 16 47 15 50
REMARK H PARENT 6 10 7 11 9 12 18 13 20 14 4 16 4 17 3 21 22 26 29 33 26 35
REMARK H PARENT 28 36 27 37 11 39 11 40 13 45 13 46 17 48 17 49 14 51 14 52
REMARK H PARENT 16 53 16 54
REMARK Flexibility Score: inf
ROOT
ATOM      1  C   UNL     1     -47.120  36.917  28.064  1.00  0.00    -0.027 A 
ATOM      2  C   UNL     1     -45.811  36.429  28.171  1.00  0.00    -0.057 A 
ATOM      3  C   UNL     1     -45.464  35.169  27.663  1.00  0.00    -0.052 A 
ATOM      4  C   UNL     1     -46.447  34.386  27.030  1.00  0.00    -0.000 A 
ATOM      5  C   UNL     1     -46.445  33.104  26.413  1.00  0.00    -0.032 A 
ATOM      6  C   UNL     1     -47.721  32.853  25.948  1.00  0.00     0.030 A 
ATOM      7  N   UNL     1     -48.492  33.945  26.271  1.00  0.00    -0.357 N 
ATOM      8  C   UNL     1     -47.741  34.891  26.927  1.00  0.00     0.046 A 
ATOM      9  C   UNL     1     -48.107  36.146  27.426  1.00  0.00    -0.033 A 
ATOM     10  H   UNL     1     -45.042  37.027  28.653  1.00  0.00     0.063 H 
ATOM     11  H   UNL     1     -44.447  34.804  27.756  1.00  0.00     0.063 H 
ATOM     12  H   UNL     1     -45.597  32.439  26.320  1.00  0.00     0.065 H 
ATOM     13  H   UNL     1     -49.467  34.042  26.022  1.00  0.00     0.166 HD
ATOM     14  H   UNL     1     -49.123  36.518  27.321  1.00  0.00     0.065 H 
ENDROOT
BRANCH   1  15
ATOM     15  C   UNL     1     -47.471  38.286  28.593  1.00  0.00     0.043 C 
ATOM     16  H   UNL     1     -48.470  38.579  28.251  1.00  0.00     0.054 H 
ATOM     17  H   UNL     1     -47.494  38.277  29.689  1.00  0.00     0.054 H 
BRANCH  15  18
ATOM     18  N   UNL     1     -46.488  39.259  28.192  1.00  0.00    -0.347 N 
ATOM     19  O   UNL     1     -47.548  39.948  26.268  1.00  0.00    -0.268 OA
ATOM     20  C   UNL     1     -46.577  39.960  27.014  1.00  0.00     0.270 C 
ATOM     21  H   UNL     1     -45.582  39.267  28.648  1.00  0.00     0.164 HD
BRANCH  20  22
ATOM     22  C   UNL     1     -45.322  40.749  26.722  1.00  0.00     0.136 A 
ATOM     23  C   UNL     1     -44.338  40.651  27.618  1.00  0.00     0.035 A 
ATOM     24  N   UNL     1     -45.270  41.512  25.576  1.00  0.00    -0.225 NA
ATOM     25  C   UNL     1     -43.101  41.405  27.379  1.00  0.00     0.258 A 
ATOM     26  H   UNL     1     -44.391  40.049  28.515  1.00  0.00     0.071 H 
ATOM     27  C   UNL     1     -44.177  42.180  25.371  1.00  0.00     0.140 A 
ATOM     28  O   UNL     1     -42.189  41.319  28.197  1.00  0.00    -0.269 OA
ATOM     29  N   UNL     1     -43.075  42.168  26.220  1.00  0.00    -0.268 N 
ATOM     30  C   UNL     1     -44.075  43.024  24.146  1.00  0.00    -0.019 A 
ATOM     31  C   UNL     1     -41.937  42.914  25.927  1.00  0.00     0.014 A 
ATOM     32  C   UNL     1     -42.959  43.723  23.907  1.00  0.00    -0.057 A 
ATOM     33  H   UNL     1     -44.928  43.040  23.480  1.00  0.00     0.066 H 
ATOM     34  C   UNL     1     -41.854  43.668  24.824  1.00  0.00    -0.045 A 
ATOM     35  H   UNL     1     -41.114  42.858  26.634  1.00  0.00     0.082 H 
ATOM     36  H   UNL     1     -42.867  44.342  23.021  1.00  0.00     0.062 H 
ATOM     37  H   UNL     1     -40.961  44.245  24.605  1.00  0.00     0.064 H 
ENDBRANCH  20  22
ENDBRANCH  15  18
ENDBRANCH   1  15
BRANCH   6  38
ATOM     38  C   UNL     1     -48.297  31.676  25.234  1.00  0.00     0.039 C 
ATOM     39  H   UNL     1     -47.926  30.741  25.672  1.00  0.00     0.050 H 
ATOM     40  H   UNL     1     -49.380  31.702  25.409  1.00  0.00     0.050 H 
BRANCH  38  41
ATOM     41  N   UNL     1     -48.027  31.734  23.790  1.00  0.00    -0.293 NA
ATOM     42  C   UNL     1     -49.055  30.999  23.021  1.00  0.00     0.022 C 
ATOM     43  C   UNL     1     -46.675  31.206  23.476  1.00  0.00     0.022 C 
ATOM     44  C   UNL     1     -48.629  29.577  22.625  1.00  0.00     0.059 C 
ATOM     45  H   UNL     1     -49.232  31.571  22.101  1.00  0.00     0.045 H 
ATOM     46  H   UNL     1     -50.015  30.971  23.549  1.00  0.00     0.045 H 
ATOM     47  C   UNL     1     -46.583  30.673  22.039  1.00  0.00     0.059 C 
ATOM     48  H   UNL     1     -46.416  30.382  24.155  1.00  0.00     0.045 H 
ATOM     49  H   UNL     1     -45.934  32.001  23.610  1.00  0.00     0.045 H 
ATOM     50  O   UNL     1     -47.448  29.550  21.812  1.00  0.00    -0.379 OA
ATOM     51  H   UNL     1     -49.427  29.090  22.056  1.00  0.00     0.058 H 
ATOM     52  H   UNL     1     -48.444  28.964  23.515  1.00  0.00     0.058 H 
ATOM     53  H   UNL     1     -46.835  31.454  21.313  1.00  0.00     0.058 H 
ATOM     54  H   UNL     1     -45.561  30.346  21.822  1.00  0.00     0.058 H 
ENDBRANCH  38  41
ENDBRANCH   6  38
TORSDOF 5
ENDMDL
MODEL 5
REMARK VINA RESULT:      -9.7      2.472     11.555
REMARK SMILES O=C(NCc1ccc2cc(CN3CCOCC3)[nH]c2c1)c1cc(=O)n2ccccc2n1
REMARK SMILES IDX 5 1 6 2 7 3 8 4 9 5 10 6 18 7 19 8 20 9 4 15 3 18 1 19 2 20
REMARK SMILES IDX 21 22 22 23 31 24 23 25 30 27 24 28 25 29 29 30 26 31 28 32
REMARK SMILES IDX 27 34 11 38 12 41 13 42 17 43 14 44 16 47 15 50
REMARK H PARENT 6 10 7 11 9 12 18 13 20 14 4 16 4 17 3 21 22 26 29 33 26 35
REMARK H PARENT 28 36 27 37 11 39 11 40 13 45 13 46 17 48 17 49 14 51 14 52
REMARK H PARENT 16 53 16 54
REMARK Flexibility Score: inf
ROOT
ATOM      1  C   UNL     1     -47.854  34.200  26.598  1.00  0.00    -0.027 A 
ATOM      2  C   UNL     1     -46.757  33.652  27.276  1.00  0.00    -0.057 A 
ATOM      3  C   UNL     1     -45.777  34.472  27.852  1.00  0.00    -0.052 A 
ATOM      4  C   UNL     1     -45.903  35.870  27.753  1.00  0.00    -0.000 A 
ATOM      5  C   UNL     1     -45.123  36.969  28.212  1.00  0.00    -0.032 A 
ATOM      6  C   UNL     1     -45.754  38.133  27.819  1.00  0.00     0.030 A 
ATOM      7  N   UNL     1     -46.889  37.767  27.134  1.00  0.00    -0.357 N 
ATOM      8  C   UNL     1     -47.003  36.398  27.082  1.00  0.00     0.046 A 
ATOM      9  C   UNL     1     -47.992  35.597  26.501  1.00  0.00    -0.033 A 
ATOM     10  H   UNL     1     -46.653  32.573  27.364  1.00  0.00     0.063 H 
ATOM     11  H   UNL     1     -44.932  34.031  28.372  1.00  0.00     0.063 H 
ATOM     12  H   UNL     1     -44.198  36.909  28.770  1.00  0.00     0.065 H 
ATOM     13  H   UNL     1     -47.559  38.424  26.757  1.00  0.00     0.166 HD
ATOM     14  H   UNL     1     -48.845  36.038  25.992  1.00  0.00     0.065 H 
ENDROOT
BRANCH   1  15
ATOM     15  C   UNL     1     -48.913  33.305  26.005  1.00  0.00     0.043 C 
ATOM     16  H   UNL     1     -49.773  33.237  26.680  1.00  0.00     0.054 H 
ATOM     17  H   UNL     1     -49.276  33.719  25.057  1.00  0.00     0.054 H 
BRANCH  15  18
ATOM     18  N   UNL     1     -48.380  31.996  25.725  1.00  0.00    -0.347 N 
ATOM     19  O   UNL     1     -49.829  31.464  24.018  1.00  0.00    -0.268 OA
ATOM     20  C   UNL     1     -48.937  31.152  24.796  1.00  0.00     0.270 C 
ATOM     21  H   UNL     1     -47.735  31.572  26.383  1.00  0.00     0.164 HD
BRANCH  20  22
ATOM     22  C   UNL     1     -48.334  29.767  24.847  1.00  0.00     0.136 A 
ATOM     23  C   UNL     1     -47.362  29.511  23.969  1.00  0.00     0.035 A 
ATOM     24  N   UNL     1     -48.815  28.868  25.772  1.00  0.00    -0.225 NA
ATOM     25  C   UNL     1     -46.751  28.176  23.977  1.00  0.00     0.258 A 
ATOM     26  H   UNL     1     -46.994  30.226  23.245  1.00  0.00     0.071 H 
ATOM     27  C   UNL     1     -48.275  27.688  25.774  1.00  0.00     0.140 A 
ATOM     28  O   UNL     1     -45.854  27.932  23.173  1.00  0.00    -0.269 OA
ATOM     29  N   UNL     1     -47.255  27.288  24.916  1.00  0.00    -0.268 N 
ATOM     30  C   UNL     1     -48.765  26.679  26.756  1.00  0.00    -0.019 A 
ATOM     31  C   UNL     1     -46.728  26.002  24.983  1.00  0.00     0.014 A 
ATOM     32  C   UNL     1     -48.226  25.455  26.782  1.00  0.00    -0.057 A 
ATOM     33  H   UNL     1     -49.559  26.981  27.427  1.00  0.00     0.066 H 
ATOM     34  C   UNL     1     -47.173  25.102  25.868  1.00  0.00    -0.045 A 
ATOM     35  H   UNL     1     -45.934  25.757  24.283  1.00  0.00     0.082 H 
ATOM     36  H   UNL     1     -48.570  24.707  27.489  1.00  0.00     0.062 H 
ATOM     37  H   UNL     1     -46.755  24.102  25.911  1.00  0.00     0.064 H 
ENDBRANCH  20  22
ENDBRANCH  15  18
ENDBRANCH   1  15
BRANCH   6  38
ATOM     38  C   UNL     1     -45.390  39.566  28.015  1.00  0.00     0.039 C 
ATOM     39  H   UNL     1     -46.208  40.107  28.507  1.00  0.00     0.050 H 
ATOM     40  H   UNL     1     -44.537  39.582  28.706  1.00  0.00     0.050 H 
BRANCH  38  41
ATOM     41  N   UNL     1     -45.011  40.207  26.748  1.00  0.00    -0.293 NA
ATOM     42  C   UNL     1     -43.628  40.732  26.802  1.00  0.00     0.022 C 
ATOM     43  C   UNL     1     -45.960  41.292  26.391  1.00  0.00     0.022 C 
ATOM     44  C   UNL     1     -43.553  42.236  27.108  1.00  0.00     0.059 C 
ATOM     45  H   UNL     1     -43.185  40.562  25.813  1.00  0.00     0.045 H 
ATOM     46  H   UNL     1     -43.009  40.172  27.512  1.00  0.00     0.045 H 
ATOM     47  C   UNL     1     -45.311  42.352  25.488  1.00  0.00     0.059 C 
ATOM     48  H   UNL     1     -46.321  41.800  27.296  1.00  0.00     0.045 H 
ATOM     49  H   UNL     1     -46.825  40.863  25.874  1.00  0.00     0.045 H 
ATOM     50  O   UNL     1     -44.233  43.042  26.136  1.00  0.00    -0.379 OA
ATOM     51  H   UNL     1     -42.509  42.563  27.130  1.00  0.00     0.058 H 
ATOM     52  H   UNL     1     -43.982  42.455  28.093  1.00  0.00     0.058 H 
ATOM     53  H   UNL     1     -44.927  41.900  24.566  1.00  0.00     0.058 H 
ATOM     54  H   UNL     1     -46.051  43.104  25.198  1.00  0.00     0.058 H 
ENDBRANCH  38  41
ENDBRANCH   6  38
TORSDOF 5
ENDMDL
MODEL 6
REMARK VINA RESULT:      -9.7      1.972      3.046
REMARK SMILES O=C(NCc1ccc2cc(CN3CCOCC3)[nH]c2c1)c1cc(=O)n2ccccc2n1
REMARK SMILES IDX 5 1 6 2 7 3 8 4 9 5 10 6 18 7 19 8 20 9 4 15 3 18 1 19 2 20
REMARK SMILES IDX 21 22 22 23 31 24 23 25 30 27 24 28 25 29 29 30 26 31 28 32
REMARK SMILES IDX 27 34 11 38 12 41 13 42 17 43 14 44 16 47 15 50
REMARK H PARENT 6 10 7 11 9 12 18 13 20 14 4 16 4 17 3 21 22 26 29 33 26 35
REMARK H PARENT 28 36 27 37 11 39 11 40 13 45 13 46 17 48 17 49 14 51 14 52
REMARK H PARENT 16 53 16 54
REMARK Flexibility Score: inf
ROOT
ATOM      1  C   UNL     1     -46.353  35.712  27.746  1.00  0.00    -0.027 A 
ATOM      2  C   UNL     1     -47.747  35.809  27.646  1.00  0.00    -0.057 A 
ATOM      3  C   UNL     1     -48.480  34.922  26.845  1.00  0.00    -0.052 A 
ATOM      4  C   UNL     1     -47.802  33.913  26.136  1.00  0.00    -0.000 A 
ATOM      5  C   UNL     1     -48.216  32.869  25.261  1.00  0.00    -0.032 A 
ATOM      6  C   UNL     1     -47.091  32.172  24.867  1.00  0.00     0.030 A 
ATOM      7  N   UNL     1     -46.011  32.768  25.475  1.00  0.00    -0.357 N 
ATOM      8  C   UNL     1     -46.417  33.827  26.253  1.00  0.00     0.046 A 
ATOM      9  C   UNL     1     -45.668  34.701  27.047  1.00  0.00    -0.033 A 
ATOM     10  H   UNL     1     -48.282  36.581  28.194  1.00  0.00     0.063 H 
ATOM     11  H   UNL     1     -49.559  35.012  26.776  1.00  0.00     0.063 H 
ATOM     12  H   UNL     1     -49.231  32.654  24.956  1.00  0.00     0.065 H 
ATOM     13  H   UNL     1     -45.059  32.441  25.384  1.00  0.00     0.166 HD
ATOM     14  H   UNL     1     -44.588  34.603  27.128  1.00  0.00     0.065 H 
ENDROOT
BRANCH   1  15
ATOM     15  C   UNL     1     -45.582  36.658  28.632  1.00  0.00     0.043 C 
ATOM     16  H   UNL     1     -46.158  36.886  29.536  1.00  0.00     0.054 H 
ATOM     17  H   UNL     1     -44.641  36.198  28.955  1.00  0.00     0.054 H 
BRANCH  15  18
ATOM     18  N   UNL     1     -45.247  37.866  27.923  1.00  0.00    -0.347 N 
ATOM     19  O   UNL     1     -44.226  38.947  29.680  1.00  0.00    -0.268 OA
ATOM     20  C   UNL     1     -44.658  38.946  28.534  1.00  0.00     0.270 C 
ATOM     21  H   UNL     1     -45.665  38.041  27.015  1.00  0.00     0.164 HD
BRANCH  20  22
ATOM     22  C   UNL     1     -44.612  40.159  27.634  1.00  0.00     0.136 A 
ATOM     23  C   UNL     1     -45.776  40.557  27.116  1.00  0.00     0.035 A 
ATOM     24  N   UNL     1     -43.398  40.765  27.400  1.00  0.00    -0.225 NA
ATOM     25  C   UNL     1     -45.779  41.728  26.230  1.00  0.00     0.258 A 
ATOM     26  H   UNL     1     -46.724  40.071  27.307  1.00  0.00     0.071 H 
ATOM     27  C   UNL     1     -43.405  41.797  26.613  1.00  0.00     0.140 A 
ATOM     28  O   UNL     1     -46.846  42.103  25.751  1.00  0.00    -0.269 OA
ATOM     29  N   UNL     1     -44.544  42.319  26.008  1.00  0.00    -0.268 N 
ATOM     30  C   UNL     1     -42.114  42.485  26.327  1.00  0.00    -0.019 A 
ATOM     31  C   UNL     1     -44.466  43.432  25.177  1.00  0.00     0.014 A 
ATOM     32  C   UNL     1     -42.089  43.553  25.521  1.00  0.00    -0.057 A 
ATOM     33  H   UNL     1     -41.222  42.086  26.793  1.00  0.00     0.066 H 
ATOM     34  C   UNL     1     -43.302  44.044  24.926  1.00  0.00    -0.045 A 
ATOM     35  H   UNL     1     -45.395  43.786  24.737  1.00  0.00     0.082 H 
ATOM     36  H   UNL     1     -41.159  44.067  25.301  1.00  0.00     0.062 H 
ATOM     37  H   UNL     1     -43.253  44.912  24.276  1.00  0.00     0.064 H 
ENDBRANCH  20  22
ENDBRANCH  15  18
ENDBRANCH   1  15
BRANCH   6  38
ATOM     38  C   UNL     1     -46.925  30.999  23.960  1.00  0.00     0.039 C 
ATOM     39  H   UNL     1     -46.429  31.299  23.029  1.00  0.00     0.050 H 
ATOM     40  H   UNL     1     -46.249  30.301  24.471  1.00  0.00     0.050 H 
BRANCH  38  41
ATOM     41  N   UNL     1     -48.209  30.336  23.693  1.00  0.00    -0.293 NA
ATOM     42  C   UNL     1     -48.544  29.362  24.755  1.00  0.00     0.022 C 
ATOM     43  C   UNL     1     -48.201  29.667  22.366  1.00  0.00     0.022 C 
ATOM     44  C   UNL     1     -48.190  27.911  24.395  1.00  0.00     0.059 C 
ATOM     45  H   UNL     1     -49.629  29.421  24.909  1.00  0.00     0.045 H 
ATOM     46  H   UNL     1     -48.088  29.633  25.714  1.00  0.00     0.045 H 
ATOM     47  C   UNL     1     -49.196  28.499  22.304  1.00  0.00     0.059 C 
ATOM     48  H   UNL     1     -47.203  29.268  22.143  1.00  0.00     0.045 H 
ATOM     49  H   UNL     1     -48.457  30.396  21.590  1.00  0.00     0.045 H 
ATOM     50  O   UNL     1     -48.865  27.444  23.218  1.00  0.00    -0.379 OA
ATOM     51  H   UNL     1     -48.466  27.242  25.216  1.00  0.00     0.058 H 
ATOM     52  H   UNL     1     -47.111  27.801  24.235  1.00  0.00     0.058 H 
ATOM     53  H   UNL     1     -50.215  28.838  22.522  1.00  0.00     0.058 H 
ATOM     54  H   UNL     1     -49.206  28.066  21.298  1.00  0.00     0.058 H 
ENDBRANCH  38  41
ENDBRANCH   6  38
TORSDOF 5
ENDMDL
MODEL 7
REMARK VINA RESULT:      -9.7      1.612      2.104
REMARK SMILES O=C(NCc1ccc2cc(CN3CCOCC3)[nH]c2c1)c1cc(=O)n2ccccc2n1
REMARK SMILES IDX 5 1 6 2 7 3 8 4 9 5 10 6 18 7 19 8 20 9 4 15 3 18 1 19 2 20
REMARK SMILES IDX 21 22 22 23 31 24 23 25 30 27 24 28 25 29 29 30 26 31 28 32
REMARK SMILES IDX 27 34 11 38 12 41 13 42 17 43 14 44 16 47 15 50
REMARK H PARENT 6 10 7 11 9 12 18 13 20 14 4 16 4 17 3 21 22 26 29 33 26 35
REMARK H PARENT 28 36 27 37 11 39 11 40 13 45 13 46 17 48 17 49 14 51 14 52
REMARK H PARENT 16 53 16 54
REMARK Flexibility Score: inf
ROOT
ATOM      1  C   UNL     1     -47.620  34.880  26.912  1.00  0.00    -0.027 A 
ATOM      2  C   UNL     1     -46.374  34.702  26.298  1.00  0.00    -0.057 A 
ATOM      3  C   UNL     1     -46.163  33.672  25.372  1.00  0.00    -0.052 A 
ATOM      4  C   UNL     1     -47.225  32.807  25.049  1.00  0.00    -0.000 A 
ATOM      5  C   UNL     1     -47.363  31.693  24.173  1.00  0.00    -0.032 A 
ATOM      6  C   UNL     1     -48.664  31.237  24.266  1.00  0.00     0.030 A 
ATOM      7  N   UNL     1     -49.311  32.041  25.175  1.00  0.00    -0.357 N 
ATOM      8  C   UNL     1     -48.459  33.003  25.663  1.00  0.00     0.046 A 
ATOM      9  C   UNL     1     -48.690  34.026  26.590  1.00  0.00    -0.033 A 
ATOM     10  H   UNL     1     -45.547  35.367  26.536  1.00  0.00     0.063 H 
ATOM     11  H   UNL     1     -45.190  33.545  24.907  1.00  0.00     0.063 H 
ATOM     12  H   UNL     1     -46.591  31.274  23.543  1.00  0.00     0.065 H 
ATOM     13  H   UNL     1     -50.289  31.950  25.415  1.00  0.00     0.166 HD
ATOM     14  H   UNL     1     -49.667  34.162  27.045  1.00  0.00     0.065 H 
ENDROOT
BRANCH   1  15
ATOM     15  C   UNL     1     -47.838  36.009  27.888  1.00  0.00     0.043 C 
ATOM     16  H   UNL     1     -48.910  36.180  28.037  1.00  0.00     0.054 H 
ATOM     17  H   UNL     1     -47.411  35.757  28.866  1.00  0.00     0.054 H 
BRANCH  15  18
ATOM     18  N   UNL     1     -47.189  37.212  27.434  1.00  0.00    -0.347 N 
ATOM     19  O   UNL     1     -45.457  37.183  28.950  1.00  0.00    -0.268 OA
ATOM     20  C   UNL     1     -46.085  37.740  28.058  1.00  0.00     0.270 C 
ATOM     21  H   UNL     1     -47.679  37.831  26.798  1.00  0.00     0.164 HD
BRANCH  20  22
ATOM     22  C   UNL     1     -45.729  39.110  27.530  1.00  0.00     0.136 A 
ATOM     23  C   UNL     1     -46.722  39.808  26.974  1.00  0.00     0.035 A 
ATOM     24  N   UNL     1     -44.428  39.548  27.643  1.00  0.00    -0.225 NA
ATOM     25  C   UNL     1     -46.422  41.142  26.441  1.00  0.00     0.258 A 
ATOM     26  H   UNL     1     -47.741  39.452  26.889  1.00  0.00     0.071 H 
ATOM     27  C   UNL     1     -44.167  40.726  27.167  1.00  0.00     0.140 A 
ATOM     28  O   UNL     1     -47.331  41.793  25.930  1.00  0.00    -0.269 OA
ATOM     29  N   UNL     1     -45.105  41.559  26.565  1.00  0.00    -0.268 N 
ATOM     30  C   UNL     1     -42.771  41.242  27.265  1.00  0.00    -0.019 A 
ATOM     31  C   UNL     1     -44.743  42.812  26.081  1.00  0.00     0.014 A 
ATOM     32  C   UNL     1     -42.472  42.455  26.784  1.00  0.00    -0.057 A 
ATOM     33  H   UNL     1     -42.034  40.601  27.731  1.00  0.00     0.066 H 
ATOM     34  C   UNL     1     -43.488  43.268  26.173  1.00  0.00    -0.045 A 
ATOM     35  H   UNL     1     -45.526  43.409  25.622  1.00  0.00     0.082 H 
ATOM     36  H   UNL     1     -41.462  42.847  26.846  1.00  0.00     0.062 H 
ATOM     37  H   UNL     1     -43.216  44.247  25.791  1.00  0.00     0.064 H 
ENDBRANCH  20  22
ENDBRANCH  15  18
ENDBRANCH   1  15
BRANCH   6  38
ATOM     38  C   UNL     1     -49.363  30.106  23.589  1.00  0.00     0.039 C 
ATOM     39  H   UNL     1     -50.433  30.115  23.831  1.00  0.00     0.050 H 
ATOM     40  H   UNL     1     -49.279  30.287  22.510  1.00  0.00     0.050 H 
BRANCH  38  41
ATOM     41  N   UNL     1     -48.749  28.813  23.923  1.00  0.00    -0.293 NA
ATOM     42  C   UNL     1     -49.254  27.735  23.044  1.00  0.00     0.022 C 
ATOM     43  C   UNL     1     -48.978  28.463  25.348  1.00  0.00     0.022 C 
ATOM     44  C   UNL     1     -50.376  26.898  23.677  1.00  0.00     0.059 C 
ATOM     45  H   UNL     1     -48.405  27.069  22.840  1.00  0.00     0.045 H 
ATOM     46  H   UNL     1     -49.576  28.122  22.070  1.00  0.00     0.045 H 
ATOM     47  C   UNL     1     -48.932  26.947  25.585  1.00  0.00     0.059 C 
ATOM     48  H   UNL     1     -49.961  28.823  25.680  1.00  0.00     0.045 H 
ATOM     49  H   UNL     1     -48.214  28.945  25.968  1.00  0.00     0.045 H 
ATOM     50  O   UNL     1     -49.977  26.249  24.892  1.00  0.00    -0.379 OA
ATOM     51  H   UNL     1     -50.701  26.119  22.982  1.00  0.00     0.058 H 
ATOM     52  H   UNL     1     -51.251  27.523  23.896  1.00  0.00     0.058 H 
ATOM     53  H   UNL     1     -47.969  26.529  25.268  1.00  0.00     0.058 H 
ATOM     54  H   UNL     1     -49.046  26.727  26.651  1.00  0.00     0.058 H 
ENDBRANCH  38  41
ENDBRANCH   6  38
TORSDOF 5
ENDMDL
