MODEL 1
REMARK VINA RESULT:     -10.4      0.000      0.000
REMARK SMILES O=C(NCc1ccc2cc(CNCC3CCC3)[nH]c2c1)c1cc(=O)n2c(n1)CCCC2
REMARK SMILES IDX 5 1 6 2 7 3 8 4 9 5 10 6 18 7 19 8 20 9 4 15 3 18 1 19 2 20
REMARK SMILES IDX 21 22 22 23 27 24 23 25 26 27 24 28 25 29 28 30 31 31 29 32
REMARK SMILES IDX 30 35 11 42 12 45 13 47 14 50 15 51 17 52 16 54
REMARK H PARENT 6 10 7 11 9 12 18 13 20 14 4 16 4 17 3 21 22 26 28 33 28 34
REMARK H PARENT 31 36 31 37 29 38 29 39 30 40 30 41 11 43 11 44 12 46 13 48
REMARK H PARENT 13 49 14 53 15 55 15 56 17 57 17 58 16 59 16 60
REMARK Flexibility Score: inf
ROOT
ATOM      1  C   UNL     1     -47.943  35.324  26.995  1.00  0.00    -0.027 A 
ATOM      2  C   UNL     1     -46.646  35.354  26.464  1.00  0.00    -0.057 A 
ATOM      3  C   UNL     1     -46.174  34.325  25.640  1.00  0.00    -0.052 A 
ATOM      4  C   UNL     1     -47.020  33.243  25.337  1.00  0.00    -0.000 A 
ATOM      5  C   UNL     1     -46.876  32.063  24.555  1.00  0.00    -0.032 A 
ATOM      6  C   UNL     1     -48.061  31.360  24.619  1.00  0.00     0.030 A 
ATOM      7  N   UNL     1     -48.916  32.081  25.418  1.00  0.00    -0.357 N 
ATOM      8  C   UNL     1     -48.310  33.231  25.866  1.00  0.00     0.046 A 
ATOM      9  C   UNL     1     -48.800  34.253  26.689  1.00  0.00    -0.033 A 
ATOM     10  H   UNL     1     -45.989  36.194  26.689  1.00  0.00     0.063 H 
ATOM     11  H   UNL     1     -45.166  34.367  25.240  1.00  0.00     0.063 H 
ATOM     12  H   UNL     1     -45.993  31.765  24.004  1.00  0.00     0.065 H 
ATOM     13  H   UNL     1     -49.869  31.806  25.613  1.00  0.00     0.166 HD
ATOM     14  H   UNL     1     -49.813  34.214  27.079  1.00  0.00     0.065 H 
ENDROOT
BRANCH   1  15
ATOM     15  C   UNL     1     -48.428  36.461  27.859  1.00  0.00     0.043 C 
ATOM     16  H   UNL     1     -48.710  36.090  28.850  1.00  0.00     0.054 H 
ATOM     17  H   UNL     1     -49.319  36.921  27.419  1.00  0.00     0.054 H 
BRANCH  15  18
ATOM     18  N   UNL     1     -47.423  37.487  27.965  1.00  0.00    -0.347 N 
ATOM     19  O   UNL     1     -46.475  36.751  29.928  1.00  0.00    -0.268 OA
ATOM     20  C   UNL     1     -46.477  37.502  28.960  1.00  0.00     0.270 C 
ATOM     21  H   UNL     1     -47.237  38.086  27.168  1.00  0.00     0.164 HD
BRANCH  20  22
ATOM     22  C   UNL     1     -45.416  38.550  28.726  1.00  0.00     0.135 A 
ATOM     23  C   UNL     1     -44.493  38.685  29.682  1.00  0.00     0.035 A 
ATOM     24  N   UNL     1     -45.453  39.283  27.558  1.00  0.00    -0.229 NA
ATOM     25  C   UNL     1     -43.436  39.684  29.485  1.00  0.00     0.254 A 
ATOM     26  H   UNL     1     -44.468  38.098  30.591  1.00  0.00     0.071 H 
ATOM     27  C   UNL     1     -44.532  40.179  27.412  1.00  0.00     0.112 A 
ATOM     28  O   UNL     1     -42.543  39.797  30.320  1.00  0.00    -0.269 OA
ATOM     29  N   UNL     1     -43.541  40.433  28.334  1.00  0.00    -0.297 N 
ATOM     30  C   UNL     1     -44.491  41.024  26.159  1.00  0.00     0.006 C 
ATOM     31  C   UNL     1     -42.525  41.425  28.018  1.00  0.00     0.027 C 
ATOM     32  C   UNL     1     -44.299  42.491  26.521  1.00  0.00    -0.045 C 
ATOM     33  H   UNL     1     -43.666  40.668  25.530  1.00  0.00     0.035 H 
ATOM     34  H   UNL     1     -45.419  40.894  25.592  1.00  0.00     0.035 H 
ATOM     35  C   UNL     1     -43.157  42.721  27.516  1.00  0.00    -0.035 C 
ATOM     36  H   UNL     1     -41.884  40.997  27.239  1.00  0.00     0.050 H 
ATOM     37  H   UNL     1     -41.890  41.632  28.886  1.00  0.00     0.050 H 
ATOM     38  H   UNL     1     -45.228  42.875  26.963  1.00  0.00     0.027 H 
ATOM     39  H   UNL     1     -44.127  43.079  25.612  1.00  0.00     0.027 H 
ATOM     40  H   UNL     1     -42.384  43.354  27.065  1.00  0.00     0.028 H 
ATOM     41  H   UNL     1     -43.552  43.284  28.372  1.00  0.00     0.028 H 
ENDBRANCH  20  22
ENDBRANCH  15  18
ENDBRANCH   1  15
BRANCH   6  42
ATOM     42  C   UNL     1     -48.472  30.065  24.011  1.00  0.00     0.036 C 
ATOM     43  H   UNL     1     -49.494  30.155  23.635  1.00  0.00     0.049 H 
ATOM     44  H   UNL     1     -47.816  29.857  23.157  1.00  0.00     0.049 H 
BRANCH  42  45
ATOM     45  N   UNL     1     -48.359  29.014  25.012  1.00  0.00    -0.311 NA
ATOM     46  H   UNL     1     -49.274  28.829  25.417  1.00  0.00     0.123 HD
BRANCH  45  47
ATOM     47  C   UNL     1     -47.744  27.785  24.513  1.00  0.00    -0.002 C 
ATOM     48  H   UNL     1     -48.034  27.594  23.473  1.00  0.00     0.043 H 
ATOM     49  H   UNL     1     -46.664  27.974  24.484  1.00  0.00     0.043 H 
BRANCH  47  50
ATOM     50  C   UNL     1     -47.963  26.522  25.355  1.00  0.00    -0.029 C 
ATOM     51  C   UNL     1     -48.033  26.574  26.903  1.00  0.00    -0.049 C 
ATOM     52  C   UNL     1     -46.811  25.494  25.511  1.00  0.00    -0.049 C 
ATOM     53  H   UNL     1     -48.867  26.041  24.949  1.00  0.00     0.032 H 
ATOM     54  C   UNL     1     -46.598  26.019  26.945  1.00  0.00    -0.053 C 
ATOM     55  H   UNL     1     -48.772  25.880  27.323  1.00  0.00     0.027 H 
ATOM     56  H   UNL     1     -48.190  27.551  27.362  1.00  0.00     0.027 H 
ATOM     57  H   UNL     1     -45.957  25.600  24.835  1.00  0.00     0.027 H 
ATOM     58  H   UNL     1     -47.151  24.452  25.477  1.00  0.00     0.027 H 
ATOM     59  H   UNL     1     -45.822  26.787  27.029  1.00  0.00     0.027 H 
ATOM     60  H   UNL     1     -46.411  25.252  27.703  1.00  0.00     0.027 H 
ENDBRANCH  47  50
ENDBRANCH  45  47
ENDBRANCH  42  45
ENDBRANCH   6  42
TORSDOF 7
ENDMDL
MODEL 2
REMARK VINA RESULT:     -10.3      3.156     11.431
REMARK SMILES O=C(NCc1ccc2cc(CNCC3CCC3)[nH]c2c1)c1cc(=O)n2c(n1)CCCC2
REMARK SMILES IDX 5 1 6 2 7 3 8 4 9 5 10 6 18 7 19 8 20 9 4 15 3 18 1 19 2 20
REMARK SMILES IDX 21 22 22 23 27 24 23 25 26 27 24 28 25 29 28 30 31 31 29 32
REMARK SMILES IDX 30 35 11 42 12 45 13 47 14 50 15 51 17 52 16 54
REMARK H PARENT 6 10 7 11 9 12 18 13 20 14 4 16 4 17 3 21 22 26 28 33 28 34
REMARK H PARENT 31 36 31 37 29 38 29 39 30 40 30 41 11 43 11 44 12 46 13 48
REMARK H PARENT 13 49 14 53 15 55 15 56 17 57 17 58 16 59 16 60
REMARK Flexibility Score: inf
ROOT
ATOM      1  C   UNL     1     -46.817  33.574  25.633  1.00  0.00    -0.027 A 
ATOM      2  C   UNL     1     -48.131  33.945  25.947  1.00  0.00    -0.057 A 
ATOM      3  C   UNL     1     -48.400  34.888  26.947  1.00  0.00    -0.052 A 
ATOM      4  C   UNL     1     -47.329  35.477  27.644  1.00  0.00    -0.000 A 
ATOM      5  C   UNL     1     -47.239  36.443  28.685  1.00  0.00    -0.032 A 
ATOM      6  C   UNL     1     -45.903  36.639  28.970  1.00  0.00     0.030 A 
ATOM      7  N   UNL     1     -45.186  35.818  28.133  1.00  0.00    -0.357 N 
ATOM      8  C   UNL     1     -46.028  35.103  27.315  1.00  0.00     0.046 A 
ATOM      9  C   UNL     1     -45.739  34.163  26.316  1.00  0.00    -0.033 A 
ATOM     10  H   UNL     1     -48.964  33.499  25.404  1.00  0.00     0.063 H 
ATOM     11  H   UNL     1     -49.426  35.162  27.175  1.00  0.00     0.063 H 
ATOM     12  H   UNL     1     -48.068  36.940  29.171  1.00  0.00     0.065 H 
ATOM     13  H   UNL     1     -44.176  35.783  28.110  1.00  0.00     0.166 HD
ATOM     14  H   UNL     1     -44.712  33.901  26.081  1.00  0.00     0.065 H 
ENDROOT
BRANCH   1  15
ATOM     15  C   UNL     1     -46.561  32.573  24.534  1.00  0.00     0.043 C 
ATOM     16  H   UNL     1     -45.485  32.447  24.378  1.00  0.00     0.054 H 
ATOM     17  H   UNL     1     -46.986  32.927  23.589  1.00  0.00     0.054 H 
BRANCH  15  18
ATOM     18  N   UNL     1     -47.184  31.310  24.838  1.00  0.00    -0.347 N 
ATOM     19  O   UNL     1     -48.621  31.267  23.041  1.00  0.00    -0.268 OA
ATOM     20  C   UNL     1     -48.118  30.725  24.018  1.00  0.00     0.270 C 
ATOM     21  H   UNL     1     -46.770  30.707  25.540  1.00  0.00     0.164 HD
BRANCH  20  22
ATOM     22  C   UNL     1     -48.454  29.317  24.447  1.00  0.00     0.135 A 
ATOM     23  C   UNL     1     -49.751  29.034  24.591  1.00  0.00     0.035 A 
ATOM     24  N   UNL     1     -47.424  28.421  24.649  1.00  0.00    -0.229 NA
ATOM     25  C   UNL     1     -50.120  27.671  24.994  1.00  0.00     0.254 A 
ATOM     26  H   UNL     1     -50.551  29.742  24.420  1.00  0.00     0.071 H 
ATOM     27  C   UNL     1     -47.763  27.233  25.031  1.00  0.00     0.112 A 
ATOM     28  O   UNL     1     -51.304  27.363  25.083  1.00  0.00    -0.269 OA
ATOM     29  N   UNL     1     -49.062  26.824  25.239  1.00  0.00    -0.297 N 
ATOM     30  C   UNL     1     -46.701  26.184  25.269  1.00  0.00     0.006 C 
ATOM     31  C   UNL     1     -49.312  25.439  25.607  1.00  0.00     0.027 C 
ATOM     32  C   UNL     1     -46.955  25.471  26.591  1.00  0.00    -0.045 C 
ATOM     33  H   UNL     1     -46.725  25.474  24.434  1.00  0.00     0.035 H 
ATOM     34  H   UNL     1     -45.711  26.652  25.278  1.00  0.00     0.035 H 
ATOM     35  C   UNL     1     -48.404  24.999  26.753  1.00  0.00    -0.035 C 
ATOM     36  H   UNL     1     -49.113  24.827  24.719  1.00  0.00     0.050 H 
ATOM     37  H   UNL     1     -50.360  25.284  25.882  1.00  0.00     0.050 H 
ATOM     38  H   UNL     1     -46.717  26.153  27.417  1.00  0.00     0.027 H 
ATOM     39  H   UNL     1     -46.272  24.619  26.692  1.00  0.00     0.027 H 
ATOM     40  H   UNL     1     -48.438  23.908  26.849  1.00  0.00     0.028 H 
ATOM     41  H   UNL     1     -48.795  25.401  27.697  1.00  0.00     0.028 H 
ENDBRANCH  20  22
ENDBRANCH  15  18
ENDBRANCH   1  15
BRANCH   6  42
ATOM     42  C   UNL     1     -45.228  37.517  29.965  1.00  0.00     0.036 C 
ATOM     43  H   UNL     1     -45.647  37.323  30.955  1.00  0.00     0.049 H 
ATOM     44  H   UNL     1     -44.163  37.257  29.993  1.00  0.00     0.049 H 
BRANCH  42  45
ATOM     45  N   UNL     1     -45.406  38.907  29.570  1.00  0.00    -0.311 NA
ATOM     46  H   UNL     1     -45.411  39.499  30.398  1.00  0.00     0.123 HD
BRANCH  45  47
ATOM     47  C   UNL     1     -44.426  39.374  28.592  1.00  0.00    -0.002 C 
ATOM     48  H   UNL     1     -44.012  40.346  28.883  1.00  0.00     0.043 H 
ATOM     49  H   UNL     1     -43.584  38.672  28.643  1.00  0.00     0.043 H 
BRANCH  47  50
ATOM     50  C   UNL     1     -44.891  39.422  27.130  1.00  0.00    -0.029 C 
ATOM     51  C   UNL     1     -44.627  40.656  26.229  1.00  0.00    -0.049 C 
ATOM     52  C   UNL     1     -46.399  39.597  26.809  1.00  0.00    -0.049 C 
ATOM     53  H   UNL     1     -44.490  38.511  26.656  1.00  0.00     0.032 H 
ATOM     54  C   UNL     1     -46.101  41.058  26.421  1.00  0.00    -0.053 C 
ATOM     55  H   UNL     1     -44.389  40.387  25.192  1.00  0.00     0.027 H 
ATOM     56  H   UNL     1     -43.879  41.372  26.571  1.00  0.00     0.027 H 
ATOM     57  H   UNL     1     -47.101  39.459  27.636  1.00  0.00     0.027 H 
ATOM     58  H   UNL     1     -46.737  38.984  25.964  1.00  0.00     0.027 H 
ATOM     59  H   UNL     1     -46.267  41.778  27.230  1.00  0.00     0.027 H 
ATOM     60  H   UNL     1     -46.611  41.419  25.524  1.00  0.00     0.027 H 
ENDBRANCH  47  50
ENDBRANCH  45  47
ENDBRANCH  42  45
ENDBRANCH   6  42
TORSDOF 7
ENDMDL
MODEL 3
REMARK VINA RESULT:     -10.2      1.846      2.489
REMARK SMILES O=C(NCc1ccc2cc(CNCC3CCC3)[nH]c2c1)c1cc(=O)n2c(n1)CCCC2
REMARK SMILES IDX 5 1 6 2 7 3 8 4 9 5 10 6 18 7 19 8 20 9 4 15 3 18 1 19 2 20
REMARK SMILES IDX 21 22 22 23 27 24 23 25 26 27 24 28 25 29 28 30 31 31 29 32
REMARK SMILES IDX 30 35 11 42 12 45 13 47 14 50 15 51 17 52 16 54
REMARK H PARENT 6 10 7 11 9 12 18 13 20 14 4 16 4 17 3 21 22 26 28 33 28 34
REMARK H PARENT 31 36 31 37 29 38 29 39 30 40 30 41 11 43 11 44 12 46 13 48
REMARK H PARENT 13 49 14 53 15 55 15 56 17 57 17 58 16 59 16 60
REMARK Flexibility Score: inf
ROOT
ATOM      1  C   UNL     1     -46.347  35.117  27.593  1.00  0.00    -0.027 A 
ATOM      2  C   UNL     1     -47.744  35.151  27.491  1.00  0.00    -0.057 A 
ATOM      3  C   UNL     1     -48.427  34.323  26.591  1.00  0.00    -0.052 A 
ATOM      4  C   UNL     1     -47.695  33.438  25.779  1.00  0.00    -0.000 A 
ATOM      5  C   UNL     1     -48.051  32.481  24.788  1.00  0.00    -0.032 A 
ATOM      6  C   UNL     1     -46.892  31.894  24.325  1.00  0.00     0.030 A 
ATOM      7  N   UNL     1     -45.846  32.471  25.006  1.00  0.00    -0.357 N 
ATOM      8  C   UNL     1     -46.307  33.410  25.898  1.00  0.00     0.046 A 
ATOM      9  C   UNL     1     -45.607  34.229  26.794  1.00  0.00    -0.033 A 
ATOM     10  H   UNL     1     -48.317  35.829  28.123  1.00  0.00     0.063 H 
ATOM     11  H   UNL     1     -49.510  34.365  26.527  1.00  0.00     0.063 H 
ATOM     12  H   UNL     1     -49.054  32.249  24.453  1.00  0.00     0.065 H 
ATOM     13  H   UNL     1     -44.879  32.204  24.881  1.00  0.00     0.166 HD
ATOM     14  H   UNL     1     -44.524  34.176  26.865  1.00  0.00     0.065 H 
ENDROOT
BRANCH   1  15
ATOM     15  C   UNL     1     -45.645  36.006  28.589  1.00  0.00     0.043 C 
ATOM     16  H   UNL     1     -44.734  35.520  28.954  1.00  0.00     0.054 H 
ATOM     17  H   UNL     1     -46.287  36.185  29.459  1.00  0.00     0.054 H 
BRANCH  15  18
ATOM     18  N   UNL     1     -45.343  37.288  28.007  1.00  0.00    -0.347 N 
ATOM     19  O   UNL     1     -47.192  38.402  28.805  1.00  0.00    -0.268 OA
ATOM     20  C   UNL     1     -46.111  38.405  28.228  1.00  0.00     0.270 C 
ATOM     21  H   UNL     1     -44.420  37.454  27.620  1.00  0.00     0.164 HD
BRANCH  20  22
ATOM     22  C   UNL     1     -45.467  39.659  27.687  1.00  0.00     0.135 A 
ATOM     23  C   UNL     1     -46.178  40.353  26.794  1.00  0.00     0.035 A 
ATOM     24  N   UNL     1     -44.214  40.012  28.144  1.00  0.00    -0.229 NA
ATOM     25  C   UNL     1     -45.591  41.586  26.254  1.00  0.00     0.254 A 
ATOM     26  H   UNL     1     -47.164  40.071  26.449  1.00  0.00     0.071 H 
ATOM     27  C   UNL     1     -43.699  41.085  27.638  1.00  0.00     0.112 A 
ATOM     28  O   UNL     1     -46.240  42.276  25.473  1.00  0.00    -0.269 OA
ATOM     29  N   UNL     1     -44.318  41.874  26.694  1.00  0.00    -0.297 N 
ATOM     30  C   UNL     1     -42.334  41.553  28.087  1.00  0.00     0.006 C 
ATOM     31  C   UNL     1     -43.657  43.092  26.253  1.00  0.00     0.027 C 
ATOM     32  C   UNL     1     -41.479  41.913  26.878  1.00  0.00    -0.045 C 
ATOM     33  H   UNL     1     -42.465  42.421  28.743  1.00  0.00     0.035 H 
ATOM     34  H   UNL     1     -41.845  40.766  28.673  1.00  0.00     0.035 H 
ATOM     35  C   UNL     1     -42.200  42.826  25.882  1.00  0.00    -0.035 C 
ATOM     36  H   UNL     1     -43.704  43.806  27.084  1.00  0.00     0.050 H 
ATOM     37  H   UNL     1     -44.181  43.544  25.405  1.00  0.00     0.050 H 
ATOM     38  H   UNL     1     -41.188  40.991  26.358  1.00  0.00     0.027 H 
ATOM     39  H   UNL     1     -40.546  42.384  27.210  1.00  0.00     0.027 H 
ATOM     40  H   UNL     1     -41.666  43.779  25.787  1.00  0.00     0.028 H 
ATOM     41  H   UNL     1     -42.162  42.355  24.891  1.00  0.00     0.028 H 
ENDBRANCH  20  22
ENDBRANCH  15  18
ENDBRANCH   1  15
BRANCH   6  42
ATOM     42  C   UNL     1     -46.663  30.847  23.291  1.00  0.00     0.036 C 
ATOM     43  H   UNL     1     -47.529  30.806  22.627  1.00  0.00     0.049 H 
ATOM     44  H   UNL     1     -45.792  31.135  22.691  1.00  0.00     0.049 H 
BRANCH  42  45
ATOM     45  N   UNL     1     -46.432  29.571  23.951  1.00  0.00    -0.311 NA
ATOM     46  H   UNL     1     -45.886  29.717  24.797  1.00  0.00     0.123 HD
BRANCH  45  47
ATOM     47  C   UNL     1     -47.654  28.822  24.234  1.00  0.00    -0.002 C 
ATOM     48  H   UNL     1     -48.125  29.172  25.160  1.00  0.00     0.043 H 
ATOM     49  H   UNL     1     -48.361  29.076  23.434  1.00  0.00     0.043 H 
BRANCH  47  50
ATOM     50  C   UNL     1     -47.527  27.293  24.260  1.00  0.00    -0.029 C 
ATOM     51  C   UNL     1     -48.137  26.442  25.403  1.00  0.00    -0.049 C 
ATOM     52  C   UNL     1     -46.160  26.641  24.597  1.00  0.00    -0.049 C 
ATOM     53  H   UNL     1     -47.901  26.943  23.284  1.00  0.00     0.032 H 
ATOM     54  C   UNL     1     -46.721  26.292  25.989  1.00  0.00    -0.053 C 
ATOM     55  H   UNL     1     -48.557  25.490  25.053  1.00  0.00     0.027 H 
ATOM     56  H   UNL     1     -48.879  26.922  26.041  1.00  0.00     0.027 H 
ATOM     57  H   UNL     1     -45.284  27.295  24.589  1.00  0.00     0.027 H 
ATOM     58  H   UNL     1     -45.937  25.758  23.985  1.00  0.00     0.027 H 
ATOM     59  H   UNL     1     -46.478  27.025  26.766  1.00  0.00     0.027 H 
ATOM     60  H   UNL     1     -46.469  25.295  26.361  1.00  0.00     0.027 H 
ENDBRANCH  47  50
ENDBRANCH  45  47
ENDBRANCH  42  45
ENDBRANCH   6  42
TORSDOF 7
ENDMDL
MODEL 4
REMARK VINA RESULT:      -9.9      1.861      2.720
REMARK SMILES O=C(NCc1ccc2cc(CNCC3CCC3)[nH]c2c1)c1cc(=O)n2c(n1)CCCC2
REMARK SMILES IDX 5 1 6 2 7 3 8 4 9 5 10 6 18 7 19 8 20 9 4 15 3 18 1 19 2 20
REMARK SMILES IDX 21 22 22 23 27 24 23 25 26 27 24 28 25 29 28 30 31 31 29 32
REMARK SMILES IDX 30 35 11 42 12 45 13 47 14 50 15 51 17 52 16 54
REMARK H PARENT 6 10 7 11 9 12 18 13 20 14 4 16 4 17 3 21 22 26 28 33 28 34
REMARK H PARENT 31 36 31 37 29 38 29 39 30 40 30 41 11 43 11 44 12 46 13 48
REMARK H PARENT 13 49 14 53 15 55 15 56 17 57 17 58 16 59 16 60
REMARK Flexibility Score: inf
ROOT
ATOM      1  C   UNL     1     -46.338  36.088  28.020  1.00  0.00    -0.027 A 
ATOM      2  C   UNL     1     -47.728  36.110  27.845  1.00  0.00    -0.057 A 
ATOM      3  C   UNL     1     -48.366  35.207  26.985  1.00  0.00    -0.052 A 
ATOM      4  C   UNL     1     -47.595  34.258  26.288  1.00  0.00    -0.000 A 
ATOM      5  C   UNL     1     -47.902  33.220  25.365  1.00  0.00    -0.032 A 
ATOM      6  C   UNL     1     -46.721  32.600  25.012  1.00  0.00     0.030 A 
ATOM      7  N   UNL     1     -45.711  33.235  25.695  1.00  0.00    -0.357 N 
ATOM      8  C   UNL     1     -46.214  34.245  26.480  1.00  0.00     0.046 A 
ATOM      9  C   UNL     1     -45.560  35.138  27.338  1.00  0.00    -0.033 A 
ATOM     10  H   UNL     1     -48.331  36.837  28.389  1.00  0.00     0.063 H 
ATOM     11  H   UNL     1     -49.444  35.241  26.863  1.00  0.00     0.063 H 
ATOM     12  H   UNL     1     -48.887  32.959  25.000  1.00  0.00     0.065 H 
ATOM     13  H   UNL     1     -44.739  32.961  25.642  1.00  0.00     0.166 HD
ATOM     14  H   UNL     1     -44.482  35.094  27.468  1.00  0.00     0.065 H 
ENDROOT
BRANCH   1  15
ATOM     15  C   UNL     1     -45.686  37.059  28.973  1.00  0.00     0.043 C 
ATOM     16  H   UNL     1     -44.975  36.536  29.620  1.00  0.00     0.054 H 
ATOM     17  H   UNL     1     -46.438  37.519  29.623  1.00  0.00     0.054 H 
BRANCH  15  18
ATOM     18  N   UNL     1     -45.034  38.122  28.253  1.00  0.00    -0.347 N 
ATOM     19  O   UNL     1     -46.730  39.667  28.436  1.00  0.00    -0.268 OA
ATOM     20  C   UNL     1     -45.587  39.371  28.108  1.00  0.00     0.270 C 
ATOM     21  H   UNL     1     -44.044  38.049  28.046  1.00  0.00     0.164 HD
BRANCH  20  22
ATOM     22  C   UNL     1     -44.618  40.359  27.504  1.00  0.00     0.135 A 
ATOM     23  C   UNL     1     -43.519  40.624  28.216  1.00  0.00     0.035 A 
ATOM     24  N   UNL     1     -44.912  40.910  26.274  1.00  0.00    -0.229 NA
ATOM     25  C   UNL     1     -42.545  41.569  27.657  1.00  0.00     0.254 A 
ATOM     26  H   UNL     1     -43.294  40.178  29.176  1.00  0.00     0.071 H 
ATOM     27  C   UNL     1     -44.059  41.763  25.808  1.00  0.00     0.112 A 
ATOM     28  O   UNL     1     -41.501  41.793  28.260  1.00  0.00    -0.269 OA
ATOM     29  N   UNL     1     -42.902  42.139  26.454  1.00  0.00    -0.297 N 
ATOM     30  C   UNL     1     -44.295  42.411  24.462  1.00  0.00     0.006 C 
ATOM     31  C   UNL     1     -41.993  43.060  25.791  1.00  0.00     0.027 C 
ATOM     32  C   UNL     1     -44.059  43.913  24.555  1.00  0.00    -0.045 C 
ATOM     33  H   UNL     1     -43.613  41.955  23.735  1.00  0.00     0.035 H 
ATOM     34  H   UNL     1     -45.318  42.210  24.127  1.00  0.00     0.035 H 
ATOM     35  C   UNL     1     -42.740  44.275  25.244  1.00  0.00    -0.035 C 
ATOM     36  H   UNL     1     -41.521  42.513  24.966  1.00  0.00     0.050 H 
ATOM     37  H   UNL     1     -41.195  43.386  26.465  1.00  0.00     0.050 H 
ATOM     38  H   UNL     1     -44.883  44.370  25.119  1.00  0.00     0.027 H 
ATOM     39  H   UNL     1     -44.092  44.357  23.553  1.00  0.00     0.027 H 
ATOM     40  H   UNL     1     -42.090  44.824  24.553  1.00  0.00     0.028 H 
ATOM     41  H   UNL     1     -42.959  44.964  26.071  1.00  0.00     0.028 H 
ENDBRANCH  20  22
ENDBRANCH  15  18
ENDBRANCH   1  15
BRANCH   6  42
ATOM     42  C   UNL     1     -46.442  31.471  24.083  1.00  0.00     0.036 C 
ATOM     43  H   UNL     1     -45.461  31.619  23.624  1.00  0.00     0.049 H 
ATOM     44  H   UNL     1     -46.405  30.542  24.664  1.00  0.00     0.049 H 
BRANCH  42  45
ATOM     45  N   UNL     1     -47.497  31.407  23.082  1.00  0.00    -0.311 NA
ATOM     46  H   UNL     1     -47.086  31.409  22.151  1.00  0.00     0.123 HD
BRANCH  45  47
ATOM     47  C   UNL     1     -48.409  30.279  23.255  1.00  0.00    -0.002 C 
ATOM     48  H   UNL     1     -49.431  30.624  23.448  1.00  0.00     0.043 H 
ATOM     49  H   UNL     1     -48.453  29.769  22.284  1.00  0.00     0.043 H 
BRANCH  47  50
ATOM     50  C   UNL     1     -48.007  29.230  24.300  1.00  0.00    -0.029 C 
ATOM     51  C   UNL     1     -47.534  27.811  23.893  1.00  0.00    -0.049 C 
ATOM     52  C   UNL     1     -49.101  28.543  25.160  1.00  0.00    -0.049 C 
ATOM     53  H   UNL     1     -47.251  29.715  24.938  1.00  0.00     0.032 H 
ATOM     54  C   UNL     1     -48.920  27.278  24.298  1.00  0.00    -0.053 C 
ATOM     55  H   UNL     1     -46.727  27.428  24.531  1.00  0.00     0.027 H 
ATOM     56  H   UNL     1     -47.240  27.662  22.854  1.00  0.00     0.027 H 
ATOM     57  H   UNL     1     -50.099  28.991  25.143  1.00  0.00     0.027 H 
ATOM     58  H   UNL     1     -48.805  28.401  26.206  1.00  0.00     0.027 H 
ATOM     59  H   UNL     1     -49.630  27.198  23.468  1.00  0.00     0.027 H 
ATOM     60  H   UNL     1     -48.920  26.332  24.847  1.00  0.00     0.027 H 
ENDBRANCH  47  50
ENDBRANCH  45  47
ENDBRANCH  42  45
ENDBRANCH   6  42
TORSDOF 7
ENDMDL
MODEL 5
REMARK VINA RESULT:      -9.9      2.414      4.343
REMARK SMILES O=C(NCc1ccc2cc(CNCC3CCC3)[nH]c2c1)c1cc(=O)n2c(n1)CCCC2
REMARK SMILES IDX 5 1 6 2 7 3 8 4 9 5 10 6 18 7 19 8 20 9 4 15 3 18 1 19 2 20
REMARK SMILES IDX 21 22 22 23 27 24 23 25 26 27 24 28 25 29 28 30 31 31 29 32
REMARK SMILES IDX 30 35 11 42 12 45 13 47 14 50 15 51 17 52 16 54
REMARK H PARENT 6 10 7 11 9 12 18 13 20 14 4 16 4 17 3 21 22 26 28 33 28 34
REMARK H PARENT 31 36 31 37 29 38 29 39 30 40 30 41 11 43 11 44 12 46 13 48
REMARK H PARENT 13 49 14 53 15 55 15 56 17 57 17 58 16 59 16 60
REMARK Flexibility Score: inf
ROOT
ATOM      1  C   UNL     1     -45.482  37.755  28.320  1.00  0.00    -0.027 A 
ATOM      2  C   UNL     1     -46.659  38.160  27.677  1.00  0.00    -0.057 A 
ATOM      3  C   UNL     1     -47.440  37.251  26.950  1.00  0.00    -0.052 A 
ATOM      4  C   UNL     1     -47.035  35.906  26.871  1.00  0.00    -0.000 A 
ATOM      5  C   UNL     1     -47.570  34.748  26.242  1.00  0.00    -0.032 A 
ATOM      6  C   UNL     1     -46.732  33.687  26.515  1.00  0.00     0.030 A 
ATOM      7  N   UNL     1     -45.705  34.172  27.290  1.00  0.00    -0.357 N 
ATOM      8  C   UNL     1     -45.866  35.518  27.523  1.00  0.00     0.046 A 
ATOM      9  C   UNL     1     -45.075  36.412  28.256  1.00  0.00    -0.033 A 
ATOM     10  H   UNL     1     -46.983  39.198  27.742  1.00  0.00     0.063 H 
ATOM     11  H   UNL     1     -48.348  37.585  26.459  1.00  0.00     0.063 H 
ATOM     12  H   UNL     1     -48.476  34.701  25.651  1.00  0.00     0.065 H 
ATOM     13  H   UNL     1     -44.959  33.598  27.658  1.00  0.00     0.166 HD
ATOM     14  H   UNL     1     -44.173  36.072  28.758  1.00  0.00     0.065 H 
ENDROOT
BRANCH   1  15
ATOM     15  C   UNL     1     -44.679  38.754  29.114  1.00  0.00     0.043 C 
ATOM     16  H   UNL     1     -43.700  38.335  29.372  1.00  0.00     0.054 H 
ATOM     17  H   UNL     1     -45.187  38.992  30.055  1.00  0.00     0.054 H 
BRANCH  15  18
ATOM     18  N   UNL     1     -44.530  39.987  28.384  1.00  0.00    -0.347 N 
ATOM     19  O   UNL     1     -42.448  40.542  29.190  1.00  0.00    -0.268 OA
ATOM     20  C   UNL     1     -43.386  40.745  28.429  1.00  0.00     0.270 C 
ATOM     21  H   UNL     1     -45.173  40.198  27.628  1.00  0.00     0.164 HD
BRANCH  20  22
ATOM     22  C   UNL     1     -43.401  41.864  27.415  1.00  0.00     0.135 A 
ATOM     23  C   UNL     1     -42.243  42.125  26.802  1.00  0.00     0.035 A 
ATOM     24  N   UNL     1     -44.586  42.529  27.178  1.00  0.00    -0.229 NA
ATOM     25  C   UNL     1     -42.219  43.198  25.801  1.00  0.00     0.254 A 
ATOM     26  H   UNL     1     -41.321  41.591  26.990  1.00  0.00     0.071 H 
ATOM     27  C   UNL     1     -44.543  43.489  26.314  1.00  0.00     0.112 A 
ATOM     28  O   UNL     1     -41.185  43.428  25.181  1.00  0.00    -0.269 OA
ATOM     29  N   UNL     1     -43.408  43.873  25.633  1.00  0.00    -0.297 N 
ATOM     30  C   UNL     1     -45.796  44.268  25.985  1.00  0.00     0.006 C 
ATOM     31  C   UNL     1     -43.509  44.929  24.638  1.00  0.00     0.027 C 
ATOM     32  C   UNL     1     -45.504  45.763  25.997  1.00  0.00    -0.045 C 
ATOM     33  H   UNL     1     -46.151  43.949  24.998  1.00  0.00     0.035 H 
ATOM     34  H   UNL     1     -46.582  44.032  26.711  1.00  0.00     0.035 H 
ATOM     35  C   UNL     1     -44.256  46.139  25.190  1.00  0.00    -0.035 C 
ATOM     36  H   UNL     1     -44.052  44.515  23.780  1.00  0.00     0.050 H 
ATOM     37  H   UNL     1     -42.519  45.233  24.280  1.00  0.00     0.050 H 
ATOM     38  H   UNL     1     -45.359  46.090  27.034  1.00  0.00     0.027 H 
ATOM     39  H   UNL     1     -46.373  46.315  25.620  1.00  0.00     0.027 H 
ATOM     40  H   UNL     1     -44.527  46.810  24.367  1.00  0.00     0.028 H 
ATOM     41  H   UNL     1     -43.583  46.712  25.842  1.00  0.00     0.028 H 
ENDBRANCH  20  22
ENDBRANCH  15  18
ENDBRANCH   1  15
BRANCH   6  42
ATOM     42  C   UNL     1     -46.791  32.256  26.110  1.00  0.00     0.036 C 
ATOM     43  H   UNL     1     -46.625  31.628  26.989  1.00  0.00     0.049 H 
ATOM     44  H   UNL     1     -47.796  32.043  25.728  1.00  0.00     0.049 H 
BRANCH  42  45
ATOM     45  N   UNL     1     -45.790  32.012  25.082  1.00  0.00    -0.311 NA
ATOM     46  H   UNL     1     -45.115  31.327  25.417  1.00  0.00     0.123 HD
BRANCH  45  47
ATOM     47  C   UNL     1     -46.351  31.612  23.793  1.00  0.00    -0.002 C 
ATOM     48  H   UNL     1     -46.678  32.487  23.218  1.00  0.00     0.043 H 
ATOM     49  H   UNL     1     -45.522  31.180  23.219  1.00  0.00     0.043 H 
BRANCH  47  50
ATOM     50  C   UNL     1     -47.472  30.565  23.832  1.00  0.00    -0.029 C 
ATOM     51  C   UNL     1     -47.239  29.103  23.373  1.00  0.00    -0.049 C 
ATOM     52  C   UNL     1     -48.623  30.634  22.794  1.00  0.00    -0.049 C 
ATOM     53  H   UNL     1     -47.866  30.584  24.860  1.00  0.00     0.032 H 
ATOM     54  C   UNL     1     -47.977  29.440  22.065  1.00  0.00    -0.053 C 
ATOM     55  H   UNL     1     -47.775  28.369  23.989  1.00  0.00     0.027 H 
ATOM     56  H   UNL     1     -46.205  28.769  23.276  1.00  0.00     0.027 H 
ATOM     57  H   UNL     1     -48.711  31.555  22.211  1.00  0.00     0.027 H 
ATOM     58  H   UNL     1     -49.607  30.401  23.221  1.00  0.00     0.027 H 
ATOM     59  H   UNL     1     -47.318  29.725  21.238  1.00  0.00     0.027 H 
ATOM     60  H   UNL     1     -48.673  28.676  21.706  1.00  0.00     0.027 H 
ENDBRANCH  47  50
ENDBRANCH  45  47
ENDBRANCH  42  45
ENDBRANCH   6  42
TORSDOF 7
ENDMDL
MODEL 6
REMARK VINA RESULT:      -9.5      3.166     11.061
REMARK SMILES O=C(NCc1ccc2cc(CNCC3CCC3)[nH]c2c1)c1cc(=O)n2c(n1)CCCC2
REMARK SMILES IDX 5 1 6 2 7 3 8 4 9 5 10 6 18 7 19 8 20 9 4 15 3 18 1 19 2 20
REMARK SMILES IDX 21 22 22 23 27 24 23 25 26 27 24 28 25 29 28 30 31 31 29 32
REMARK SMILES IDX 30 35 11 42 12 45 13 47 14 50 15 51 17 52 16 54
REMARK H PARENT 6 10 7 11 9 12 18 13 20 14 4 16 4 17 3 21 22 26 28 33 28 34
REMARK H PARENT 31 36 31 37 29 38 29 39 30 40 30 41 11 43 11 44 12 46 13 48
REMARK H PARENT 13 49 14 53 15 55 15 56 17 57 17 58 16 59 16 60
REMARK Flexibility Score: inf
ROOT
ATOM      1  C   UNL     1     -46.540  36.542  27.848  1.00  0.00    -0.027 A 
ATOM      2  C   UNL     1     -47.084  37.238  26.760  1.00  0.00    -0.057 A 
ATOM      3  C   UNL     1     -46.621  38.512  26.407  1.00  0.00    -0.052 A 
ATOM      4  C   UNL     1     -45.586  39.100  27.157  1.00  0.00    -0.000 A 
ATOM      5  C   UNL     1     -44.890  40.338  27.080  1.00  0.00    -0.032 A 
ATOM      6  C   UNL     1     -43.955  40.367  28.095  1.00  0.00     0.030 A 
ATOM      7  N   UNL     1     -44.068  39.182  28.782  1.00  0.00    -0.357 N 
ATOM      8  C   UNL     1     -45.050  38.392  28.231  1.00  0.00     0.046 A 
ATOM      9  C   UNL     1     -45.499  37.116  28.597  1.00  0.00    -0.033 A 
ATOM     10  H   UNL     1     -47.880  36.783  26.171  1.00  0.00     0.063 H 
ATOM     11  H   UNL     1     -47.056  39.034  25.561  1.00  0.00     0.063 H 
ATOM     12  H   UNL     1     -45.060  41.124  26.355  1.00  0.00     0.065 H 
ATOM     13  H   UNL     1     -43.478  38.926  29.562  1.00  0.00     0.166 HD
ATOM     14  H   UNL     1     -45.053  36.591  29.437  1.00  0.00     0.065 H 
ENDROOT
BRANCH   1  15
ATOM     15  C   UNL     1     -47.046  35.162  28.187  1.00  0.00     0.043 C 
ATOM     16  H   UNL     1     -47.998  35.229  28.723  1.00  0.00     0.054 H 
ATOM     17  H   UNL     1     -46.338  34.647  28.845  1.00  0.00     0.054 H 
BRANCH  15  18
ATOM     18  N   UNL     1     -47.184  34.363  26.997  1.00  0.00    -0.347 N 
ATOM     19  O   UNL     1     -46.192  32.458  27.822  1.00  0.00    -0.268 OA
ATOM     20  C   UNL     1     -46.808  33.043  26.939  1.00  0.00     0.270 C 
ATOM     21  H   UNL     1     -47.788  34.685  26.248  1.00  0.00     0.164 HD
BRANCH  20  22
ATOM     22  C   UNL     1     -47.252  32.377  25.659  1.00  0.00     0.135 A 
ATOM     23  C   UNL     1     -46.291  32.076  24.782  1.00  0.00     0.035 A 
ATOM     24  N   UNL     1     -48.594  32.112  25.480  1.00  0.00    -0.229 NA
ATOM     25  C   UNL     1     -46.680  31.415  23.531  1.00  0.00     0.254 A 
ATOM     26  H   UNL     1     -45.239  32.280  24.938  1.00  0.00     0.071 H 
ATOM     27  C   UNL     1     -48.925  31.555  24.361  1.00  0.00     0.112 A 
ATOM     28  O   UNL     1     -45.816  31.077  22.727  1.00  0.00    -0.269 OA
ATOM     29  N   UNL     1     -48.034  31.219  23.366  1.00  0.00    -0.297 N 
ATOM     30  C   UNL     1     -50.373  31.222  24.081  1.00  0.00     0.006 C 
ATOM     31  C   UNL     1     -48.529  30.537  22.180  1.00  0.00     0.027 C 
ATOM     32  C   UNL     1     -50.756  31.682  22.680  1.00  0.00    -0.045 C 
ATOM     33  H   UNL     1     -50.503  30.138  24.183  1.00  0.00     0.035 H 
ATOM     34  H   UNL     1     -51.016  31.704  24.825  1.00  0.00     0.035 H 
ATOM     35  C   UNL     1     -49.754  31.244  21.607  1.00  0.00    -0.035 C 
ATOM     36  H   UNL     1     -48.795  29.516  22.480  1.00  0.00     0.050 H 
ATOM     37  H   UNL     1     -47.751  30.459  21.413  1.00  0.00     0.050 H 
ATOM     38  H   UNL     1     -50.822  32.777  22.669  1.00  0.00     0.027 H 
ATOM     39  H   UNL     1     -51.758  31.313  22.429  1.00  0.00     0.027 H 
ATOM     40  H   UNL     1     -50.244  30.593  20.875  1.00  0.00     0.028 H 
ATOM     41  H   UNL     1     -49.429  32.136  21.054  1.00  0.00     0.028 H 
ENDBRANCH  20  22
ENDBRANCH  15  18
ENDBRANCH   1  15
BRANCH   6  42
ATOM     42  C   UNL     1     -42.968  41.407  28.494  1.00  0.00     0.036 C 
ATOM     43  H   UNL     1     -42.986  41.518  29.581  1.00  0.00     0.049 H 
ATOM     44  H   UNL     1     -41.966  41.064  28.208  1.00  0.00     0.049 H 
BRANCH  42  45
ATOM     45  N   UNL     1     -43.295  42.656  27.822  1.00  0.00    -0.311 NA
ATOM     46  H   UNL     1     -43.252  43.424  28.488  1.00  0.00     0.123 HD
BRANCH  45  47
ATOM     47  C   UNL     1     -42.469  42.929  26.647  1.00  0.00    -0.002 C 
ATOM     48  H   UNL     1     -41.494  43.338  26.938  1.00  0.00     0.043 H 
ATOM     49  H   UNL     1     -42.251  41.954  26.193  1.00  0.00     0.043 H 
BRANCH  47  50
ATOM     50  C   UNL     1     -43.099  43.807  25.559  1.00  0.00    -0.029 C 
ATOM     51  C   UNL     1     -44.542  43.564  25.047  1.00  0.00    -0.049 C 
ATOM     52  C   UNL     1     -42.627  43.665  24.088  1.00  0.00    -0.049 C 
ATOM     53  H   UNL     1     -42.989  44.846  25.909  1.00  0.00     0.032 H 
ATOM     54  C   UNL     1     -43.940  42.916  23.786  1.00  0.00    -0.053 C 
ATOM     55  H   UNL     1     -45.083  44.494  24.832  1.00  0.00     0.027 H 
ATOM     56  H   UNL     1     -45.188  42.932  25.657  1.00  0.00     0.027 H 
ATOM     57  H   UNL     1     -41.707  43.099  23.915  1.00  0.00     0.027 H 
ATOM     58  H   UNL     1     -42.545  44.625  23.564  1.00  0.00     0.027 H 
ATOM     59  H   UNL     1     -43.855  41.826  23.839  1.00  0.00     0.027 H 
ATOM     60  H   UNL     1     -44.426  43.182  22.843  1.00  0.00     0.027 H 
ENDBRANCH  47  50
ENDBRANCH  45  47
ENDBRANCH  42  45
ENDBRANCH   6  42
TORSDOF 7
ENDMDL
MODEL 7
REMARK VINA RESULT:      -9.4      2.987     11.733
REMARK SMILES O=C(NCc1ccc2cc(CNCC3CCC3)[nH]c2c1)c1cc(=O)n2c(n1)CCCC2
REMARK SMILES IDX 5 1 6 2 7 3 8 4 9 5 10 6 18 7 19 8 20 9 4 15 3 18 1 19 2 20
REMARK SMILES IDX 21 22 22 23 27 24 23 25 26 27 24 28 25 29 28 30 31 31 29 32
REMARK SMILES IDX 30 35 11 42 12 45 13 47 14 50 15 51 17 52 16 54
REMARK H PARENT 6 10 7 11 9 12 18 13 20 14 4 16 4 17 3 21 22 26 28 33 28 34
REMARK H PARENT 31 36 31 37 29 38 29 39 30 40 30 41 11 43 11 44 12 46 13 48
REMARK H PARENT 13 49 14 53 15 55 15 56 17 57 17 58 16 59 16 60
REMARK Flexibility Score: inf
ROOT
ATOM      1  C   UNL     1     -46.864  33.925  26.239  1.00  0.00    -0.027 A 
ATOM      2  C   UNL     1     -48.234  34.081  26.488  1.00  0.00    -0.057 A 
ATOM      3  C   UNL     1     -48.752  35.289  26.970  1.00  0.00    -0.052 A 
ATOM      4  C   UNL     1     -47.880  36.368  27.203  1.00  0.00    -0.000 A 
ATOM      5  C   UNL     1     -48.057  37.699  27.672  1.00  0.00    -0.032 A 
ATOM      6  C   UNL     1     -46.821  38.313  27.692  1.00  0.00     0.030 A 
ATOM      7  N   UNL     1     -45.904  37.390  27.249  1.00  0.00    -0.357 N 
ATOM      8  C   UNL     1     -46.521  36.200  26.943  1.00  0.00     0.046 A 
ATOM      9  C   UNL     1     -45.985  35.000  26.458  1.00  0.00    -0.033 A 
ATOM     10  H   UNL     1     -48.916  33.251  26.301  1.00  0.00     0.063 H 
ATOM     11  H   UNL     1     -49.817  35.389  27.157  1.00  0.00     0.063 H 
ATOM     12  H   UNL     1     -48.994  38.156  27.964  1.00  0.00     0.065 H 
ATOM     13  H   UNL     1     -44.919  37.586  27.137  1.00  0.00     0.166 HD
ATOM     14  H   UNL     1     -44.921  34.906  26.260  1.00  0.00     0.065 H 
ENDROOT
BRANCH   1  15
ATOM     15  C   UNL     1     -46.343  32.617  25.697  1.00  0.00     0.043 C 
ATOM     16  H   UNL     1     -45.592  32.199  26.376  1.00  0.00     0.054 H 
ATOM     17  H   UNL     1     -45.854  32.773  24.729  1.00  0.00     0.054 H 
BRANCH  15  18
ATOM     18  N   UNL     1     -47.420  31.685  25.489  1.00  0.00    -0.347 N 
ATOM     19  O   UNL     1     -47.287  31.611  23.193  1.00  0.00    -0.268 OA
ATOM     20  C   UNL     1     -47.755  31.200  24.248  1.00  0.00     0.270 C 
ATOM     21  H   UNL     1     -47.798  31.176  26.281  1.00  0.00     0.164 HD
BRANCH  20  22
ATOM     22  C   UNL     1     -48.768  30.083  24.325  1.00  0.00     0.135 A 
ATOM     23  C   UNL     1     -50.021  30.393  23.983  1.00  0.00     0.035 A 
ATOM     24  N   UNL     1     -48.346  28.831  24.723  1.00  0.00    -0.229 NA
ATOM     25  C   UNL     1     -51.033  29.331  24.031  1.00  0.00     0.254 A 
ATOM     26  H   UNL     1     -50.339  31.377  23.662  1.00  0.00     0.071 H 
ATOM     27  C   UNL     1     -49.254  27.913  24.788  1.00  0.00     0.112 A 
ATOM     28  O   UNL     1     -52.182  29.569  23.672  1.00  0.00    -0.269 OA
ATOM     29  N   UNL     1     -50.584  28.111  24.486  1.00  0.00    -0.297 N 
ATOM     30  C   UNL     1     -48.882  26.509  25.208  1.00  0.00     0.006 C 
ATOM     31  C   UNL     1     -51.492  26.976  24.538  1.00  0.00     0.027 C 
ATOM     32  C   UNL     1     -49.869  25.992  26.247  1.00  0.00    -0.045 C 
ATOM     33  H   UNL     1     -48.885  25.871  24.317  1.00  0.00     0.035 H 
ATOM     34  H   UNL     1     -47.865  26.501  25.617  1.00  0.00     0.035 H 
ATOM     35  C   UNL     1     -51.332  26.199  25.842  1.00  0.00    -0.035 C 
ATOM     36  H   UNL     1     -51.251  26.328  23.687  1.00  0.00     0.050 H 
ATOM     37  H   UNL     1     -52.533  27.295  24.420  1.00  0.00     0.050 H 
ATOM     38  H   UNL     1     -49.694  26.514  27.197  1.00  0.00     0.027 H 
ATOM     39  H   UNL     1     -49.682  24.930  26.442  1.00  0.00     0.027 H 
ATOM     40  H   UNL     1     -51.841  25.232  25.757  1.00  0.00     0.028 H 
ATOM     41  H   UNL     1     -51.841  26.742  26.650  1.00  0.00     0.028 H 
ENDBRANCH  20  22
ENDBRANCH  15  18
ENDBRANCH   1  15
BRANCH   6  42
ATOM     42  C   UNL     1     -46.410  39.685  28.098  1.00  0.00     0.036 C 
ATOM     43  H   UNL     1     -46.510  40.356  27.242  1.00  0.00     0.049 H 
ATOM     44  H   UNL     1     -47.091  40.035  28.882  1.00  0.00     0.049 H 
BRANCH  42  45
ATOM     45  N   UNL     1     -45.040  39.644  28.590  1.00  0.00    -0.311 NA
ATOM     46  H   UNL     1     -44.798  38.689  28.845  1.00  0.00     0.123 HD
BRANCH  45  47
ATOM     47  C   UNL     1     -44.062  40.208  27.663  1.00  0.00    -0.002 C 
ATOM     48  H   UNL     1     -43.392  39.431  27.276  1.00  0.00     0.043 H 
ATOM     49  H   UNL     1     -44.631  40.560  26.793  1.00  0.00     0.043 H 
BRANCH  47  50
ATOM     50  C   UNL     1     -43.239  41.396  28.178  1.00  0.00    -0.029 C 
ATOM     51  C   UNL     1     -42.136  42.061  27.316  1.00  0.00    -0.049 C 
ATOM     52  C   UNL     1     -42.155  41.166  29.264  1.00  0.00    -0.049 C 
ATOM     53  H   UNL     1     -43.972  42.151  28.507  1.00  0.00     0.032 H 
ATOM     54  C   UNL     1     -41.086  41.322  28.166  1.00  0.00    -0.053 C 
ATOM     55  H   UNL     1     -42.094  43.151  27.438  1.00  0.00     0.027 H 
ATOM     56  H   UNL     1     -42.138  41.843  26.248  1.00  0.00     0.027 H 
ATOM     57  H   UNL     1     -42.168  40.203  29.781  1.00  0.00     0.027 H 
ATOM     58  H   UNL     1     -42.121  41.962  30.019  1.00  0.00     0.027 H 
ATOM     59  H   UNL     1     -40.746  40.374  27.734  1.00  0.00     0.027 H 
ATOM     60  H   UNL     1     -40.207  41.911  28.445  1.00  0.00     0.027 H 
ENDBRANCH  47  50
ENDBRANCH  45  47
ENDBRANCH  42  45
ENDBRANCH   6  42
TORSDOF 7
ENDMDL
