MODEL 1
REMARK VINA RESULT:     -10.4      0.000      0.000
REMARK SMILES CNc1ccc2ccc(OC[C@H]3C[C@@H](n4cc(C5CCCC5)c5c(N)ncnc54)C[C@@H]3O)cc2n1
REMARK SMILES IDX 11 1 10 4 9 5 3 6 4 7 35 8 5 9 34 11 6 12 33 14 7 15 8 17
REMARK SMILES IDX 2 20 1 22 12 26 13 27 31 28 14 30 30 33 32 38 15 40 16 41
REMARK SMILES IDX 29 42 17 43 23 45 28 46 24 47 27 48 26 49 18 51 19 52 22 53
REMARK SMILES IDX 20 55 21 58 25 65
REMARK H PARENT 11 2 11 3 4 10 5 13 33 16 7 18 8 19 2 21 1 23 1 24 1 25 12 29
REMARK H PARENT 13 31 13 32 31 34 14 35 30 36 30 37 32 39 16 44 27 50 18 54
REMARK H PARENT 19 56 19 57 22 59 22 60 20 61 20 62 21 63 21 64 25 66 25 67
REMARK Flexibility Score: inf
ROOT
ATOM      1  C   UNL     1     -47.286  35.868  27.233  1.00  0.00     0.094 C 
ATOM      2  H   UNL     1     -48.150  35.312  27.617  1.00  0.00     0.071 H 
ATOM      3  H   UNL     1     -47.598  36.887  26.976  1.00  0.00     0.071 H 
ENDROOT
BRANCH   1   4
ATOM      4  O   UNL     1     -46.758  35.230  26.073  1.00  0.00    -0.493 OA
BRANCH   4   5
ATOM      5  C   UNL     1     -47.242  33.989  25.759  1.00  0.00     0.121 A 
ATOM      6  C   UNL     1     -46.298  30.081  23.216  1.00  0.00     0.126 A 
ATOM      7  C   UNL     1     -47.435  29.437  23.680  1.00  0.00    -0.019 A 
ATOM      8  N   UNL     1     -45.972  31.329  23.598  1.00  0.00    -0.231 NA
ATOM      9  C   UNL     1     -48.279  30.108  24.560  1.00  0.00    -0.049 A 
ATOM     10  H   UNL     1     -47.656  28.418  23.383  1.00  0.00     0.066 H 
ATOM     11  C   UNL     1     -46.782  31.982  24.452  1.00  0.00     0.076 A 
ATOM     12  C   UNL     1     -47.960  31.407  24.965  1.00  0.00     0.001 A 
ATOM     13  H   UNL     1     -49.169  29.608  24.932  1.00  0.00     0.063 H 
ATOM     14  C   UNL     1     -46.454  33.267  24.856  1.00  0.00     0.007 A 
ATOM     15  C   UNL     1     -48.770  32.130  25.856  1.00  0.00    -0.049 A 
ATOM     16  H   UNL     1     -45.546  33.716  24.461  1.00  0.00     0.069 H 
ATOM     17  C   UNL     1     -48.410  33.419  26.251  1.00  0.00    -0.019 A 
ATOM     18  H   UNL     1     -49.683  31.690  26.251  1.00  0.00     0.063 H 
ATOM     19  H   UNL     1     -49.063  33.947  26.940  1.00  0.00     0.066 H 
BRANCH   6  20
ATOM     20  N   UNL     1     -45.394  29.466  22.350  1.00  0.00    -0.373 N 
ATOM     21  H   UNL     1     -45.941  29.309  21.503  1.00  0.00     0.161 HD
BRANCH  20  22
ATOM     22  C   UNL     1     -44.839  28.223  22.858  1.00  0.00     0.005 C 
ATOM     23  H   UNL     1     -43.762  28.307  23.039  1.00  0.00     0.045 H 
ATOM     24  H   UNL     1     -45.029  27.386  22.178  1.00  0.00     0.045 H 
ATOM     25  H   UNL     1     -45.321  27.981  23.811  1.00  0.00     0.045 H 
ENDBRANCH  20  22
ENDBRANCH   6  20
ENDBRANCH   4   5
ENDBRANCH   1   4
BRANCH   1  26
ATOM     26  C   UNL     1     -46.220  35.933  28.338  1.00  0.00     0.021 C 
ATOM     27  C   UNL     1     -45.021  36.814  27.932  1.00  0.00    -0.024 C 
ATOM     28  C   UNL     1     -46.746  36.557  29.637  1.00  0.00     0.062 C 
ATOM     29  H   UNL     1     -45.866  34.910  28.516  1.00  0.00     0.037 H 
ATOM     30  C   UNL     1     -45.011  38.024  28.882  1.00  0.00     0.038 C 
ATOM     31  H   UNL     1     -44.088  36.251  28.062  1.00  0.00     0.029 H 
ATOM     32  H   UNL     1     -45.059  37.091  26.873  1.00  0.00     0.029 H 
ATOM     33  C   UNL     1     -46.383  38.032  29.561  1.00  0.00    -0.006 C 
ATOM     34  H   UNL     1     -47.817  36.393  29.790  1.00  0.00     0.061 H 
ATOM     35  H   UNL     1     -44.248  37.837  29.648  1.00  0.00     0.054 H 
ATOM     36  H   UNL     1     -46.323  38.502  30.549  1.00  0.00     0.031 H 
ATOM     37  H   UNL     1     -47.126  38.582  28.976  1.00  0.00     0.031 H 
BRANCH  28  38
ATOM     38  O   UNL     1     -46.051  35.959  30.731  1.00  0.00    -0.393 OA
ATOM     39  H   UNL     1     -45.695  36.679  31.282  1.00  0.00     0.210 HD
ENDBRANCH  28  38
BRANCH  30  40
ATOM     40  N   UNL     1     -44.685  39.286  28.241  1.00  0.00    -0.329 N 
ATOM     41  C   UNL     1     -45.331  39.817  27.153  1.00  0.00     0.010 A 
ATOM     42  C   UNL     1     -43.702  40.152  28.648  1.00  0.00     0.146 A 
ATOM     43  C   UNL     1     -44.756  41.033  26.829  1.00  0.00    -0.014 A 
ATOM     44  H   UNL     1     -46.147  39.282  26.688  1.00  0.00     0.082 H 
ATOM     45  C   UNL     1     -43.723  41.260  27.805  1.00  0.00     0.065 A 
ATOM     46  N   UNL     1     -42.877  39.954  29.691  1.00  0.00    -0.218 NA
ATOM     47  C   UNL     1     -42.789  42.272  28.096  1.00  0.00     0.136 A 
ATOM     48  C   UNL     1     -42.024  40.976  29.849  1.00  0.00     0.120 A 
ATOM     49  N   UNL     1     -41.940  42.108  29.129  1.00  0.00    -0.219 NA
ATOM     50  H   UNL     1     -41.315  40.881  30.666  1.00  0.00     0.106 H 
BRANCH  43  51
ATOM     51  C   UNL     1     -45.154  41.941  25.699  1.00  0.00    -0.014 C 
ATOM     52  C   UNL     1     -45.505  43.381  26.101  1.00  0.00    -0.046 C 
ATOM     53  C   UNL     1     -44.057  42.076  24.626  1.00  0.00    -0.046 C 
ATOM     54  H   UNL     1     -46.050  41.525  25.219  1.00  0.00     0.035 H 
ATOM     55  C   UNL     1     -45.193  44.191  24.852  1.00  0.00    -0.053 C 
ATOM     56  H   UNL     1     -46.553  43.478  26.402  1.00  0.00     0.027 H 
ATOM     57  H   UNL     1     -44.890  43.749  26.929  1.00  0.00     0.027 H 
ATOM     58  C   UNL     1     -43.896  43.572  24.365  1.00  0.00    -0.053 C 
ATOM     59  H   UNL     1     -44.378  41.570  23.708  1.00  0.00     0.027 H 
ATOM     60  H   UNL     1     -43.099  41.631  24.919  1.00  0.00     0.027 H 
ATOM     61  H   UNL     1     -45.984  44.061  24.105  1.00  0.00     0.027 H 
ATOM     62  H   UNL     1     -45.091  45.259  25.063  1.00  0.00     0.027 H 
ATOM     63  H   UNL     1     -43.700  43.791  23.311  1.00  0.00     0.027 H 
ATOM     64  H   UNL     1     -43.052  43.958  24.949  1.00  0.00     0.027 H 
ENDBRANCH  43  51
BRANCH  47  65
ATOM     65  N   UNL     1     -42.691  43.475  27.407  1.00  0.00    -0.383 N 
ATOM     66  H   UNL     1     -41.721  43.644  27.162  1.00  0.00     0.158 HD
ATOM     67  H   UNL     1     -43.161  44.243  27.864  1.00  0.00     0.158 HD
ENDBRANCH  47  65
ENDBRANCH  30  40
ENDBRANCH   1  26
TORSDOF 9
ENDMDL
MODEL 2
REMARK VINA RESULT:      -9.4      1.709      2.330
REMARK SMILES CNc1ccc2ccc(OC[C@H]3C[C@@H](n4cc(C5CCCC5)c5c(N)ncnc54)C[C@@H]3O)cc2n1
REMARK SMILES IDX 11 1 10 4 9 5 3 6 4 7 35 8 5 9 34 11 6 12 33 14 7 15 8 17
REMARK SMILES IDX 2 20 1 22 12 26 13 27 31 28 14 30 30 33 32 38 15 40 16 41
REMARK SMILES IDX 29 42 17 43 23 45 28 46 24 47 27 48 26 49 18 51 19 52 22 53
REMARK SMILES IDX 20 55 21 58 25 65
REMARK H PARENT 11 2 11 3 4 10 5 13 33 16 7 18 8 19 2 21 1 23 1 24 1 25 12 29
REMARK H PARENT 13 31 13 32 31 34 14 35 30 36 30 37 32 39 16 44 27 50 18 54
REMARK H PARENT 19 56 19 57 22 59 22 60 20 61 20 62 21 63 21 64 25 66 25 67
REMARK Flexibility Score: inf
ROOT
ATOM      1  C   UNL     1     -46.491  35.234  26.658  1.00  0.00     0.094 C 
ATOM      2  H   UNL     1     -46.082  36.024  26.017  1.00  0.00     0.071 H 
ATOM      3  H   UNL     1     -45.704  34.505  26.880  1.00  0.00     0.071 H 
ENDROOT
BRANCH   1   4
ATOM      4  O   UNL     1     -47.574  34.575  26.007  1.00  0.00    -0.493 OA
BRANCH   4   5
ATOM      5  C   UNL     1     -47.306  33.392  25.373  1.00  0.00     0.121 A 
ATOM      6  C   UNL     1     -48.923  28.961  24.765  1.00  0.00     0.126 A 
ATOM      7  C   UNL     1     -47.898  28.647  23.885  1.00  0.00    -0.019 A 
ATOM      8  N   UNL     1     -49.034  30.173  25.338  1.00  0.00    -0.231 NA
ATOM      9  C   UNL     1     -46.939  29.613  23.596  1.00  0.00    -0.049 A 
ATOM     10  H   UNL     1     -47.852  27.673  23.410  1.00  0.00     0.066 H 
ATOM     11  C   UNL     1     -48.112  31.112  25.058  1.00  0.00     0.076 A 
ATOM     12  C   UNL     1     -47.034  30.876  24.185  1.00  0.00     0.001 A 
ATOM     13  H   UNL     1     -46.134  29.376  22.905  1.00  0.00     0.063 H 
ATOM     14  C   UNL     1     -48.218  32.366  25.640  1.00  0.00     0.007 A 
ATOM     15  C   UNL     1     -46.100  31.892  23.925  1.00  0.00    -0.049 A 
ATOM     16  H   UNL     1     -49.049  32.552  26.317  1.00  0.00     0.069 H 
ATOM     17  C   UNL     1     -46.236  33.148  24.519  1.00  0.00    -0.019 A 
ATOM     18  H   UNL     1     -45.262  31.712  23.254  1.00  0.00     0.063 H 
ATOM     19  H   UNL     1     -45.493  33.907  24.295  1.00  0.00     0.066 H 
BRANCH   6  20
ATOM     20  N   UNL     1     -49.933  28.052  25.086  1.00  0.00    -0.373 N 
ATOM     21  H   UNL     1     -50.702  28.647  25.394  1.00  0.00     0.161 HD
BRANCH  20  22
ATOM     22  C   UNL     1     -49.562  27.095  26.115  1.00  0.00     0.005 C 
ATOM     23  H   UNL     1     -50.299  27.070  26.925  1.00  0.00     0.045 H 
ATOM     24  H   UNL     1     -48.572  27.309  26.530  1.00  0.00     0.045 H 
ATOM     25  H   UNL     1     -49.519  26.095  25.671  1.00  0.00     0.045 H 
ENDBRANCH  20  22
ENDBRANCH   6  20
ENDBRANCH   4   5
ENDBRANCH   1   4
BRANCH   1  26
ATOM     26  C   UNL     1     -46.969  35.874  27.971  1.00  0.00     0.021 C 
ATOM     27  C   UNL     1     -45.875  36.749  28.617  1.00  0.00    -0.024 C 
ATOM     28  C   UNL     1     -48.163  36.816  27.775  1.00  0.00     0.062 C 
ATOM     29  H   UNL     1     -47.227  35.061  28.661  1.00  0.00     0.037 H 
ATOM     30  C   UNL     1     -46.387  38.200  28.591  1.00  0.00     0.038 C 
ATOM     31  H   UNL     1     -45.724  36.443  29.660  1.00  0.00     0.029 H 
ATOM     32  H   UNL     1     -44.906  36.620  28.124  1.00  0.00     0.029 H 
ATOM     33  C   UNL     1     -47.567  38.207  27.617  1.00  0.00    -0.006 C 
ATOM     34  H   UNL     1     -48.801  36.532  26.932  1.00  0.00     0.061 H 
ATOM     35  H   UNL     1     -46.766  38.435  29.593  1.00  0.00     0.054 H 
ATOM     36  H   UNL     1     -48.277  39.001  27.874  1.00  0.00     0.031 H 
ATOM     37  H   UNL     1     -47.244  38.373  26.584  1.00  0.00     0.031 H 
BRANCH  28  38
ATOM     38  O   UNL     1     -48.958  36.779  28.959  1.00  0.00    -0.393 OA
ATOM     39  H   UNL     1     -48.593  37.436  29.579  1.00  0.00     0.210 HD
ENDBRANCH  28  38
BRANCH  30  40
ATOM     40  N   UNL     1     -45.372  39.187  28.265  1.00  0.00    -0.329 N 
ATOM     41  C   UNL     1     -45.412  40.048  27.198  1.00  0.00     0.010 A 
ATOM     42  C   UNL     1     -44.237  39.429  28.996  1.00  0.00     0.146 A 
ATOM     43  C   UNL     1     -44.284  40.850  27.215  1.00  0.00    -0.014 A 
ATOM     44  H   UNL     1     -46.240  40.018  26.503  1.00  0.00     0.082 H 
ATOM     45  C   UNL     1     -43.539  40.467  28.385  1.00  0.00     0.065 A 
ATOM     46  N   UNL     1     -43.880  38.772  30.114  1.00  0.00    -0.218 NA
ATOM     47  C   UNL     1     -42.351  40.868  29.022  1.00  0.00     0.136 A 
ATOM     48  C   UNL     1     -42.723  39.231  30.611  1.00  0.00     0.120 A 
ATOM     49  N   UNL     1     -41.955  40.230  30.142  1.00  0.00    -0.219 NA
ATOM     50  H   UNL     1     -42.362  38.740  31.509  1.00  0.00     0.106 H 
BRANCH  43  51
ATOM     51  C   UNL     1     -43.930  41.920  26.222  1.00  0.00    -0.014 C 
ATOM     52  C   UNL     1     -44.516  41.735  24.814  1.00  0.00    -0.046 C 
ATOM     53  C   UNL     1     -44.384  43.324  26.667  1.00  0.00    -0.046 C 
ATOM     54  H   UNL     1     -42.838  41.938  26.104  1.00  0.00     0.035 H 
ATOM     55  C   UNL     1     -44.612  43.153  24.273  1.00  0.00    -0.053 C 
ATOM     56  H   UNL     1     -43.883  41.099  24.187  1.00  0.00     0.027 H 
ATOM     57  H   UNL     1     -45.517  41.290  24.829  1.00  0.00     0.027 H 
ATOM     58  C   UNL     1     -45.109  43.939  25.473  1.00  0.00    -0.053 C 
ATOM     59  H   UNL     1     -43.506  43.928  26.923  1.00  0.00     0.027 H 
ATOM     60  H   UNL     1     -45.034  43.314  27.550  1.00  0.00     0.027 H 
ATOM     61  H   UNL     1     -43.623  43.512  23.964  1.00  0.00     0.027 H 
ATOM     62  H   UNL     1     -45.289  43.228  23.417  1.00  0.00     0.027 H 
ATOM     63  H   UNL     1     -44.917  45.011  25.378  1.00  0.00     0.027 H 
ATOM     64  H   UNL     1     -46.191  43.801  25.590  1.00  0.00     0.027 H 
ENDBRANCH  43  51
BRANCH  47  65
ATOM     65  N   UNL     1     -41.545  41.919  28.598  1.00  0.00    -0.383 N 
ATOM     66  H   UNL     1     -40.770  42.030  29.244  1.00  0.00     0.158 HD
ATOM     67  H   UNL     1     -42.059  42.763  28.390  1.00  0.00     0.158 HD
ENDBRANCH  47  65
ENDBRANCH  30  40
ENDBRANCH   1  26
TORSDOF 9
ENDMDL
MODEL 3
REMARK VINA RESULT:      -9.2      3.744     12.276
REMARK SMILES CNc1ccc2ccc(OC[C@H]3C[C@@H](n4cc(C5CCCC5)c5c(N)ncnc54)C[C@@H]3O)cc2n1
REMARK SMILES IDX 11 1 10 4 9 5 3 6 4 7 35 8 5 9 34 11 6 12 33 14 7 15 8 17
REMARK SMILES IDX 2 20 1 22 12 26 13 27 31 28 14 30 30 33 32 38 15 40 16 41
REMARK SMILES IDX 29 42 17 43 23 45 28 46 24 47 27 48 26 49 18 51 19 52 22 53
REMARK SMILES IDX 20 55 21 58 25 65
REMARK H PARENT 11 2 11 3 4 10 5 13 33 16 7 18 8 19 2 21 1 23 1 24 1 25 12 29
REMARK H PARENT 13 31 13 32 31 34 14 35 30 36 30 37 32 39 16 44 27 50 18 54
REMARK H PARENT 19 56 19 57 22 59 22 60 20 61 20 62 21 63 21 64 25 66 25 67
REMARK Flexibility Score: inf
ROOT
ATOM      1  C   UNL     1     -45.903  31.982  22.982  1.00  0.00     0.094 C 
ATOM      2  H   UNL     1     -44.812  32.055  23.068  1.00  0.00     0.071 H 
ATOM      3  H   UNL     1     -46.315  32.974  22.762  1.00  0.00     0.071 H 
ENDROOT
BRANCH   1   4
ATOM      4  O   UNL     1     -46.467  31.497  24.198  1.00  0.00    -0.493 OA
BRANCH   4   5
ATOM      5  C   UNL     1     -47.185  32.378  24.959  1.00  0.00     0.121 A 
ATOM      6  C   UNL     1     -46.968  36.652  27.036  1.00  0.00     0.126 A 
ATOM      7  C   UNL     1     -48.274  36.559  27.492  1.00  0.00    -0.019 A 
ATOM      8  N   UNL     1     -46.385  35.675  26.318  1.00  0.00    -0.231 NA
ATOM      9  C   UNL     1     -49.006  35.408  27.213  1.00  0.00    -0.049 A 
ATOM     10  H   UNL     1     -48.731  37.377  28.038  1.00  0.00     0.066 H 
ATOM     11  C   UNL     1     -47.089  34.561  26.041  1.00  0.00     0.076 A 
ATOM     12  C   UNL     1     -48.416  34.380  26.473  1.00  0.00     0.001 A 
ATOM     13  H   UNL     1     -50.031  35.330  27.563  1.00  0.00     0.063 H 
ATOM     14  C   UNL     1     -46.500  33.549  25.299  1.00  0.00     0.007 A 
ATOM     15  C   UNL     1     -49.108  33.200  26.155  1.00  0.00    -0.049 A 
ATOM     16  H   UNL     1     -45.474  33.684  24.965  1.00  0.00     0.069 H 
ATOM     17  C   UNL     1     -48.492  32.201  25.399  1.00  0.00    -0.019 A 
ATOM     18  H   UNL     1     -50.133  33.055  26.490  1.00  0.00     0.063 H 
ATOM     19  H   UNL     1     -49.059  31.302  25.175  1.00  0.00     0.066 H 
BRANCH   6  20
ATOM     20  N   UNL     1     -46.180  37.782  27.258  1.00  0.00    -0.373 N 
ATOM     21  H   UNL     1     -46.270  37.945  28.260  1.00  0.00     0.161 HD
BRANCH  20  22
ATOM     22  C   UNL     1     -46.589  38.949  26.495  1.00  0.00     0.005 C 
ATOM     23  H   UNL     1     -46.793  39.805  27.147  1.00  0.00     0.045 H 
ATOM     24  H   UNL     1     -47.472  38.742  25.880  1.00  0.00     0.045 H 
ATOM     25  H   UNL     1     -45.779  39.232  25.814  1.00  0.00     0.045 H 
ENDBRANCH  20  22
ENDBRANCH   6  20
ENDBRANCH   4   5
ENDBRANCH   1   4
BRANCH   1  26
ATOM     26  C   UNL     1     -46.236  31.031  21.822  1.00  0.00     0.021 C 
ATOM     27  C   UNL     1     -46.438  29.580  22.306  1.00  0.00    -0.024 C 
ATOM     28  C   UNL     1     -47.545  31.395  21.110  1.00  0.00     0.062 C 
ATOM     29  H   UNL     1     -45.394  31.058  21.120  1.00  0.00     0.037 H 
ATOM     30  C   UNL     1     -47.911  29.220  22.043  1.00  0.00     0.038 C 
ATOM     31  H   UNL     1     -45.796  28.904  21.726  1.00  0.00     0.029 H 
ATOM     32  H   UNL     1     -46.138  29.454  23.352  1.00  0.00     0.029 H 
ATOM     33  C   UNL     1     -48.622  30.547  21.771  1.00  0.00    -0.006 C 
ATOM     34  H   UNL     1     -47.770  32.465  21.145  1.00  0.00     0.061 H 
ATOM     35  H   UNL     1     -47.945  28.617  21.127  1.00  0.00     0.054 H 
ATOM     36  H   UNL     1     -49.493  30.395  21.125  1.00  0.00     0.031 H 
ATOM     37  H   UNL     1     -48.972  31.020  22.694  1.00  0.00     0.031 H 
BRANCH  28  38
ATOM     38  O   UNL     1     -47.427  31.016  19.740  1.00  0.00    -0.393 OA
ATOM     39  H   UNL     1     -46.753  31.591  19.333  1.00  0.00     0.210 HD
ENDBRANCH  28  38
BRANCH  30  40
ATOM     40  N   UNL     1     -48.535  28.444  23.101  1.00  0.00    -0.329 N 
ATOM     41  C   UNL     1     -47.876  27.836  24.138  1.00  0.00     0.010 A 
ATOM     42  C   UNL     1     -49.883  28.230  23.237  1.00  0.00     0.146 A 
ATOM     43  C   UNL     1     -48.795  27.200  24.954  1.00  0.00    -0.014 A 
ATOM     44  H   UNL     1     -46.799  27.897  24.211  1.00  0.00     0.082 H 
ATOM     45  C   UNL     1     -50.090  27.473  24.387  1.00  0.00     0.065 A 
ATOM     46  N   UNL     1     -50.830  28.689  22.400  1.00  0.00    -0.218 NA
ATOM     47  C   UNL     1     -51.430  27.180  24.699  1.00  0.00     0.136 A 
ATOM     48  C   UNL     1     -52.059  28.326  22.793  1.00  0.00     0.120 A 
ATOM     49  N   UNL     1     -52.407  27.617  23.881  1.00  0.00    -0.219 NA
ATOM     50  H   UNL     1     -52.878  28.649  22.158  1.00  0.00     0.106 H 
BRANCH  43  51
ATOM     51  C   UNL     1     -48.495  26.408  26.195  1.00  0.00    -0.014 C 
ATOM     52  C   UNL     1     -48.020  24.966  25.961  1.00  0.00    -0.046 C 
ATOM     53  C   UNL     1     -47.404  27.056  27.069  1.00  0.00    -0.046 C 
ATOM     54  H   UNL     1     -49.414  26.339  26.794  1.00  0.00     0.035 H 
ATOM     55  C   UNL     1     -47.179  24.658  27.189  1.00  0.00    -0.053 C 
ATOM     56  H   UNL     1     -48.859  24.271  25.853  1.00  0.00     0.027 H 
ATOM     57  H   UNL     1     -47.396  24.868  25.066  1.00  0.00     0.027 H 
ATOM     58  C   UNL     1     -46.407  25.948  27.401  1.00  0.00    -0.053 C 
ATOM     59  H   UNL     1     -47.855  27.441  27.991  1.00  0.00     0.027 H 
ATOM     60  H   UNL     1     -46.898  27.898  26.584  1.00  0.00     0.027 H 
ATOM     61  H   UNL     1     -47.823  24.452  28.052  1.00  0.00     0.027 H 
ATOM     62  H   UNL     1     -46.520  23.799  27.038  1.00  0.00     0.027 H 
ATOM     63  H   UNL     1     -46.013  26.036  28.417  1.00  0.00     0.027 H 
ATOM     64  H   UNL     1     -45.560  25.997  26.707  1.00  0.00     0.027 H 
ENDBRANCH  43  51
BRANCH  47  65
ATOM     65  N   UNL     1     -51.842  26.486  25.831  1.00  0.00    -0.383 N 
ATOM     66  H   UNL     1     -52.597  25.856  25.582  1.00  0.00     0.158 HD
ATOM     67  H   UNL     1     -52.019  27.080  26.628  1.00  0.00     0.158 HD
ENDBRANCH  47  65
ENDBRANCH  30  40
ENDBRANCH   1  26
TORSDOF 9
ENDMDL
MODEL 4
REMARK VINA RESULT:      -9.2      2.404     10.879
REMARK SMILES CNc1ccc2ccc(OC[C@H]3C[C@@H](n4cc(C5CCCC5)c5c(N)ncnc54)C[C@@H]3O)cc2n1
REMARK SMILES IDX 11 1 10 4 9 5 3 6 4 7 35 8 5 9 34 11 6 12 33 14 7 15 8 17
REMARK SMILES IDX 2 20 1 22 12 26 13 27 31 28 14 30 30 33 32 38 15 40 16 41
REMARK SMILES IDX 29 42 17 43 23 45 28 46 24 47 27 48 26 49 18 51 19 52 22 53
REMARK SMILES IDX 20 55 21 58 25 65
REMARK H PARENT 11 2 11 3 4 10 5 13 33 16 7 18 8 19 2 21 1 23 1 24 1 25 12 29
REMARK H PARENT 13 31 13 32 31 34 14 35 30 36 30 37 32 39 16 44 27 50 18 54
REMARK H PARENT 19 56 19 57 22 59 22 60 20 61 20 62 21 63 21 64 25 66 25 67
REMARK Flexibility Score: inf
ROOT
ATOM      1  C   UNL     1     -47.301  35.850  26.180  1.00  0.00     0.094 C 
ATOM      2  H   UNL     1     -46.280  35.939  25.791  1.00  0.00     0.071 H 
ATOM      3  H   UNL     1     -48.002  35.780  25.341  1.00  0.00     0.071 H 
ENDROOT
BRANCH   1   4
ATOM      4  O   UNL     1     -47.632  36.984  26.977  1.00  0.00    -0.493 OA
BRANCH   4   5
ATOM      5  C   UNL     1     -46.599  37.736  27.467  1.00  0.00     0.121 A 
ATOM      6  C   UNL     1     -43.932  41.569  26.559  1.00  0.00     0.126 A 
ATOM      7  C   UNL     1     -43.229  41.431  27.747  1.00  0.00    -0.019 A 
ATOM      8  N   UNL     1     -44.911  40.719  26.199  1.00  0.00    -0.231 NA
ATOM      9  C   UNL     1     -43.534  40.366  28.590  1.00  0.00    -0.049 A 
ATOM     10  H   UNL     1     -42.469  42.150  28.029  1.00  0.00     0.066 H 
ATOM     11  C   UNL     1     -45.212  39.691  27.013  1.00  0.00     0.076 A 
ATOM     12  C   UNL     1     -44.544  39.470  28.231  1.00  0.00     0.001 A 
ATOM     13  H   UNL     1     -42.990  40.253  29.525  1.00  0.00     0.063 H 
ATOM     14  C   UNL     1     -46.223  38.811  26.654  1.00  0.00     0.007 A 
ATOM     15  C   UNL     1     -44.899  38.383  29.046  1.00  0.00    -0.049 A 
ATOM     16  H   UNL     1     -46.741  38.976  25.713  1.00  0.00     0.069 H 
ATOM     17  C   UNL     1     -45.925  37.517  28.663  1.00  0.00    -0.019 A 
ATOM     18  H   UNL     1     -44.381  38.207  29.987  1.00  0.00     0.063 H 
ATOM     19  H   UNL     1     -46.170  36.687  29.319  1.00  0.00     0.066 H 
BRANCH   6  20
ATOM     20  N   UNL     1     -43.699  42.621  25.673  1.00  0.00    -0.373 N 
ATOM     21  H   UNL     1     -43.851  42.202  24.756  1.00  0.00     0.161 HD
BRANCH  20  22
ATOM     22  C   UNL     1     -42.368  43.197  25.775  1.00  0.00     0.005 C 
ATOM     23  H   UNL     1     -42.223  43.708  26.733  1.00  0.00     0.045 H 
ATOM     24  H   UNL     1     -42.164  43.895  24.956  1.00  0.00     0.045 H 
ATOM     25  H   UNL     1     -41.627  42.394  25.708  1.00  0.00     0.045 H 
ENDBRANCH  20  22
ENDBRANCH   6  20
ENDBRANCH   4   5
ENDBRANCH   1   4
BRANCH   1  26
ATOM     26  C   UNL     1     -47.392  34.565  27.019  1.00  0.00     0.021 C 
ATOM     27  C   UNL     1     -48.479  33.607  26.490  1.00  0.00    -0.024 C 
ATOM     28  C   UNL     1     -46.096  33.744  26.992  1.00  0.00     0.062 C 
ATOM     29  H   UNL     1     -47.643  34.856  28.045  1.00  0.00     0.037 H 
ATOM     30  C   UNL     1     -47.758  32.343  25.989  1.00  0.00     0.038 C 
ATOM     31  H   UNL     1     -49.157  33.330  27.308  1.00  0.00     0.029 H 
ATOM     32  H   UNL     1     -49.106  34.082  25.728  1.00  0.00     0.029 H 
ATOM     33  C   UNL     1     -46.279  32.722  25.880  1.00  0.00    -0.006 C 
ATOM     34  H   UNL     1     -45.201  34.359  26.857  1.00  0.00     0.061 H 
ATOM     35  H   UNL     1     -47.861  31.574  26.764  1.00  0.00     0.054 H 
ATOM     36  H   UNL     1     -45.643  31.840  26.011  1.00  0.00     0.031 H 
ATOM     37  H   UNL     1     -46.040  33.163  24.908  1.00  0.00     0.031 H 
BRANCH  28  38
ATOM     38  O   UNL     1     -45.976  33.063  28.240  1.00  0.00    -0.393 OA
ATOM     39  H   UNL     1     -46.869  32.783  28.510  1.00  0.00     0.210 HD
ENDBRANCH  28  38
BRANCH  30  40
ATOM     40  N   UNL     1     -48.298  31.795  24.756  1.00  0.00    -0.329 N 
ATOM     41  C   UNL     1     -49.623  31.785  24.402  1.00  0.00     0.010 A 
ATOM     42  C   UNL     1     -47.558  31.234  23.746  1.00  0.00     0.146 A 
ATOM     43  C   UNL     1     -49.759  31.194  23.158  1.00  0.00    -0.014 A 
ATOM     44  H   UNL     1     -50.369  32.193  25.070  1.00  0.00     0.082 H 
ATOM     45  C   UNL     1     -48.428  30.861  22.726  1.00  0.00     0.065 A 
ATOM     46  N   UNL     1     -46.221  31.087  23.753  1.00  0.00    -0.218 NA
ATOM     47  C   UNL     1     -47.832  30.287  21.588  1.00  0.00     0.136 A 
ATOM     48  C   UNL     1     -45.779  30.511  22.627  1.00  0.00     0.120 A 
ATOM     49  N   UNL     1     -46.495  30.118  21.559  1.00  0.00    -0.219 NA
ATOM     50  H   UNL     1     -44.708  30.347  22.565  1.00  0.00     0.106 H 
BRANCH  43  51
ATOM     51  C   UNL     1     -51.041  30.974  22.406  1.00  0.00    -0.014 C 
ATOM     52  C   UNL     1     -51.078  31.545  20.981  1.00  0.00    -0.046 C 
ATOM     53  C   UNL     1     -51.397  29.482  22.253  1.00  0.00    -0.046 C 
ATOM     54  H   UNL     1     -51.856  31.462  22.957  1.00  0.00     0.035 H 
ATOM     55  C   UNL     1     -52.079  30.656  20.260  1.00  0.00    -0.053 C 
ATOM     56  H   UNL     1     -51.380  32.597  20.969  1.00  0.00     0.027 H 
ATOM     57  H   UNL     1     -50.109  31.477  20.475  1.00  0.00     0.027 H 
ATOM     58  C   UNL     1     -51.734  29.272  20.779  1.00  0.00    -0.053 C 
ATOM     59  H   UNL     1     -52.270  29.249  22.873  1.00  0.00     0.027 H 
ATOM     60  H   UNL     1     -50.592  28.806  22.565  1.00  0.00     0.027 H 
ATOM     61  H   UNL     1     -53.103  30.927  20.542  1.00  0.00     0.027 H 
ATOM     62  H   UNL     1     -51.991  30.726  19.172  1.00  0.00     0.027 H 
ATOM     63  H   UNL     1     -52.552  28.559  20.638  1.00  0.00     0.027 H 
ATOM     64  H   UNL     1     -50.854  28.882  20.253  1.00  0.00     0.027 H 
ENDBRANCH  43  51
BRANCH  47  65
ATOM     65  N   UNL     1     -48.523  29.902  20.445  1.00  0.00    -0.383 N 
ATOM     66  H   UNL     1     -49.267  30.568  20.262  1.00  0.00     0.158 HD
ATOM     67  H   UNL     1     -48.803  28.931  20.450  1.00  0.00     0.158 HD
ENDBRANCH  47  65
ENDBRANCH  30  40
ENDBRANCH   1  26
TORSDOF 9
ENDMDL
MODEL 5
REMARK VINA RESULT:      -9.2      1.489      2.401
REMARK SMILES CNc1ccc2ccc(OC[C@H]3C[C@@H](n4cc(C5CCCC5)c5c(N)ncnc54)C[C@@H]3O)cc2n1
REMARK SMILES IDX 11 1 10 4 9 5 3 6 4 7 35 8 5 9 34 11 6 12 33 14 7 15 8 17
REMARK SMILES IDX 2 20 1 22 12 26 13 27 31 28 14 30 30 33 32 38 15 40 16 41
REMARK SMILES IDX 29 42 17 43 23 45 28 46 24 47 27 48 26 49 18 51 19 52 22 53
REMARK SMILES IDX 20 55 21 58 25 65
REMARK H PARENT 11 2 11 3 4 10 5 13 33 16 7 18 8 19 2 21 1 23 1 24 1 25 12 29
REMARK H PARENT 13 31 13 32 31 34 14 35 30 36 30 37 32 39 16 44 27 50 18 54
REMARK H PARENT 19 56 19 57 22 59 22 60 20 61 20 62 21 63 21 64 25 66 25 67
REMARK Flexibility Score: inf
ROOT
ATOM      1  C   UNL     1     -47.292  35.643  27.376  1.00  0.00     0.094 C 
ATOM      2  H   UNL     1     -48.004  34.953  27.845  1.00  0.00     0.071 H 
ATOM      3  H   UNL     1     -47.801  36.585  27.144  1.00  0.00     0.071 H 
ENDROOT
BRANCH   1   4
ATOM      4  O   UNL     1     -46.772  35.080  26.174  1.00  0.00    -0.493 OA
BRANCH   4   5
ATOM      5  C   UNL     1     -47.264  33.866  25.780  1.00  0.00     0.121 A 
ATOM      6  C   UNL     1     -46.400  30.171  22.911  1.00  0.00     0.126 A 
ATOM      7  C   UNL     1     -47.520  29.488  23.361  1.00  0.00    -0.019 A 
ATOM      8  N   UNL     1     -46.063  31.386  23.379  1.00  0.00    -0.231 NA
ATOM      9  C   UNL     1     -48.336  30.085  24.317  1.00  0.00    -0.049 A 
ATOM     10  H   UNL     1     -47.749  28.494  22.993  1.00  0.00     0.066 H 
ATOM     11  C   UNL     1     -46.845  31.967  24.307  1.00  0.00     0.076 A 
ATOM     12  C   UNL     1     -48.005  31.350  24.811  1.00  0.00     0.001 A 
ATOM     13  H   UNL     1     -49.213  29.555  24.677  1.00  0.00     0.063 H 
ATOM     14  C   UNL     1     -46.505  33.219  24.799  1.00  0.00     0.007 A 
ATOM     15  C   UNL     1     -48.786  31.999  25.781  1.00  0.00    -0.049 A 
ATOM     16  H   UNL     1     -45.611  33.700  24.410  1.00  0.00     0.069 H 
ATOM     17  C   UNL     1     -48.416  33.255  26.264  1.00  0.00    -0.019 A 
ATOM     18  H   UNL     1     -49.685  31.526  26.171  1.00  0.00     0.063 H 
ATOM     19  H   UNL     1     -49.045  33.725  27.013  1.00  0.00     0.066 H 
BRANCH   6  20
ATOM     20  N   UNL     1     -45.524  29.628  21.971  1.00  0.00    -0.373 N 
ATOM     21  H   UNL     1     -46.144  29.201  21.283  1.00  0.00     0.161 HD
BRANCH  20  22
ATOM     22  C   UNL     1     -44.595  28.654  22.519  1.00  0.00     0.005 C 
ATOM     23  H   UNL     1     -45.087  27.695  22.716  1.00  0.00     0.045 H 
ATOM     24  H   UNL     1     -44.124  29.016  23.439  1.00  0.00     0.045 H 
ATOM     25  H   UNL     1     -43.795  28.476  21.793  1.00  0.00     0.045 H 
ENDBRANCH  20  22
ENDBRANCH   6  20
ENDBRANCH   4   5
ENDBRANCH   1   4
BRANCH   1  26
ATOM     26  C   UNL     1     -46.154  35.918  28.372  1.00  0.00     0.021 C 
ATOM     27  C   UNL     1     -45.142  36.944  27.822  1.00  0.00    -0.024 C 
ATOM     28  C   UNL     1     -46.650  36.521  29.691  1.00  0.00     0.062 C 
ATOM     29  H   UNL     1     -45.635  34.968  28.551  1.00  0.00     0.037 H 
ATOM     30  C   UNL     1     -45.231  38.188  28.723  1.00  0.00     0.038 C 
ATOM     31  H   UNL     1     -44.127  36.531  27.882  1.00  0.00     0.029 H 
ATOM     32  H   UNL     1     -45.315  37.160  26.762  1.00  0.00     0.029 H 
ATOM     33  C   UNL     1     -46.522  38.028  29.529  1.00  0.00    -0.006 C 
ATOM     34  H   UNL     1     -47.667  36.209  29.951  1.00  0.00     0.061 H 
ATOM     35  H   UNL     1     -44.383  38.153  29.419  1.00  0.00     0.054 H 
ATOM     36  H   UNL     1     -46.447  38.550  30.489  1.00  0.00     0.031 H 
ATOM     37  H   UNL     1     -47.388  38.434  28.997  1.00  0.00     0.031 H 
BRANCH  28  38
ATOM     38  O   UNL     1     -45.779  36.087  30.734  1.00  0.00    -0.393 OA
ATOM     39  H   UNL     1     -45.681  36.826  31.362  1.00  0.00     0.210 HD
ENDBRANCH  28  38
BRANCH  30  40
ATOM     40  N   UNL     1     -45.157  39.451  28.009  1.00  0.00    -0.329 N 
ATOM     41  C   UNL     1     -44.004  40.132  27.711  1.00  0.00     0.010 A 
ATOM     42  C   UNL     1     -46.229  40.137  27.497  1.00  0.00     0.146 A 
ATOM     43  C   UNL     1     -44.320  41.285  27.014  1.00  0.00    -0.014 A 
ATOM     44  H   UNL     1     -43.045  39.744  28.026  1.00  0.00     0.082 H 
ATOM     45  C   UNL     1     -45.751  41.276  26.856  1.00  0.00     0.065 A 
ATOM     46  N   UNL     1     -47.514  39.754  27.596  1.00  0.00    -0.218 NA
ATOM     47  C   UNL     1     -46.720  42.091  26.244  1.00  0.00     0.136 A 
ATOM     48  C   UNL     1     -48.339  40.621  26.994  1.00  0.00     0.120 A 
ATOM     49  N   UNL     1     -48.020  41.744  26.327  1.00  0.00    -0.219 NA
ATOM     50  H   UNL     1     -49.397  40.386  27.044  1.00  0.00     0.106 H 
BRANCH  43  51
ATOM     51  C   UNL     1     -43.355  42.318  26.506  1.00  0.00    -0.014 C 
ATOM     52  C   UNL     1     -43.470  42.650  25.011  1.00  0.00    -0.046 C 
ATOM     53  C   UNL     1     -43.490  43.671  27.232  1.00  0.00    -0.046 C 
ATOM     54  H   UNL     1     -42.334  41.948  26.665  1.00  0.00     0.035 H 
ATOM     55  C   UNL     1     -42.954  44.078  24.916  1.00  0.00    -0.053 C 
ATOM     56  H   UNL     1     -42.886  41.961  24.392  1.00  0.00     0.027 H 
ATOM     57  H   UNL     1     -44.504  42.619  24.650  1.00  0.00     0.027 H 
ATOM     58  C   UNL     1     -43.561  44.737  26.141  1.00  0.00    -0.053 C 
ATOM     59  H   UNL     1     -42.608  43.838  27.861  1.00  0.00     0.027 H 
ATOM     60  H   UNL     1     -44.366  43.730  27.888  1.00  0.00     0.027 H 
ATOM     61  H   UNL     1     -41.860  44.093  24.976  1.00  0.00     0.027 H 
ATOM     62  H   UNL     1     -43.255  44.569  23.987  1.00  0.00     0.027 H 
ATOM     63  H   UNL     1     -43.037  45.654  26.423  1.00  0.00     0.027 H 
ATOM     64  H   UNL     1     -44.609  44.995  25.949  1.00  0.00     0.027 H 
ENDBRANCH  43  51
BRANCH  47  65
ATOM     65  N   UNL     1     -46.438  43.238  25.511  1.00  0.00    -0.383 N 
ATOM     66  H   UNL     1     -45.454  43.465  25.609  1.00  0.00     0.158 HD
ATOM     67  H   UNL     1     -47.077  44.000  25.688  1.00  0.00     0.158 HD
ENDBRANCH  47  65
ENDBRANCH  30  40
ENDBRANCH   1  26
TORSDOF 9
ENDMDL
MODEL 6
REMARK VINA RESULT:      -9.1      4.673      8.553
REMARK SMILES CNc1ccc2ccc(OC[C@H]3C[C@@H](n4cc(C5CCCC5)c5c(N)ncnc54)C[C@@H]3O)cc2n1
REMARK SMILES IDX 11 1 10 4 9 5 3 6 4 7 35 8 5 9 34 11 6 12 33 14 7 15 8 17
REMARK SMILES IDX 2 20 1 22 12 26 13 27 31 28 14 30 30 33 32 38 15 40 16 41
REMARK SMILES IDX 29 42 17 43 23 45 28 46 24 47 27 48 26 49 18 51 19 52 22 53
REMARK SMILES IDX 20 55 21 58 25 65
REMARK H PARENT 11 2 11 3 4 10 5 13 33 16 7 18 8 19 2 21 1 23 1 24 1 25 12 29
REMARK H PARENT 13 31 13 32 31 34 14 35 30 36 30 37 32 39 16 44 27 50 18 54
REMARK H PARENT 19 56 19 57 22 59 22 60 20 61 20 62 21 63 21 64 25 66 25 67
REMARK Flexibility Score: inf
ROOT
ATOM      1  C   UNL     1     -46.552  44.442  25.086  1.00  0.00     0.094 C 
ATOM      2  H   UNL     1     -46.846  45.226  25.796  1.00  0.00     0.071 H 
ATOM      3  H   UNL     1     -46.876  44.728  24.079  1.00  0.00     0.071 H 
ENDROOT
BRANCH   1   4
ATOM      4  O   UNL     1     -47.153  43.199  25.439  1.00  0.00    -0.493 OA
BRANCH   4   5
ATOM      5  C   UNL     1     -48.004  43.189  26.510  1.00  0.00     0.121 A 
ATOM      6  C   UNL     1     -50.811  40.354  29.101  1.00  0.00     0.126 A 
ATOM      7  C   UNL     1     -51.150  41.385  29.964  1.00  0.00    -0.019 A 
ATOM      8  N   UNL     1     -49.975  40.531  28.062  1.00  0.00    -0.231 NA
ATOM      9  C   UNL     1     -50.622  42.653  29.741  1.00  0.00    -0.049 A 
ATOM     10  H   UNL     1     -51.798  41.207  30.815  1.00  0.00     0.066 H 
ATOM     11  C   UNL     1     -49.458  41.755  27.843  1.00  0.00     0.076 A 
ATOM     12  C   UNL     1     -49.756  42.858  28.663  1.00  0.00     0.001 A 
ATOM     13  H   UNL     1     -50.880  43.465  30.415  1.00  0.00     0.063 H 
ATOM     14  C   UNL     1     -48.592  41.948  26.777  1.00  0.00     0.007 A 
ATOM     15  C   UNL     1     -49.188  44.114  28.393  1.00  0.00    -0.049 A 
ATOM     16  H   UNL     1     -48.361  41.098  26.140  1.00  0.00     0.069 H 
ATOM     17  C   UNL     1     -48.313  44.278  27.317  1.00  0.00    -0.019 A 
ATOM     18  H   UNL     1     -49.419  44.971  29.023  1.00  0.00     0.063 H 
ATOM     19  H   UNL     1     -47.895  45.264  27.139  1.00  0.00     0.066 H 
BRANCH   6  20
ATOM     20  N   UNL     1     -51.283  39.052  29.273  1.00  0.00    -0.373 N 
ATOM     21  H   UNL     1     -50.995  38.816  30.223  1.00  0.00     0.161 HD
BRANCH  20  22
ATOM     22  C   UNL     1     -50.757  38.100  28.310  1.00  0.00     0.005 C 
ATOM     23  H   UNL     1     -51.559  37.528  27.830  1.00  0.00     0.045 H 
ATOM     24  H   UNL     1     -50.044  37.408  28.772  1.00  0.00     0.045 H 
ATOM     25  H   UNL     1     -50.219  38.644  27.527  1.00  0.00     0.045 H 
ENDBRANCH  20  22
ENDBRANCH   6  20
ENDBRANCH   4   5
ENDBRANCH   1   4
BRANCH   1  26
ATOM     26  C   UNL     1     -45.020  44.320  25.105  1.00  0.00     0.021 C 
ATOM     27  C   UNL     1     -44.511  43.668  26.407  1.00  0.00    -0.024 C 
ATOM     28  C   UNL     1     -44.480  43.429  23.980  1.00  0.00     0.062 C 
ATOM     29  H   UNL     1     -44.607  45.333  25.029  1.00  0.00     0.037 H 
ATOM     30  C   UNL     1     -43.870  42.325  26.016  1.00  0.00     0.038 C 
ATOM     31  H   UNL     1     -43.746  44.308  26.866  1.00  0.00     0.029 H 
ATOM     32  H   UNL     1     -45.307  43.570  27.153  1.00  0.00     0.029 H 
ATOM     33  C   UNL     1     -44.339  42.041  24.587  1.00  0.00    -0.006 C 
ATOM     34  H   UNL     1     -45.110  43.436  23.085  1.00  0.00     0.061 H 
ATOM     35  H   UNL     1     -42.783  42.470  26.000  1.00  0.00     0.054 H 
ATOM     36  H   UNL     1     -43.608  41.422  24.056  1.00  0.00     0.031 H 
ATOM     37  H   UNL     1     -45.297  41.512  24.568  1.00  0.00     0.031 H 
BRANCH  28  38
ATOM     38  O   UNL     1     -43.189  43.912  23.612  1.00  0.00    -0.393 OA
ATOM     39  H   UNL     1     -42.867  43.359  22.876  1.00  0.00     0.210 HD
ENDBRANCH  28  38
BRANCH  30  40
ATOM     40  N   UNL     1     -44.152  41.236  26.936  1.00  0.00    -0.329 N 
ATOM     41  C   UNL     1     -45.155  40.311  26.792  1.00  0.00     0.010 A 
ATOM     42  C   UNL     1     -43.436  40.952  28.071  1.00  0.00     0.146 A 
ATOM     43  C   UNL     1     -45.111  39.422  27.851  1.00  0.00    -0.014 A 
ATOM     44  H   UNL     1     -45.828  40.363  25.948  1.00  0.00     0.082 H 
ATOM     45  C   UNL     1     -43.990  39.820  28.662  1.00  0.00     0.065 A 
ATOM     46  N   UNL     1     -42.377  41.650  28.516  1.00  0.00    -0.218 NA
ATOM     47  C   UNL     1     -43.358  39.365  29.834  1.00  0.00     0.136 A 
ATOM     48  C   UNL     1     -41.879  41.131  29.647  1.00  0.00     0.120 A 
ATOM     49  N   UNL     1     -42.297  40.042  30.315  1.00  0.00    -0.219 NA
ATOM     50  H   UNL     1     -41.028  41.651  30.075  1.00  0.00     0.106 H 
BRANCH  43  51
ATOM     51  C   UNL     1     -46.035  38.260  28.085  1.00  0.00    -0.014 C 
ATOM     52  C   UNL     1     -47.242  38.176  27.140  1.00  0.00    -0.046 C 
ATOM     53  C   UNL     1     -45.327  36.897  27.959  1.00  0.00    -0.046 C 
ATOM     54  H   UNL     1     -46.441  38.338  29.102  1.00  0.00     0.035 H 
ATOM     55  C   UNL     1     -47.573  36.692  27.106  1.00  0.00    -0.053 C 
ATOM     56  H   UNL     1     -48.085  38.776  27.497  1.00  0.00     0.027 H 
ATOM     57  H   UNL     1     -47.007  38.513  26.124  1.00  0.00     0.027 H 
ATOM     58  C   UNL     1     -46.202  36.043  27.045  1.00  0.00    -0.053 C 
ATOM     59  H   UNL     1     -45.252  36.431  28.948  1.00  0.00     0.027 H 
ATOM     60  H   UNL     1     -44.308  36.968  27.561  1.00  0.00     0.027 H 
ATOM     61  H   UNL     1     -48.096  36.396  28.023  1.00  0.00     0.027 H 
ATOM     62  H   UNL     1     -48.199  36.423  26.251  1.00  0.00     0.027 H 
ATOM     63  H   UNL     1     -46.224  34.994  27.354  1.00  0.00     0.027 H 
ATOM     64  H   UNL     1     -45.812  36.084  26.021  1.00  0.00     0.027 H 
ENDBRANCH  43  51
BRANCH  47  65
ATOM     65  N   UNL     1     -43.728  38.224  30.537  1.00  0.00    -0.383 N 
ATOM     66  H   UNL     1     -43.530  37.404  29.973  1.00  0.00     0.158 HD
ATOM     67  H   UNL     1     -44.660  38.270  30.921  1.00  0.00     0.158 HD
ENDBRANCH  47  65
ENDBRANCH  30  40
ENDBRANCH   1  26
TORSDOF 9
ENDMDL
MODEL 7
REMARK VINA RESULT:      -9.0      3.005      5.837
REMARK SMILES CNc1ccc2ccc(OC[C@H]3C[C@@H](n4cc(C5CCCC5)c5c(N)ncnc54)C[C@@H]3O)cc2n1
REMARK SMILES IDX 11 1 10 4 9 5 3 6 4 7 35 8 5 9 34 11 6 12 33 14 7 15 8 17
REMARK SMILES IDX 2 20 1 22 12 26 13 27 31 28 14 30 30 33 32 38 15 40 16 41
REMARK SMILES IDX 29 42 17 43 23 45 28 46 24 47 27 48 26 49 18 51 19 52 22 53
REMARK SMILES IDX 20 55 21 58 25 65
REMARK H PARENT 11 2 11 3 4 10 5 13 33 16 7 18 8 19 2 21 1 23 1 24 1 25 12 29
REMARK H PARENT 13 31 13 32 31 34 14 35 30 36 30 37 32 39 16 44 27 50 18 54
REMARK H PARENT 19 56 19 57 22 59 22 60 20 61 20 62 21 63 21 64 25 66 25 67
REMARK Flexibility Score: inf
ROOT
ATOM      1  C   UNL     1     -44.088  39.957  28.724  1.00  0.00     0.094 C 
ATOM      2  H   UNL     1     -43.949  38.869  28.763  1.00  0.00     0.071 H 
ATOM      3  H   UNL     1     -44.161  40.348  29.745  1.00  0.00     0.071 H 
ENDROOT
BRANCH   1   4
ATOM      4  O   UNL     1     -45.276  40.283  28.007  1.00  0.00    -0.493 OA
BRANCH   4   5
ATOM      5  C   UNL     1     -46.208  39.294  27.845  1.00  0.00     0.121 A 
ATOM      6  C   UNL     1     -46.707  34.693  26.749  1.00  0.00     0.126 A 
ATOM      7  C   UNL     1     -48.080  34.738  26.939  1.00  0.00    -0.019 A 
ATOM      8  N   UNL     1     -45.921  35.771  26.919  1.00  0.00    -0.231 NA
ATOM      9  C   UNL     1     -48.671  35.945  27.302  1.00  0.00    -0.049 A 
ATOM     10  H   UNL     1     -48.686  33.846  26.830  1.00  0.00     0.066 H 
ATOM     11  C   UNL     1     -46.486  36.940  27.273  1.00  0.00     0.076 A 
ATOM     12  C   UNL     1     -47.871  37.078  27.477  1.00  0.00     0.001 A 
ATOM     13  H   UNL     1     -49.745  35.989  27.456  1.00  0.00     0.063 H 
ATOM     14  C   UNL     1     -45.685  38.057  27.455  1.00  0.00     0.007 A 
ATOM     15  C   UNL     1     -48.411  38.320  27.850  1.00  0.00    -0.049 A 
ATOM     16  H   UNL     1     -44.614  37.955  27.296  1.00  0.00     0.069 H 
ATOM     17  C   UNL     1     -47.579  39.426  28.033  1.00  0.00    -0.019 A 
ATOM     18  H   UNL     1     -49.482  38.431  28.004  1.00  0.00     0.063 H 
ATOM     19  H   UNL     1     -48.033  40.370  28.319  1.00  0.00     0.066 H 
BRANCH   6  20
ATOM     20  N   UNL     1     -46.041  33.515  26.407  1.00  0.00    -0.373 N 
ATOM     21  H   UNL     1     -45.056  33.770  26.466  1.00  0.00     0.161 HD
BRANCH  20  22
ATOM     22  C   UNL     1     -46.376  33.008  25.087  1.00  0.00     0.005 C 
ATOM     23  H   UNL     1     -46.913  32.055  25.146  1.00  0.00     0.045 H 
ATOM     24  H   UNL     1     -45.485  32.885  24.461  1.00  0.00     0.045 H 
ATOM     25  H   UNL     1     -47.028  33.729  24.583  1.00  0.00     0.045 H 
ENDBRANCH  20  22
ENDBRANCH   6  20
ENDBRANCH   4   5
ENDBRANCH   1   4
BRANCH   1  26
ATOM     26  C   UNL     1     -42.862  40.578  28.036  1.00  0.00     0.021 C 
ATOM     27  C   UNL     1     -43.174  41.017  26.591  1.00  0.00    -0.024 C 
ATOM     28  C   UNL     1     -42.365  41.849  28.736  1.00  0.00     0.062 C 
ATOM     29  H   UNL     1     -42.074  39.816  28.013  1.00  0.00     0.037 H 
ATOM     30  C   UNL     1     -43.044  42.550  26.550  1.00  0.00     0.038 C 
ATOM     31  H   UNL     1     -42.439  40.579  25.904  1.00  0.00     0.029 H 
ATOM     32  H   UNL     1     -44.151  40.654  26.255  1.00  0.00     0.029 H 
ATOM     33  C   UNL     1     -43.035  43.006  28.011  1.00  0.00    -0.006 C 
ATOM     34  H   UNL     1     -42.566  41.852  29.812  1.00  0.00     0.061 H 
ATOM     35  H   UNL     1     -42.069  42.788  26.108  1.00  0.00     0.054 H 
ATOM     36  H   UNL     1     -42.483  43.946  28.120  1.00  0.00     0.031 H 
ATOM     37  H   UNL     1     -44.047  43.169  28.395  1.00  0.00     0.031 H 
BRANCH  28  38
ATOM     38  O   UNL     1     -40.953  41.935  28.553  1.00  0.00    -0.393 OA
ATOM     39  H   UNL     1     -40.564  41.099  28.870  1.00  0.00     0.210 HD
ENDBRANCH  28  38
BRANCH  30  40
ATOM     40  N   UNL     1     -44.059  43.216  25.751  1.00  0.00    -0.329 N 
ATOM     41  C   UNL     1     -45.366  43.405  26.121  1.00  0.00     0.010 A 
ATOM     42  C   UNL     1     -43.852  43.785  24.520  1.00  0.00     0.146 A 
ATOM     43  C   UNL     1     -46.031  44.086  25.116  1.00  0.00    -0.014 A 
ATOM     44  H   UNL     1     -45.725  43.032  27.070  1.00  0.00     0.082 H 
ATOM     45  C   UNL     1     -45.051  44.351  24.096  1.00  0.00     0.065 A 
ATOM     46  N   UNL     1     -42.683  43.793  23.856  1.00  0.00    -0.218 NA
ATOM     47  C   UNL     1     -45.016  45.008  22.852  1.00  0.00     0.136 A 
ATOM     48  C   UNL     1     -42.785  44.428  22.680  1.00  0.00     0.120 A 
ATOM     49  N   UNL     1     -43.864  45.033  22.153  1.00  0.00    -0.219 NA
ATOM     50  H   UNL     1     -41.882  44.464  22.078  1.00  0.00     0.106 H 
BRANCH  43  51
ATOM     51  C   UNL     1     -47.479  44.488  25.112  1.00  0.00    -0.014 C 
ATOM     52  C   UNL     1     -48.407  43.624  25.978  1.00  0.00    -0.046 C 
ATOM     53  C   UNL     1     -47.700  45.933  25.600  1.00  0.00    -0.046 C 
ATOM     54  H   UNL     1     -47.857  44.416  24.083  1.00  0.00     0.035 H 
ATOM     55  C   UNL     1     -49.543  44.567  26.344  1.00  0.00    -0.053 C 
ATOM     56  H   UNL     1     -48.765  42.741  25.439  1.00  0.00     0.027 H 
ATOM     57  H   UNL     1     -47.922  43.274  26.896  1.00  0.00     0.027 H 
ATOM     58  C   UNL     1     -48.818  45.868  26.638  1.00  0.00    -0.053 C 
ATOM     59  H   UNL     1     -48.010  46.561  24.756  1.00  0.00     0.027 H 
ATOM     60  H   UNL     1     -46.802  46.393  26.028  1.00  0.00     0.027 H 
ATOM     61  H   UNL     1     -50.224  44.692  25.495  1.00  0.00     0.027 H 
ATOM     62  H   UNL     1     -50.121  44.210  27.201  1.00  0.00     0.027 H 
ATOM     63  H   UNL     1     -49.482  46.736  26.587  1.00  0.00     0.027 H 
ATOM     64  H   UNL     1     -48.383  45.837  27.644  1.00  0.00     0.027 H 
ENDBRANCH  43  51
BRANCH  47  65
ATOM     65  N   UNL     1     -46.092  45.680  22.285  1.00  0.00    -0.383 N 
ATOM     66  H   UNL     1     -46.798  45.845  22.995  1.00  0.00     0.158 HD
ATOM     67  H   UNL     1     -46.428  45.259  21.431  1.00  0.00     0.158 HD
ENDBRANCH  47  65
ENDBRANCH  30  40
ENDBRANCH   1  26
TORSDOF 9
ENDMDL
