MODEL 1
REMARK VINA RESULT:     -11.0      0.000      0.000
REMARK SMILES Cn1ccc(-c2cn([C@@H]3O[C@H](COc4ccc5sc(N6CCC6)nc5c4)[C@@H](O)[C@@H]3F)c3ncnc(N)c23)n1
REMARK SMILES IDX 9 1 10 2 11 3 27 4 29 5 30 6 8 11 6 12 7 13 37 14 31 16
REMARK SMILES IDX 35 17 32 18 34 19 33 20 5 22 2 23 3 24 38 25 4 26 1 29 36 33
REMARK SMILES IDX 12 36 13 39 14 40 15 41 26 42 16 43 25 45 17 47 24 49 18 50
REMARK SMILES IDX 19 51 20 52 21 53 23 54 22 55 28 62
REMARK H PARENT 9 7 11 8 27 9 29 10 7 15 33 21 3 27 4 28 1 30 1 31 1 32 36 34
REMARK H PARENT 36 35 12 37 12 38 15 44 26 46 16 48 21 56 21 57 23 58 23 59
REMARK H PARENT 22 60 22 61 28 63
REMARK Flexibility Score: inf
ROOT
ATOM      1  C   UNL     1     -44.978  37.941  29.058  1.00  0.00     0.169 C 
ATOM      2  O   UNL     1     -45.007  36.883  28.066  1.00  0.00    -0.345 OA
ATOM      3  C   UNL     1     -46.214  36.112  28.271  1.00  0.00     0.123 C 
ATOM      4  C   UNL     1     -46.753  36.513  29.645  1.00  0.00     0.119 C 
ATOM      5  C   UNL     1     -46.340  37.961  29.744  1.00  0.00     0.173 C 
ATOM      6  F   UNL     1     -47.242  38.702  29.038  1.00  0.00    -0.239 F 
ATOM      7  H   UNL     1     -44.183  37.674  29.764  1.00  0.00     0.088 H 
ATOM      8  H   UNL     1     -45.917  35.059  28.251  1.00  0.00     0.067 H 
ATOM      9  H   UNL     1     -47.834  36.369  29.737  1.00  0.00     0.066 H 
ATOM     10  H   UNL     1     -46.294  38.352  30.763  1.00  0.00     0.074 H 
ENDROOT
BRANCH   1  11
ATOM     11  N   UNL     1     -44.610  39.204  28.443  1.00  0.00    -0.302 N 
ATOM     12  C   UNL     1     -44.547  41.007  27.139  1.00  0.00     0.033 A 
ATOM     13  C   UNL     1     -45.196  39.807  27.360  1.00  0.00     0.019 A 
ATOM     14  C   UNL     1     -43.487  41.116  28.087  1.00  0.00     0.071 A 
ATOM     15  H   UNL     1     -46.031  39.353  26.841  1.00  0.00     0.083 H 
ATOM     16  C   UNL     1     -43.574  39.986  28.895  1.00  0.00     0.148 A 
ATOM     17  C   UNL     1     -42.439  42.004  28.381  1.00  0.00     0.137 A 
ATOM     18  N   UNL     1     -42.788  39.684  29.942  1.00  0.00    -0.218 NA
ATOM     19  N   UNL     1     -41.627  41.738  29.426  1.00  0.00    -0.219 NA
ATOM     20  C   UNL     1     -41.847  40.620  30.140  1.00  0.00     0.120 A 
ATOM     21  H   UNL     1     -41.174  40.452  30.976  1.00  0.00     0.106 H 
BRANCH  12  22
ATOM     22  C   UNL     1     -44.898  41.976  26.105  1.00  0.00     0.095 A 
ATOM     23  N   UNL     1     -44.791  43.162  24.362  1.00  0.00    -0.275 N 
ATOM     24  C   UNL     1     -46.023  43.430  24.882  1.00  0.00     0.025 A 
ATOM     25  N   UNL     1     -44.084  42.278  25.087  1.00  0.00    -0.173 NA
ATOM     26  C   UNL     1     -46.129  42.661  26.016  1.00  0.00    -0.016 A 
ATOM     27  H   UNL     1     -46.712  44.117  24.409  1.00  0.00     0.084 H 
ATOM     28  H   UNL     1     -46.977  42.595  26.683  1.00  0.00     0.066 H 
BRANCH  23  29
ATOM     29  C   UNL     1     -44.216  43.712  23.159  1.00  0.00     0.030 C 
ATOM     30  H   UNL     1     -43.754  44.676  23.384  1.00  0.00     0.048 H 
ATOM     31  H   UNL     1     -45.015  43.844  22.424  1.00  0.00     0.048 H 
ATOM     32  H   UNL     1     -43.462  43.015  22.787  1.00  0.00     0.048 H 
ENDBRANCH  23  29
ENDBRANCH  12  22
BRANCH  17  33
ATOM     33  N   UNL     1     -42.134  43.141  27.643  1.00  0.00    -0.383 N 
ATOM     34  H   UNL     1     -42.985  43.537  27.259  1.00  0.00     0.158 HD
ATOM     35  H   UNL     1     -41.539  43.795  28.138  1.00  0.00     0.158 HD
ENDBRANCH  17  33
ENDBRANCH   1  11
BRANCH   3  36
ATOM     36  C   UNL     1     -47.203  36.426  27.132  1.00  0.00     0.117 C 
ATOM     37  H   UNL     1     -47.645  37.424  27.215  1.00  0.00     0.073 H 
ATOM     38  H   UNL     1     -46.683  36.398  26.168  1.00  0.00     0.073 H 
BRANCH  36  39
ATOM     39  O   UNL     1     -48.220  35.420  27.040  1.00  0.00    -0.491 OA
BRANCH  39  40
ATOM     40  C   UNL     1     -47.976  34.297  26.298  1.00  0.00     0.121 A 
ATOM     41  C   UNL     1     -46.749  34.303  25.635  1.00  0.00    -0.018 A 
ATOM     42  C   UNL     1     -48.825  33.196  26.167  1.00  0.00     0.007 A 
ATOM     43  C   UNL     1     -46.339  33.228  24.840  1.00  0.00    -0.039 A 
ATOM     44  H   UNL     1     -46.092  35.165  25.741  1.00  0.00     0.066 H 
ATOM     45  C   UNL     1     -48.434  32.095  25.373  1.00  0.00     0.087 A 
ATOM     46  H   UNL     1     -49.790  33.133  26.651  1.00  0.00     0.069 H 
ATOM     47  C   UNL     1     -47.202  32.129  24.725  1.00  0.00     0.057 A 
ATOM     48  H   UNL     1     -45.380  33.246  24.332  1.00  0.00     0.064 H 
ATOM     49  N   UNL     1     -49.178  30.946  25.171  1.00  0.00    -0.220 NA
ATOM     50  S   UNL     1     -46.997  30.669  23.846  1.00  0.00    -0.097 S 
ATOM     51  C   UNL     1     -48.544  30.111  24.376  1.00  0.00     0.186 A 
BRANCH  51  52
ATOM     52  N   UNL     1     -49.030  28.896  24.016  1.00  0.00    -0.348 N 
ATOM     53  C   UNL     1     -50.282  28.327  24.428  1.00  0.00     0.022 C 
ATOM     54  C   UNL     1     -48.327  27.661  24.226  1.00  0.00     0.022 C 
ATOM     55  C   UNL     1     -49.682  26.965  24.060  1.00  0.00    -0.018 C 
ATOM     56  H   UNL     1     -50.487  28.465  25.496  1.00  0.00     0.049 H 
ATOM     57  H   UNL     1     -51.132  28.649  23.824  1.00  0.00     0.049 H 
ATOM     58  H   UNL     1     -47.887  27.580  25.226  1.00  0.00     0.049 H 
ATOM     59  H   UNL     1     -47.583  27.446  23.456  1.00  0.00     0.049 H 
ATOM     60  H   UNL     1     -49.900  26.637  23.037  1.00  0.00     0.030 H 
ATOM     61  H   UNL     1     -49.888  26.149  24.758  1.00  0.00     0.030 H 
ENDBRANCH  51  52
ENDBRANCH  39  40
ENDBRANCH  36  39
ENDBRANCH   3  36
BRANCH   4  62
ATOM     62  O   UNL     1     -46.117  35.769  30.689  1.00  0.00    -0.387 OA
ATOM     63  H   UNL     1     -46.763  35.641  31.408  1.00  0.00     0.211 HD
ENDBRANCH   4  62
TORSDOF 9
ENDMDL
MODEL 2
REMARK VINA RESULT:      -9.1      4.253      8.717
REMARK SMILES Cn1ccc(-c2cn([C@@H]3O[C@H](COc4ccc5sc(N6CCC6)nc5c4)[C@@H](O)[C@@H]3F)c3ncnc(N)c23)n1
REMARK SMILES IDX 9 1 10 2 11 3 27 4 29 5 30 6 8 11 6 12 7 13 37 14 31 16
REMARK SMILES IDX 35 17 32 18 34 19 33 20 5 22 2 23 3 24 38 25 4 26 1 29 36 33
REMARK SMILES IDX 12 36 13 39 14 40 15 41 26 42 16 43 25 45 17 47 24 49 18 50
REMARK SMILES IDX 19 51 20 52 21 53 23 54 22 55 28 62
REMARK H PARENT 9 7 11 8 27 9 29 10 7 15 33 21 3 27 4 28 1 30 1 31 1 32 36 34
REMARK H PARENT 36 35 12 37 12 38 15 44 26 46 16 48 21 56 21 57 23 58 23 59
REMARK H PARENT 22 60 22 61 28 63
REMARK Flexibility Score: inf
ROOT
ATOM      1  C   UNL     1     -48.384  36.046  27.953  1.00  0.00     0.169 C 
ATOM      2  O   UNL     1     -47.434  35.879  29.035  1.00  0.00    -0.345 OA
ATOM      3  C   UNL     1     -46.270  35.200  28.508  1.00  0.00     0.123 C 
ATOM      4  C   UNL     1     -46.681  34.639  27.145  1.00  0.00     0.119 C 
ATOM      5  C   UNL     1     -47.674  35.666  26.659  1.00  0.00     0.173 C 
ATOM      6  F   UNL     1     -46.971  36.718  26.150  1.00  0.00    -0.239 F 
ATOM      7  H   UNL     1     -49.213  35.359  28.166  1.00  0.00     0.088 H 
ATOM      8  H   UNL     1     -46.032  34.399  29.213  1.00  0.00     0.067 H 
ATOM      9  H   UNL     1     -45.834  34.507  26.466  1.00  0.00     0.066 H 
ATOM     10  H   UNL     1     -48.361  35.305  25.889  1.00  0.00     0.074 H 
ENDROOT
BRANCH   1  11
ATOM     11  N   UNL     1     -48.925  37.394  27.954  1.00  0.00    -0.302 N 
ATOM     12  C   UNL     1     -49.217  39.578  27.641  1.00  0.00     0.033 A 
ATOM     13  C   UNL     1     -48.338  38.528  27.455  1.00  0.00     0.019 A 
ATOM     14  C   UNL     1     -50.361  39.079  28.331  1.00  0.00     0.071 A 
ATOM     15  H   UNL     1     -47.358  38.505  26.996  1.00  0.00     0.083 H 
ATOM     16  C   UNL     1     -50.152  37.711  28.486  1.00  0.00     0.148 A 
ATOM     17  C   UNL     1     -51.556  39.583  28.870  1.00  0.00     0.137 A 
ATOM     18  N   UNL     1     -50.987  36.830  29.061  1.00  0.00    -0.218 NA
ATOM     19  N   UNL     1     -52.423  38.732  29.455  1.00  0.00    -0.219 NA
ATOM     20  C   UNL     1     -52.102  37.427  29.510  1.00  0.00     0.120 A 
ATOM     21  H   UNL     1     -52.835  36.778  29.981  1.00  0.00     0.106 H 
BRANCH  12  22
ATOM     22  C   UNL     1     -48.992  40.953  27.204  1.00  0.00     0.095 A 
ATOM     23  N   UNL     1     -48.011  42.761  26.730  1.00  0.00    -0.275 N 
ATOM     24  C   UNL     1     -49.306  42.967  26.355  1.00  0.00     0.025 A 
ATOM     25  N   UNL     1     -47.791  41.541  27.250  1.00  0.00    -0.173 NA
ATOM     26  C   UNL     1     -49.971  41.798  26.641  1.00  0.00    -0.016 A 
ATOM     27  H   UNL     1     -49.638  43.898  25.915  1.00  0.00     0.084 H 
ATOM     28  H   UNL     1     -51.015  41.582  26.462  1.00  0.00     0.066 H 
BRANCH  23  29
ATOM     29  C   UNL     1     -46.914  43.690  26.614  1.00  0.00     0.030 C 
ATOM     30  H   UNL     1     -47.206  44.519  25.965  1.00  0.00     0.048 H 
ATOM     31  H   UNL     1     -46.059  43.162  26.183  1.00  0.00     0.048 H 
ATOM     32  H   UNL     1     -46.672  44.064  27.612  1.00  0.00     0.048 H 
ENDBRANCH  23  29
ENDBRANCH  12  22
BRANCH  17  33
ATOM     33  N   UNL     1     -51.910  40.927  28.891  1.00  0.00    -0.383 N 
ATOM     34  H   UNL     1     -52.330  41.155  29.785  1.00  0.00     0.158 HD
ATOM     35  H   UNL     1     -51.165  41.545  28.593  1.00  0.00     0.158 HD
ENDBRANCH  17  33
ENDBRANCH   1  11
BRANCH   3  36
ATOM     36  C   UNL     1     -45.110  36.208  28.407  1.00  0.00     0.117 C 
ATOM     37  H   UNL     1     -44.159  35.800  28.768  1.00  0.00     0.073 H 
ATOM     38  H   UNL     1     -44.948  36.487  27.360  1.00  0.00     0.073 H 
BRANCH  36  39
ATOM     39  O   UNL     1     -45.432  37.433  29.078  1.00  0.00    -0.491 OA
BRANCH  39  40
ATOM     40  C   UNL     1     -44.791  38.582  28.703  1.00  0.00     0.121 A 
ATOM     41  C   UNL     1     -43.883  39.065  29.645  1.00  0.00    -0.018 A 
ATOM     42  C   UNL     1     -44.969  39.269  27.501  1.00  0.00     0.007 A 
ATOM     43  C   UNL     1     -43.136  40.225  29.417  1.00  0.00    -0.039 A 
ATOM     44  H   UNL     1     -43.749  38.524  30.581  1.00  0.00     0.066 H 
ATOM     45  C   UNL     1     -44.225  40.442  27.243  1.00  0.00     0.087 A 
ATOM     46  H   UNL     1     -45.660  38.949  26.734  1.00  0.00     0.069 H 
ATOM     47  C   UNL     1     -43.324  40.899  28.202  1.00  0.00     0.057 A 
ATOM     48  H   UNL     1     -42.431  40.587  30.158  1.00  0.00     0.064 H 
ATOM     49  N   UNL     1     -44.303  41.206  26.093  1.00  0.00    -0.220 NA
ATOM     50  S   UNL     1     -42.569  42.326  27.619  1.00  0.00    -0.097 S 
ATOM     51  C   UNL     1     -43.490  42.238  26.159  1.00  0.00     0.186 A 
BRANCH  51  52
ATOM     52  N   UNL     1     -43.346  43.152  25.165  1.00  0.00    -0.348 N 
ATOM     53  C   UNL     1     -43.904  43.063  23.846  1.00  0.00     0.022 C 
ATOM     54  C   UNL     1     -42.074  43.595  24.666  1.00  0.00     0.022 C 
ATOM     55  C   UNL     1     -42.829  44.069  23.420  1.00  0.00    -0.018 C 
ATOM     56  H   UNL     1     -43.803  42.067  23.400  1.00  0.00     0.049 H 
ATOM     57  H   UNL     1     -44.935  43.416  23.779  1.00  0.00     0.049 H 
ATOM     58  H   UNL     1     -41.369  42.774  24.494  1.00  0.00     0.049 H 
ATOM     59  H   UNL     1     -41.616  44.378  25.274  1.00  0.00     0.049 H 
ATOM     60  H   UNL     1     -43.150  45.117  23.457  1.00  0.00     0.030 H 
ATOM     61  H   UNL     1     -42.341  43.870  22.463  1.00  0.00     0.030 H 
ENDBRANCH  51  52
ENDBRANCH  39  40
ENDBRANCH  36  39
ENDBRANCH   3  36
BRANCH   4  62
ATOM     62  O   UNL     1     -47.340  33.375  27.281  1.00  0.00    -0.387 OA
ATOM     63  H   UNL     1     -47.084  32.816  26.526  1.00  0.00     0.211 HD
ENDBRANCH   4  62
TORSDOF 9
ENDMDL
MODEL 3
REMARK VINA RESULT:      -9.0      1.596      2.228
REMARK SMILES Cn1ccc(-c2cn([C@@H]3O[C@H](COc4ccc5sc(N6CCC6)nc5c4)[C@@H](O)[C@@H]3F)c3ncnc(N)c23)n1
REMARK SMILES IDX 9 1 10 2 11 3 27 4 29 5 30 6 8 11 6 12 7 13 37 14 31 16
REMARK SMILES IDX 35 17 32 18 34 19 33 20 5 22 2 23 3 24 38 25 4 26 1 29 36 33
REMARK SMILES IDX 12 36 13 39 14 40 15 41 26 42 16 43 25 45 17 47 24 49 18 50
REMARK SMILES IDX 19 51 20 52 21 53 23 54 22 55 28 62
REMARK H PARENT 9 7 11 8 27 9 29 10 7 15 33 21 3 27 4 28 1 30 1 31 1 32 36 34
REMARK H PARENT 36 35 12 37 12 38 15 44 26 46 16 48 21 56 21 57 23 58 23 59
REMARK H PARENT 22 60 22 61 28 63
REMARK Flexibility Score: inf
ROOT
ATOM      1  C   UNL     1     -47.136  37.483  28.260  1.00  0.00     0.169 C 
ATOM      2  O   UNL     1     -46.564  36.212  28.661  1.00  0.00    -0.345 OA
ATOM      3  C   UNL     1     -47.151  35.178  27.836  1.00  0.00     0.123 C 
ATOM      4  C   UNL     1     -48.365  35.810  27.153  1.00  0.00     0.119 C 
ATOM      5  C   UNL     1     -47.927  37.244  26.979  1.00  0.00     0.173 C 
ATOM      6  F   UNL     1     -47.123  37.305  25.879  1.00  0.00    -0.239 F 
ATOM      7  H   UNL     1     -47.794  37.792  29.081  1.00  0.00     0.088 H 
ATOM      8  H   UNL     1     -47.449  34.372  28.514  1.00  0.00     0.067 H 
ATOM      9  H   UNL     1     -48.623  35.323  26.209  1.00  0.00     0.066 H 
ATOM     10  H   UNL     1     -48.746  37.956  26.849  1.00  0.00     0.074 H 
ENDROOT
BRANCH   1  11
ATOM     11  N   UNL     1     -46.097  38.490  28.132  1.00  0.00    -0.302 N 
ATOM     12  C   UNL     1     -44.847  40.191  27.427  1.00  0.00     0.033 A 
ATOM     13  C   UNL     1     -45.952  39.415  27.132  1.00  0.00     0.019 A 
ATOM     14  C   UNL     1     -44.260  39.684  28.623  1.00  0.00     0.071 A 
ATOM     15  H   UNL     1     -46.645  39.467  26.301  1.00  0.00     0.083 H 
ATOM     16  C   UNL     1     -45.080  38.641  29.044  1.00  0.00     0.148 A 
ATOM     17  C   UNL     1     -43.133  39.940  29.421  1.00  0.00     0.137 A 
ATOM     18  N   UNL     1     -44.923  37.889  30.147  1.00  0.00    -0.218 NA
ATOM     19  N   UNL     1     -42.939  39.209  30.538  1.00  0.00    -0.219 NA
ATOM     20  C   UNL     1     -43.831  38.249  30.838  1.00  0.00     0.120 A 
ATOM     21  H   UNL     1     -43.639  37.692  31.752  1.00  0.00     0.106 H 
BRANCH  12  22
ATOM     22  C   UNL     1     -44.376  41.323  26.635  1.00  0.00     0.095 A 
ATOM     23  N   UNL     1     -43.082  42.690  25.678  1.00  0.00    -0.275 N 
ATOM     24  C   UNL     1     -44.332  43.069  25.281  1.00  0.00     0.025 A 
ATOM     25  N   UNL     1     -43.080  41.629  26.503  1.00  0.00    -0.173 NA
ATOM     26  C   UNL     1     -45.199  42.186  25.880  1.00  0.00    -0.016 A 
ATOM     27  H   UNL     1     -44.497  43.903  24.614  1.00  0.00     0.084 H 
ATOM     28  H   UNL     1     -46.276  42.163  25.781  1.00  0.00     0.066 H 
BRANCH  23  29
ATOM     29  C   UNL     1     -41.829  43.297  25.301  1.00  0.00     0.030 C 
ATOM     30  H   UNL     1     -41.727  43.275  24.214  1.00  0.00     0.048 H 
ATOM     31  H   UNL     1     -41.018  42.729  25.765  1.00  0.00     0.048 H 
ATOM     32  H   UNL     1     -41.826  44.331  25.656  1.00  0.00     0.048 H 
ENDBRANCH  23  29
ENDBRANCH  12  22
BRANCH  17  33
ATOM     33  N   UNL     1     -42.152  40.881  29.128  1.00  0.00    -0.383 N 
ATOM     34  H   UNL     1     -42.360  41.751  29.606  1.00  0.00     0.158 HD
ATOM     35  H   UNL     1     -41.209  40.533  29.255  1.00  0.00     0.158 HD
ENDBRANCH  17  33
ENDBRANCH   1  11
BRANCH   3  36
ATOM     36  C   UNL     1     -46.095  34.686  26.829  1.00  0.00     0.117 C 
ATOM     37  H   UNL     1     -45.229  35.354  26.760  1.00  0.00     0.073 H 
ATOM     38  H   UNL     1     -45.706  33.710  27.142  1.00  0.00     0.073 H 
BRANCH  36  39
ATOM     39  O   UNL     1     -46.677  34.463  25.539  1.00  0.00    -0.491 OA
BRANCH  39  40
ATOM     40  C   UNL     1     -46.893  33.179  25.122  1.00  0.00     0.121 A 
ATOM     41  C   UNL     1     -46.111  32.790  24.033  1.00  0.00    -0.018 A 
ATOM     42  C   UNL     1     -47.792  32.270  25.684  1.00  0.00     0.007 A 
ATOM     43  C   UNL     1     -46.200  31.506  23.487  1.00  0.00    -0.039 A 
ATOM     44  H   UNL     1     -45.412  33.504  23.599  1.00  0.00     0.066 H 
ATOM     45  C   UNL     1     -47.900  30.965  25.154  1.00  0.00     0.087 A 
ATOM     46  H   UNL     1     -48.428  32.511  26.524  1.00  0.00     0.069 H 
ATOM     47  C   UNL     1     -47.105  30.606  24.068  1.00  0.00     0.057 A 
ATOM     48  H   UNL     1     -45.584  31.218  22.641  1.00  0.00     0.064 H 
ATOM     49  N   UNL     1     -48.742  29.974  25.624  1.00  0.00    -0.220 NA
ATOM     50  S   UNL     1     -47.444  28.977  23.646  1.00  0.00    -0.097 S 
ATOM     51  C   UNL     1     -48.614  28.874  24.914  1.00  0.00     0.186 A 
BRANCH  51  52
ATOM     52  N   UNL     1     -49.307  27.732  25.159  1.00  0.00    -0.348 N 
ATOM     53  C   UNL     1     -50.706  27.523  24.917  1.00  0.00     0.022 C 
ATOM     54  C   UNL     1     -49.369  27.096  26.445  1.00  0.00     0.022 C 
ATOM     55  C   UNL     1     -50.617  26.373  25.928  1.00  0.00    -0.018 C 
ATOM     56  H   UNL     1     -51.330  28.366  25.234  1.00  0.00     0.049 H 
ATOM     57  H   UNL     1     -50.937  27.232  23.890  1.00  0.00     0.049 H 
ATOM     58  H   UNL     1     -49.549  27.799  27.266  1.00  0.00     0.049 H 
ATOM     59  H   UNL     1     -48.505  26.462  26.660  1.00  0.00     0.049 H 
ATOM     60  H   UNL     1     -50.419  25.392  25.481  1.00  0.00     0.030 H 
ATOM     61  H   UNL     1     -51.448  26.293  26.633  1.00  0.00     0.030 H 
ENDBRANCH  51  52
ENDBRANCH  39  40
ENDBRANCH  36  39
ENDBRANCH   3  36
BRANCH   4  62
ATOM     62  O   UNL     1     -49.517  35.769  28.002  1.00  0.00    -0.387 OA
ATOM     63  H   UNL     1     -49.568  36.613  28.486  1.00  0.00     0.211 HD
ENDBRANCH   4  62
TORSDOF 9
ENDMDL
MODEL 4
REMARK VINA RESULT:      -8.9      2.517      3.307
REMARK SMILES Cn1ccc(-c2cn([C@@H]3O[C@H](COc4ccc5sc(N6CCC6)nc5c4)[C@@H](O)[C@@H]3F)c3ncnc(N)c23)n1
REMARK SMILES IDX 9 1 10 2 11 3 27 4 29 5 30 6 8 11 6 12 7 13 37 14 31 16
REMARK SMILES IDX 35 17 32 18 34 19 33 20 5 22 2 23 3 24 38 25 4 26 1 29 36 33
REMARK SMILES IDX 12 36 13 39 14 40 15 41 26 42 16 43 25 45 17 47 24 49 18 50
REMARK SMILES IDX 19 51 20 52 21 53 23 54 22 55 28 62
REMARK H PARENT 9 7 11 8 27 9 29 10 7 15 33 21 3 27 4 28 1 30 1 31 1 32 36 34
REMARK H PARENT 36 35 12 37 12 38 15 44 26 46 16 48 21 56 21 57 23 58 23 59
REMARK H PARENT 22 60 22 61 28 63
REMARK Flexibility Score: inf
ROOT
ATOM      1  C   UNL     1     -46.441  37.676  28.547  1.00  0.00     0.169 C 
ATOM      2  O   UNL     1     -45.591  37.007  27.581  1.00  0.00    -0.345 OA
ATOM      3  C   UNL     1     -46.025  35.631  27.481  1.00  0.00     0.123 C 
ATOM      4  C   UNL     1     -46.945  35.382  28.677  1.00  0.00     0.119 C 
ATOM      5  C   UNL     1     -47.592  36.731  28.873  1.00  0.00     0.173 C 
ATOM      6  F   UNL     1     -48.603  36.845  27.964  1.00  0.00    -0.239 F 
ATOM      7  H   UNL     1     -45.816  37.857  29.429  1.00  0.00     0.088 H 
ATOM      8  H   UNL     1     -45.122  35.016  27.537  1.00  0.00     0.067 H 
ATOM      9  H   UNL     1     -47.668  34.581  28.498  1.00  0.00     0.066 H 
ATOM     10  H   UNL     1     -48.006  36.896  29.871  1.00  0.00     0.074 H 
ENDROOT
BRANCH   1  11
ATOM     11  N   UNL     1     -46.867  38.969  28.040  1.00  0.00    -0.302 N 
ATOM     12  C   UNL     1     -48.050  40.794  27.569  1.00  0.00     0.033 A 
ATOM     13  C   UNL     1     -48.098  39.554  28.178  1.00  0.00     0.019 A 
ATOM     14  C   UNL     1     -46.757  40.949  26.987  1.00  0.00     0.071 A 
ATOM     15  H   UNL     1     -48.905  39.062  28.706  1.00  0.00     0.083 H 
ATOM     16  C   UNL     1     -46.043  39.803  27.322  1.00  0.00     0.148 A 
ATOM     17  C   UNL     1     -46.074  41.892  26.201  1.00  0.00     0.137 A 
ATOM     18  N   UNL     1     -44.766  39.529  27.004  1.00  0.00    -0.218 NA
ATOM     19  N   UNL     1     -44.790  41.656  25.861  1.00  0.00    -0.219 NA
ATOM     20  C   UNL     1     -44.215  40.515  26.280  1.00  0.00     0.120 A 
ATOM     21  H   UNL     1     -43.178  40.373  25.991  1.00  0.00     0.106 H 
BRANCH  12  22
ATOM     22  C   UNL     1     -49.145  41.759  27.534  1.00  0.00     0.095 A 
ATOM     23  N   UNL     1     -50.340  43.440  27.986  1.00  0.00    -0.275 N 
ATOM     24  C   UNL     1     -50.964  42.854  26.923  1.00  0.00     0.025 A 
ATOM     25  N   UNL     1     -49.229  42.793  28.378  1.00  0.00    -0.173 NA
ATOM     26  C   UNL     1     -50.200  41.759  26.596  1.00  0.00    -0.016 A 
ATOM     27  H   UNL     1     -51.867  43.260  26.489  1.00  0.00     0.084 H 
ATOM     28  H   UNL     1     -50.374  41.060  25.789  1.00  0.00     0.066 H 
BRANCH  23  29
ATOM     29  C   UNL     1     -50.748  44.635  28.682  1.00  0.00     0.030 C 
ATOM     30  H   UNL     1     -50.418  44.580  29.722  1.00  0.00     0.048 H 
ATOM     31  H   UNL     1     -51.838  44.705  28.638  1.00  0.00     0.048 H 
ATOM     32  H   UNL     1     -50.287  45.495  28.190  1.00  0.00     0.048 H 
ENDBRANCH  23  29
ENDBRANCH  12  22
BRANCH  17  33
ATOM     33  N   UNL     1     -46.637  43.058  25.695  1.00  0.00    -0.383 N 
ATOM     34  H   UNL     1     -47.426  43.332  26.269  1.00  0.00     0.158 HD
ATOM     35  H   UNL     1     -45.958  43.788  25.516  1.00  0.00     0.158 HD
ENDBRANCH  17  33
ENDBRANCH   1  11
BRANCH   3  36
ATOM     36  C   UNL     1     -46.741  35.433  26.132  1.00  0.00     0.117 C 
ATOM     37  H   UNL     1     -47.069  36.375  25.681  1.00  0.00     0.073 H 
ATOM     38  H   UNL     1     -46.058  34.968  25.411  1.00  0.00     0.073 H 
BRANCH  36  39
ATOM     39  O   UNL     1     -47.835  34.515  26.258  1.00  0.00    -0.491 OA
BRANCH  39  40
ATOM     40  C   UNL     1     -47.727  33.273  25.696  1.00  0.00     0.121 A 
ATOM     41  C   UNL     1     -46.703  33.156  24.756  1.00  0.00    -0.018 A 
ATOM     42  C   UNL     1     -48.526  32.165  25.986  1.00  0.00     0.007 A 
ATOM     43  C   UNL     1     -46.448  31.951  24.093  1.00  0.00    -0.039 A 
ATOM     44  H   UNL     1     -46.083  34.024  24.535  1.00  0.00     0.066 H 
ATOM     45  C   UNL     1     -48.289  30.935  25.334  1.00  0.00     0.087 A 
ATOM     46  H   UNL     1     -49.337  32.193  26.700  1.00  0.00     0.069 H 
ATOM     47  C   UNL     1     -47.258  30.849  24.401  1.00  0.00     0.057 A 
ATOM     48  H   UNL     1     -45.646  31.875  23.366  1.00  0.00     0.064 H 
ATOM     49  N   UNL     1     -49.002  29.767  25.538  1.00  0.00    -0.220 NA
ATOM     50  S   UNL     1     -47.204  29.249  23.780  1.00  0.00    -0.097 S 
ATOM     51  C   UNL     1     -48.543  28.798  24.775  1.00  0.00     0.186 A 
BRANCH  51  52
ATOM     52  N   UNL     1     -49.042  27.536  24.776  1.00  0.00    -0.348 N 
ATOM     53  C   UNL     1     -50.388  27.157  25.102  1.00  0.00     0.022 C 
ATOM     54  C   UNL     1     -48.485  26.458  25.544  1.00  0.00     0.022 C 
ATOM     55  C   UNL     1     -49.833  25.752  25.366  1.00  0.00    -0.018 C 
ATOM     56  H   UNL     1     -50.778  27.670  25.989  1.00  0.00     0.049 H 
ATOM     57  H   UNL     1     -51.084  27.242  24.266  1.00  0.00     0.049 H 
ATOM     58  H   UNL     1     -48.245  26.741  26.575  1.00  0.00     0.049 H 
ATOM     59  H   UNL     1     -47.628  25.978  25.064  1.00  0.00     0.049 H 
ATOM     60  H   UNL     1     -49.880  25.079  24.502  1.00  0.00     0.030 H 
ATOM     61  H   UNL     1     -50.225  25.243  26.249  1.00  0.00     0.030 H 
ENDBRANCH  51  52
ENDBRANCH  39  40
ENDBRANCH  36  39
ENDBRANCH   3  36
BRANCH   4  62
ATOM     62  O   UNL     1     -46.194  35.045  29.848  1.00  0.00    -0.387 OA
ATOM     63  H   UNL     1     -46.803  34.649  30.497  1.00  0.00     0.211 HD
ENDBRANCH   4  62
TORSDOF 9
ENDMDL
MODEL 5
REMARK VINA RESULT:      -8.9      1.757      2.047
REMARK SMILES Cn1ccc(-c2cn([C@@H]3O[C@H](COc4ccc5sc(N6CCC6)nc5c4)[C@@H](O)[C@@H]3F)c3ncnc(N)c23)n1
REMARK SMILES IDX 9 1 10 2 11 3 27 4 29 5 30 6 8 11 6 12 7 13 37 14 31 16
REMARK SMILES IDX 35 17 32 18 34 19 33 20 5 22 2 23 3 24 38 25 4 26 1 29 36 33
REMARK SMILES IDX 12 36 13 39 14 40 15 41 26 42 16 43 25 45 17 47 24 49 18 50
REMARK SMILES IDX 19 51 20 52 21 53 23 54 22 55 28 62
REMARK H PARENT 9 7 11 8 27 9 29 10 7 15 33 21 3 27 4 28 1 30 1 31 1 32 36 34
REMARK H PARENT 36 35 12 37 12 38 15 44 26 46 16 48 21 56 21 57 23 58 23 59
REMARK H PARENT 22 60 22 61 28 63
REMARK Flexibility Score: inf
ROOT
ATOM      1  C   UNL     1     -46.366  38.522  28.521  1.00  0.00     0.169 C 
ATOM      2  O   UNL     1     -45.720  37.224  28.553  1.00  0.00    -0.345 OA
ATOM      3  C   UNL     1     -46.645  36.252  28.011  1.00  0.00     0.123 C 
ATOM      4  C   UNL     1     -48.013  36.935  27.972  1.00  0.00     0.119 C 
ATOM      5  C   UNL     1     -47.647  38.375  27.708  1.00  0.00     0.173 C 
ATOM      6  F   UNL     1     -47.407  38.507  26.372  1.00  0.00    -0.239 F 
ATOM      7  H   UNL     1     -46.586  38.778  29.565  1.00  0.00     0.088 H 
ATOM      8  H   UNL     1     -46.642  35.403  28.702  1.00  0.00     0.067 H 
ATOM      9  H   UNL     1     -48.676  36.514  27.210  1.00  0.00     0.066 H 
ATOM     10  H   UNL     1     -48.415  39.098  27.993  1.00  0.00     0.074 H 
ENDROOT
BRANCH   1  11
ATOM     11  N   UNL     1     -45.456  39.531  28.008  1.00  0.00    -0.302 N 
ATOM     12  C   UNL     1     -44.516  41.138  26.788  1.00  0.00     0.033 A 
ATOM     13  C   UNL     1     -45.602  40.287  26.875  1.00  0.00     0.019 A 
ATOM     14  C   UNL     1     -43.644  40.852  27.880  1.00  0.00     0.071 A 
ATOM     15  H   UNL     1     -46.464  40.179  26.227  1.00  0.00     0.083 H 
ATOM     16  C   UNL     1     -44.275  39.863  28.629  1.00  0.00     0.148 A 
ATOM     17  C   UNL     1     -42.390  41.273  28.349  1.00  0.00     0.137 A 
ATOM     18  N   UNL     1     -43.825  39.305  29.765  1.00  0.00    -0.218 NA
ATOM     19  N   UNL     1     -41.902  40.740  29.488  1.00  0.00    -0.219 NA
ATOM     20  C   UNL     1     -42.635  39.809  30.126  1.00  0.00     0.120 A 
ATOM     21  H   UNL     1     -42.207  39.415  31.043  1.00  0.00     0.106 H 
BRANCH  12  22
ATOM     22  C   UNL     1     -44.315  42.143  25.749  1.00  0.00     0.095 A 
ATOM     23  N   UNL     1     -43.398  43.289  24.231  1.00  0.00    -0.275 N 
ATOM     24  C   UNL     1     -44.683  43.744  24.272  1.00  0.00     0.025 A 
ATOM     25  N   UNL     1     -43.146  42.313  25.120  1.00  0.00    -0.173 NA
ATOM     26  C   UNL     1     -45.312  43.006  25.247  1.00  0.00    -0.016 A 
ATOM     27  H   UNL     1     -45.040  44.525  23.614  1.00  0.00     0.084 H 
ATOM     28  H   UNL     1     -46.348  43.074  25.549  1.00  0.00     0.066 H 
BRANCH  23  29
ATOM     29  C   UNL     1     -42.344  43.739  23.355  1.00  0.00     0.030 C 
ATOM     30  H   UNL     1     -42.201  44.814  23.480  1.00  0.00     0.048 H 
ATOM     31  H   UNL     1     -42.635  43.517  22.324  1.00  0.00     0.048 H 
ATOM     32  H   UNL     1     -41.426  43.207  23.618  1.00  0.00     0.048 H 
ENDBRANCH  23  29
ENDBRANCH  12  22
BRANCH  17  33
ATOM     33  N   UNL     1     -41.567  42.187  27.701  1.00  0.00    -0.383 N 
ATOM     34  H   UNL     1     -41.818  42.235  26.720  1.00  0.00     0.158 HD
ATOM     35  H   UNL     1     -41.505  43.080  28.175  1.00  0.00     0.158 HD
ENDBRANCH  17  33
ENDBRANCH   1  11
BRANCH   3  36
ATOM     36  C   UNL     1     -46.155  35.825  26.615  1.00  0.00     0.117 C 
ATOM     37  H   UNL     1     -46.849  36.107  25.816  1.00  0.00     0.073 H 
ATOM     38  H   UNL     1     -45.204  36.319  26.385  1.00  0.00     0.073 H 
BRANCH  36  39
ATOM     39  O   UNL     1     -45.869  34.422  26.575  1.00  0.00    -0.491 OA
BRANCH  39  40
ATOM     40  C   UNL     1     -46.753  33.582  25.954  1.00  0.00     0.121 A 
ATOM     41  C   UNL     1     -48.000  33.502  26.575  1.00  0.00    -0.018 A 
ATOM     42  C   UNL     1     -46.509  32.838  24.798  1.00  0.00     0.007 A 
ATOM     43  C   UNL     1     -49.023  32.697  26.065  1.00  0.00    -0.039 A 
ATOM     44  H   UNL     1     -48.183  34.084  27.477  1.00  0.00     0.066 H 
ATOM     45  C   UNL     1     -47.526  32.019  24.259  1.00  0.00     0.087 A 
ATOM     46  H   UNL     1     -45.564  32.853  24.274  1.00  0.00     0.069 H 
ATOM     47  C   UNL     1     -48.762  31.961  24.900  1.00  0.00     0.057 A 
ATOM     48  H   UNL     1     -49.989  32.647  26.557  1.00  0.00     0.064 H 
ATOM     49  N   UNL     1     -47.414  31.243  23.120  1.00  0.00    -0.220 NA
ATOM     50  S   UNL     1     -49.790  30.900  24.028  1.00  0.00    -0.097 S 
ATOM     51  C   UNL     1     -48.532  30.591  22.884  1.00  0.00     0.186 A 
BRANCH  51  52
ATOM     52  N   UNL     1     -48.715  29.764  21.823  1.00  0.00    -0.348 N 
ATOM     53  C   UNL     1     -48.674  30.142  20.439  1.00  0.00     0.022 C 
ATOM     54  C   UNL     1     -49.886  28.956  21.634  1.00  0.00     0.022 C 
ATOM     55  C   UNL     1     -49.478  28.866  20.160  1.00  0.00    -0.018 C 
ATOM     56  H   UNL     1     -49.208  31.076  20.230  1.00  0.00     0.049 H 
ATOM     57  H   UNL     1     -47.667  30.167  20.019  1.00  0.00     0.049 H 
ATOM     58  H   UNL     1     -50.820  29.498  21.822  1.00  0.00     0.049 H 
ATOM     59  H   UNL     1     -49.864  28.018  22.193  1.00  0.00     0.049 H 
ATOM     60  H   UNL     1     -48.865  27.991  19.913  1.00  0.00     0.030 H 
ATOM     61  H   UNL     1     -50.288  28.963  19.433  1.00  0.00     0.030 H 
ENDBRANCH  51  52
ENDBRANCH  39  40
ENDBRANCH  36  39
ENDBRANCH   3  36
BRANCH   4  62
ATOM     62  O   UNL     1     -48.676  36.841  29.236  1.00  0.00    -0.387 OA
ATOM     63  H   UNL     1     -48.061  36.434  29.873  1.00  0.00     0.211 HD
ENDBRANCH   4  62
TORSDOF 9
ENDMDL
MODEL 6
REMARK VINA RESULT:      -8.8      2.540      3.301
REMARK SMILES Cn1ccc(-c2cn([C@@H]3O[C@H](COc4ccc5sc(N6CCC6)nc5c4)[C@@H](O)[C@@H]3F)c3ncnc(N)c23)n1
REMARK SMILES IDX 9 1 10 2 11 3 27 4 29 5 30 6 8 11 6 12 7 13 37 14 31 16
REMARK SMILES IDX 35 17 32 18 34 19 33 20 5 22 2 23 3 24 38 25 4 26 1 29 36 33
REMARK SMILES IDX 12 36 13 39 14 40 15 41 26 42 16 43 25 45 17 47 24 49 18 50
REMARK SMILES IDX 19 51 20 52 21 53 23 54 22 55 28 62
REMARK H PARENT 9 7 11 8 27 9 29 10 7 15 33 21 3 27 4 28 1 30 1 31 1 32 36 34
REMARK H PARENT 36 35 12 37 12 38 15 44 26 46 16 48 21 56 21 57 23 58 23 59
REMARK H PARENT 22 60 22 61 28 63
REMARK Flexibility Score: inf
ROOT
ATOM      1  C   UNL     1     -46.384  37.641  28.569  1.00  0.00     0.169 C 
ATOM      2  O   UNL     1     -45.429  36.938  27.735  1.00  0.00    -0.345 OA
ATOM      3  C   UNL     1     -45.829  35.548  27.673  1.00  0.00     0.123 C 
ATOM      4  C   UNL     1     -46.862  35.348  28.784  1.00  0.00     0.119 C 
ATOM      5  C   UNL     1     -47.547  36.692  28.833  1.00  0.00     0.173 C 
ATOM      6  F   UNL     1     -48.462  36.732  27.822  1.00  0.00    -0.239 F 
ATOM      7  H   UNL     1     -45.854  37.887  29.498  1.00  0.00     0.088 H 
ATOM      8  H   UNL     1     -44.927  34.957  27.857  1.00  0.00     0.067 H 
ATOM      9  H   UNL     1     -47.551  34.523  28.580  1.00  0.00     0.066 H 
ATOM     10  H   UNL     1     -48.062  36.905  29.773  1.00  0.00     0.074 H 
ENDROOT
BRANCH   1  11
ATOM     11  N   UNL     1     -46.776  38.894  27.947  1.00  0.00    -0.302 N 
ATOM     12  C   UNL     1     -47.951  40.620  27.175  1.00  0.00     0.033 A 
ATOM     13  C   UNL     1     -48.046  39.386  27.791  1.00  0.00     0.019 A 
ATOM     14  C   UNL     1     -46.575  40.867  26.893  1.00  0.00     0.071 A 
ATOM     15  H   UNL     1     -48.914  38.838  28.137  1.00  0.00     0.083 H 
ATOM     16  C   UNL     1     -45.874  39.781  27.410  1.00  0.00     0.148 A 
ATOM     17  C   UNL     1     -45.802  41.851  26.256  1.00  0.00     0.137 A 
ATOM     18  N   UNL     1     -44.542  39.602  27.393  1.00  0.00    -0.218 NA
ATOM     19  N   UNL     1     -44.461  41.711  26.219  1.00  0.00    -0.219 NA
ATOM     20  C   UNL     1     -43.915  40.620  26.785  1.00  0.00     0.120 A 
ATOM     21  H   UNL     1     -42.831  40.554  26.739  1.00  0.00     0.106 H 
BRANCH  12  22
ATOM     22  C   UNL     1     -49.076  41.499  26.871  1.00  0.00     0.095 A 
ATOM     23  N   UNL     1     -50.261  42.973  25.934  1.00  0.00    -0.275 N 
ATOM     24  C   UNL     1     -51.082  42.423  26.874  1.00  0.00     0.025 A 
ATOM     25  N   UNL     1     -49.033  42.428  25.910  1.00  0.00    -0.173 NA
ATOM     26  C   UNL     1     -50.341  41.447  27.496  1.00  0.00    -0.016 A 
ATOM     27  H   UNL     1     -52.103  42.752  27.012  1.00  0.00     0.084 H 
ATOM     28  H   UNL     1     -50.667  40.784  28.286  1.00  0.00     0.066 H 
BRANCH  23  29
ATOM     29  C   UNL     1     -50.586  44.030  25.007  1.00  0.00     0.030 C 
ATOM     30  H   UNL     1     -49.753  44.174  24.314  1.00  0.00     0.048 H 
ATOM     31  H   UNL     1     -50.760  44.947  25.577  1.00  0.00     0.048 H 
ATOM     32  H   UNL     1     -51.484  43.742  24.457  1.00  0.00     0.048 H 
ENDBRANCH  23  29
ENDBRANCH  12  22
BRANCH  17  33
ATOM     33  N   UNL     1     -46.318  42.967  25.607  1.00  0.00    -0.383 N 
ATOM     34  H   UNL     1     -46.011  43.810  26.081  1.00  0.00     0.158 HD
ATOM     35  H   UNL     1     -46.169  42.955  24.605  1.00  0.00     0.158 HD
ENDBRANCH  17  33
ENDBRANCH   1  11
BRANCH   3  36
ATOM     36  C   UNL     1     -46.401  35.258  26.273  1.00  0.00     0.117 C 
ATOM     37  H   UNL     1     -47.495  35.315  26.240  1.00  0.00     0.073 H 
ATOM     38  H   UNL     1     -46.032  36.001  25.557  1.00  0.00     0.073 H 
BRANCH  36  39
ATOM     39  O   UNL     1     -45.937  33.996  25.778  1.00  0.00    -0.491 OA
BRANCH  39  40
ATOM     40  C   UNL     1     -46.850  33.089  25.315  1.00  0.00     0.121 A 
ATOM     41  C   UNL     1     -48.107  33.184  25.913  1.00  0.00    -0.018 A 
ATOM     42  C   UNL     1     -46.627  32.124  24.330  1.00  0.00     0.007 A 
ATOM     43  C   UNL     1     -49.160  32.338  25.549  1.00  0.00    -0.039 A 
ATOM     44  H   UNL     1     -48.275  33.939  26.681  1.00  0.00     0.066 H 
ATOM     45  C   UNL     1     -47.674  31.259  23.941  1.00  0.00     0.087 A 
ATOM     46  H   UNL     1     -45.676  31.997  23.833  1.00  0.00     0.069 H 
ATOM     47  C   UNL     1     -48.918  31.379  24.556  1.00  0.00     0.057 A 
ATOM     48  H   UNL     1     -50.132  32.426  26.022  1.00  0.00     0.064 H 
ATOM     49  N   UNL     1     -47.582  30.271  22.977  1.00  0.00    -0.220 NA
ATOM     50  S   UNL     1     -49.983  30.211  23.886  1.00  0.00    -0.097 S 
ATOM     51  C   UNL     1     -48.726  29.633  22.850  1.00  0.00     0.186 A 
BRANCH  51  52
ATOM     52  N   UNL     1     -48.933  28.623  21.966  1.00  0.00    -0.348 N 
ATOM     53  C   UNL     1     -49.459  28.756  20.637  1.00  0.00     0.022 C 
ATOM     54  C   UNL     1     -49.751  27.475  22.243  1.00  0.00     0.022 C 
ATOM     55  C   UNL     1     -49.817  27.267  20.727  1.00  0.00    -0.018 C 
ATOM     56  H   UNL     1     -50.319  29.432  20.578  1.00  0.00     0.049 H 
ATOM     57  H   UNL     1     -48.706  29.017  19.891  1.00  0.00     0.049 H 
ATOM     58  H   UNL     1     -50.706  27.730  22.717  1.00  0.00     0.049 H 
ATOM     59  H   UNL     1     -49.232  26.698  22.810  1.00  0.00     0.049 H 
ATOM     60  H   UNL     1     -49.050  26.593  20.329  1.00  0.00     0.030 H 
ATOM     61  H   UNL     1     -50.794  26.987  20.326  1.00  0.00     0.030 H 
ENDBRANCH  51  52
ENDBRANCH  39  40
ENDBRANCH  36  39
ENDBRANCH   3  36
BRANCH   4  62
ATOM     62  O   UNL     1     -46.229  35.096  30.042  1.00  0.00    -0.387 OA
ATOM     63  H   UNL     1     -46.884  35.246  30.748  1.00  0.00     0.211 HD
ENDBRANCH   4  62
TORSDOF 9
ENDMDL
MODEL 7
REMARK VINA RESULT:      -8.7      3.267     10.967
REMARK SMILES Cn1ccc(-c2cn([C@@H]3O[C@H](COc4ccc5sc(N6CCC6)nc5c4)[C@@H](O)[C@@H]3F)c3ncnc(N)c23)n1
REMARK SMILES IDX 9 1 10 2 11 3 27 4 29 5 30 6 8 11 6 12 7 13 37 14 31 16
REMARK SMILES IDX 35 17 32 18 34 19 33 20 5 22 2 23 3 24 38 25 4 26 1 29 36 33
REMARK SMILES IDX 12 36 13 39 14 40 15 41 26 42 16 43 25 45 17 47 24 49 18 50
REMARK SMILES IDX 19 51 20 52 21 53 23 54 22 55 28 62
REMARK H PARENT 9 7 11 8 27 9 29 10 7 15 33 21 3 27 4 28 1 30 1 31 1 32 36 34
REMARK H PARENT 36 35 12 37 12 38 15 44 26 46 16 48 21 56 21 57 23 58 23 59
REMARK H PARENT 22 60 22 61 28 63
REMARK Flexibility Score: inf
ROOT
ATOM      1  C   UNL     1     -47.332  32.284  26.175  1.00  0.00     0.169 C 
ATOM      2  O   UNL     1     -48.298  33.111  26.872  1.00  0.00    -0.345 OA
ATOM      3  C   UNL     1     -47.601  34.267  27.395  1.00  0.00     0.123 C 
ATOM      4  C   UNL     1     -46.108  33.948  27.300  1.00  0.00     0.119 C 
ATOM      5  C   UNL     1     -46.040  33.086  26.063  1.00  0.00     0.173 C 
ATOM      6  F   UNL     1     -46.058  33.910  24.977  1.00  0.00    -0.239 F 
ATOM      7  H   UNL     1     -47.192  31.391  26.795  1.00  0.00     0.088 H 
ATOM      8  H   UNL     1     -47.920  34.377  28.436  1.00  0.00     0.067 H 
ATOM      9  H   UNL     1     -45.485  34.845  27.231  1.00  0.00     0.066 H 
ATOM     10  H   UNL     1     -45.153  32.451  26.000  1.00  0.00     0.074 H 
ENDROOT
BRANCH   1  11
ATOM     11  N   UNL     1     -47.866  31.848  24.897  1.00  0.00    -0.302 N 
ATOM     12  C   UNL     1     -49.223  31.393  23.191  1.00  0.00     0.033 A 
ATOM     13  C   UNL     1     -49.174  31.873  24.487  1.00  0.00     0.019 A 
ATOM     14  C   UNL     1     -47.903  31.007  22.814  1.00  0.00     0.071 A 
ATOM     15  H   UNL     1     -49.964  32.239  25.131  1.00  0.00     0.083 H 
ATOM     16  C   UNL     1     -47.084  31.327  23.893  1.00  0.00     0.148 A 
ATOM     17  C   UNL     1     -47.265  30.411  21.714  1.00  0.00     0.137 A 
ATOM     18  N   UNL     1     -45.752  31.160  23.970  1.00  0.00    -0.218 NA
ATOM     19  N   UNL     1     -45.929  30.227  21.750  1.00  0.00    -0.219 NA
ATOM     20  C   UNL     1     -45.258  30.611  22.850  1.00  0.00     0.120 A 
ATOM     21  H   UNL     1     -44.184  30.452  22.830  1.00  0.00     0.106 H 
BRANCH  12  22
ATOM     22  C   UNL     1     -50.427  31.302  22.372  1.00  0.00     0.095 A 
ATOM     23  N   UNL     1     -51.856  30.576  20.998  1.00  0.00    -0.275 N 
ATOM     24  C   UNL     1     -52.425  31.701  21.518  1.00  0.00     0.025 A 
ATOM     25  N   UNL     1     -50.639  30.308  21.501  1.00  0.00    -0.173 NA
ATOM     26  C   UNL     1     -51.520  32.193  22.429  1.00  0.00    -0.016 A 
ATOM     27  H   UNL     1     -53.405  32.045  21.217  1.00  0.00     0.084 H 
ATOM     28  H   UNL     1     -51.634  33.068  23.054  1.00  0.00     0.066 H 
BRANCH  23  29
ATOM     29  C   UNL     1     -52.425  29.691  20.010  1.00  0.00     0.030 C 
ATOM     30  H   UNL     1     -51.622  29.231  19.429  1.00  0.00     0.048 H 
ATOM     31  H   UNL     1     -53.073  30.278  19.353  1.00  0.00     0.048 H 
ATOM     32  H   UNL     1     -53.000  28.920  20.529  1.00  0.00     0.048 H 
ENDBRANCH  23  29
ENDBRANCH  12  22
BRANCH  17  33
ATOM     33  N   UNL     1     -47.916  29.945  20.578  1.00  0.00    -0.383 N 
ATOM     34  H   UNL     1     -48.568  29.212  20.835  1.00  0.00     0.158 HD
ATOM     35  H   UNL     1     -48.303  30.684  20.003  1.00  0.00     0.158 HD
ENDBRANCH  17  33
ENDBRANCH   1  11
BRANCH   3  36
ATOM     36  C   UNL     1     -47.997  35.502  26.565  1.00  0.00     0.117 C 
ATOM     37  H   UNL     1     -47.293  35.713  25.753  1.00  0.00     0.073 H 
ATOM     38  H   UNL     1     -48.973  35.339  26.094  1.00  0.00     0.073 H 
BRANCH  36  39
ATOM     39  O   UNL     1     -48.173  36.652  27.403  1.00  0.00    -0.491 OA
BRANCH  39  40
ATOM     40  C   UNL     1     -47.175  37.585  27.467  1.00  0.00     0.121 A 
ATOM     41  C   UNL     1     -46.177  37.294  28.397  1.00  0.00    -0.018 A 
ATOM     42  C   UNL     1     -47.086  38.750  26.702  1.00  0.00     0.007 A 
ATOM     43  C   UNL     1     -45.078  38.139  28.583  1.00  0.00    -0.039 A 
ATOM     44  H   UNL     1     -46.252  36.384  28.991  1.00  0.00     0.066 H 
ATOM     45  C   UNL     1     -45.986  39.620  26.867  1.00  0.00     0.087 A 
ATOM     46  H   UNL     1     -47.829  39.034  25.969  1.00  0.00     0.069 H 
ATOM     47  C   UNL     1     -45.004  39.301  27.802  1.00  0.00     0.057 A 
ATOM     48  H   UNL     1     -44.308  37.898  29.308  1.00  0.00     0.064 H 
ATOM     49  N   UNL     1     -45.779  40.794  26.167  1.00  0.00    -0.220 NA
ATOM     50  S   UNL     1     -43.800  40.525  27.781  1.00  0.00    -0.097 S 
ATOM     51  C   UNL     1     -44.667  41.381  26.555  1.00  0.00     0.186 A 
BRANCH  51  52
ATOM     52  N   UNL     1     -44.203  42.544  26.029  1.00  0.00    -0.348 N 
ATOM     53  C   UNL     1     -43.910  42.791  24.646  1.00  0.00     0.022 C 
ATOM     54  C   UNL     1     -42.999  43.193  26.466  1.00  0.00     0.022 C 
ATOM     55  C   UNL     1     -43.027  43.946  25.132  1.00  0.00    -0.018 C 
ATOM     56  H   UNL     1     -43.367  41.969  24.166  1.00  0.00     0.049 H 
ATOM     57  H   UNL     1     -44.782  43.078  24.056  1.00  0.00     0.049 H 
ATOM     58  H   UNL     1     -42.157  42.503  26.589  1.00  0.00     0.049 H 
ATOM     59  H   UNL     1     -43.134  43.804  27.362  1.00  0.00     0.049 H 
ATOM     60  H   UNL     1     -43.535  44.917  25.171  1.00  0.00     0.030 H 
ATOM     61  H   UNL     1     -42.065  44.056  24.626  1.00  0.00     0.030 H 
ENDBRANCH  51  52
ENDBRANCH  39  40
ENDBRANCH  36  39
ENDBRANCH   3  36
BRANCH   4  62
ATOM     62  O   UNL     1     -45.667  33.188  28.429  1.00  0.00    -0.387 OA
ATOM     63  H   UNL     1     -45.742  33.750  29.222  1.00  0.00     0.211 HD
ENDBRANCH   4  62
TORSDOF 9
ENDMDL
