MODEL 1
REMARK VINA RESULT:     -10.1      0.000      0.000
REMARK SMILES O=C(NCc1cn2cc(CNCC3CCCCC3)ccc2n1)c1cc(=O)n2ccccc2n1
REMARK SMILES IDX 5 1 6 2 7 3 8 4 9 5 19 6 20 7 21 8 22 9 4 14 3 17 1 18 2 19
REMARK SMILES IDX 23 21 24 22 33 23 25 24 32 26 26 27 27 28 31 29 28 30 30 31
REMARK SMILES IDX 29 33 10 37 11 40 12 42 13 45 14 46 18 47 15 49 17 52 16 55
REMARK H PARENT 6 10 8 11 19 12 20 13 4 15 4 16 3 20 24 25 31 32 28 34 30 35
REMARK H PARENT 29 36 10 38 10 39 11 41 12 43 12 44 13 48 14 50 14 51 18 53
REMARK H PARENT 18 54 15 56 15 57 17 58 17 59 16 60 16 61
REMARK Flexibility Score: inf
ROOT
ATOM      1  C   UNL     1     -48.227  35.152  26.971  1.00  0.00     0.079 A 
ATOM      2  C   UNL     1     -47.086  34.842  26.260  1.00  0.00     0.034 A 
ATOM      3  N   UNL     1     -47.340  33.643  25.645  1.00  0.00    -0.306 N 
ATOM      4  C   UNL     1     -46.522  32.884  24.813  1.00  0.00     0.015 A 
ATOM      5  C   UNL     1     -46.977  31.718  24.307  1.00  0.00    -0.017 A 
ATOM      6  C   UNL     1     -48.340  31.308  24.666  1.00  0.00    -0.053 A 
ATOM      7  C   UNL     1     -49.122  32.051  25.474  1.00  0.00    -0.018 A 
ATOM      8  C   UNL     1     -48.630  33.274  26.005  1.00  0.00     0.137 A 
ATOM      9  N   UNL     1     -49.181  34.163  26.804  1.00  0.00    -0.232 NA
ATOM     10  H   UNL     1     -46.141  35.356  26.144  1.00  0.00     0.084 H 
ATOM     11  H   UNL     1     -45.538  33.282  24.603  1.00  0.00     0.083 H 
ATOM     12  H   UNL     1     -48.719  30.375  24.258  1.00  0.00     0.063 H 
ATOM     13  H   UNL     1     -50.129  31.743  25.734  1.00  0.00     0.066 H 
ENDROOT
BRANCH   1  14
ATOM     14  C   UNL     1     -48.497  36.342  27.828  1.00  0.00     0.062 C 
ATOM     15  H   UNL     1     -48.963  36.035  28.770  1.00  0.00     0.056 H 
ATOM     16  H   UNL     1     -49.159  37.058  27.328  1.00  0.00     0.056 H 
BRANCH  14  17
ATOM     17  N   UNL     1     -47.246  36.985  28.131  1.00  0.00    -0.345 N 
ATOM     18  O   UNL     1     -47.508  38.724  26.663  1.00  0.00    -0.268 OA
ATOM     19  C   UNL     1     -46.885  38.178  27.566  1.00  0.00     0.270 C 
ATOM     20  H   UNL     1     -46.744  36.678  28.961  1.00  0.00     0.164 HD
BRANCH  19  21
ATOM     21  C   UNL     1     -45.641  38.766  28.186  1.00  0.00     0.136 A 
ATOM     22  C   UNL     1     -45.257  38.244  29.354  1.00  0.00     0.035 A 
ATOM     23  N   UNL     1     -44.985  39.780  27.528  1.00  0.00    -0.225 NA
ATOM     24  C   UNL     1     -44.051  38.784  29.994  1.00  0.00     0.258 A 
ATOM     25  H   UNL     1     -45.780  37.444  29.862  1.00  0.00     0.071 H 
ATOM     26  C   UNL     1     -43.920  40.254  28.096  1.00  0.00     0.140 A 
ATOM     27  O   UNL     1     -43.691  38.311  31.070  1.00  0.00    -0.269 OA
ATOM     28  N   UNL     1     -43.409  39.806  29.309  1.00  0.00    -0.268 N 
ATOM     29  C   UNL     1     -43.179  41.355  27.416  1.00  0.00    -0.019 A 
ATOM     30  C   UNL     1     -42.259  40.368  29.852  1.00  0.00     0.014 A 
ATOM     31  C   UNL     1     -42.076  41.863  27.978  1.00  0.00    -0.057 A 
ATOM     32  H   UNL     1     -43.570  41.708  26.471  1.00  0.00     0.066 H 
ATOM     33  C   UNL     1     -41.598  41.356  29.236  1.00  0.00    -0.045 A 
ATOM     34  H   UNL     1     -41.916  39.968  30.804  1.00  0.00     0.082 H 
ATOM     35  H   UNL     1     -41.522  42.665  27.498  1.00  0.00     0.062 H 
ATOM     36  H   UNL     1     -40.701  41.787  29.669  1.00  0.00     0.064 H 
ENDBRANCH  19  21
ENDBRANCH  14  17
ENDBRANCH   1  14
BRANCH   5  37
ATOM     37  C   UNL     1     -46.203  30.788  23.398  1.00  0.00     0.022 C 
ATOM     38  H   UNL     1     -46.001  31.312  22.456  1.00  0.00     0.048 H 
ATOM     39  H   UNL     1     -45.241  30.575  23.879  1.00  0.00     0.048 H 
BRANCH  37  40
ATOM     40  N   UNL     1     -46.905  29.537  23.112  1.00  0.00    -0.312 NA
ATOM     41  H   UNL     1     -46.855  29.350  22.111  1.00  0.00     0.123 HD
BRANCH  40  42
ATOM     42  C   UNL     1     -46.374  28.394  23.858  1.00  0.00    -0.002 C 
ATOM     43  H   UNL     1     -46.086  28.769  24.846  1.00  0.00     0.043 H 
ATOM     44  H   UNL     1     -45.437  28.068  23.386  1.00  0.00     0.043 H 
BRANCH  42  45
ATOM     45  C   UNL     1     -47.322  27.179  24.011  1.00  0.00    -0.029 C 
ATOM     46  C   UNL     1     -48.681  27.527  24.642  1.00  0.00    -0.049 C 
ATOM     47  C   UNL     1     -46.644  26.060  24.826  1.00  0.00    -0.049 C 
ATOM     48  H   UNL     1     -47.511  26.772  23.010  1.00  0.00     0.032 H 
ATOM     49  C   UNL     1     -48.576  27.871  26.126  1.00  0.00    -0.053 C 
ATOM     50  H   UNL     1     -49.348  26.662  24.532  1.00  0.00     0.027 H 
ATOM     51  H   UNL     1     -49.168  28.348  24.106  1.00  0.00     0.027 H 
ATOM     52  C   UNL     1     -46.541  26.378  26.317  1.00  0.00    -0.053 C 
ATOM     53  H   UNL     1     -47.225  25.137  24.705  1.00  0.00     0.027 H 
ATOM     54  H   UNL     1     -45.645  25.850  24.425  1.00  0.00     0.027 H 
ATOM     55  C   UNL     1     -47.896  26.753  26.911  1.00  0.00    -0.053 C 
ATOM     56  H   UNL     1     -49.579  28.042  26.533  1.00  0.00     0.027 H 
ATOM     57  H   UNL     1     -48.021  28.806  26.257  1.00  0.00     0.027 H 
ATOM     58  H   UNL     1     -45.831  27.197  26.477  1.00  0.00     0.027 H 
ATOM     59  H   UNL     1     -46.138  25.509  26.848  1.00  0.00     0.027 H 
ATOM     60  H   UNL     1     -47.769  27.059  27.955  1.00  0.00     0.027 H 
ATOM     61  H   UNL     1     -48.545  25.868  26.917  1.00  0.00     0.027 H 
ENDBRANCH  42  45
ENDBRANCH  40  42
ENDBRANCH  37  40
ENDBRANCH   5  37
TORSDOF 7
ENDMDL
MODEL 2
REMARK VINA RESULT:      -9.6      1.377      2.156
REMARK SMILES O=C(NCc1cn2cc(CNCC3CCCCC3)ccc2n1)c1cc(=O)n2ccccc2n1
REMARK SMILES IDX 5 1 6 2 7 3 8 4 9 5 19 6 20 7 21 8 22 9 4 14 3 17 1 18 2 19
REMARK SMILES IDX 23 21 24 22 33 23 25 24 32 26 26 27 27 28 31 29 28 30 30 31
REMARK SMILES IDX 29 33 10 37 11 40 12 42 13 45 14 46 18 47 15 49 17 52 16 55
REMARK H PARENT 6 10 8 11 19 12 20 13 4 15 4 16 3 20 24 25 31 32 28 34 30 35
REMARK H PARENT 29 36 10 38 10 39 11 41 12 43 12 44 13 48 14 50 14 51 18 53
REMARK H PARENT 18 54 15 56 15 57 17 58 17 59 16 60 16 61
REMARK Flexibility Score: inf
ROOT
ATOM      1  C   UNL     1     -47.705  34.896  27.526  1.00  0.00     0.079 A 
ATOM      2  C   UNL     1     -46.621  34.238  26.979  1.00  0.00     0.034 A 
ATOM      3  N   UNL     1     -47.141  33.304  26.121  1.00  0.00    -0.306 N 
ATOM      4  C   UNL     1     -46.484  32.375  25.320  1.00  0.00     0.015 A 
ATOM      5  C   UNL     1     -47.199  31.537  24.538  1.00  0.00    -0.017 A 
ATOM      6  C   UNL     1     -48.662  31.660  24.573  1.00  0.00    -0.053 A 
ATOM      7  C   UNL     1     -49.287  32.562  25.354  1.00  0.00    -0.018 A 
ATOM      8  C   UNL     1     -48.523  33.434  26.177  1.00  0.00     0.137 A 
ATOM      9  N   UNL     1     -48.885  34.381  27.016  1.00  0.00    -0.232 NA
ATOM     10  H   UNL     1     -45.555  34.350  27.125  1.00  0.00     0.084 H 
ATOM     11  H   UNL     1     -45.403  32.375  25.360  1.00  0.00     0.083 H 
ATOM     12  H   UNL     1     -49.247  30.997  23.941  1.00  0.00     0.063 H 
ATOM     13  H   UNL     1     -50.368  32.649  25.374  1.00  0.00     0.066 H 
ENDROOT
BRANCH   1  14
ATOM     14  C   UNL     1     -47.717  36.001  28.525  1.00  0.00     0.062 C 
ATOM     15  H   UNL     1     -47.457  35.620  29.517  1.00  0.00     0.056 H 
ATOM     16  H   UNL     1     -48.699  36.483  28.582  1.00  0.00     0.056 H 
BRANCH  14  17
ATOM     17  N   UNL     1     -46.732  36.978  28.144  1.00  0.00    -0.345 N 
ATOM     18  O   UNL     1     -48.158  38.770  28.142  1.00  0.00    -0.268 OA
ATOM     19  C   UNL     1     -47.025  38.312  28.053  1.00  0.00     0.270 C 
ATOM     20  H   UNL     1     -45.752  36.707  28.191  1.00  0.00     0.164 HD
BRANCH  19  21
ATOM     21  C   UNL     1     -45.799  39.167  27.849  1.00  0.00     0.136 A 
ATOM     22  C   UNL     1     -45.707  39.802  26.677  1.00  0.00     0.035 A 
ATOM     23  N   UNL     1     -44.869  39.248  28.858  1.00  0.00    -0.225 NA
ATOM     24  C   UNL     1     -44.531  40.647  26.435  1.00  0.00     0.258 A 
ATOM     25  H   UNL     1     -46.446  39.732  25.890  1.00  0.00     0.071 H 
ATOM     26  C   UNL     1     -43.831  39.996  28.641  1.00  0.00     0.140 A 
ATOM     27  O   UNL     1     -44.436  41.233  25.358  1.00  0.00    -0.269 OA
ATOM     28  N   UNL     1     -43.608  40.710  27.470  1.00  0.00    -0.268 N 
ATOM     29  C   UNL     1     -42.798  40.111  29.710  1.00  0.00    -0.019 A 
ATOM     30  C   UNL     1     -42.468  41.491  27.314  1.00  0.00     0.014 A 
ATOM     31  C   UNL     1     -41.718  40.875  29.515  1.00  0.00    -0.057 A 
ATOM     32  H   UNL     1     -42.966  39.559  30.626  1.00  0.00     0.066 H 
ATOM     33  C   UNL     1     -41.544  41.590  28.278  1.00  0.00    -0.045 A 
ATOM     34  H   UNL     1     -42.358  42.023  26.372  1.00  0.00     0.082 H 
ATOM     35  H   UNL     1     -40.955  40.972  30.281  1.00  0.00     0.062 H 
ATOM     36  H   UNL     1     -40.658  42.203  28.147  1.00  0.00     0.064 H 
ENDBRANCH  19  21
ENDBRANCH  14  17
ENDBRANCH   1  14
BRANCH   5  37
ATOM     37  C   UNL     1     -46.625  30.478  23.622  1.00  0.00     0.022 C 
ATOM     38  H   UNL     1     -46.137  30.976  22.777  1.00  0.00     0.048 H 
ATOM     39  H   UNL     1     -45.856  29.933  24.183  1.00  0.00     0.048 H 
BRANCH  37  40
ATOM     40  N   UNL     1     -47.629  29.542  23.116  1.00  0.00    -0.312 NA
ATOM     41  H   UNL     1     -47.464  29.385  22.122  1.00  0.00     0.123 HD
BRANCH  40  42
ATOM     42  C   UNL     1     -47.635  28.261  23.827  1.00  0.00    -0.002 C 
ATOM     43  H   UNL     1     -46.591  27.941  23.907  1.00  0.00     0.043 H 
ATOM     44  H   UNL     1     -48.122  27.507  23.193  1.00  0.00     0.043 H 
BRANCH  42  45
ATOM     45  C   UNL     1     -48.296  28.261  25.227  1.00  0.00    -0.029 C 
ATOM     46  C   UNL     1     -47.760  27.168  26.167  1.00  0.00    -0.049 C 
ATOM     47  C   UNL     1     -49.827  28.134  25.105  1.00  0.00    -0.049 C 
ATOM     48  H   UNL     1     -48.096  29.233  25.694  1.00  0.00     0.032 H 
ATOM     49  C   UNL     1     -48.195  25.764  25.754  1.00  0.00    -0.053 C 
ATOM     50  H   UNL     1     -48.135  27.365  27.180  1.00  0.00     0.027 H 
ATOM     51  H   UNL     1     -46.668  27.210  26.242  1.00  0.00     0.027 H 
ATOM     52  C   UNL     1     -50.285  26.731  24.706  1.00  0.00    -0.053 C 
ATOM     53  H   UNL     1     -50.279  28.386  26.073  1.00  0.00     0.027 H 
ATOM     54  H   UNL     1     -50.213  28.865  24.385  1.00  0.00     0.027 H 
ATOM     55  C   UNL     1     -49.713  25.663  25.633  1.00  0.00    -0.053 C 
ATOM     56  H   UNL     1     -47.841  25.039  26.497  1.00  0.00     0.027 H 
ATOM     57  H   UNL     1     -47.728  25.490  24.802  1.00  0.00     0.027 H 
ATOM     58  H   UNL     1     -49.986  26.519  23.673  1.00  0.00     0.027 H 
ATOM     59  H   UNL     1     -51.380  26.685  24.729  1.00  0.00     0.027 H 
ATOM     60  H   UNL     1     -49.989  24.668  25.265  1.00  0.00     0.027 H 
ATOM     61  H   UNL     1     -50.164  25.769  26.628  1.00  0.00     0.027 H 
ENDBRANCH  42  45
ENDBRANCH  40  42
ENDBRANCH  37  40
ENDBRANCH   5  37
TORSDOF 7
ENDMDL
MODEL 3
REMARK VINA RESULT:      -9.5      1.530      2.358
REMARK SMILES O=C(NCc1cn2cc(CNCC3CCCCC3)ccc2n1)c1cc(=O)n2ccccc2n1
REMARK SMILES IDX 5 1 6 2 7 3 8 4 9 5 19 6 20 7 21 8 22 9 4 14 3 17 1 18 2 19
REMARK SMILES IDX 23 21 24 22 33 23 25 24 32 26 26 27 27 28 31 29 28 30 30 31
REMARK SMILES IDX 29 33 10 37 11 40 12 42 13 45 14 46 18 47 15 49 17 52 16 55
REMARK H PARENT 6 10 8 11 19 12 20 13 4 15 4 16 3 20 24 25 31 32 28 34 30 35
REMARK H PARENT 29 36 10 38 10 39 11 41 12 43 12 44 13 48 14 50 14 51 18 53
REMARK H PARENT 18 54 15 56 15 57 17 58 17 59 16 60 16 61
REMARK Flexibility Score: inf
ROOT
ATOM      1  C   UNL     1     -48.000  35.745  27.082  1.00  0.00     0.079 A 
ATOM      2  C   UNL     1     -48.926  34.745  26.861  1.00  0.00     0.034 A 
ATOM      3  N   UNL     1     -48.296  33.818  26.070  1.00  0.00    -0.306 N 
ATOM      4  C   UNL     1     -48.781  32.620  25.554  1.00  0.00     0.015 A 
ATOM      5  C   UNL     1     -47.981  31.846  24.789  1.00  0.00    -0.017 A 
ATOM      6  C   UNL     1     -46.613  32.319  24.543  1.00  0.00    -0.053 A 
ATOM      7  C   UNL     1     -46.156  33.483  25.047  1.00  0.00    -0.018 A 
ATOM      8  C   UNL     1     -47.009  34.291  25.846  1.00  0.00     0.137 A 
ATOM      9  N   UNL     1     -46.810  35.447  26.441  1.00  0.00    -0.232 NA
ATOM     10  H   UNL     1     -49.949  34.619  27.186  1.00  0.00     0.084 H 
ATOM     11  H   UNL     1     -49.801  32.359  25.804  1.00  0.00     0.083 H 
ATOM     12  H   UNL     1     -45.959  31.701  23.935  1.00  0.00     0.063 H 
ATOM     13  H   UNL     1     -45.144  33.825  24.863  1.00  0.00     0.066 H 
ENDROOT
BRANCH   1  14
ATOM     14  C   UNL     1     -48.155  37.000  27.871  1.00  0.00     0.062 C 
ATOM     15  H   UNL     1     -48.147  36.779  28.943  1.00  0.00     0.056 H 
ATOM     16  H   UNL     1     -49.090  37.517  27.628  1.00  0.00     0.056 H 
BRANCH  14  17
ATOM     17  N   UNL     1     -47.045  37.867  27.580  1.00  0.00    -0.345 N 
ATOM     18  O   UNL     1     -48.306  39.715  27.086  1.00  0.00    -0.268 OA
ATOM     19  C   UNL     1     -47.215  39.191  27.277  1.00  0.00     0.270 C 
ATOM     20  H   UNL     1     -46.115  37.555  27.851  1.00  0.00     0.164 HD
BRANCH  19  21
ATOM     21  C   UNL     1     -45.912  39.950  27.219  1.00  0.00     0.136 A 
ATOM     22  C   UNL     1     -45.043  39.714  28.206  1.00  0.00     0.035 A 
ATOM     23  N   UNL     1     -45.693  40.819  26.176  1.00  0.00    -0.225 NA
ATOM     24  C   UNL     1     -43.761  40.429  28.190  1.00  0.00     0.258 A 
ATOM     25  H   UNL     1     -45.225  39.026  29.022  1.00  0.00     0.071 H 
ATOM     26  C   UNL     1     -44.559  41.448  26.164  1.00  0.00     0.140 A 
ATOM     27  O   UNL     1     -42.956  40.219  29.096  1.00  0.00    -0.269 OA
ATOM     28  N   UNL     1     -43.567  41.299  27.127  1.00  0.00    -0.268 N 
ATOM     29  C   UNL     1     -44.282  42.399  25.051  1.00  0.00    -0.019 A 
ATOM     30  C   UNL     1     -42.376  42.012  27.043  1.00  0.00     0.014 A 
ATOM     31  C   UNL     1     -43.121  43.063  25.012  1.00  0.00    -0.057 A 
ATOM     32  H   UNL     1     -45.050  42.520  24.297  1.00  0.00     0.066 H 
ATOM     33  C   UNL     1     -42.133  42.865  26.040  1.00  0.00    -0.045 A 
ATOM     34  H   UNL     1     -41.644  41.846  27.831  1.00  0.00     0.082 H 
ATOM     35  H   UNL     1     -42.901  43.759  24.209  1.00  0.00     0.062 H 
ATOM     36  H   UNL     1     -41.200  43.415  25.984  1.00  0.00     0.064 H 
ENDBRANCH  19  21
ENDBRANCH  14  17
ENDBRANCH   1  14
BRANCH   5  37
ATOM     37  C   UNL     1     -48.370  30.527  24.158  1.00  0.00     0.022 C 
ATOM     38  H   UNL     1     -49.462  30.431  24.199  1.00  0.00     0.048 H 
ATOM     39  H   UNL     1     -48.074  30.562  23.102  1.00  0.00     0.048 H 
BRANCH  37  40
ATOM     40  N   UNL     1     -47.759  29.369  24.809  1.00  0.00    -0.312 NA
ATOM     41  H   UNL     1     -47.443  29.640  25.739  1.00  0.00     0.123 HD
BRANCH  40  42
ATOM     42  C   UNL     1     -48.663  28.219  24.909  1.00  0.00    -0.002 C 
ATOM     43  H   UNL     1     -48.211  27.413  24.321  1.00  0.00     0.043 H 
ATOM     44  H   UNL     1     -49.602  28.463  24.394  1.00  0.00     0.043 H 
BRANCH  42  45
ATOM     45  C   UNL     1     -48.974  27.718  26.340  1.00  0.00    -0.029 C 
ATOM     46  C   UNL     1     -47.721  27.406  27.175  1.00  0.00    -0.049 C 
ATOM     47  C   UNL     1     -49.889  26.479  26.295  1.00  0.00    -0.049 C 
ATOM     48  H   UNL     1     -49.535  28.507  26.858  1.00  0.00     0.032 H 
ATOM     49  C   UNL     1     -46.984  26.157  26.696  1.00  0.00    -0.053 C 
ATOM     50  H   UNL     1     -48.028  27.249  28.219  1.00  0.00     0.027 H 
ATOM     51  H   UNL     1     -47.033  28.257  27.192  1.00  0.00     0.027 H 
ATOM     52  C   UNL     1     -49.168  25.215  25.831  1.00  0.00    -0.053 C 
ATOM     53  H   UNL     1     -50.291  26.302  27.301  1.00  0.00     0.027 H 
ATOM     54  H   UNL     1     -50.753  26.668  25.647  1.00  0.00     0.027 H 
ATOM     55  C   UNL     1     -47.911  24.945  26.653  1.00  0.00    -0.053 C 
ATOM     56  H   UNL     1     -46.145  25.947  27.369  1.00  0.00     0.027 H 
ATOM     57  H   UNL     1     -46.555  26.331  25.704  1.00  0.00     0.027 H 
ATOM     58  H   UNL     1     -48.902  25.302  24.771  1.00  0.00     0.027 H 
ATOM     59  H   UNL     1     -49.846  24.358  25.911  1.00  0.00     0.027 H 
ATOM     60  H   UNL     1     -47.375  24.085  26.236  1.00  0.00     0.027 H 
ATOM     61  H   UNL     1     -48.200  24.673  27.676  1.00  0.00     0.027 H 
ENDBRANCH  42  45
ENDBRANCH  40  42
ENDBRANCH  37  40
ENDBRANCH   5  37
TORSDOF 7
ENDMDL
MODEL 4
REMARK VINA RESULT:      -9.5      2.352      3.269
REMARK SMILES O=C(NCc1cn2cc(CNCC3CCCCC3)ccc2n1)c1cc(=O)n2ccccc2n1
REMARK SMILES IDX 5 1 6 2 7 3 8 4 9 5 19 6 20 7 21 8 22 9 4 14 3 17 1 18 2 19
REMARK SMILES IDX 23 21 24 22 33 23 25 24 32 26 26 27 27 28 31 29 28 30 30 31
REMARK SMILES IDX 29 33 10 37 11 40 12 42 13 45 14 46 18 47 15 49 17 52 16 55
REMARK H PARENT 6 10 8 11 19 12 20 13 4 15 4 16 3 20 24 25 31 32 28 34 30 35
REMARK H PARENT 29 36 10 38 10 39 11 41 12 43 12 44 13 48 14 50 14 51 18 53
REMARK H PARENT 18 54 15 56 15 57 17 58 17 59 16 60 16 61
REMARK Flexibility Score: inf
ROOT
ATOM      1  C   UNL     1     -47.467  34.985  27.417  1.00  0.00     0.079 A 
ATOM      2  C   UNL     1     -46.387  34.516  26.697  1.00  0.00     0.034 A 
ATOM      3  N   UNL     1     -46.873  33.513  25.899  1.00  0.00    -0.306 N 
ATOM      4  C   UNL     1     -46.203  32.707  24.983  1.00  0.00     0.015 A 
ATOM      5  C   UNL     1     -46.882  31.767  24.292  1.00  0.00    -0.017 A 
ATOM      6  C   UNL     1     -48.323  31.647  24.547  1.00  0.00    -0.053 A 
ATOM      7  C   UNL     1     -48.961  32.432  25.439  1.00  0.00    -0.018 A 
ATOM      8  C   UNL     1     -48.233  33.414  26.164  1.00  0.00     0.137 A 
ATOM      9  N   UNL     1     -48.612  34.285  27.074  1.00  0.00    -0.232 NA
ATOM     10  H   UNL     1     -45.344  34.801  26.687  1.00  0.00     0.084 H 
ATOM     11  H   UNL     1     -45.142  32.885  24.863  1.00  0.00     0.083 H 
ATOM     12  H   UNL     1     -48.882  30.900  23.991  1.00  0.00     0.063 H 
ATOM     13  H   UNL     1     -50.026  32.339  25.621  1.00  0.00     0.066 H 
ENDROOT
BRANCH   1  14
ATOM     14  C   UNL     1     -47.507  36.069  28.438  1.00  0.00     0.062 C 
ATOM     15  H   UNL     1     -47.263  35.670  29.428  1.00  0.00     0.056 H 
ATOM     16  H   UNL     1     -48.494  36.543  28.487  1.00  0.00     0.056 H 
BRANCH  14  17
ATOM     17  N   UNL     1     -46.523  37.061  28.096  1.00  0.00    -0.345 N 
ATOM     18  O   UNL     1     -48.008  38.778  27.788  1.00  0.00    -0.268 OA
ATOM     19  C   UNL     1     -46.856  38.369  27.867  1.00  0.00     0.270 C 
ATOM     20  H   UNL     1     -45.546  36.842  28.277  1.00  0.00     0.164 HD
BRANCH  19  21
ATOM     21  C   UNL     1     -45.649  39.265  27.736  1.00  0.00     0.136 A 
ATOM     22  C   UNL     1     -45.545  39.960  26.601  1.00  0.00     0.035 A 
ATOM     23  N   UNL     1     -44.746  39.319  28.772  1.00  0.00    -0.225 NA
ATOM     24  C   UNL     1     -44.387  40.846  26.431  1.00  0.00     0.258 A 
ATOM     25  H   UNL     1     -46.263  39.911  25.793  1.00  0.00     0.071 H 
ATOM     26  C   UNL     1     -43.724  40.103  28.620  1.00  0.00     0.140 A 
ATOM     27  O   UNL     1     -44.282  41.488  25.388  1.00  0.00    -0.269 OA
ATOM     28  N   UNL     1     -43.492  40.881  27.491  1.00  0.00    -0.268 N 
ATOM     29  C   UNL     1     -42.721  40.190  29.719  1.00  0.00    -0.019 A 
ATOM     30  C   UNL     1     -42.370  41.698  27.404  1.00  0.00     0.014 A 
ATOM     31  C   UNL     1     -41.657  40.991  29.589  1.00  0.00    -0.057 A 
ATOM     32  H   UNL     1     -42.896  39.589  30.601  1.00  0.00     0.066 H 
ATOM     33  C   UNL     1     -41.472  41.772  28.395  1.00  0.00    -0.045 A 
ATOM     34  H   UNL     1     -42.251  42.279  26.492  1.00  0.00     0.082 H 
ATOM     35  H   UNL     1     -40.916  41.069  30.379  1.00  0.00     0.062 H 
ATOM     36  H   UNL     1     -40.600  42.413  28.317  1.00  0.00     0.064 H 
ENDBRANCH  19  21
ENDBRANCH  14  17
ENDBRANCH   1  14
BRANCH   5  37
ATOM     37  C   UNL     1     -46.290  30.820  23.272  1.00  0.00     0.022 C 
ATOM     38  H   UNL     1     -45.941  31.407  22.414  1.00  0.00     0.048 H 
ATOM     39  H   UNL     1     -45.416  30.340  23.730  1.00  0.00     0.048 H 
BRANCH  37  40
ATOM     40  N   UNL     1     -47.232  29.801  22.808  1.00  0.00    -0.312 NA
ATOM     41  H   UNL     1     -47.976  29.701  23.497  1.00  0.00     0.123 HD
BRANCH  40  42
ATOM     42  C   UNL     1     -47.808  30.104  21.496  1.00  0.00    -0.002 C 
ATOM     43  H   UNL     1     -46.986  30.064  20.774  1.00  0.00     0.043 H 
ATOM     44  H   UNL     1     -48.148  31.149  21.490  1.00  0.00     0.043 H 
BRANCH  42  45
ATOM     45  C   UNL     1     -48.964  29.185  21.030  1.00  0.00    -0.029 C 
ATOM     46  C   UNL     1     -49.633  29.642  19.722  1.00  0.00    -0.049 C 
ATOM     47  C   UNL     1     -50.028  29.047  22.136  1.00  0.00    -0.049 C 
ATOM     48  H   UNL     1     -48.550  28.183  20.862  1.00  0.00     0.032 H 
ATOM     49  C   UNL     1     -50.462  30.914  19.893  1.00  0.00    -0.053 C 
ATOM     50  H   UNL     1     -50.296  28.840  19.371  1.00  0.00     0.027 H 
ATOM     51  H   UNL     1     -48.894  29.787  18.928  1.00  0.00     0.027 H 
ATOM     52  C   UNL     1     -50.878  30.304  22.314  1.00  0.00    -0.053 C 
ATOM     53  H   UNL     1     -50.692  28.210  21.882  1.00  0.00     0.027 H 
ATOM     54  H   UNL     1     -49.553  28.786  23.089  1.00  0.00     0.027 H 
ATOM     55  C   UNL     1     -51.504  30.756  20.997  1.00  0.00    -0.053 C 
ATOM     56  H   UNL     1     -50.967  31.150  18.949  1.00  0.00     0.027 H 
ATOM     57  H   UNL     1     -49.808  31.762  20.120  1.00  0.00     0.027 H 
ATOM     58  H   UNL     1     -50.267  31.114  22.728  1.00  0.00     0.027 H 
ATOM     59  H   UNL     1     -51.671  30.107  23.045  1.00  0.00     0.027 H 
ATOM     60  H   UNL     1     -52.031  31.706  21.146  1.00  0.00     0.027 H 
ATOM     61  H   UNL     1     -52.256  30.022  20.684  1.00  0.00     0.027 H 
ENDBRANCH  42  45
ENDBRANCH  40  42
ENDBRANCH  37  40
ENDBRANCH   5  37
TORSDOF 7
ENDMDL
MODEL 5
REMARK VINA RESULT:      -9.5      3.153     11.364
REMARK SMILES O=C(NCc1cn2cc(CNCC3CCCCC3)ccc2n1)c1cc(=O)n2ccccc2n1
REMARK SMILES IDX 5 1 6 2 7 3 8 4 9 5 19 6 20 7 21 8 22 9 4 14 3 17 1 18 2 19
REMARK SMILES IDX 23 21 24 22 33 23 25 24 32 26 26 27 27 28 31 29 28 30 30 31
REMARK SMILES IDX 29 33 10 37 11 40 12 42 13 45 14 46 18 47 15 49 17 52 16 55
REMARK H PARENT 6 10 8 11 19 12 20 13 4 15 4 16 3 20 24 25 31 32 28 34 30 35
REMARK H PARENT 29 36 10 38 10 39 11 41 12 43 12 44 13 48 14 50 14 51 18 53
REMARK H PARENT 18 54 15 56 15 57 17 58 17 59 16 60 16 61
REMARK Flexibility Score: inf
ROOT
ATOM      1  C   UNL     1     -46.650  33.443  25.371  1.00  0.00     0.079 A 
ATOM      2  C   UNL     1     -45.640  33.915  26.186  1.00  0.00     0.034 A 
ATOM      3  N   UNL     1     -46.234  34.804  27.044  1.00  0.00    -0.306 N 
ATOM      4  C   UNL     1     -45.667  35.564  28.063  1.00  0.00     0.015 A 
ATOM      5  C   UNL     1     -46.445  36.387  28.800  1.00  0.00    -0.017 A 
ATOM      6  C   UNL     1     -47.877  36.430  28.482  1.00  0.00    -0.053 A 
ATOM      7  C   UNL     1     -48.415  35.690  27.491  1.00  0.00    -0.018 A 
ATOM      8  C   UNL     1     -47.584  34.833  26.720  1.00  0.00     0.137 A 
ATOM      9  N   UNL     1     -47.857  34.027  25.716  1.00  0.00    -0.232 NA
ATOM     10  H   UNL     1     -44.581  33.703  26.224  1.00  0.00     0.084 H 
ATOM     11  H   UNL     1     -44.603  35.450  28.222  1.00  0.00     0.083 H 
ATOM     12  H   UNL     1     -48.514  37.082  29.073  1.00  0.00     0.063 H 
ATOM     13  H   UNL     1     -49.474  35.726  27.263  1.00  0.00     0.066 H 
ENDROOT
BRANCH   1  14
ATOM     14  C   UNL     1     -46.563  32.458  24.256  1.00  0.00     0.062 C 
ATOM     15  H   UNL     1     -45.518  32.213  24.045  1.00  0.00     0.056 H 
ATOM     16  H   UNL     1     -47.023  32.845  23.340  1.00  0.00     0.056 H 
BRANCH  14  17
ATOM     17  N   UNL     1     -47.240  31.252  24.652  1.00  0.00    -0.345 N 
ATOM     18  O   UNL     1     -48.500  31.047  22.750  1.00  0.00    -0.268 OA
ATOM     19  C   UNL     1     -48.111  30.599  23.822  1.00  0.00     0.270 C 
ATOM     20  H   UNL     1     -46.874  30.744  25.455  1.00  0.00     0.164 HD
BRANCH  19  21
ATOM     21  C   UNL     1     -48.534  29.254  24.360  1.00  0.00     0.136 A 
ATOM     22  C   UNL     1     -49.845  29.000  24.360  1.00  0.00     0.035 A 
ATOM     23  N   UNL     1     -47.567  28.383  24.806  1.00  0.00    -0.225 NA
ATOM     24  C   UNL     1     -50.302  27.702  24.874  1.00  0.00     0.258 A 
ATOM     25  H   UNL     1     -50.596  29.693  24.005  1.00  0.00     0.071 H 
ATOM     26  C   UNL     1     -47.974  27.237  25.258  1.00  0.00     0.140 A 
ATOM     27  O   UNL     1     -51.507  27.461  24.880  1.00  0.00    -0.269 OA
ATOM     28  N   UNL     1     -49.306  26.843  25.317  1.00  0.00    -0.268 N 
ATOM     29  C   UNL     1     -46.959  26.264  25.752  1.00  0.00    -0.019 A 
ATOM     30  C   UNL     1     -49.662  25.595  25.817  1.00  0.00     0.014 A 
ATOM     31  C   UNL     1     -47.349  25.074  26.224  1.00  0.00    -0.057 A 
ATOM     32  H   UNL     1     -45.920  26.563  25.708  1.00  0.00     0.066 H 
ATOM     33  C   UNL     1     -48.744  24.725  26.259  1.00  0.00    -0.045 A 
ATOM     34  H   UNL     1     -50.722  25.353  25.834  1.00  0.00     0.082 H 
ATOM     35  H   UNL     1     -46.625  24.351  26.587  1.00  0.00     0.062 H 
ATOM     36  H   UNL     1     -49.033  23.753  26.646  1.00  0.00     0.064 H 
ENDBRANCH  19  21
ENDBRANCH  14  17
ENDBRANCH   1  14
BRANCH   5  37
ATOM     37  C   UNL     1     -45.970  37.273  29.930  1.00  0.00     0.022 C 
ATOM     38  H   UNL     1     -46.764  37.993  30.163  1.00  0.00     0.048 H 
ATOM     39  H   UNL     1     -45.821  36.638  30.812  1.00  0.00     0.048 H 
BRANCH  37  40
ATOM     40  N   UNL     1     -44.737  37.997  29.623  1.00  0.00    -0.312 NA
ATOM     41  H   UNL     1     -44.116  37.384  29.096  1.00  0.00     0.123 HD
BRANCH  40  42
ATOM     42  C   UNL     1     -44.966  39.235  28.873  1.00  0.00    -0.002 C 
ATOM     43  H   UNL     1     -44.290  39.987  29.293  1.00  0.00     0.043 H 
ATOM     44  H   UNL     1     -45.978  39.600  29.094  1.00  0.00     0.043 H 
BRANCH  42  45
ATOM     45  C   UNL     1     -44.773  39.150  27.339  1.00  0.00    -0.029 C 
ATOM     46  C   UNL     1     -43.883  40.263  26.762  1.00  0.00    -0.049 C 
ATOM     47  C   UNL     1     -46.136  39.150  26.619  1.00  0.00    -0.049 C 
ATOM     48  H   UNL     1     -44.296  38.188  27.113  1.00  0.00     0.032 H 
ATOM     49  C   UNL     1     -44.555  41.634  26.790  1.00  0.00    -0.053 C 
ATOM     50  H   UNL     1     -43.645  40.014  25.719  1.00  0.00     0.027 H 
ATOM     51  H   UNL     1     -42.921  40.312  27.283  1.00  0.00     0.027 H 
ATOM     52  C   UNL     1     -46.819  40.516  26.624  1.00  0.00    -0.053 C 
ATOM     53  H   UNL     1     -45.982  38.840  25.577  1.00  0.00     0.027 H 
ATOM     54  H   UNL     1     -46.803  38.404  27.068  1.00  0.00     0.027 H 
ATOM     55  C   UNL     1     -45.904  41.609  26.078  1.00  0.00    -0.053 C 
ATOM     56  H   UNL     1     -43.903  42.370  26.306  1.00  0.00     0.027 H 
ATOM     57  H   UNL     1     -44.688  41.967  27.825  1.00  0.00     0.027 H 
ATOM     58  H   UNL     1     -47.133  40.775  27.641  1.00  0.00     0.027 H 
ATOM     59  H   UNL     1     -47.731  40.470  26.019  1.00  0.00     0.027 H 
ATOM     60  H   UNL     1     -46.393  42.585  26.179  1.00  0.00     0.027 H 
ATOM     61  H   UNL     1     -45.745  41.444  25.005  1.00  0.00     0.027 H 
ENDBRANCH  42  45
ENDBRANCH  40  42
ENDBRANCH  37  40
ENDBRANCH   5  37
TORSDOF 7
ENDMDL
MODEL 6
REMARK VINA RESULT:      -9.3      2.208      3.104
REMARK SMILES O=C(NCc1cn2cc(CNCC3CCCCC3)ccc2n1)c1cc(=O)n2ccccc2n1
REMARK SMILES IDX 5 1 6 2 7 3 8 4 9 5 19 6 20 7 21 8 22 9 4 14 3 17 1 18 2 19
REMARK SMILES IDX 23 21 24 22 33 23 25 24 32 26 26 27 27 28 31 29 28 30 30 31
REMARK SMILES IDX 29 33 10 37 11 40 12 42 13 45 14 46 18 47 15 49 17 52 16 55
REMARK H PARENT 6 10 8 11 19 12 20 13 4 15 4 16 3 20 24 25 31 32 28 34 30 35
REMARK H PARENT 29 36 10 38 10 39 11 41 12 43 12 44 13 48 14 50 14 51 18 53
REMARK H PARENT 18 54 15 56 15 57 17 58 17 59 16 60 16 61
REMARK Flexibility Score: inf
ROOT
ATOM      1  C   UNL     1     -47.460  36.142  27.429  1.00  0.00     0.079 A 
ATOM      2  C   UNL     1     -46.433  35.640  26.655  1.00  0.00     0.034 A 
ATOM      3  N   UNL     1     -46.916  34.487  26.091  1.00  0.00    -0.306 N 
ATOM      4  C   UNL     1     -46.288  33.592  25.231  1.00  0.00     0.015 A 
ATOM      5  C   UNL     1     -46.955  32.505  24.787  1.00  0.00    -0.017 A 
ATOM      6  C   UNL     1     -48.339  32.326  25.244  1.00  0.00    -0.053 A 
ATOM      7  C   UNL     1     -48.936  33.199  26.080  1.00  0.00    -0.018 A 
ATOM      8  C   UNL     1     -48.221  34.336  26.544  1.00  0.00     0.137 A 
ATOM      9  N   UNL     1     -48.568  35.315  27.351  1.00  0.00    -0.232 NA
ATOM     10  H   UNL     1     -45.430  35.993  26.465  1.00  0.00     0.084 H 
ATOM     11  H   UNL     1     -45.269  33.823  24.946  1.00  0.00     0.083 H 
ATOM     12  H   UNL     1     -48.888  31.459  24.888  1.00  0.00     0.063 H 
ATOM     13  H   UNL     1     -49.959  33.061  26.412  1.00  0.00     0.066 H 
ENDROOT
BRANCH   1  14
ATOM     14  C   UNL     1     -47.479  37.374  28.268  1.00  0.00     0.062 C 
ATOM     15  H   UNL     1     -47.308  37.122  29.319  1.00  0.00     0.056 H 
ATOM     16  H   UNL     1     -48.435  37.903  28.187  1.00  0.00     0.056 H 
BRANCH  14  17
ATOM     17  N   UNL     1     -46.419  38.243  27.833  1.00  0.00    -0.345 N 
ATOM     18  O   UNL     1     -47.770  39.765  26.782  1.00  0.00    -0.268 OA
ATOM     19  C   UNL     1     -46.664  39.420  27.179  1.00  0.00     0.270 C 
ATOM     20  H   UNL     1     -45.496  38.107  28.240  1.00  0.00     0.164 HD
BRANCH  19  21
ATOM     21  C   UNL     1     -45.424  40.265  27.011  1.00  0.00     0.136 A 
ATOM     22  C   UNL     1     -44.498  40.156  27.967  1.00  0.00     0.035 A 
ATOM     23  N   UNL     1     -45.317  41.077  25.906  1.00  0.00    -0.225 NA
ATOM     24  C   UNL     1     -43.274  40.959  27.845  1.00  0.00     0.258 A 
ATOM     25  H   UNL     1     -44.592  39.512  28.832  1.00  0.00     0.071 H 
ATOM     26  C   UNL     1     -44.235  41.784  25.801  1.00  0.00     0.140 A 
ATOM     27  O   UNL     1     -42.417  40.867  28.722  1.00  0.00    -0.269 OA
ATOM     28  N   UNL     1     -43.193  41.769  26.721  1.00  0.00    -0.268 N 
ATOM     29  C   UNL     1     -44.079  42.678  24.618  1.00  0.00    -0.019 A 
ATOM     30  C   UNL     1     -42.063  42.558  26.536  1.00  0.00     0.014 A 
ATOM     31  C   UNL     1     -42.973  43.419  24.482  1.00  0.00    -0.057 A 
ATOM     32  H   UNL     1     -44.885  42.694  23.896  1.00  0.00     0.066 H 
ATOM     33  C   UNL     1     -41.929  43.360  25.471  1.00  0.00    -0.045 A 
ATOM     34  H   UNL     1     -41.287  42.497  27.296  1.00  0.00     0.082 H 
ATOM     35  H   UNL     1     -42.841  44.076  23.628  1.00  0.00     0.062 H 
ATOM     36  H   UNL     1     -41.043  43.971  25.336  1.00  0.00     0.064 H 
ENDBRANCH  19  21
ENDBRANCH  14  17
ENDBRANCH   1  14
BRANCH   5  37
ATOM     37  C   UNL     1     -46.403  31.448  23.856  1.00  0.00     0.022 C 
ATOM     38  H   UNL     1     -46.705  31.695  22.832  1.00  0.00     0.048 H 
ATOM     39  H   UNL     1     -45.308  31.498  23.907  1.00  0.00     0.048 H 
BRANCH  37  40
ATOM     40  N   UNL     1     -46.855  30.095  24.180  1.00  0.00    -0.312 NA
ATOM     41  H   UNL     1     -47.503  30.141  24.965  1.00  0.00     0.123 HD
BRANCH  40  42
ATOM     42  C   UNL     1     -47.493  29.415  23.049  1.00  0.00    -0.002 C 
ATOM     43  H   UNL     1     -47.252  28.351  23.146  1.00  0.00     0.043 H 
ATOM     44  H   UNL     1     -47.005  29.739  22.120  1.00  0.00     0.043 H 
BRANCH  42  45
ATOM     45  C   UNL     1     -49.024  29.599  22.917  1.00  0.00    -0.029 C 
ATOM     46  C   UNL     1     -49.807  28.276  22.868  1.00  0.00    -0.049 C 
ATOM     47  C   UNL     1     -49.365  30.450  21.679  1.00  0.00    -0.049 C 
ATOM     48  H   UNL     1     -49.372  30.162  23.793  1.00  0.00     0.032 H 
ATOM     49  C   UNL     1     -49.598  27.512  21.562  1.00  0.00    -0.053 C 
ATOM     50  H   UNL     1     -50.878  28.501  22.971  1.00  0.00     0.027 H 
ATOM     51  H   UNL     1     -49.555  27.634  23.717  1.00  0.00     0.027 H 
ATOM     52  C   UNL     1     -49.175  29.699  20.362  1.00  0.00    -0.053 C 
ATOM     53  H   UNL     1     -50.412  30.771  21.750  1.00  0.00     0.027 H 
ATOM     54  H   UNL     1     -48.762  31.366  21.669  1.00  0.00     0.027 H 
ATOM     55  C   UNL     1     -49.934  28.375  20.350  1.00  0.00    -0.053 C 
ATOM     56  H   UNL     1     -50.232  26.617  21.557  1.00  0.00     0.027 H 
ATOM     57  H   UNL     1     -48.562  27.163  21.493  1.00  0.00     0.027 H 
ATOM     58  H   UNL     1     -48.109  29.512  20.187  1.00  0.00     0.027 H 
ATOM     59  H   UNL     1     -49.522  30.325  19.532  1.00  0.00     0.027 H 
ATOM     60  H   UNL     1     -49.704  27.826  19.430  1.00  0.00     0.027 H 
ATOM     61  H   UNL     1     -51.013  28.578  20.337  1.00  0.00     0.027 H 
ENDBRANCH  42  45
ENDBRANCH  40  42
ENDBRANCH  37  40
ENDBRANCH   5  37
TORSDOF 7
ENDMDL
MODEL 7
REMARK VINA RESULT:      -9.0      2.199      3.225
REMARK SMILES O=C(NCc1cn2cc(CNCC3CCCCC3)ccc2n1)c1cc(=O)n2ccccc2n1
REMARK SMILES IDX 5 1 6 2 7 3 8 4 9 5 19 6 20 7 21 8 22 9 4 14 3 17 1 18 2 19
REMARK SMILES IDX 23 21 24 22 33 23 25 24 32 26 26 27 27 28 31 29 28 30 30 31
REMARK SMILES IDX 29 33 10 37 11 40 12 42 13 45 14 46 18 47 15 49 17 52 16 55
REMARK H PARENT 6 10 8 11 19 12 20 13 4 15 4 16 3 20 24 25 31 32 28 34 30 35
REMARK H PARENT 29 36 10 38 10 39 11 41 12 43 12 44 13 48 14 50 14 51 18 53
REMARK H PARENT 18 54 15 56 15 57 17 58 17 59 16 60 16 61
REMARK Flexibility Score: inf
ROOT
ATOM      1  C   UNL     1     -46.188  36.370  28.544  1.00  0.00     0.079 A 
ATOM      2  C   UNL     1     -45.516  35.339  27.918  1.00  0.00     0.034 A 
ATOM      3  N   UNL     1     -46.468  34.634  27.227  1.00  0.00    -0.306 N 
ATOM      4  C   UNL     1     -46.327  33.500  26.433  1.00  0.00     0.015 A 
ATOM      5  C   UNL     1     -47.410  32.960  25.835  1.00  0.00    -0.017 A 
ATOM      6  C   UNL     1     -48.705  33.616  26.056  1.00  0.00    -0.053 A 
ATOM      7  C   UNL     1     -48.830  34.713  26.829  1.00  0.00    -0.018 A 
ATOM      8  C   UNL     1     -47.682  35.268  27.458  1.00  0.00     0.137 A 
ATOM      9  N   UNL     1     -47.540  36.311  28.248  1.00  0.00    -0.232 NA
ATOM     10  H   UNL     1     -44.474  35.053  27.909  1.00  0.00     0.084 H 
ATOM     11  H   UNL     1     -45.326  33.101  26.326  1.00  0.00     0.083 H 
ATOM     12  H   UNL     1     -49.582  33.195  25.572  1.00  0.00     0.063 H 
ATOM     13  H   UNL     1     -49.788  35.194  26.987  1.00  0.00     0.066 H 
ENDROOT
BRANCH   1  14
ATOM     14  C   UNL     1     -45.642  37.436  29.431  1.00  0.00     0.062 C 
ATOM     15  H   UNL     1     -44.935  37.008  30.149  1.00  0.00     0.056 H 
ATOM     16  H   UNL     1     -46.436  37.946  29.986  1.00  0.00     0.056 H 
BRANCH  14  17
ATOM     17  N   UNL     1     -44.940  38.394  28.620  1.00  0.00    -0.345 N 
ATOM     18  O   UNL     1     -46.733  39.778  28.276  1.00  0.00    -0.268 OA
ATOM     19  C   UNL     1     -45.536  39.539  28.165  1.00  0.00     0.270 C 
ATOM     20  H   UNL     1     -43.923  38.345  28.601  1.00  0.00     0.164 HD
BRANCH  19  21
ATOM     21  C   UNL     1     -44.558  40.491  27.521  1.00  0.00     0.136 A 
ATOM     22  C   UNL     1     -43.417  40.706  28.181  1.00  0.00     0.035 A 
ATOM     23  N   UNL     1     -44.886  41.068  26.316  1.00  0.00    -0.225 NA
ATOM     24  C   UNL     1     -42.435  41.624  27.592  1.00  0.00     0.258 A 
ATOM     25  H   UNL     1     -43.169  40.245  29.128  1.00  0.00     0.071 H 
ATOM     26  C   UNL     1     -44.016  41.878  25.798  1.00  0.00     0.140 A 
ATOM     27  O   UNL     1     -41.383  41.830  28.194  1.00  0.00    -0.269 OA
ATOM     28  N   UNL     1     -42.791  42.192  26.376  1.00  0.00    -0.268 N 
ATOM     29  C   UNL     1     -44.332  42.525  24.493  1.00  0.00    -0.019 A 
ATOM     30  C   UNL     1     -41.912  43.073  25.756  1.00  0.00     0.014 A 
ATOM     31  C   UNL     1     -43.454  43.365  23.934  1.00  0.00    -0.057 A 
ATOM     32  H   UNL     1     -45.283  42.284  24.035  1.00  0.00     0.066 H 
ATOM     33  C   UNL     1     -42.202  43.651  24.583  1.00  0.00    -0.045 A 
ATOM     34  H   UNL     1     -40.972  43.273  26.265  1.00  0.00     0.082 H 
ATOM     35  H   UNL     1     -43.666  43.846  22.984  1.00  0.00     0.062 H 
ATOM     36  H   UNL     1     -41.508  44.336  24.108  1.00  0.00     0.064 H 
ENDBRANCH  19  21
ENDBRANCH  14  17
ENDBRANCH   1  14
BRANCH   5  37
ATOM     37  C   UNL     1     -47.411  31.732  24.951  1.00  0.00     0.022 C 
ATOM     38  H   UNL     1     -47.029  32.015  23.963  1.00  0.00     0.048 H 
ATOM     39  H   UNL     1     -46.713  31.007  25.387  1.00  0.00     0.048 H 
BRANCH  37  40
ATOM     40  N   UNL     1     -48.733  31.124  24.801  1.00  0.00    -0.312 NA
ATOM     41  H   UNL     1     -49.037  31.226  23.834  1.00  0.00     0.123 HD
BRANCH  40  42
ATOM     42  C   UNL     1     -48.765  29.711  25.186  1.00  0.00    -0.002 C 
ATOM     43  H   UNL     1     -49.816  29.454  25.354  1.00  0.00     0.043 H 
ATOM     44  H   UNL     1     -48.279  29.599  26.164  1.00  0.00     0.043 H 
BRANCH  42  45
ATOM     45  C   UNL     1     -48.134  28.716  24.181  1.00  0.00    -0.029 C 
ATOM     46  C   UNL     1     -48.540  28.967  22.719  1.00  0.00    -0.049 C 
ATOM     47  C   UNL     1     -48.470  27.263  24.571  1.00  0.00    -0.049 C 
ATOM     48  H   UNL     1     -47.043  28.817  24.248  1.00  0.00     0.032 H 
ATOM     49  C   UNL     1     -49.999  28.614  22.440  1.00  0.00    -0.053 C 
ATOM     50  H   UNL     1     -47.903  28.351  22.070  1.00  0.00     0.027 H 
ATOM     51  H   UNL     1     -48.348  30.004  22.427  1.00  0.00     0.027 H 
ATOM     52  C   UNL     1     -49.923  26.885  24.286  1.00  0.00    -0.053 C 
ATOM     53  H   UNL     1     -47.816  26.587  24.004  1.00  0.00     0.027 H 
ATOM     54  H   UNL     1     -48.246  27.092  25.630  1.00  0.00     0.027 H 
ATOM     55  C   UNL     1     -50.311  27.174  22.839  1.00  0.00    -0.053 C 
ATOM     56  H   UNL     1     -50.209  28.748  21.372  1.00  0.00     0.027 H 
ATOM     57  H   UNL     1     -50.662  29.299  22.979  1.00  0.00     0.027 H 
ATOM     58  H   UNL     1     -50.591  27.430  24.962  1.00  0.00     0.027 H 
ATOM     59  H   UNL     1     -50.070  25.819  24.497  1.00  0.00     0.027 H 
ATOM     60  H   UNL     1     -51.379  26.974  22.697  1.00  0.00     0.027 H 
ATOM     61  H   UNL     1     -49.769  26.488  22.176  1.00  0.00     0.027 H 
ENDBRANCH  42  45
ENDBRANCH  40  42
ENDBRANCH  37  40
ENDBRANCH   5  37
TORSDOF 7
ENDMDL
