MODEL 1
REMARK VINA RESULT:     -11.1      0.000      0.000
REMARK SMILES Nc1ncnc2c1c(Cl)cn2-c1cccc(COc2ccc3ccc(N4CCCC4)nc3c2)c1
REMARK SMILES IDX 17 1 16 4 12 5 13 6 34 7 14 8 15 11 11 14 2 15 3 16 7 17
REMARK SMILES IDX 4 18 6 19 8 20 5 21 9 23 10 24 1 26 18 29 19 30 20 31 33 32
REMARK SMILES IDX 21 33 32 35 22 37 31 39 23 40 25 41 24 42 26 45 27 46 30 47
REMARK SMILES IDX 28 48 29 51
REMARK H PARENT 17 2 17 3 13 9 34 10 14 12 15 13 4 22 10 25 1 27 1 28 20 34
REMARK H PARENT 33 36 21 38 23 43 24 44 27 49 27 50 30 52 30 53 28 54 28 55
REMARK H PARENT 29 56 29 57
REMARK Flexibility Score: inf
ROOT
ATOM      1  C   UNL     1     -48.474  36.070  27.253  1.00  0.00     0.113 C 
ATOM      2  H   UNL     1     -48.482  36.300  26.182  1.00  0.00     0.076 H 
ATOM      3  H   UNL     1     -49.404  36.489  27.655  1.00  0.00     0.076 H 
ENDROOT
BRANCH   1   4
ATOM      4  C   UNL     1     -47.328  36.736  27.985  1.00  0.00    -0.009 A 
ATOM      5  C   UNL     1     -45.597  38.467  28.086  1.00  0.00     0.047 A 
ATOM      6  C   UNL     1     -45.189  37.947  29.325  1.00  0.00    -0.038 A 
ATOM      7  C   UNL     1     -46.668  37.846  27.425  1.00  0.00    -0.031 A 
ATOM      8  C   UNL     1     -45.827  36.834  29.879  1.00  0.00    -0.060 A 
ATOM      9  H   UNL     1     -44.355  38.363  29.884  1.00  0.00     0.064 H 
ATOM     10  H   UNL     1     -47.046  38.222  26.480  1.00  0.00     0.065 H 
ATOM     11  C   UNL     1     -46.888  36.228  29.211  1.00  0.00    -0.055 A 
ATOM     12  H   UNL     1     -45.493  36.437  30.835  1.00  0.00     0.062 H 
ATOM     13  H   UNL     1     -47.371  35.362  29.658  1.00  0.00     0.063 H 
BRANCH   5  14
ATOM     14  N   UNL     1     -44.935  39.611  27.525  1.00  0.00    -0.300 N 
ATOM     15  C   UNL     1     -42.444  42.179  27.514  1.00  0.00     0.137 A 
ATOM     16  N   UNL     1     -41.812  41.971  28.682  1.00  0.00    -0.219 NA
ATOM     17  C   UNL     1     -43.520  41.350  27.160  1.00  0.00     0.080 A 
ATOM     18  C   UNL     1     -42.231  40.962  29.460  1.00  0.00     0.120 A 
ATOM     19  C   UNL     1     -43.853  40.328  28.048  1.00  0.00     0.151 A 
ATOM     20  C   UNL     1     -44.428  41.264  26.083  1.00  0.00     0.072 A 
ATOM     21  N   UNL     1     -43.235  40.108  29.227  1.00  0.00    -0.218 NA
ATOM     22  H   UNL     1     -41.694  40.825  30.393  1.00  0.00     0.106 H 
ATOM     23  Cl  UNL     1     -44.474  42.283  24.721  1.00  0.00    -0.082 Cl
ATOM     24  C   UNL     1     -45.280  40.215  26.325  1.00  0.00     0.030 A 
ATOM     25  H   UNL     1     -46.082  39.839  25.708  1.00  0.00     0.084 H 
BRANCH  15  26
ATOM     26  N   UNL     1     -41.985  43.230  26.736  1.00  0.00    -0.383 N 
ATOM     27  H   UNL     1     -42.091  43.040  25.747  1.00  0.00     0.158 HD
ATOM     28  H   UNL     1     -41.121  43.661  27.037  1.00  0.00     0.158 HD
ENDBRANCH  15  26
ENDBRANCH   5  14
ENDBRANCH   1   4
BRANCH   1  29
ATOM     29  O   UNL     1     -48.532  34.658  27.476  1.00  0.00    -0.489 OA
BRANCH  29  30
ATOM     30  C   UNL     1     -48.098  33.815  26.492  1.00  0.00     0.122 A 
ATOM     31  C   UNL     1     -46.763  33.988  26.134  1.00  0.00    -0.019 A 
ATOM     32  C   UNL     1     -48.857  32.841  25.839  1.00  0.00     0.007 A 
ATOM     33  C   UNL     1     -46.192  33.195  25.140  1.00  0.00    -0.049 A 
ATOM     34  H   UNL     1     -46.163  34.747  26.630  1.00  0.00     0.066 H 
ATOM     35  C   UNL     1     -48.313  32.033  24.845  1.00  0.00     0.076 A 
ATOM     36  H   UNL     1     -49.903  32.680  26.076  1.00  0.00     0.069 H 
ATOM     37  C   UNL     1     -46.965  32.217  24.496  1.00  0.00     0.001 A 
ATOM     38  H   UNL     1     -45.150  33.346  24.872  1.00  0.00     0.063 H 
ATOM     39  N   UNL     1     -49.089  31.106  24.255  1.00  0.00    -0.231 NA
ATOM     40  C   UNL     1     -46.440  31.402  23.493  1.00  0.00    -0.049 A 
ATOM     41  C   UNL     1     -48.579  30.305  23.291  1.00  0.00     0.129 A 
ATOM     42  C   UNL     1     -47.254  30.447  22.889  1.00  0.00    -0.019 A 
ATOM     43  H   UNL     1     -45.408  31.506  23.171  1.00  0.00     0.063 H 
ATOM     44  H   UNL     1     -46.846  29.835  22.094  1.00  0.00     0.066 H 
BRANCH  41  45
ATOM     45  N   UNL     1     -49.413  29.382  22.702  1.00  0.00    -0.357 N 
ATOM     46  C   UNL     1     -50.290  28.580  23.546  1.00  0.00     0.019 C 
ATOM     47  C   UNL     1     -49.087  28.690  21.461  1.00  0.00     0.019 C 
ATOM     48  C   UNL     1     -50.934  27.617  22.554  1.00  0.00    -0.034 C 
ATOM     49  H   UNL     1     -49.714  28.018  24.293  1.00  0.00     0.049 H 
ATOM     50  H   UNL     1     -51.049  29.186  24.054  1.00  0.00     0.049 H 
ATOM     51  C   UNL     1     -49.797  27.341  21.582  1.00  0.00    -0.034 C 
ATOM     52  H   UNL     1     -48.012  28.533  21.321  1.00  0.00     0.049 H 
ATOM     53  H   UNL     1     -49.479  29.258  20.609  1.00  0.00     0.049 H 
ATOM     54  H   UNL     1     -51.762  28.109  22.030  1.00  0.00     0.029 H 
ATOM     55  H   UNL     1     -51.314  26.711  23.033  1.00  0.00     0.029 H 
ATOM     56  H   UNL     1     -50.145  26.964  20.616  1.00  0.00     0.029 H 
ATOM     57  H   UNL     1     -49.114  26.598  22.010  1.00  0.00     0.029 H 
ENDBRANCH  41  45
ENDBRANCH  29  30
ENDBRANCH   1  29
TORSDOF 6
ENDMDL
MODEL 2
REMARK VINA RESULT:     -11.1      1.427      2.023
REMARK SMILES Nc1ncnc2c1c(Cl)cn2-c1cccc(COc2ccc3ccc(N4CCCC4)nc3c2)c1
REMARK SMILES IDX 17 1 16 4 12 5 13 6 34 7 14 8 15 11 11 14 2 15 3 16 7 17
REMARK SMILES IDX 4 18 6 19 8 20 5 21 9 23 10 24 1 26 18 29 19 30 20 31 33 32
REMARK SMILES IDX 21 33 32 35 22 37 31 39 23 40 25 41 24 42 26 45 27 46 30 47
REMARK SMILES IDX 28 48 29 51
REMARK H PARENT 17 2 17 3 13 9 34 10 14 12 15 13 4 22 10 25 1 27 1 28 20 34
REMARK H PARENT 33 36 21 38 23 43 24 44 27 49 27 50 30 52 30 53 28 54 28 55
REMARK H PARENT 29 56 29 57
REMARK Flexibility Score: inf
ROOT
ATOM      1  C   UNL     1     -47.973  36.483  27.023  1.00  0.00     0.113 C 
ATOM      2  H   UNL     1     -47.555  36.536  26.011  1.00  0.00     0.076 H 
ATOM      3  H   UNL     1     -48.822  37.177  27.032  1.00  0.00     0.076 H 
ENDROOT
BRANCH   1   4
ATOM      4  C   UNL     1     -46.998  36.949  28.083  1.00  0.00    -0.009 A 
ATOM      5  C   UNL     1     -45.209  38.461  28.800  1.00  0.00     0.047 A 
ATOM      6  C   UNL     1     -45.174  37.791  30.034  1.00  0.00    -0.038 A 
ATOM      7  C   UNL     1     -46.125  38.024  27.832  1.00  0.00    -0.031 A 
ATOM      8  C   UNL     1     -46.024  36.711  30.284  1.00  0.00    -0.060 A 
ATOM      9  H   UNL     1     -44.477  38.060  30.822  1.00  0.00     0.064 H 
ATOM     10  H   UNL     1     -46.218  38.524  26.872  1.00  0.00     0.065 H 
ATOM     11  C   UNL     1     -46.928  36.288  29.313  1.00  0.00    -0.055 A 
ATOM     12  H   UNL     1     -45.979  36.195  31.241  1.00  0.00     0.062 H 
ATOM     13  H   UNL     1     -47.581  35.445  29.527  1.00  0.00     0.063 H 
BRANCH   5  14
ATOM     14  N   UNL     1     -44.331  39.570  28.551  1.00  0.00    -0.300 N 
ATOM     15  C   UNL     1     -43.205  42.402  26.676  1.00  0.00     0.137 A 
ATOM     16  N   UNL     1     -44.043  42.401  25.624  1.00  0.00    -0.219 NA
ATOM     17  C   UNL     1     -43.333  41.403  27.655  1.00  0.00     0.080 A 
ATOM     18  C   UNL     1     -44.982  41.446  25.561  1.00  0.00     0.120 A 
ATOM     19  C   UNL     1     -44.357  40.473  27.482  1.00  0.00     0.151 A 
ATOM     20  C   UNL     1     -42.659  41.050  28.843  1.00  0.00     0.072 A 
ATOM     21  N   UNL     1     -45.202  40.452  26.430  1.00  0.00    -0.218 NA
ATOM     22  H   UNL     1     -45.640  41.481  24.699  1.00  0.00     0.106 H 
ATOM     23  Cl  UNL     1     -41.318  41.852  29.517  1.00  0.00    -0.082 Cl
ATOM     24  C   UNL     1     -43.269  39.936  29.365  1.00  0.00     0.030 A 
ATOM     25  H   UNL     1     -43.041  39.405  30.277  1.00  0.00     0.084 H 
BRANCH  15  26
ATOM     26  N   UNL     1     -42.248  43.402  26.709  1.00  0.00    -0.383 N 
ATOM     27  H   UNL     1     -42.585  44.231  27.182  1.00  0.00     0.158 HD
ATOM     28  H   UNL     1     -41.715  43.536  25.859  1.00  0.00     0.158 HD
ENDBRANCH  15  26
ENDBRANCH   5  14
ENDBRANCH   1   4
BRANCH   1  29
ATOM     29  O   UNL     1     -48.507  35.183  27.291  1.00  0.00    -0.489 OA
BRANCH  29  30
ATOM     30  C   UNL     1     -48.137  34.138  26.490  1.00  0.00     0.122 A 
ATOM     31  C   UNL     1     -46.920  34.318  25.836  1.00  0.00    -0.019 A 
ATOM     32  C   UNL     1     -48.856  32.960  26.278  1.00  0.00     0.007 A 
ATOM     33  C   UNL     1     -46.425  33.332  24.985  1.00  0.00    -0.049 A 
ATOM     34  H   UNL     1     -46.353  35.234  25.988  1.00  0.00     0.066 H 
ATOM     35  C   UNL     1     -48.385  31.956  25.437  1.00  0.00     0.076 A 
ATOM     36  H   UNL     1     -49.813  32.782  26.756  1.00  0.00     0.069 H 
ATOM     37  C   UNL     1     -47.156  32.150  24.785  1.00  0.00     0.001 A 
ATOM     38  H   UNL     1     -45.476  33.490  24.482  1.00  0.00     0.063 H 
ATOM     39  N   UNL     1     -49.116  30.838  25.275  1.00  0.00    -0.231 NA
ATOM     40  C   UNL     1     -46.704  31.136  23.942  1.00  0.00    -0.049 A 
ATOM     41  C   UNL     1     -48.674  29.847  24.467  1.00  0.00     0.129 A 
ATOM     42  C   UNL     1     -47.471  29.985  23.782  1.00  0.00    -0.019 A 
ATOM     43  H   UNL     1     -45.767  31.234  23.401  1.00  0.00     0.063 H 
ATOM     44  H   UNL     1     -47.125  29.212  23.105  1.00  0.00     0.066 H 
BRANCH  41  45
ATOM     45  N   UNL     1     -49.462  28.728  24.317  1.00  0.00    -0.357 N 
ATOM     46  C   UNL     1     -48.890  27.417  24.596  1.00  0.00     0.019 C 
ATOM     47  C   UNL     1     -50.550  28.643  23.350  1.00  0.00     0.019 C 
ATOM     48  C   UNL     1     -50.010  26.463  24.194  1.00  0.00    -0.034 C 
ATOM     49  H   UNL     1     -48.003  27.234  23.976  1.00  0.00     0.049 H 
ATOM     50  H   UNL     1     -48.627  27.292  25.652  1.00  0.00     0.049 H 
ATOM     51  C   UNL     1     -50.615  27.159  22.985  1.00  0.00    -0.034 C 
ATOM     52  H   UNL     1     -50.376  29.240  22.448  1.00  0.00     0.049 H 
ATOM     53  H   UNL     1     -51.486  28.967  23.819  1.00  0.00     0.049 H 
ATOM     54  H   UNL     1     -50.754  26.392  24.996  1.00  0.00     0.029 H 
ATOM     55  H   UNL     1     -49.646  25.457  23.968  1.00  0.00     0.029 H 
ATOM     56  H   UNL     1     -51.635  26.827  22.769  1.00  0.00     0.029 H 
ATOM     57  H   UNL     1     -50.000  26.966  22.098  1.00  0.00     0.029 H 
ENDBRANCH  41  45
ENDBRANCH  29  30
ENDBRANCH   1  29
TORSDOF 6
ENDMDL
MODEL 3
REMARK VINA RESULT:     -10.9      2.889     11.152
REMARK SMILES Nc1ncnc2c1c(Cl)cn2-c1cccc(COc2ccc3ccc(N4CCCC4)nc3c2)c1
REMARK SMILES IDX 17 1 16 4 12 5 13 6 34 7 14 8 15 11 11 14 2 15 3 16 7 17
REMARK SMILES IDX 4 18 6 19 8 20 5 21 9 23 10 24 1 26 18 29 19 30 20 31 33 32
REMARK SMILES IDX 21 33 32 35 22 37 31 39 23 40 25 41 24 42 26 45 27 46 30 47
REMARK SMILES IDX 28 48 29 51
REMARK H PARENT 17 2 17 3 13 9 34 10 14 12 15 13 4 22 10 25 1 27 1 28 20 34
REMARK H PARENT 33 36 21 38 23 43 24 44 27 49 27 50 30 52 30 53 28 54 28 55
REMARK H PARENT 29 56 29 57
REMARK Flexibility Score: inf
ROOT
ATOM      1  C   UNL     1     -47.475  36.677  27.302  1.00  0.00     0.113 C 
ATOM      2  H   UNL     1     -48.501  36.908  26.994  1.00  0.00     0.076 H 
ATOM      3  H   UNL     1     -46.825  37.234  26.617  1.00  0.00     0.076 H 
ENDROOT
BRANCH   1   4
ATOM      4  C   UNL     1     -47.137  35.209  27.151  1.00  0.00    -0.009 A 
ATOM      5  C   UNL     1     -47.479  33.059  26.028  1.00  0.00     0.047 A 
ATOM      6  C   UNL     1     -46.531  32.487  26.893  1.00  0.00    -0.038 A 
ATOM      7  C   UNL     1     -47.774  34.422  26.174  1.00  0.00    -0.031 A 
ATOM      8  C   UNL     1     -45.907  33.257  27.878  1.00  0.00    -0.060 A 
ATOM      9  H   UNL     1     -46.267  31.435  26.853  1.00  0.00     0.064 H 
ATOM     10  H   UNL     1     -48.476  34.925  25.514  1.00  0.00     0.065 H 
ATOM     11  C   UNL     1     -46.211  34.610  28.010  1.00  0.00    -0.055 A 
ATOM     12  H   UNL     1     -45.181  32.798  28.546  1.00  0.00     0.062 H 
ATOM     13  H   UNL     1     -45.714  35.192  28.783  1.00  0.00     0.063 H 
BRANCH   5  14
ATOM     14  N   UNL     1     -48.116  32.259  25.019  1.00  0.00    -0.300 N 
ATOM     15  C   UNL     1     -48.124  30.286  22.035  1.00  0.00     0.137 A 
ATOM     16  N   UNL     1     -46.843  30.366  21.633  1.00  0.00    -0.219 NA
ATOM     17  C   UNL     1     -48.521  30.961  23.200  1.00  0.00     0.080 A 
ATOM     18  C   UNL     1     -45.988  31.084  22.378  1.00  0.00     0.120 A 
ATOM     19  C   UNL     1     -47.536  31.664  23.893  1.00  0.00     0.151 A 
ATOM     20  C   UNL     1     -49.728  31.146  23.908  1.00  0.00     0.072 A 
ATOM     21  N   UNL     1     -46.249  31.762  23.502  1.00  0.00    -0.218 NA
ATOM     22  H   UNL     1     -44.964  31.123  22.023  1.00  0.00     0.106 H 
ATOM     23  Cl  UNL     1     -51.249  30.509  23.490  1.00  0.00    -0.082 Cl
ATOM     24  C   UNL     1     -49.465  31.940  24.998  1.00  0.00     0.030 A 
ATOM     25  H   UNL     1     -50.141  32.267  25.774  1.00  0.00     0.084 H 
BRANCH  15  26
ATOM     26  N   UNL     1     -48.978  29.537  21.243  1.00  0.00    -0.383 N 
ATOM     27  H   UNL     1     -49.936  29.856  21.315  1.00  0.00     0.158 HD
ATOM     28  H   UNL     1     -48.821  28.537  21.240  1.00  0.00     0.158 HD
ENDBRANCH  15  26
ENDBRANCH   5  14
ENDBRANCH   1   4
BRANCH   1  29
ATOM     29  O   UNL     1     -47.208  37.177  28.615  1.00  0.00    -0.489 OA
BRANCH  29  30
ATOM     30  C   UNL     1     -46.108  37.964  28.812  1.00  0.00     0.122 A 
ATOM     31  C   UNL     1     -45.320  37.589  29.899  1.00  0.00    -0.019 A 
ATOM     32  C   UNL     1     -45.730  39.069  28.047  1.00  0.00     0.007 A 
ATOM     33  C   UNL     1     -44.169  38.307  30.215  1.00  0.00    -0.049 A 
ATOM     34  H   UNL     1     -45.607  36.733  30.506  1.00  0.00     0.066 H 
ATOM     35  C   UNL     1     -44.584  39.803  28.337  1.00  0.00     0.076 A 
ATOM     36  H   UNL     1     -46.318  39.404  27.200  1.00  0.00     0.069 H 
ATOM     37  C   UNL     1     -43.799  39.414  29.435  1.00  0.00     0.001 A 
ATOM     38  H   UNL     1     -43.569  38.002  31.068  1.00  0.00     0.063 H 
ATOM     39  N   UNL     1     -44.264  40.856  27.562  1.00  0.00    -0.231 NA
ATOM     40  C   UNL     1     -42.658  40.165  29.714  1.00  0.00    -0.049 A 
ATOM     41  C   UNL     1     -43.150  41.579  27.822  1.00  0.00     0.129 A 
ATOM     42  C   UNL     1     -42.339  41.253  28.904  1.00  0.00    -0.019 A 
ATOM     43  H   UNL     1     -42.018  39.920  30.557  1.00  0.00     0.063 H 
ATOM     44  H   UNL     1     -41.465  41.847  29.143  1.00  0.00     0.066 H 
BRANCH  41  45
ATOM     45  N   UNL     1     -42.871  42.658  27.014  1.00  0.00    -0.357 N 
ATOM     46  C   UNL     1     -43.970  43.489  26.538  1.00  0.00     0.019 C 
ATOM     47  C   UNL     1     -41.736  42.697  26.100  1.00  0.00     0.019 C 
ATOM     48  C   UNL     1     -43.276  44.466  25.595  1.00  0.00    -0.034 C 
ATOM     49  H   UNL     1     -44.705  42.892  25.984  1.00  0.00     0.049 H 
ATOM     50  H   UNL     1     -44.474  44.021  27.353  1.00  0.00     0.049 H 
ATOM     51  C   UNL     1     -42.204  43.599  24.956  1.00  0.00    -0.034 C 
ATOM     52  H   UNL     1     -41.461  41.712  25.708  1.00  0.00     0.049 H 
ATOM     53  H   UNL     1     -40.869  43.135  26.607  1.00  0.00     0.049 H 
ATOM     54  H   UNL     1     -42.810  45.279  26.165  1.00  0.00     0.029 H 
ATOM     55  H   UNL     1     -43.961  44.904  24.864  1.00  0.00     0.029 H 
ATOM     56  H   UNL     1     -41.386  44.182  24.523  1.00  0.00     0.029 H 
ATOM     57  H   UNL     1     -42.645  42.989  24.158  1.00  0.00     0.029 H 
ENDBRANCH  41  45
ENDBRANCH  29  30
ENDBRANCH   1  29
TORSDOF 6
ENDMDL
MODEL 4
REMARK VINA RESULT:     -10.9      1.773      2.160
REMARK SMILES Nc1ncnc2c1c(Cl)cn2-c1cccc(COc2ccc3ccc(N4CCCC4)nc3c2)c1
REMARK SMILES IDX 17 1 16 4 12 5 13 6 34 7 14 8 15 11 11 14 2 15 3 16 7 17
REMARK SMILES IDX 4 18 6 19 8 20 5 21 9 23 10 24 1 26 18 29 19 30 20 31 33 32
REMARK SMILES IDX 21 33 32 35 22 37 31 39 23 40 25 41 24 42 26 45 27 46 30 47
REMARK SMILES IDX 28 48 29 51
REMARK H PARENT 17 2 17 3 13 9 34 10 14 12 15 13 4 22 10 25 1 27 1 28 20 34
REMARK H PARENT 33 36 21 38 23 43 24 44 27 49 27 50 30 52 30 53 28 54 28 55
REMARK H PARENT 29 56 29 57
REMARK Flexibility Score: inf
ROOT
ATOM      1  C   UNL     1     -46.836  34.890  27.378  1.00  0.00     0.113 C 
ATOM      2  H   UNL     1     -46.409  34.461  28.292  1.00  0.00     0.076 H 
ATOM      3  H   UNL     1     -46.059  34.789  26.610  1.00  0.00     0.076 H 
ENDROOT
BRANCH   1   4
ATOM      4  C   UNL     1     -47.144  36.366  27.515  1.00  0.00    -0.009 A 
ATOM      5  C   UNL     1     -46.382  38.693  27.591  1.00  0.00     0.047 A 
ATOM      6  C   UNL     1     -47.712  39.093  27.799  1.00  0.00    -0.038 A 
ATOM      7  C   UNL     1     -46.113  37.323  27.455  1.00  0.00    -0.031 A 
ATOM      8  C   UNL     1     -48.738  38.148  27.878  1.00  0.00    -0.060 A 
ATOM      9  H   UNL     1     -47.992  40.134  27.933  1.00  0.00     0.064 H 
ATOM     10  H   UNL     1     -45.109  36.957  27.262  1.00  0.00     0.065 H 
ATOM     11  C   UNL     1     -48.456  36.791  27.743  1.00  0.00    -0.055 A 
ATOM     12  H   UNL     1     -49.762  38.473  28.050  1.00  0.00     0.062 H 
ATOM     13  H   UNL     1     -49.269  36.071  27.808  1.00  0.00     0.063 H 
BRANCH   5  14
ATOM     14  N   UNL     1     -45.333  39.671  27.511  1.00  0.00    -0.300 N 
ATOM     15  C   UNL     1     -42.342  41.257  28.667  1.00  0.00     0.137 A 
ATOM     16  N   UNL     1     -42.085  40.590  29.806  1.00  0.00    -0.219 NA
ATOM     17  C   UNL     1     -43.476  40.915  27.914  1.00  0.00     0.080 A 
ATOM     18  C   UNL     1     -42.923  39.608  30.169  1.00  0.00     0.120 A 
ATOM     19  C   UNL     1     -44.264  39.868  28.391  1.00  0.00     0.151 A 
ATOM     20  C   UNL     1     -44.088  41.377  26.728  1.00  0.00     0.072 A 
ATOM     21  N   UNL     1     -44.025  39.192  29.534  1.00  0.00    -0.218 NA
ATOM     22  H   UNL     1     -42.680  39.092  31.092  1.00  0.00     0.106 H 
ATOM     23  Cl  UNL     1     -43.542  42.652  25.744  1.00  0.00    -0.082 Cl
ATOM     24  C   UNL     1     -45.213  40.621  26.507  1.00  0.00     0.030 A 
ATOM     25  H   UNL     1     -45.911  40.673  25.684  1.00  0.00     0.084 H 
BRANCH  15  26
ATOM     26  N   UNL     1     -41.456  42.264  28.322  1.00  0.00    -0.383 N 
ATOM     27  H   UNL     1     -41.813  43.180  28.564  1.00  0.00     0.158 HD
ATOM     28  H   UNL     1     -40.998  42.166  27.425  1.00  0.00     0.158 HD
ENDBRANCH  15  26
ENDBRANCH   5  14
ENDBRANCH   1   4
BRANCH   1  29
ATOM     29  O   UNL     1     -47.958  34.126  26.927  1.00  0.00    -0.489 OA
BRANCH  29  30
ATOM     30  C   UNL     1     -47.740  33.045  26.120  1.00  0.00     0.122 A 
ATOM     31  C   UNL     1     -46.892  33.293  25.042  1.00  0.00    -0.019 A 
ATOM     32  C   UNL     1     -48.283  31.768  26.279  1.00  0.00     0.007 A 
ATOM     33  C   UNL     1     -46.588  32.277  24.138  1.00  0.00    -0.049 A 
ATOM     34  H   UNL     1     -46.468  34.285  24.904  1.00  0.00     0.066 H 
ATOM     35  C   UNL     1     -47.994  30.734  25.393  1.00  0.00     0.076 A 
ATOM     36  H   UNL     1     -48.957  31.533  27.095  1.00  0.00     0.069 H 
ATOM     37  C   UNL     1     -47.137  30.998  24.312  1.00  0.00     0.001 A 
ATOM     38  H   UNL     1     -45.927  32.490  23.302  1.00  0.00     0.063 H 
ATOM     39  N   UNL     1     -48.540  29.521  25.599  1.00  0.00    -0.231 NA
ATOM     40  C   UNL     1     -46.864  29.951  23.433  1.00  0.00    -0.049 A 
ATOM     41  C   UNL     1     -48.267  28.500  24.755  1.00  0.00     0.129 A 
ATOM     42  C   UNL     1     -47.437  28.701  23.656  1.00  0.00    -0.019 A 
ATOM     43  H   UNL     1     -46.219  30.097  22.571  1.00  0.00     0.063 H 
ATOM     44  H   UNL     1     -47.240  27.899  22.954  1.00  0.00     0.066 H 
BRANCH  41  45
ATOM     45  N   UNL     1     -48.861  27.281  24.993  1.00  0.00    -0.357 N 
ATOM     46  C   UNL     1     -50.246  27.245  25.445  1.00  0.00     0.019 C 
ATOM     47  C   UNL     1     -48.121  26.108  25.441  1.00  0.00     0.019 C 
ATOM     48  C   UNL     1     -50.479  25.762  25.714  1.00  0.00    -0.034 C 
ATOM     49  H   UNL     1     -50.373  27.818  26.373  1.00  0.00     0.049 H 
ATOM     50  H   UNL     1     -50.942  27.622  24.688  1.00  0.00     0.049 H 
ATOM     51  C   UNL     1     -49.135  25.314  26.266  1.00  0.00    -0.034 C 
ATOM     52  H   UNL     1     -47.250  26.354  26.060  1.00  0.00     0.049 H 
ATOM     53  H   UNL     1     -47.790  25.526  24.573  1.00  0.00     0.049 H 
ATOM     54  H   UNL     1     -50.694  25.235  24.777  1.00  0.00     0.029 H 
ATOM     55  H   UNL     1     -51.306  25.585  26.408  1.00  0.00     0.029 H 
ATOM     56  H   UNL     1     -48.983  24.233  26.189  1.00  0.00     0.029 H 
ATOM     57  H   UNL     1     -49.056  25.594  27.324  1.00  0.00     0.029 H 
ENDBRANCH  41  45
ENDBRANCH  29  30
ENDBRANCH   1  29
TORSDOF 6
ENDMDL
MODEL 5
REMARK VINA RESULT:     -10.7      3.099     11.100
REMARK SMILES Nc1ncnc2c1c(Cl)cn2-c1cccc(COc2ccc3ccc(N4CCCC4)nc3c2)c1
REMARK SMILES IDX 17 1 16 4 12 5 13 6 34 7 14 8 15 11 11 14 2 15 3 16 7 17
REMARK SMILES IDX 4 18 6 19 8 20 5 21 9 23 10 24 1 26 18 29 19 30 20 31 33 32
REMARK SMILES IDX 21 33 32 35 22 37 31 39 23 40 25 41 24 42 26 45 27 46 30 47
REMARK SMILES IDX 28 48 29 51
REMARK H PARENT 17 2 17 3 13 9 34 10 14 12 15 13 4 22 10 25 1 27 1 28 20 34
REMARK H PARENT 33 36 21 38 23 43 24 44 27 49 27 50 30 52 30 53 28 54 28 55
REMARK H PARENT 29 56 29 57
REMARK Flexibility Score: inf
ROOT
ATOM      1  C   UNL     1     -49.152  35.431  27.026  1.00  0.00     0.113 C 
ATOM      2  H   UNL     1     -50.188  35.071  27.043  1.00  0.00     0.076 H 
ATOM      3  H   UNL     1     -49.166  36.348  26.425  1.00  0.00     0.076 H 
ENDROOT
BRANCH   1   4
ATOM      4  C   UNL     1     -48.208  34.461  26.349  1.00  0.00    -0.009 A 
ATOM      5  C   UNL     1     -47.793  32.283  25.307  1.00  0.00     0.047 A 
ATOM      6  C   UNL     1     -46.452  32.657  25.123  1.00  0.00    -0.038 A 
ATOM      7  C   UNL     1     -48.659  33.197  25.926  1.00  0.00    -0.031 A 
ATOM      8  C   UNL     1     -45.991  33.904  25.556  1.00  0.00    -0.060 A 
ATOM      9  H   UNL     1     -45.720  31.995  24.670  1.00  0.00     0.064 H 
ATOM     10  H   UNL     1     -49.713  32.975  26.067  1.00  0.00     0.065 H 
ATOM     11  C   UNL     1     -46.863  34.799  26.171  1.00  0.00    -0.055 A 
ATOM     12  H   UNL     1     -44.948  34.175  25.416  1.00  0.00     0.062 H 
ATOM     13  H   UNL     1     -46.486  35.765  26.501  1.00  0.00     0.063 H 
BRANCH   5  14
ATOM     14  N   UNL     1     -48.257  31.000  24.859  1.00  0.00    -0.300 N 
ATOM     15  C   UNL     1     -48.913  28.533  22.352  1.00  0.00     0.137 A 
ATOM     16  N   UNL     1     -48.561  29.170  21.222  1.00  0.00    -0.219 NA
ATOM     17  C   UNL     1     -48.802  29.204  23.580  1.00  0.00     0.080 A 
ATOM     18  C   UNL     1     -48.101  30.427  21.319  1.00  0.00     0.120 A 
ATOM     19  C   UNL     1     -48.299  30.504  23.551  1.00  0.00     0.151 A 
ATOM     20  C   UNL     1     -49.088  28.909  24.931  1.00  0.00     0.072 A 
ATOM     21  N   UNL     1     -47.947  31.161  22.427  1.00  0.00    -0.218 NA
ATOM     22  H   UNL     1     -47.825  30.906  20.385  1.00  0.00     0.106 H 
ATOM     23  Cl  UNL     1     -49.733  27.452  25.529  1.00  0.00    -0.082 Cl
ATOM     24  C   UNL     1     -48.761  30.008  25.686  1.00  0.00     0.030 A 
ATOM     25  H   UNL     1     -48.821  30.135  26.757  1.00  0.00     0.084 H 
BRANCH  15  26
ATOM     26  N   UNL     1     -49.384  27.237  22.215  1.00  0.00    -0.383 N 
ATOM     27  H   UNL     1     -49.189  26.677  23.035  1.00  0.00     0.158 HD
ATOM     28  H   UNL     1     -49.240  26.805  21.312  1.00  0.00     0.158 HD
ENDBRANCH  15  26
ENDBRANCH   5  14
ENDBRANCH   1   4
BRANCH   1  29
ATOM     29  O   UNL     1     -48.718  35.809  28.336  1.00  0.00    -0.489 OA
BRANCH  29  30
ATOM     30  C   UNL     1     -47.631  36.627  28.462  1.00  0.00     0.122 A 
ATOM     31  C   UNL     1     -46.704  36.210  29.414  1.00  0.00    -0.019 A 
ATOM     32  C   UNL     1     -47.389  37.803  27.747  1.00  0.00     0.007 A 
ATOM     33  C   UNL     1     -45.549  36.954  29.647  1.00  0.00    -0.049 A 
ATOM     34  H   UNL     1     -46.883  35.300  29.982  1.00  0.00     0.066 H 
ATOM     35  C   UNL     1     -46.244  38.564  27.956  1.00  0.00     0.076 A 
ATOM     36  H   UNL     1     -48.088  38.172  27.005  1.00  0.00     0.069 H 
ATOM     37  C   UNL     1     -45.317  38.131  28.918  1.00  0.00     0.001 A 
ATOM     38  H   UNL     1     -44.839  36.615  30.396  1.00  0.00     0.063 H 
ATOM     39  N   UNL     1     -46.059  39.685  27.233  1.00  0.00    -0.231 NA
ATOM     40  C   UNL     1     -44.179  38.911  29.117  1.00  0.00    -0.049 A 
ATOM     41  C   UNL     1     -44.949  40.436  27.415  1.00  0.00     0.129 A 
ATOM     42  C   UNL     1     -44.000  40.069  28.364  1.00  0.00    -0.019 A 
ATOM     43  H   UNL     1     -43.432  38.633  29.856  1.00  0.00     0.063 H 
ATOM     44  H   UNL     1     -43.125  40.683  28.543  1.00  0.00     0.066 H 
BRANCH  41  45
ATOM     45  N   UNL     1     -44.810  41.584  26.667  1.00  0.00    -0.357 N 
ATOM     46  C   UNL     1     -45.925  42.030  25.841  1.00  0.00     0.019 C 
ATOM     47  C   UNL     1     -43.532  42.035  26.129  1.00  0.00     0.019 C 
ATOM     48  C   UNL     1     -45.340  43.223  25.093  1.00  0.00    -0.034 C 
ATOM     49  H   UNL     1     -46.225  41.251  25.128  1.00  0.00     0.049 H 
ATOM     50  H   UNL     1     -46.793  42.329  26.439  1.00  0.00     0.049 H 
ATOM     51  C   UNL     1     -43.904  42.785  24.849  1.00  0.00    -0.034 C 
ATOM     52  H   UNL     1     -42.847  41.213  25.892  1.00  0.00     0.049 H 
ATOM     53  H   UNL     1     -43.048  42.709  26.845  1.00  0.00     0.049 H 
ATOM     54  H   UNL     1     -45.356  44.116  25.729  1.00  0.00     0.029 H 
ATOM     55  H   UNL     1     -45.880  43.446  24.168  1.00  0.00     0.029 H 
ATOM     56  H   UNL     1     -43.232  43.624  24.646  1.00  0.00     0.029 H 
ATOM     57  H   UNL     1     -43.864  42.103  23.992  1.00  0.00     0.029 H 
ENDBRANCH  41  45
ENDBRANCH  29  30
ENDBRANCH   1  29
TORSDOF 6
ENDMDL
MODEL 6
REMARK VINA RESULT:     -10.7      2.960     11.382
REMARK SMILES Nc1ncnc2c1c(Cl)cn2-c1cccc(COc2ccc3ccc(N4CCCC4)nc3c2)c1
REMARK SMILES IDX 17 1 16 4 12 5 13 6 34 7 14 8 15 11 11 14 2 15 3 16 7 17
REMARK SMILES IDX 4 18 6 19 8 20 5 21 9 23 10 24 1 26 18 29 19 30 20 31 33 32
REMARK SMILES IDX 21 33 32 35 22 37 31 39 23 40 25 41 24 42 26 45 27 46 30 47
REMARK SMILES IDX 28 48 29 51
REMARK H PARENT 17 2 17 3 13 9 34 10 14 12 15 13 4 22 10 25 1 27 1 28 20 34
REMARK H PARENT 33 36 21 38 23 43 24 44 27 49 27 50 30 52 30 53 28 54 28 55
REMARK H PARENT 29 56 29 57
REMARK Flexibility Score: inf
ROOT
ATOM      1  C   UNL     1     -48.355  35.499  27.162  1.00  0.00     0.113 C 
ATOM      2  H   UNL     1     -49.447  35.514  27.258  1.00  0.00     0.076 H 
ATOM      3  H   UNL     1     -48.089  36.433  26.653  1.00  0.00     0.076 H 
ENDROOT
BRANCH   1   4
ATOM      4  C   UNL     1     -47.861  34.359  26.298  1.00  0.00    -0.009 A 
ATOM      5  C   UNL     1     -48.295  32.277  25.082  1.00  0.00     0.047 A 
ATOM      6  C   UNL     1     -46.937  32.234  24.725  1.00  0.00    -0.038 A 
ATOM      7  C   UNL     1     -48.741  33.345  25.873  1.00  0.00    -0.031 A 
ATOM      8  C   UNL     1     -46.053  33.226  25.158  1.00  0.00    -0.060 A 
ATOM      9  H   UNL     1     -46.517  31.427  24.132  1.00  0.00     0.064 H 
ATOM     10  H   UNL     1     -49.785  33.447  26.154  1.00  0.00     0.065 H 
ATOM     11  C   UNL     1     -46.510  34.280  25.944  1.00  0.00    -0.055 A 
ATOM     12  H   UNL     1     -45.002  33.174  24.882  1.00  0.00     0.062 H 
ATOM     13  H   UNL     1     -45.807  35.042  26.271  1.00  0.00     0.063 H 
BRANCH   5  14
ATOM     14  N   UNL     1     -49.196  31.253  24.632  1.00  0.00    -0.300 N 
ATOM     15  C   UNL     1     -50.489  27.917  24.604  1.00  0.00     0.137 A 
ATOM     16  N   UNL     1     -49.661  27.280  25.451  1.00  0.00    -0.219 NA
ATOM     17  C   UNL     1     -50.287  29.281  24.343  1.00  0.00     0.080 A 
ATOM     18  C   UNL     1     -48.676  27.986  26.025  1.00  0.00     0.120 A 
ATOM     19  C   UNL     1     -49.235  29.907  25.012  1.00  0.00     0.151 A 
ATOM     20  C   UNL     1     -50.889  30.262  23.527  1.00  0.00     0.072 A 
ATOM     21  N   UNL     1     -48.390  29.283  25.859  1.00  0.00    -0.218 NA
ATOM     22  H   UNL     1     -48.031  27.437  26.704  1.00  0.00     0.106 H 
ATOM     23  Cl  UNL     1     -52.218  30.032  22.489  1.00  0.00    -0.082 Cl
ATOM     24  C   UNL     1     -50.211  31.443  23.707  1.00  0.00     0.030 A 
ATOM     25  H   UNL     1     -50.408  32.409  23.267  1.00  0.00     0.084 H 
BRANCH  15  26
ATOM     26  N   UNL     1     -51.495  27.158  24.029  1.00  0.00    -0.383 N 
ATOM     27  H   UNL     1     -52.380  27.650  24.018  1.00  0.00     0.158 HD
ATOM     28  H   UNL     1     -51.511  26.178  24.279  1.00  0.00     0.158 HD
ENDBRANCH  15  26
ENDBRANCH   5  14
ENDBRANCH   1   4
BRANCH   1  29
ATOM     29  O   UNL     1     -47.726  35.539  28.445  1.00  0.00    -0.489 OA
BRANCH  29  30
ATOM     30  C   UNL     1     -46.769  36.486  28.683  1.00  0.00     0.122 A 
ATOM     31  C   UNL     1     -46.196  36.418  29.952  1.00  0.00    -0.019 A 
ATOM     32  C   UNL     1     -46.344  37.478  27.797  1.00  0.00     0.007 A 
ATOM     33  C   UNL     1     -45.209  37.327  30.328  1.00  0.00    -0.049 A 
ATOM     34  H   UNL     1     -46.523  35.654  30.654  1.00  0.00     0.066 H 
ATOM     35  C   UNL     1     -45.358  38.396  28.144  1.00  0.00     0.076 A 
ATOM     36  H   UNL     1     -46.770  37.576  26.805  1.00  0.00     0.069 H 
ATOM     37  C   UNL     1     -44.789  38.316  29.426  1.00  0.00     0.001 A 
ATOM     38  H   UNL     1     -44.776  37.260  31.322  1.00  0.00     0.063 H 
ATOM     39  N   UNL     1     -44.983  39.327  27.247  1.00  0.00    -0.231 NA
ATOM     40  C   UNL     1     -43.807  39.249  29.757  1.00  0.00    -0.049 A 
ATOM     41  C   UNL     1     -44.021  40.225  27.562  1.00  0.00     0.129 A 
ATOM     42  C   UNL     1     -43.428  40.208  28.820  1.00  0.00    -0.019 A 
ATOM     43  H   UNL     1     -43.339  39.244  30.737  1.00  0.00     0.063 H 
ATOM     44  H   UNL     1     -42.683  40.945  29.094  1.00  0.00     0.066 H 
BRANCH  41  45
ATOM     45  N   UNL     1     -43.681  41.171  26.620  1.00  0.00    -0.357 N 
ATOM     46  C   UNL     1     -42.832  42.289  27.015  1.00  0.00     0.019 C 
ATOM     47  C   UNL     1     -44.539  41.521  25.495  1.00  0.00     0.019 C 
ATOM     48  C   UNL     1     -42.800  43.153  25.759  1.00  0.00    -0.034 C 
ATOM     49  H   UNL     1     -43.281  42.851  27.844  1.00  0.00     0.049 H 
ATOM     50  H   UNL     1     -41.824  41.968  27.298  1.00  0.00     0.049 H 
ATOM     51  C   UNL     1     -44.208  42.988  25.210  1.00  0.00    -0.034 C 
ATOM     52  H   UNL     1     -45.607  41.418  25.716  1.00  0.00     0.049 H 
ATOM     53  H   UNL     1     -44.289  40.894  24.631  1.00  0.00     0.049 H 
ATOM     54  H   UNL     1     -42.070  42.755  25.043  1.00  0.00     0.029 H 
ATOM     55  H   UNL     1     -42.545  44.195  25.971  1.00  0.00     0.029 H 
ATOM     56  H   UNL     1     -44.283  43.234  24.147  1.00  0.00     0.029 H 
ATOM     57  H   UNL     1     -44.899  43.638  25.759  1.00  0.00     0.029 H 
ENDBRANCH  41  45
ENDBRANCH  29  30
ENDBRANCH   1  29
TORSDOF 6
ENDMDL
MODEL 7
REMARK VINA RESULT:     -10.3      3.216     11.197
REMARK SMILES Nc1ncnc2c1c(Cl)cn2-c1cccc(COc2ccc3ccc(N4CCCC4)nc3c2)c1
REMARK SMILES IDX 17 1 16 4 12 5 13 6 34 7 14 8 15 11 11 14 2 15 3 16 7 17
REMARK SMILES IDX 4 18 6 19 8 20 5 21 9 23 10 24 1 26 18 29 19 30 20 31 33 32
REMARK SMILES IDX 21 33 32 35 22 37 31 39 23 40 25 41 24 42 26 45 27 46 30 47
REMARK SMILES IDX 28 48 29 51
REMARK H PARENT 17 2 17 3 13 9 34 10 14 12 15 13 4 22 10 25 1 27 1 28 20 34
REMARK H PARENT 33 36 21 38 23 43 24 44 27 49 27 50 30 52 30 53 28 54 28 55
REMARK H PARENT 29 56 29 57
REMARK Flexibility Score: inf
ROOT
ATOM      1  C   UNL     1     -46.852  37.282  26.838  1.00  0.00     0.113 C 
ATOM      2  H   UNL     1     -47.886  37.594  26.651  1.00  0.00     0.076 H 
ATOM      3  H   UNL     1     -46.283  37.589  25.952  1.00  0.00     0.076 H 
ENDROOT
BRANCH   1   4
ATOM      4  C   UNL     1     -46.709  35.781  26.967  1.00  0.00    -0.009 A 
ATOM      5  C   UNL     1     -47.277  33.524  26.204  1.00  0.00     0.047 A 
ATOM      6  C   UNL     1     -46.468  33.003  27.227  1.00  0.00    -0.038 A 
ATOM      7  C   UNL     1     -47.391  34.917  26.090  1.00  0.00    -0.031 A 
ATOM      8  C   UNL     1     -45.803  33.854  28.114  1.00  0.00    -0.060 A 
ATOM      9  H   UNL     1     -46.349  31.936  27.389  1.00  0.00     0.064 H 
ATOM     10  H   UNL     1     -47.978  35.376  25.299  1.00  0.00     0.065 H 
ATOM     11  C   UNL     1     -45.926  35.235  27.989  1.00  0.00    -0.055 A 
ATOM     12  H   UNL     1     -45.187  33.436  28.908  1.00  0.00     0.062 H 
ATOM     13  H   UNL     1     -45.401  35.881  28.689  1.00  0.00     0.063 H 
BRANCH   5  14
ATOM     14  N   UNL     1     -47.957  32.641  25.297  1.00  0.00    -0.300 N 
ATOM     15  C   UNL     1     -48.063  30.221  22.665  1.00  0.00     0.137 A 
ATOM     16  N   UNL     1     -46.766  30.102  22.331  1.00  0.00    -0.219 NA
ATOM     17  C   UNL     1     -48.430  31.114  23.684  1.00  0.00     0.080 A 
ATOM     18  C   UNL     1     -45.868  30.838  23.002  1.00  0.00     0.120 A 
ATOM     19  C   UNL     1     -47.402  31.814  24.315  1.00  0.00     0.151 A 
ATOM     20  C   UNL     1     -49.636  31.536  24.283  1.00  0.00     0.072 A 
ATOM     21  N   UNL     1     -46.097  31.713  23.989  1.00  0.00    -0.218 NA
ATOM     22  H   UNL     1     -44.832  30.712  22.706  1.00  0.00     0.106 H 
ATOM     23  Cl  UNL     1     -51.201  31.001  23.881  1.00  0.00    -0.082 Cl
ATOM     24  C   UNL     1     -49.332  32.465  25.247  1.00  0.00     0.030 A 
ATOM     25  H   UNL     1     -49.997  32.982  25.922  1.00  0.00     0.084 H 
BRANCH  15  26
ATOM     26  N   UNL     1     -48.963  29.446  21.951  1.00  0.00    -0.383 N 
ATOM     27  H   UNL     1     -48.782  28.456  22.066  1.00  0.00     0.158 HD
ATOM     28  H   UNL     1     -49.190  29.772  21.021  1.00  0.00     0.158 HD
ENDBRANCH  15  26
ENDBRANCH   5  14
ENDBRANCH   1   4
BRANCH   1  29
ATOM     29  O   UNL     1     -46.294  37.993  27.947  1.00  0.00    -0.489 OA
BRANCH  29  30
ATOM     30  C   UNL     1     -45.436  39.028  27.705  1.00  0.00     0.122 A 
ATOM     31  C   UNL     1     -44.523  39.270  28.730  1.00  0.00    -0.019 A 
ATOM     32  C   UNL     1     -45.406  39.833  26.565  1.00  0.00     0.007 A 
ATOM     33  C   UNL     1     -43.592  40.300  28.615  1.00  0.00    -0.049 A 
ATOM     34  H   UNL     1     -44.540  38.655  29.627  1.00  0.00     0.066 H 
ATOM     35  C   UNL     1     -44.486  40.866  26.421  1.00  0.00     0.076 A 
ATOM     36  H   UNL     1     -46.105  39.689  25.747  1.00  0.00     0.069 H 
ATOM     37  C   UNL     1     -43.571  41.098  27.461  1.00  0.00     0.001 A 
ATOM     38  H   UNL     1     -42.890  40.476  29.426  1.00  0.00     0.063 H 
ATOM     39  N   UNL     1     -44.499  41.606  25.296  1.00  0.00    -0.231 NA
ATOM     40  C   UNL     1     -42.661  42.142  27.301  1.00  0.00    -0.049 A 
ATOM     41  C   UNL     1     -43.608  42.611  25.133  1.00  0.00     0.129 A 
ATOM     42  C   UNL     1     -42.686  42.901  26.133  1.00  0.00    -0.019 A 
ATOM     43  H   UNL     1     -41.937  42.378  28.077  1.00  0.00     0.063 H 
ATOM     44  H   UNL     1     -41.991  43.726  26.028  1.00  0.00     0.066 H 
BRANCH  41  45
ATOM     45  N   UNL     1     -43.668  43.353  23.975  1.00  0.00    -0.357 N 
ATOM     46  C   UNL     1     -42.426  43.782  23.343  1.00  0.00     0.019 C 
ATOM     47  C   UNL     1     -44.767  44.260  23.665  1.00  0.00     0.019 C 
ATOM     48  C   UNL     1     -42.912  44.664  22.198  1.00  0.00    -0.034 C 
ATOM     49  H   UNL     1     -41.815  44.374  24.038  1.00  0.00     0.049 H 
ATOM     50  H   UNL     1     -41.836  42.940  22.968  1.00  0.00     0.049 H 
ATOM     51  C   UNL     1     -44.126  45.350  22.805  1.00  0.00    -0.034 C 
ATOM     52  H   UNL     1     -45.223  44.708  24.554  1.00  0.00     0.049 H 
ATOM     53  H   UNL     1     -45.538  43.724  23.099  1.00  0.00     0.049 H 
ATOM     54  H   UNL     1     -43.218  44.046  21.346  1.00  0.00     0.029 H 
ATOM     55  H   UNL     1     -42.150  45.370  21.858  1.00  0.00     0.029 H 
ATOM     56  H   UNL     1     -44.813  45.745  22.051  1.00  0.00     0.029 H 
ATOM     57  H   UNL     1     -43.803  46.184  23.440  1.00  0.00     0.029 H 
ENDBRANCH  41  45
ENDBRANCH  29  30
ENDBRANCH   1  29
TORSDOF 6
ENDMDL
