MODEL 1
REMARK VINA RESULT:     -10.0      0.000      0.000
REMARK SMILES CNc1ccc2ccc(OC[C@H]3O[C@@H](n4cc(-c5ccn(C)n5)c5c(N)ncnc54)[C@H](O)[C@@H]3O)cc2n1
REMARK SMILES IDX 11 1 10 4 9 5 3 6 4 7 37 8 5 9 36 11 6 12 35 14 7 15 8 17
REMARK SMILES IDX 2 20 1 22 12 26 13 27 33 28 14 30 31 31 34 35 15 37 16 38
REMARK SMILES IDX 30 39 17 40 24 42 29 43 25 44 28 45 27 46 18 48 19 49 23 50
REMARK SMILES IDX 20 51 21 53 22 55 26 59 32 62
REMARK H PARENT 11 2 11 3 4 10 5 13 35 16 7 18 8 19 2 21 1 23 1 24 1 25 12 29
REMARK H PARENT 33 32 14 33 31 34 34 36 16 41 28 47 19 52 20 54 22 56 22 57
REMARK H PARENT 22 58 26 60 26 61 32 63
REMARK Flexibility Score: inf
ROOT
ATOM      1  C   UNL     1     -46.495  35.878  26.582  1.00  0.00     0.117 C 
ATOM      2  H   UNL     1     -46.495  36.793  25.976  1.00  0.00     0.073 H 
ATOM      3  H   UNL     1     -45.733  35.180  26.218  1.00  0.00     0.073 H 
ENDROOT
BRANCH   1   4
ATOM      4  O   UNL     1     -47.779  35.250  26.515  1.00  0.00    -0.491 OA
BRANCH   4   5
ATOM      5  C   UNL     1     -47.836  34.010  25.944  1.00  0.00     0.121 A 
ATOM      6  C   UNL     1     -46.147  30.423  23.328  1.00  0.00     0.126 A 
ATOM      7  C   UNL     1     -47.260  29.636  23.584  1.00  0.00    -0.019 A 
ATOM      8  N   UNL     1     -46.005  31.661  23.839  1.00  0.00    -0.231 NA
ATOM      9  C   UNL     1     -48.277  30.147  24.384  1.00  0.00    -0.049 A 
ATOM     10  H   UNL     1     -47.332  28.629  23.189  1.00  0.00     0.066 H 
ATOM     11  C   UNL     1     -46.986  32.161  24.613  1.00  0.00     0.076 A 
ATOM     12  C   UNL     1     -48.154  31.434  24.915  1.00  0.00     0.001 A 
ATOM     13  H   UNL     1     -49.150  29.536  24.593  1.00  0.00     0.063 H 
ATOM     14  C   UNL     1     -46.848  33.440  25.138  1.00  0.00     0.007 A 
ATOM     15  C   UNL     1     -49.149  31.996  25.728  1.00  0.00    -0.049 A 
ATOM     16  H   UNL     1     -45.934  33.976  24.901  1.00  0.00     0.069 H 
ATOM     17  C   UNL     1     -48.984  33.280  26.242  1.00  0.00    -0.019 A 
ATOM     18  H   UNL     1     -50.054  31.444  25.967  1.00  0.00     0.063 H 
ATOM     19  H   UNL     1     -49.762  33.717  26.865  1.00  0.00     0.066 H 
BRANCH   6  20
ATOM     20  N   UNL     1     -45.081  29.971  22.548  1.00  0.00    -0.373 N 
ATOM     21  H   UNL     1     -45.337  30.254  21.602  1.00  0.00     0.161 HD
BRANCH  20  22
ATOM     22  C   UNL     1     -44.856  28.537  22.626  1.00  0.00     0.005 C 
ATOM     23  H   UNL     1     -45.036  28.205  23.654  1.00  0.00     0.045 H 
ATOM     24  H   UNL     1     -45.543  27.983  21.981  1.00  0.00     0.045 H 
ATOM     25  H   UNL     1     -43.823  28.277  22.368  1.00  0.00     0.045 H 
ENDBRANCH  20  22
ENDBRANCH   6  20
ENDBRANCH   4   5
ENDBRANCH   1   4
BRANCH   1  26
ATOM     26  C   UNL     1     -46.183  36.246  28.036  1.00  0.00     0.123 C 
ATOM     27  O   UNL     1     -44.847  36.779  28.150  1.00  0.00    -0.345 OA
ATOM     28  C   UNL     1     -47.114  37.301  28.626  1.00  0.00     0.114 C 
ATOM     29  H   UNL     1     -46.214  35.324  28.630  1.00  0.00     0.067 H 
ATOM     30  C   UNL     1     -44.866  37.825  29.161  1.00  0.00     0.164 C 
ATOM     31  C   UNL     1     -46.270  37.820  29.779  1.00  0.00     0.128 C 
ATOM     32  H   UNL     1     -47.319  38.123  27.930  1.00  0.00     0.066 H 
ATOM     33  H   UNL     1     -44.081  37.596  29.890  1.00  0.00     0.088 H 
ATOM     34  H   UNL     1     -46.615  38.788  30.153  1.00  0.00     0.068 H 
BRANCH  28  35
ATOM     35  O   UNL     1     -48.347  36.766  29.098  1.00  0.00    -0.387 OA
ATOM     36  H   UNL     1     -48.406  35.850  28.770  1.00  0.00     0.211 HD
ENDBRANCH  28  35
BRANCH  30  37
ATOM     37  N   UNL     1     -44.525  39.102  28.538  1.00  0.00    -0.303 N 
ATOM     38  C   UNL     1     -45.135  39.691  27.462  1.00  0.00     0.019 A 
ATOM     39  C   UNL     1     -43.510  39.918  28.980  1.00  0.00     0.148 A 
ATOM     40  C   UNL     1     -44.550  40.925  27.253  1.00  0.00     0.033 A 
ATOM     41  H   UNL     1     -45.946  39.207  26.934  1.00  0.00     0.083 H 
ATOM     42  C   UNL     1     -43.477  41.060  28.183  1.00  0.00     0.071 A 
ATOM     43  N   UNL     1     -42.702  39.640  30.015  1.00  0.00    -0.218 NA
ATOM     44  C   UNL     1     -42.456  41.981  28.470  1.00  0.00     0.137 A 
ATOM     45  C   UNL     1     -41.793  40.605  30.210  1.00  0.00     0.120 A 
ATOM     46  N   UNL     1     -41.624  41.736  29.503  1.00  0.00    -0.219 NA
ATOM     47  H   UNL     1     -41.104  40.453  31.036  1.00  0.00     0.106 H 
BRANCH  40  48
ATOM     48  C   UNL     1     -44.981  41.893  26.247  1.00  0.00     0.095 A 
ATOM     49  C   UNL     1     -44.340  42.131  25.012  1.00  0.00    -0.016 A 
ATOM     50  N   UNL     1     -46.010  42.726  26.440  1.00  0.00    -0.173 NA
ATOM     51  C   UNL     1     -45.065  43.143  24.425  1.00  0.00     0.025 A 
ATOM     52  H   UNL     1     -43.466  41.640  24.606  1.00  0.00     0.066 H 
ATOM     53  N   UNL     1     -46.049  43.458  25.314  1.00  0.00    -0.275 N 
ATOM     54  H   UNL     1     -44.954  43.655  23.480  1.00  0.00     0.084 H 
BRANCH  53  55
ATOM     55  C   UNL     1     -47.067  44.470  25.163  1.00  0.00     0.030 C 
ATOM     56  H   UNL     1     -46.576  45.424  24.954  1.00  0.00     0.048 H 
ATOM     57  H   UNL     1     -47.647  44.543  26.086  1.00  0.00     0.048 H 
ATOM     58  H   UNL     1     -47.719  44.182  24.334  1.00  0.00     0.048 H 
ENDBRANCH  53  55
ENDBRANCH  40  48
BRANCH  44  59
ATOM     59  N   UNL     1     -42.195  43.132  27.737  1.00  0.00    -0.383 N 
ATOM     60  H   UNL     1     -41.701  43.841  28.268  1.00  0.00     0.158 HD
ATOM     61  H   UNL     1     -43.050  43.449  27.294  1.00  0.00     0.158 HD
ENDBRANCH  44  59
ENDBRANCH  30  37
BRANCH  31  62
ATOM     62  O   UNL     1     -46.354  36.892  30.877  1.00  0.00    -0.386 OA
ATOM     63  H   UNL     1     -46.755  36.085  30.492  1.00  0.00     0.211 HD
ENDBRANCH  31  62
ENDBRANCH   1  26
TORSDOF 11
ENDMDL
MODEL 2
REMARK VINA RESULT:      -8.9      1.858      2.717
REMARK SMILES CNc1ccc2ccc(OC[C@H]3O[C@@H](n4cc(-c5ccn(C)n5)c5c(N)ncnc54)[C@H](O)[C@@H]3O)cc2n1
REMARK SMILES IDX 11 1 10 4 9 5 3 6 4 7 37 8 5 9 36 11 6 12 35 14 7 15 8 17
REMARK SMILES IDX 2 20 1 22 12 26 13 27 33 28 14 30 31 31 34 35 15 37 16 38
REMARK SMILES IDX 30 39 17 40 24 42 29 43 25 44 28 45 27 46 18 48 19 49 23 50
REMARK SMILES IDX 20 51 21 53 22 55 26 59 32 62
REMARK H PARENT 11 2 11 3 4 10 5 13 35 16 7 18 8 19 2 21 1 23 1 24 1 25 12 29
REMARK H PARENT 33 32 14 33 31 34 34 36 16 41 28 47 19 52 20 54 22 56 22 57
REMARK H PARENT 22 58 26 60 26 61 32 63
REMARK Flexibility Score: inf
ROOT
ATOM      1  C   UNL     1     -46.239  34.340  26.662  1.00  0.00     0.117 C 
ATOM      2  H   UNL     1     -45.354  34.949  26.443  1.00  0.00     0.073 H 
ATOM      3  H   UNL     1     -45.941  33.364  27.063  1.00  0.00     0.073 H 
ENDROOT
BRANCH   1   4
ATOM      4  O   UNL     1     -47.002  34.144  25.468  1.00  0.00    -0.491 OA
BRANCH   4   5
ATOM      5  C   UNL     1     -47.101  32.867  24.994  1.00  0.00     0.121 A 
ATOM      6  C   UNL     1     -49.107  28.574  24.651  1.00  0.00     0.126 A 
ATOM      7  C   UNL     1     -48.176  28.151  23.714  1.00  0.00    -0.019 A 
ATOM      8  N   UNL     1     -49.086  29.813  25.180  1.00  0.00    -0.231 NA
ATOM      9  C   UNL     1     -47.172  29.028  23.318  1.00  0.00    -0.049 A 
ATOM     10  H   UNL     1     -48.238  27.161  23.278  1.00  0.00     0.066 H 
ATOM     11  C   UNL     1     -48.117  30.666  24.801  1.00  0.00     0.076 A 
ATOM     12  C   UNL     1     -47.125  30.313  23.864  1.00  0.00     0.001 A 
ATOM     13  H   UNL     1     -46.441  28.705  22.582  1.00  0.00     0.063 H 
ATOM     14  C   UNL     1     -48.085  31.942  25.349  1.00  0.00     0.007 A 
ATOM     15  C   UNL     1     -46.136  31.237  23.498  1.00  0.00    -0.049 A 
ATOM     16  H   UNL     1     -48.866  32.194  26.060  1.00  0.00     0.069 H 
ATOM     17  C   UNL     1     -46.130  32.510  24.062  1.00  0.00    -0.019 A 
ATOM     18  H   UNL     1     -45.367  30.975  22.775  1.00  0.00     0.063 H 
ATOM     19  H   UNL     1     -45.355  33.222  23.783  1.00  0.00     0.066 H 
BRANCH   6  20
ATOM     20  N   UNL     1     -50.151  27.755  25.084  1.00  0.00    -0.373 N 
ATOM     21  H   UNL     1     -50.890  28.415  25.327  1.00  0.00     0.161 HD
BRANCH  20  22
ATOM     22  C   UNL     1     -49.809  26.907  26.213  1.00  0.00     0.005 C 
ATOM     23  H   UNL     1     -50.136  25.883  26.001  1.00  0.00     0.045 H 
ATOM     24  H   UNL     1     -48.729  26.873  26.382  1.00  0.00     0.045 H 
ATOM     25  H   UNL     1     -50.311  27.234  27.130  1.00  0.00     0.045 H 
ENDBRANCH  20  22
ENDBRANCH   6  20
ENDBRANCH   4   5
ENDBRANCH   1   4
BRANCH   1  26
ATOM     26  C   UNL     1     -47.098  35.067  27.701  1.00  0.00     0.123 C 
ATOM     27  O   UNL     1     -46.265  35.799  28.626  1.00  0.00    -0.345 OA
ATOM     28  C   UNL     1     -48.069  36.083  27.108  1.00  0.00     0.114 C 
ATOM     29  H   UNL     1     -47.635  34.308  28.283  1.00  0.00     0.067 H 
ATOM     30  C   UNL     1     -46.956  37.031  28.972  1.00  0.00     0.164 C 
ATOM     31  C   UNL     1     -48.341  36.964  28.316  1.00  0.00     0.128 C 
ATOM     32  H   UNL     1     -47.618  36.688  26.314  1.00  0.00     0.066 H 
ATOM     33  H   UNL     1     -47.006  37.088  30.065  1.00  0.00     0.088 H 
ATOM     34  H   UNL     1     -48.773  37.931  28.045  1.00  0.00     0.068 H 
BRANCH  28  35
ATOM     35  O   UNL     1     -49.274  35.496  26.625  1.00  0.00    -0.387 OA
ATOM     36  H   UNL     1     -49.020  34.773  26.023  1.00  0.00     0.211 HD
ENDBRANCH  28  35
BRANCH  30  37
ATOM     37  N   UNL     1     -46.165  38.171  28.512  1.00  0.00    -0.303 N 
ATOM     38  C   UNL     1     -46.425  38.982  27.439  1.00  0.00     0.019 A 
ATOM     39  C   UNL     1     -45.015  38.600  29.131  1.00  0.00     0.148 A 
ATOM     40  C   UNL     1     -45.470  39.981  27.409  1.00  0.00     0.033 A 
ATOM     41  H   UNL     1     -47.271  38.810  26.786  1.00  0.00     0.083 H 
ATOM     42  C   UNL     1     -44.534  39.718  28.453  1.00  0.00     0.071 A 
ATOM     43  N   UNL     1     -44.469  38.022  30.213  1.00  0.00    -0.218 NA
ATOM     44  C   UNL     1     -43.326  40.254  28.930  1.00  0.00     0.137 A 
ATOM     45  C   UNL     1     -43.341  38.641  30.591  1.00  0.00     0.120 A 
ATOM     46  N   UNL     1     -42.747  39.700  30.015  1.00  0.00    -0.219 NA
ATOM     47  H   UNL     1     -42.843  38.233  31.465  1.00  0.00     0.106 H 
BRANCH  40  48
ATOM     48  C   UNL     1     -45.453  41.092  26.460  1.00  0.00     0.095 A 
ATOM     49  C   UNL     1     -46.512  42.000  26.242  1.00  0.00    -0.016 A 
ATOM     50  N   UNL     1     -44.430  41.314  25.626  1.00  0.00    -0.173 NA
ATOM     51  C   UNL     1     -46.064  42.833  25.242  1.00  0.00     0.025 A 
ATOM     52  H   UNL     1     -47.471  42.040  26.738  1.00  0.00     0.066 H 
ATOM     53  N   UNL     1     -44.820  42.384  24.914  1.00  0.00    -0.275 N 
ATOM     54  H   UNL     1     -46.524  43.676  24.747  1.00  0.00     0.084 H 
BRANCH  53  55
ATOM     55  C   UNL     1     -43.937  42.924  23.908  1.00  0.00     0.030 C 
ATOM     56  H   UNL     1     -42.960  42.447  24.015  1.00  0.00     0.048 H 
ATOM     57  H   UNL     1     -43.843  44.003  24.048  1.00  0.00     0.048 H 
ATOM     58  H   UNL     1     -44.365  42.711  22.924  1.00  0.00     0.048 H 
ENDBRANCH  53  55
ENDBRANCH  40  48
BRANCH  44  59
ATOM     59  N   UNL     1     -42.635  41.305  28.339  1.00  0.00    -0.383 N 
ATOM     60  H   UNL     1     -42.686  41.296  27.327  1.00  0.00     0.158 HD
ATOM     61  H   UNL     1     -41.696  41.345  28.720  1.00  0.00     0.158 HD
ENDBRANCH  44  59
ENDBRANCH  30  37
BRANCH  31  62
ATOM     62  O   UNL     1     -49.292  36.305  29.174  1.00  0.00    -0.386 OA
ATOM     63  H   UNL     1     -49.670  35.589  28.623  1.00  0.00     0.211 HD
ENDBRANCH  31  62
ENDBRANCH   1  26
TORSDOF 11
ENDMDL
MODEL 3
REMARK VINA RESULT:      -8.9      1.598      2.112
REMARK SMILES CNc1ccc2ccc(OC[C@H]3O[C@@H](n4cc(-c5ccn(C)n5)c5c(N)ncnc54)[C@H](O)[C@@H]3O)cc2n1
REMARK SMILES IDX 11 1 10 4 9 5 3 6 4 7 37 8 5 9 36 11 6 12 35 14 7 15 8 17
REMARK SMILES IDX 2 20 1 22 12 26 13 27 33 28 14 30 31 31 34 35 15 37 16 38
REMARK SMILES IDX 30 39 17 40 24 42 29 43 25 44 28 45 27 46 18 48 19 49 23 50
REMARK SMILES IDX 20 51 21 53 22 55 26 59 32 62
REMARK H PARENT 11 2 11 3 4 10 5 13 35 16 7 18 8 19 2 21 1 23 1 24 1 25 12 29
REMARK H PARENT 33 32 14 33 31 34 34 36 16 41 28 47 19 52 20 54 22 56 22 57
REMARK H PARENT 22 58 26 60 26 61 32 63
REMARK Flexibility Score: inf
ROOT
ATOM      1  C   UNL     1     -45.832  34.400  27.004  1.00  0.00     0.117 C 
ATOM      2  H   UNL     1     -45.971  34.697  25.958  1.00  0.00     0.073 H 
ATOM      3  H   UNL     1     -44.809  34.620  27.330  1.00  0.00     0.073 H 
ENDROOT
BRANCH   1   4
ATOM      4  O   UNL     1     -46.081  32.999  27.150  1.00  0.00    -0.491 OA
BRANCH   4   5
ATOM      5  C   UNL     1     -46.791  32.386  26.156  1.00  0.00     0.121 A 
ATOM      6  C   UNL     1     -47.553  30.988  21.681  1.00  0.00     0.126 A 
ATOM      7  C   UNL     1     -48.734  30.345  22.022  1.00  0.00    -0.019 A 
ATOM      8  N   UNL     1     -46.790  31.626  22.590  1.00  0.00    -0.231 NA
ATOM      9  C   UNL     1     -49.159  30.375  23.346  1.00  0.00    -0.049 A 
ATOM     10  H   UNL     1     -49.310  29.810  21.277  1.00  0.00     0.066 H 
ATOM     11  C   UNL     1     -47.196  31.657  23.872  1.00  0.00     0.076 A 
ATOM     12  C   UNL     1     -48.387  31.040  24.302  1.00  0.00     0.001 A 
ATOM     13  H   UNL     1     -50.080  29.870  23.622  1.00  0.00     0.063 H 
ATOM     14  C   UNL     1     -46.416  32.319  24.813  1.00  0.00     0.007 A 
ATOM     15  C   UNL     1     -48.768  31.098  25.651  1.00  0.00    -0.049 A 
ATOM     16  H   UNL     1     -45.497  32.776  24.459  1.00  0.00     0.069 H 
ATOM     17  C   UNL     1     -47.967  31.767  26.572  1.00  0.00    -0.019 A 
ATOM     18  H   UNL     1     -49.685  30.625  25.993  1.00  0.00     0.063 H 
ATOM     19  H   UNL     1     -48.270  31.818  27.616  1.00  0.00     0.066 H 
BRANCH   6  20
ATOM     20  N   UNL     1     -47.057  30.988  20.376  1.00  0.00    -0.373 N 
ATOM     21  H   UNL     1     -46.902  29.999  20.177  1.00  0.00     0.161 HD
BRANCH  20  22
ATOM     22  C   UNL     1     -45.837  31.758  20.206  1.00  0.00     0.005 C 
ATOM     23  H   UNL     1     -45.245  31.694  21.125  1.00  0.00     0.045 H 
ATOM     24  H   UNL     1     -45.218  31.365  19.394  1.00  0.00     0.045 H 
ATOM     25  H   UNL     1     -46.051  32.817  20.021  1.00  0.00     0.045 H 
ENDBRANCH  20  22
ENDBRANCH   6  20
ENDBRANCH   4   5
ENDBRANCH   1   4
BRANCH   1  26
ATOM     26  C   UNL     1     -46.816  35.185  27.878  1.00  0.00     0.123 C 
ATOM     27  O   UNL     1     -46.106  36.033  28.807  1.00  0.00    -0.345 OA
ATOM     28  C   UNL     1     -47.751  36.102  27.096  1.00  0.00     0.114 C 
ATOM     29  H   UNL     1     -47.387  34.462  28.473  1.00  0.00     0.067 H 
ATOM     30  C   UNL     1     -46.866  37.263  28.962  1.00  0.00     0.164 C 
ATOM     31  C   UNL     1     -48.173  37.080  28.180  1.00  0.00     0.128 C 
ATOM     32  H   UNL     1     -47.239  36.649  26.296  1.00  0.00     0.066 H 
ATOM     33  H   UNL     1     -47.030  37.419  30.033  1.00  0.00     0.088 H 
ATOM     34  H   UNL     1     -48.604  38.000  27.775  1.00  0.00     0.068 H 
BRANCH  28  35
ATOM     35  O   UNL     1     -48.881  35.425  26.553  1.00  0.00    -0.387 OA
ATOM     36  H   UNL     1     -49.560  36.100  26.374  1.00  0.00     0.211 HD
ENDBRANCH  28  35
BRANCH  30  37
ATOM     37  N   UNL     1     -46.067  38.386  28.475  1.00  0.00    -0.303 N 
ATOM     38  C   UNL     1     -46.327  39.182  27.390  1.00  0.00     0.019 A 
ATOM     39  C   UNL     1     -44.907  38.813  29.076  1.00  0.00     0.148 A 
ATOM     40  C   UNL     1     -45.362  40.169  27.335  1.00  0.00     0.033 A 
ATOM     41  H   UNL     1     -47.180  39.007  26.748  1.00  0.00     0.083 H 
ATOM     42  C   UNL     1     -44.420  39.914  28.375  1.00  0.00     0.071 A 
ATOM     43  N   UNL     1     -44.357  38.248  30.164  1.00  0.00    -0.218 NA
ATOM     44  C   UNL     1     -43.202  40.444  28.833  1.00  0.00     0.137 A 
ATOM     45  C   UNL     1     -43.220  38.860  30.521  1.00  0.00     0.120 A 
ATOM     46  N   UNL     1     -42.619  39.903  29.922  1.00  0.00    -0.219 NA
ATOM     47  H   UNL     1     -42.718  38.461  31.398  1.00  0.00     0.106 H 
BRANCH  40  48
ATOM     48  C   UNL     1     -45.341  41.263  26.367  1.00  0.00     0.095 A 
ATOM     49  C   UNL     1     -46.362  42.222  26.192  1.00  0.00    -0.016 A 
ATOM     50  N   UNL     1     -44.356  41.419  25.474  1.00  0.00    -0.173 NA
ATOM     51  C   UNL     1     -45.929  43.016  25.155  1.00  0.00     0.025 A 
ATOM     52  H   UNL     1     -47.289  42.320  26.740  1.00  0.00     0.066 H 
ATOM     53  N   UNL     1     -44.730  42.498  24.766  1.00  0.00    -0.275 N 
ATOM     54  H   UNL     1     -46.372  43.875  24.671  1.00  0.00     0.084 H 
BRANCH  53  55
ATOM     55  C   UNL     1     -43.879  42.975  23.703  1.00  0.00     0.030 C 
ATOM     56  H   UNL     1     -43.896  44.068  23.713  1.00  0.00     0.048 H 
ATOM     57  H   UNL     1     -44.251  42.605  22.745  1.00  0.00     0.048 H 
ATOM     58  H   UNL     1     -42.866  42.603  23.879  1.00  0.00     0.048 H 
ENDBRANCH  53  55
ENDBRANCH  40  48
BRANCH  44  59
ATOM     59  N   UNL     1     -42.505  41.478  28.219  1.00  0.00    -0.383 N 
ATOM     60  H   UNL     1     -42.217  41.257  27.271  1.00  0.00     0.158 HD
ATOM     61  H   UNL     1     -41.758  41.789  28.830  1.00  0.00     0.158 HD
ENDBRANCH  44  59
ENDBRANCH  30  37
BRANCH  31  62
ATOM     62  O   UNL     1     -49.187  36.466  28.997  1.00  0.00    -0.386 OA
ATOM     63  H   UNL     1     -50.030  36.660  28.538  1.00  0.00     0.211 HD
ENDBRANCH  31  62
ENDBRANCH   1  26
TORSDOF 11
ENDMDL
MODEL 4
REMARK VINA RESULT:      -8.6      2.895      5.869
REMARK SMILES CNc1ccc2ccc(OC[C@H]3O[C@@H](n4cc(-c5ccn(C)n5)c5c(N)ncnc54)[C@H](O)[C@@H]3O)cc2n1
REMARK SMILES IDX 11 1 10 4 9 5 3 6 4 7 37 8 5 9 36 11 6 12 35 14 7 15 8 17
REMARK SMILES IDX 2 20 1 22 12 26 13 27 33 28 14 30 31 31 34 35 15 37 16 38
REMARK SMILES IDX 30 39 17 40 24 42 29 43 25 44 28 45 27 46 18 48 19 49 23 50
REMARK SMILES IDX 20 51 21 53 22 55 26 59 32 62
REMARK H PARENT 11 2 11 3 4 10 5 13 35 16 7 18 8 19 2 21 1 23 1 24 1 25 12 29
REMARK H PARENT 33 32 14 33 31 34 34 36 16 41 28 47 19 52 20 54 22 56 22 57
REMARK H PARENT 22 58 26 60 26 61 32 63
REMARK Flexibility Score: inf
ROOT
ATOM      1  C   UNL     1     -44.203  39.736  28.538  1.00  0.00     0.117 C 
ATOM      2  H   UNL     1     -43.911  38.690  28.381  1.00  0.00     0.073 H 
ATOM      3  H   UNL     1     -44.014  40.033  29.576  1.00  0.00     0.073 H 
ENDROOT
BRANCH   1   4
ATOM      4  O   UNL     1     -45.594  39.902  28.246  1.00  0.00    -0.491 OA
BRANCH   4   5
ATOM      5  C   UNL     1     -46.302  38.779  27.927  1.00  0.00     0.121 A 
ATOM      6  C   UNL     1     -46.759  34.273  26.492  1.00  0.00     0.126 A 
ATOM      7  C   UNL     1     -48.138  34.305  26.644  1.00  0.00    -0.019 A 
ATOM      8  N   UNL     1     -45.978  35.334  26.773  1.00  0.00    -0.231 NA
ATOM      9  C   UNL     1     -48.740  35.478  27.085  1.00  0.00    -0.049 A 
ATOM     10  H   UNL     1     -48.738  33.425  26.444  1.00  0.00     0.066 H 
ATOM     11  C   UNL     1     -46.556  36.472  27.200  1.00  0.00     0.076 A 
ATOM     12  C   UNL     1     -47.949  36.593  27.371  1.00  0.00     0.001 A 
ATOM     13  H   UNL     1     -49.819  35.509  27.210  1.00  0.00     0.063 H 
ATOM     14  C   UNL     1     -45.756  37.572  27.485  1.00  0.00     0.007 A 
ATOM     15  C   UNL     1     -48.506  37.800  27.820  1.00  0.00    -0.049 A 
ATOM     16  H   UNL     1     -44.685  37.450  27.356  1.00  0.00     0.069 H 
ATOM     17  C   UNL     1     -47.680  38.885  28.100  1.00  0.00    -0.019 A 
ATOM     18  H   UNL     1     -49.579  37.904  27.956  1.00  0.00     0.063 H 
ATOM     19  H   UNL     1     -48.115  39.823  28.440  1.00  0.00     0.066 H 
BRANCH   6  20
ATOM     20  N   UNL     1     -46.084  33.127  26.069  1.00  0.00    -0.373 N 
ATOM     21  H   UNL     1     -45.105  33.415  26.056  1.00  0.00     0.161 HD
BRANCH  20  22
ATOM     22  C   UNL     1     -46.507  32.637  24.768  1.00  0.00     0.005 C 
ATOM     23  H   UNL     1     -46.426  31.545  24.756  1.00  0.00     0.045 H 
ATOM     24  H   UNL     1     -47.551  32.888  24.560  1.00  0.00     0.045 H 
ATOM     25  H   UNL     1     -45.872  33.028  23.965  1.00  0.00     0.045 H 
ENDBRANCH  20  22
ENDBRANCH   6  20
ENDBRANCH   4   5
ENDBRANCH   1   4
BRANCH   1  26
ATOM     26  C   UNL     1     -43.377  40.626  27.604  1.00  0.00     0.123 C 
ATOM     27  O   UNL     1     -44.007  40.728  26.310  1.00  0.00    -0.345 OA
ATOM     28  C   UNL     1     -43.198  42.057  28.103  1.00  0.00     0.114 C 
ATOM     29  H   UNL     1     -42.404  40.143  27.452  1.00  0.00     0.067 H 
ATOM     30  C   UNL     1     -43.789  42.076  25.809  1.00  0.00     0.164 C 
ATOM     31  C   UNL     1     -42.858  42.776  26.808  1.00  0.00     0.128 C 
ATOM     32  H   UNL     1     -44.119  42.479  28.520  1.00  0.00     0.066 H 
ATOM     33  H   UNL     1     -43.351  41.992  24.809  1.00  0.00     0.088 H 
ATOM     34  H   UNL     1     -42.987  43.859  26.880  1.00  0.00     0.068 H 
BRANCH  28  35
ATOM     35  O   UNL     1     -42.145  42.196  29.053  1.00  0.00    -0.387 OA
ATOM     36  H   UNL     1     -41.696  41.333  29.111  1.00  0.00     0.211 HD
ENDBRANCH  28  35
BRANCH  30  37
ATOM     37  N   UNL     1     -45.077  42.751  25.666  1.00  0.00    -0.303 N 
ATOM     38  C   UNL     1     -46.295  42.321  26.123  1.00  0.00     0.019 A 
ATOM     39  C   UNL     1     -45.237  43.963  25.037  1.00  0.00     0.148 A 
ATOM     40  C   UNL     1     -47.233  43.296  25.843  1.00  0.00     0.033 A 
ATOM     41  H   UNL     1     -46.410  41.370  26.627  1.00  0.00     0.083 H 
ATOM     42  C   UNL     1     -46.580  44.326  25.103  1.00  0.00     0.071 A 
ATOM     43  N   UNL     1     -44.245  44.663  24.464  1.00  0.00    -0.218 NA
ATOM     44  C   UNL     1     -46.925  45.525  24.457  1.00  0.00     0.137 A 
ATOM     45  C   UNL     1     -44.692  45.799  23.910  1.00  0.00     0.120 A 
ATOM     46  N   UNL     1     -45.956  46.256  23.870  1.00  0.00    -0.219 NA
ATOM     47  H   UNL     1     -43.945  46.423  23.430  1.00  0.00     0.106 H 
BRANCH  40  48
ATOM     48  C   UNL     1     -48.636  43.246  26.248  1.00  0.00     0.095 A 
ATOM     49  C   UNL     1     -49.103  43.124  27.574  1.00  0.00    -0.016 A 
ATOM     50  N   UNL     1     -49.642  43.231  25.365  1.00  0.00    -0.173 NA
ATOM     51  C   UNL     1     -50.474  43.075  27.465  1.00  0.00     0.025 A 
ATOM     52  H   UNL     1     -48.523  43.073  28.485  1.00  0.00     0.066 H 
ATOM     53  N   UNL     1     -50.743  43.146  26.130  1.00  0.00    -0.275 N 
ATOM     54  H   UNL     1     -51.254  42.988  28.208  1.00  0.00     0.084 H 
BRANCH  53  55
ATOM     55  C   UNL     1     -52.041  43.123  25.502  1.00  0.00     0.030 C 
ATOM     56  H   UNL     1     -52.686  42.445  26.067  1.00  0.00     0.048 H 
ATOM     57  H   UNL     1     -51.941  42.771  24.472  1.00  0.00     0.048 H 
ATOM     58  H   UNL     1     -52.447  44.138  25.511  1.00  0.00     0.048 H 
ENDBRANCH  53  55
ENDBRANCH  40  48
BRANCH  44  59
ATOM     59  N   UNL     1     -48.220  46.014  24.329  1.00  0.00    -0.383 N 
ATOM     60  H   UNL     1     -48.924  45.285  24.338  1.00  0.00     0.158 HD
ATOM     61  H   UNL     1     -48.265  46.641  23.533  1.00  0.00     0.158 HD
ENDBRANCH  44  59
ENDBRANCH  30  37
BRANCH  31  62
ATOM     62  O   UNL     1     -41.475  42.537  26.487  1.00  0.00    -0.386 OA
ATOM     63  H   UNL     1     -41.494  42.096  25.613  1.00  0.00     0.211 HD
ENDBRANCH  31  62
ENDBRANCH   1  26
TORSDOF 11
ENDMDL
MODEL 5
REMARK VINA RESULT:      -8.5      2.169      3.005
REMARK SMILES CNc1ccc2ccc(OC[C@H]3O[C@@H](n4cc(-c5ccn(C)n5)c5c(N)ncnc54)[C@H](O)[C@@H]3O)cc2n1
REMARK SMILES IDX 11 1 10 4 9 5 3 6 4 7 37 8 5 9 36 11 6 12 35 14 7 15 8 17
REMARK SMILES IDX 2 20 1 22 12 26 13 27 33 28 14 30 31 31 34 35 15 37 16 38
REMARK SMILES IDX 30 39 17 40 24 42 29 43 25 44 28 45 27 46 18 48 19 49 23 50
REMARK SMILES IDX 20 51 21 53 22 55 26 59 32 62
REMARK H PARENT 11 2 11 3 4 10 5 13 35 16 7 18 8 19 2 21 1 23 1 24 1 25 12 29
REMARK H PARENT 33 32 14 33 31 34 34 36 16 41 28 47 19 52 20 54 22 56 22 57
REMARK H PARENT 22 58 26 60 26 61 32 63
REMARK Flexibility Score: inf
ROOT
ATOM      1  C   UNL     1     -46.399  35.616  26.633  1.00  0.00     0.117 C 
ATOM      2  H   UNL     1     -47.138  36.250  26.128  1.00  0.00     0.073 H 
ATOM      3  H   UNL     1     -45.589  35.352  25.943  1.00  0.00     0.073 H 
ENDROOT
BRANCH   1   4
ATOM      4  O   UNL     1     -47.025  34.419  27.103  1.00  0.00    -0.491 OA
BRANCH   4   5
ATOM      5  C   UNL     1     -47.377  33.491  26.165  1.00  0.00     0.121 A 
ATOM      6  C   UNL     1     -46.508  30.438  22.631  1.00  0.00     0.126 A 
ATOM      7  C   UNL     1     -47.837  30.045  22.567  1.00  0.00    -0.019 A 
ATOM      8  N   UNL     1     -46.068  31.353  23.517  1.00  0.00    -0.231 NA
ATOM      9  C   UNL     1     -48.754  30.627  23.435  1.00  0.00    -0.049 A 
ATOM     10  H   UNL     1     -48.156  29.281  21.868  1.00  0.00     0.066 H 
ATOM     11  C   UNL     1     -46.951  31.919  24.359  1.00  0.00     0.076 A 
ATOM     12  C   UNL     1     -48.320  31.586  24.354  1.00  0.00     0.001 A 
ATOM     13  H   UNL     1     -49.795  30.321  23.394  1.00  0.00     0.063 H 
ATOM     14  C   UNL     1     -46.504  32.868  25.270  1.00  0.00     0.007 A 
ATOM     15  C   UNL     1     -49.203  32.202  25.253  1.00  0.00    -0.049 A 
ATOM     16  H   UNL     1     -45.444  33.100  25.263  1.00  0.00     0.069 H 
ATOM     17  C   UNL     1     -48.727  33.148  26.157  1.00  0.00    -0.019 A 
ATOM     18  H   UNL     1     -50.260  31.951  25.257  1.00  0.00     0.063 H 
ATOM     19  H   UNL     1     -49.416  33.631  26.847  1.00  0.00     0.066 H 
BRANCH   6  20
ATOM     20  N   UNL     1     -45.529  29.887  21.802  1.00  0.00    -0.373 N 
ATOM     21  H   UNL     1     -46.054  29.565  20.989  1.00  0.00     0.161 HD
BRANCH  20  22
ATOM     22  C   UNL     1     -44.780  28.801  22.411  1.00  0.00     0.005 C 
ATOM     23  H   UNL     1     -43.934  29.219  22.966  1.00  0.00     0.045 H 
ATOM     24  H   UNL     1     -45.390  28.238  23.124  1.00  0.00     0.045 H 
ATOM     25  H   UNL     1     -44.378  28.116  21.656  1.00  0.00     0.045 H 
ENDBRANCH  20  22
ENDBRANCH   6  20
ENDBRANCH   4   5
ENDBRANCH   1   4
BRANCH   1  26
ATOM     26  C   UNL     1     -45.814  36.386  27.821  1.00  0.00     0.123 C 
ATOM     27  O   UNL     1     -45.134  37.577  27.371  1.00  0.00    -0.345 OA
ATOM     28  C   UNL     1     -46.854  36.850  28.837  1.00  0.00     0.114 C 
ATOM     29  H   UNL     1     -45.062  35.746  28.299  1.00  0.00     0.067 H 
ATOM     30  C   UNL     1     -45.355  38.621  28.359  1.00  0.00     0.164 C 
ATOM     31  C   UNL     1     -46.101  37.972  29.533  1.00  0.00     0.128 C 
ATOM     32  H   UNL     1     -47.756  37.257  28.366  1.00  0.00     0.066 H 
ATOM     33  H   UNL     1     -44.376  39.018  28.646  1.00  0.00     0.088 H 
ATOM     34  H   UNL     1     -46.761  38.642  30.089  1.00  0.00     0.068 H 
BRANCH  28  35
ATOM     35  O   UNL     1     -47.226  35.835  29.766  1.00  0.00    -0.387 OA
ATOM     36  H   UNL     1     -46.492  35.743  30.400  1.00  0.00     0.211 HD
ENDBRANCH  28  35
BRANCH  30  37
ATOM     37  N   UNL     1     -46.107  39.713  27.744  1.00  0.00    -0.303 N 
ATOM     38  C   UNL     1     -47.463  39.905  27.769  1.00  0.00     0.019 A 
ATOM     39  C   UNL     1     -45.522  40.740  27.042  1.00  0.00     0.148 A 
ATOM     40  C   UNL     1     -47.744  41.099  27.134  1.00  0.00     0.033 A 
ATOM     41  H   UNL     1     -48.129  39.198  28.246  1.00  0.00     0.083 H 
ATOM     42  C   UNL     1     -46.518  41.616  26.619  1.00  0.00     0.071 A 
ATOM     43  N   UNL     1     -44.203  40.858  26.817  1.00  0.00    -0.218 NA
ATOM     44  C   UNL     1     -46.091  42.702  25.837  1.00  0.00     0.137 A 
ATOM     45  C   UNL     1     -43.917  41.946  26.090  1.00  0.00     0.120 A 
ATOM     46  N   UNL     1     -44.774  42.854  25.590  1.00  0.00    -0.219 NA
ATOM     47  H   UNL     1     -42.867  42.112  25.871  1.00  0.00     0.106 H 
BRANCH  40  48
ATOM     48  C   UNL     1     -49.074  41.695  27.026  1.00  0.00     0.095 A 
ATOM     49  C   UNL     1     -50.052  41.707  28.044  1.00  0.00    -0.016 A 
ATOM     50  N   UNL     1     -49.534  42.234  25.891  1.00  0.00    -0.173 NA
ATOM     51  C   UNL     1     -51.142  42.329  27.481  1.00  0.00     0.025 A 
ATOM     52  H   UNL     1     -49.977  41.312  29.048  1.00  0.00     0.066 H 
ATOM     53  N   UNL     1     -50.781  42.626  26.201  1.00  0.00    -0.275 N 
ATOM     54  H   UNL     1     -52.120  42.567  27.876  1.00  0.00     0.084 H 
BRANCH  53  55
ATOM     55  C   UNL     1     -51.588  43.277  25.198  1.00  0.00     0.030 C 
ATOM     56  H   UNL     1     -52.143  44.089  25.675  1.00  0.00     0.048 H 
ATOM     57  H   UNL     1     -52.284  42.555  24.765  1.00  0.00     0.048 H 
ATOM     58  H   UNL     1     -50.924  43.667  24.422  1.00  0.00     0.048 H 
ENDBRANCH  53  55
ENDBRANCH  40  48
BRANCH  44  59
ATOM     59  N   UNL     1     -46.934  43.634  25.243  1.00  0.00    -0.383 N 
ATOM     60  H   UNL     1     -47.401  43.279  24.416  1.00  0.00     0.158 HD
ATOM     61  H   UNL     1     -46.431  44.504  25.109  1.00  0.00     0.158 HD
ENDBRANCH  44  59
ENDBRANCH  30  37
BRANCH  31  62
ATOM     62  O   UNL     1     -45.181  37.402  30.483  1.00  0.00    -0.386 OA
ATOM     63  H   UNL     1     -45.605  36.568  30.772  1.00  0.00     0.211 HD
ENDBRANCH  31  62
ENDBRANCH   1  26
TORSDOF 11
ENDMDL
MODEL 6
REMARK VINA RESULT:      -8.4      1.915      3.203
REMARK SMILES CNc1ccc2ccc(OC[C@H]3O[C@@H](n4cc(-c5ccn(C)n5)c5c(N)ncnc54)[C@H](O)[C@@H]3O)cc2n1
REMARK SMILES IDX 11 1 10 4 9 5 3 6 4 7 37 8 5 9 36 11 6 12 35 14 7 15 8 17
REMARK SMILES IDX 2 20 1 22 12 26 13 27 33 28 14 30 31 31 34 35 15 37 16 38
REMARK SMILES IDX 30 39 17 40 24 42 29 43 25 44 28 45 27 46 18 48 19 49 23 50
REMARK SMILES IDX 20 51 21 53 22 55 26 59 32 62
REMARK H PARENT 11 2 11 3 4 10 5 13 35 16 7 18 8 19 2 21 1 23 1 24 1 25 12 29
REMARK H PARENT 33 32 14 33 31 34 34 36 16 41 28 47 19 52 20 54 22 56 22 57
REMARK H PARENT 22 58 26 60 26 61 32 63
REMARK Flexibility Score: inf
ROOT
ATOM      1  C   UNL     1     -46.425  35.493  26.663  1.00  0.00     0.117 C 
ATOM      2  H   UNL     1     -46.726  36.293  25.976  1.00  0.00     0.073 H 
ATOM      3  H   UNL     1     -45.531  34.983  26.285  1.00  0.00     0.073 H 
ENDROOT
BRANCH   1   4
ATOM      4  O   UNL     1     -47.486  34.543  26.799  1.00  0.00    -0.491 OA
BRANCH   4   5
ATOM      5  C   UNL     1     -47.400  33.403  26.052  1.00  0.00     0.121 A 
ATOM      6  C   UNL     1     -48.712  29.022  24.765  1.00  0.00     0.126 A 
ATOM      7  C   UNL     1     -47.764  28.974  23.753  1.00  0.00    -0.019 A 
ATOM      8  N   UNL     1     -48.866  30.100  25.558  1.00  0.00    -0.231 NA
ATOM      9  C   UNL     1     -46.929  30.069  23.559  1.00  0.00    -0.049 A 
ATOM     10  H   UNL     1     -47.686  28.108  23.106  1.00  0.00     0.066 H 
ATOM     11  C   UNL     1     -48.061  31.162  25.375  1.00  0.00     0.076 A 
ATOM     12  C   UNL     1     -47.065  31.192  24.378  1.00  0.00     0.001 A 
ATOM     13  H   UNL     1     -46.188  30.041  22.766  1.00  0.00     0.063 H 
ATOM     14  C   UNL     1     -48.210  32.274  26.195  1.00  0.00     0.007 A 
ATOM     15  C   UNL     1     -46.251  32.324  24.224  1.00  0.00    -0.049 A 
ATOM     16  H   UNL     1     -48.991  32.232  26.948  1.00  0.00     0.069 H 
ATOM     17  C   UNL     1     -46.424  33.425  25.059  1.00  0.00    -0.019 A 
ATOM     18  H   UNL     1     -45.480  32.357  23.458  1.00  0.00     0.063 H 
ATOM     19  H   UNL     1     -45.784  34.297  24.943  1.00  0.00     0.066 H 
BRANCH   6  20
ATOM     20  N   UNL     1     -49.594  27.968  25.008  1.00  0.00    -0.373 N 
ATOM     21  H   UNL     1     -50.506  28.423  25.056  1.00  0.00     0.161 HD
BRANCH  20  22
ATOM     22  C   UNL     1     -49.309  27.226  26.225  1.00  0.00     0.005 C 
ATOM     23  H   UNL     1     -49.515  26.165  26.050  1.00  0.00     0.045 H 
ATOM     24  H   UNL     1     -48.258  27.310  26.514  1.00  0.00     0.045 H 
ATOM     25  H   UNL     1     -49.943  27.557  27.055  1.00  0.00     0.045 H 
ENDBRANCH  20  22
ENDBRANCH   6  20
ENDBRANCH   4   5
ENDBRANCH   1   4
BRANCH   1  26
ATOM     26  C   UNL     1     -46.111  36.105  28.032  1.00  0.00     0.123 C 
ATOM     27  O   UNL     1     -44.926  36.927  27.962  1.00  0.00    -0.345 OA
ATOM     28  C   UNL     1     -47.216  37.001  28.583  1.00  0.00     0.114 C 
ATOM     29  H   UNL     1     -45.893  35.284  28.725  1.00  0.00     0.067 H 
ATOM     30  C   UNL     1     -45.116  38.065  28.847  1.00  0.00     0.164 C 
ATOM     31  C   UNL     1     -46.439  37.836  29.588  1.00  0.00     0.128 C 
ATOM     32  H   UNL     1     -47.648  37.660  27.822  1.00  0.00     0.066 H 
ATOM     33  H   UNL     1     -44.254  38.109  29.520  1.00  0.00     0.088 H 
ATOM     34  H   UNL     1     -46.969  38.746  29.881  1.00  0.00     0.068 H 
BRANCH  28  35
ATOM     35  O   UNL     1     -48.262  36.276  29.225  1.00  0.00    -0.387 OA
ATOM     36  H   UNL     1     -49.009  36.892  29.339  1.00  0.00     0.211 HD
ENDBRANCH  28  35
BRANCH  30  37
ATOM     37  N   UNL     1     -45.115  39.294  28.056  1.00  0.00    -0.303 N 
ATOM     38  C   UNL     1     -44.024  39.995  27.611  1.00  0.00     0.019 A 
ATOM     39  C   UNL     1     -46.258  39.926  27.628  1.00  0.00     0.148 A 
ATOM     40  C   UNL     1     -44.471  41.047  26.836  1.00  0.00     0.033 A 
ATOM     41  H   UNL     1     -43.015  39.692  27.857  1.00  0.00     0.083 H 
ATOM     42  C   UNL     1     -45.897  41.045  26.881  1.00  0.00     0.071 A 
ATOM     43  N   UNL     1     -47.507  39.510  27.896  1.00  0.00    -0.218 NA
ATOM     44  C   UNL     1     -46.957  41.838  26.410  1.00  0.00     0.137 A 
ATOM     45  C   UNL     1     -48.428  40.328  27.367  1.00  0.00     0.120 A 
ATOM     46  N   UNL     1     -48.225  41.452  26.659  1.00  0.00    -0.219 NA
ATOM     47  H   UNL     1     -49.464  40.053  27.538  1.00  0.00     0.106 H 
BRANCH  40  48
ATOM     48  C   UNL     1     -43.607  41.979  26.113  1.00  0.00     0.095 A 
ATOM     49  C   UNL     1     -42.400  42.523  26.602  1.00  0.00    -0.016 A 
ATOM     50  N   UNL     1     -43.928  42.479  24.914  1.00  0.00    -0.173 NA
ATOM     51  C   UNL     1     -41.964  43.368  25.607  1.00  0.00     0.025 A 
ATOM     52  H   UNL     1     -41.916  42.332  27.550  1.00  0.00     0.066 H 
ATOM     53  N   UNL     1     -42.907  43.303  24.625  1.00  0.00    -0.275 N 
ATOM     54  H   UNL     1     -41.090  43.999  25.528  1.00  0.00     0.084 H 
BRANCH  53  55
ATOM     55  C   UNL     1     -42.909  44.018  23.371  1.00  0.00     0.030 C 
ATOM     56  H   UNL     1     -42.555  43.343  22.588  1.00  0.00     0.048 H 
ATOM     57  H   UNL     1     -42.245  44.883  23.445  1.00  0.00     0.048 H 
ATOM     58  H   UNL     1     -43.930  44.348  23.165  1.00  0.00     0.048 H 
ENDBRANCH  53  55
ENDBRANCH  40  48
BRANCH  44  59
ATOM     59  N   UNL     1     -46.808  43.040  25.729  1.00  0.00    -0.383 N 
ATOM     60  H   UNL     1     -47.129  43.842  26.259  1.00  0.00     0.158 HD
ATOM     61  H   UNL     1     -47.209  42.952  24.802  1.00  0.00     0.158 HD
ENDBRANCH  44  59
ENDBRANCH  30  37
BRANCH  31  62
ATOM     62  O   UNL     1     -46.238  37.062  30.786  1.00  0.00    -0.386 OA
ATOM     63  H   UNL     1     -45.735  36.275  30.493  1.00  0.00     0.211 HD
ENDBRANCH  31  62
ENDBRANCH   1  26
TORSDOF 11
ENDMDL
MODEL 7
REMARK VINA RESULT:      -8.3      2.557      3.759
REMARK SMILES CNc1ccc2ccc(OC[C@H]3O[C@@H](n4cc(-c5ccn(C)n5)c5c(N)ncnc54)[C@H](O)[C@@H]3O)cc2n1
REMARK SMILES IDX 11 1 10 4 9 5 3 6 4 7 37 8 5 9 36 11 6 12 35 14 7 15 8 17
REMARK SMILES IDX 2 20 1 22 12 26 13 27 33 28 14 30 31 31 34 35 15 37 16 38
REMARK SMILES IDX 30 39 17 40 24 42 29 43 25 44 28 45 27 46 18 48 19 49 23 50
REMARK SMILES IDX 20 51 21 53 22 55 26 59 32 62
REMARK H PARENT 11 2 11 3 4 10 5 13 35 16 7 18 8 19 2 21 1 23 1 24 1 25 12 29
REMARK H PARENT 33 32 14 33 31 34 34 36 16 41 28 47 19 52 20 54 22 56 22 57
REMARK H PARENT 22 58 26 60 26 61 32 63
REMARK Flexibility Score: inf
ROOT
ATOM      1  C   UNL     1     -47.471  35.875  28.519  1.00  0.00     0.117 C 
ATOM      2  H   UNL     1     -47.286  34.843  28.843  1.00  0.00     0.073 H 
ATOM      3  H   UNL     1     -48.277  36.322  29.113  1.00  0.00     0.073 H 
ENDROOT
BRANCH   1   4
ATOM      4  O   UNL     1     -47.840  35.893  27.137  1.00  0.00    -0.491 OA
BRANCH   4   5
ATOM      5  C   UNL     1     -47.655  34.740  26.428  1.00  0.00     0.121 A 
ATOM      6  C   UNL     1     -49.031  30.583  24.586  1.00  0.00     0.126 A 
ATOM      7  C   UNL     1     -47.798  30.376  23.984  1.00  0.00    -0.019 A 
ATOM      8  N   UNL     1     -49.304  31.685  25.310  1.00  0.00    -0.231 NA
ATOM      9  C   UNL     1     -46.800  31.331  24.148  1.00  0.00    -0.049 A 
ATOM     10  H   UNL     1     -47.617  29.497  23.377  1.00  0.00     0.066 H 
ATOM     11  C   UNL     1     -48.343  32.612  25.472  1.00  0.00     0.076 A 
ATOM     12  C   UNL     1     -47.060  32.476  24.905  1.00  0.00     0.001 A 
ATOM     13  H   UNL     1     -45.833  31.178  23.676  1.00  0.00     0.063 H 
ATOM     14  C   UNL     1     -48.617  33.747  26.225  1.00  0.00     0.007 A 
ATOM     15  C   UNL     1     -46.090  33.470  25.100  1.00  0.00    -0.049 A 
ATOM     16  H   UNL     1     -49.615  33.835  26.642  1.00  0.00     0.069 H 
ATOM     17  C   UNL     1     -46.393  34.598  25.857  1.00  0.00    -0.019 A 
ATOM     18  H   UNL     1     -45.098  33.375  24.667  1.00  0.00     0.063 H 
ATOM     19  H   UNL     1     -45.635  35.364  26.015  1.00  0.00     0.066 H 
BRANCH   6  20
ATOM     20  N   UNL     1     -50.085  29.677  24.452  1.00  0.00    -0.373 N 
ATOM     21  H   UNL     1     -49.639  28.845  24.063  1.00  0.00     0.161 HD
BRANCH  20  22
ATOM     22  C   UNL     1     -51.164  30.145  23.600  1.00  0.00     0.005 C 
ATOM     23  H   UNL     1     -51.176  31.240  23.611  1.00  0.00     0.045 H 
ATOM     24  H   UNL     1     -51.026  29.832  22.561  1.00  0.00     0.045 H 
ATOM     25  H   UNL     1     -52.140  29.797  23.958  1.00  0.00     0.045 H 
ENDBRANCH  20  22
ENDBRANCH   6  20
ENDBRANCH   4   5
ENDBRANCH   1   4
BRANCH   1  26
ATOM     26  C   UNL     1     -46.191  36.694  28.715  1.00  0.00     0.123 C 
ATOM     27  O   UNL     1     -45.863  37.419  27.510  1.00  0.00    -0.345 OA
ATOM     28  C   UNL     1     -46.280  37.735  29.826  1.00  0.00     0.114 C 
ATOM     29  H   UNL     1     -45.369  35.992  28.903  1.00  0.00     0.067 H 
ATOM     30  C   UNL     1     -45.299  38.702  27.899  1.00  0.00     0.164 C 
ATOM     31  C   UNL     1     -45.161  38.683  29.427  1.00  0.00     0.128 C 
ATOM     32  H   UNL     1     -47.232  38.278  29.824  1.00  0.00     0.066 H 
ATOM     33  H   UNL     1     -44.336  38.810  27.388  1.00  0.00     0.088 H 
ATOM     34  H   UNL     1     -45.241  39.659  29.912  1.00  0.00     0.068 H 
BRANCH  28  35
ATOM     35  O   UNL     1     -46.050  37.195  31.125  1.00  0.00    -0.387 OA
ATOM     36  H   UNL     1     -45.173  37.507  31.414  1.00  0.00     0.211 HD
ENDBRANCH  28  35
BRANCH  30  37
ATOM     37  N   UNL     1     -46.170  39.774  27.422  1.00  0.00    -0.303 N 
ATOM     38  C   UNL     1     -47.540  39.798  27.431  1.00  0.00     0.019 A 
ATOM     39  C   UNL     1     -45.705  40.954  26.890  1.00  0.00     0.148 A 
ATOM     40  C   UNL     1     -47.955  41.029  26.963  1.00  0.00     0.033 A 
ATOM     41  H   UNL     1     -48.120  38.956  27.783  1.00  0.00     0.083 H 
ATOM     42  C   UNL     1     -46.795  41.757  26.565  1.00  0.00     0.071 A 
ATOM     43  N   UNL     1     -44.407  41.258  26.725  1.00  0.00    -0.218 NA
ATOM     44  C   UNL     1     -46.492  42.987  25.957  1.00  0.00     0.137 A 
ATOM     45  C   UNL     1     -44.247  42.467  26.168  1.00  0.00     0.120 A 
ATOM     46  N   UNL     1     -45.201  43.328  25.775  1.00  0.00    -0.219 NA
ATOM     47  H   UNL     1     -43.221  42.786  26.007  1.00  0.00     0.106 H 
BRANCH  40  48
ATOM     48  C   UNL     1     -49.347  41.472  26.899  1.00  0.00     0.095 A 
ATOM     49  C   UNL     1     -50.371  41.085  27.790  1.00  0.00    -0.016 A 
ATOM     50  N   UNL     1     -49.812  42.250  25.915  1.00  0.00    -0.173 NA
ATOM     51  C   UNL     1     -51.504  41.708  27.319  1.00  0.00     0.025 A 
ATOM     52  H   UNL     1     -50.299  40.436  28.652  1.00  0.00     0.066 H 
ATOM     53  N   UNL     1     -51.117  42.391  26.205  1.00  0.00    -0.275 N 
ATOM     54  H   UNL     1     -52.526  41.710  27.672  1.00  0.00     0.084 H 
BRANCH  53  55
ATOM     55  C   UNL     1     -51.949  43.199  25.346  1.00  0.00     0.030 C 
ATOM     56  H   UNL     1     -52.981  42.850  25.439  1.00  0.00     0.048 H 
ATOM     57  H   UNL     1     -51.612  43.095  24.311  1.00  0.00     0.048 H 
ATOM     58  H   UNL     1     -51.863  44.241  25.664  1.00  0.00     0.048 H 
ENDBRANCH  53  55
ENDBRANCH  40  48
BRANCH  44  59
ATOM     59  N   UNL     1     -47.435  43.888  25.475  1.00  0.00    -0.383 N 
ATOM     60  H   UNL     1     -47.178  44.294  24.582  1.00  0.00     0.158 HD
ATOM     61  H   UNL     1     -47.659  44.559  26.201  1.00  0.00     0.158 HD
ENDBRANCH  44  59
ENDBRANCH  30  37
BRANCH  31  62
ATOM     62  O   UNL     1     -43.900  38.116  29.829  1.00  0.00    -0.386 OA
ATOM     63  H   UNL     1     -43.283  38.876  29.860  1.00  0.00     0.211 HD
ENDBRANCH  31  62
ENDBRANCH   1  26
TORSDOF 11
ENDMDL
