MODEL 1
REMARK VINA RESULT:     -10.2      0.000      0.000
REMARK SMILES Nc1ncnc2c1ccn2[C@@H]1C[C@H](CCc2cnc3cccnc3c2)[C@@H](O)[C@H]1O
REMARK SMILES IDX 11 1 12 2 13 3 26 4 28 5 10 12 2 13 3 14 7 15 4 16 6 17 8 18
REMARK SMILES IDX 5 19 9 21 1 24 29 27 14 29 15 32 16 35 17 36 25 37 18 38
REMARK SMILES IDX 24 40 19 42 23 43 20 44 22 45 21 46 27 50
REMARK H PARENT 11 6 12 7 12 8 13 9 26 10 28 11 4 20 8 22 9 23 1 25 1 26 29 28
REMARK H PARENT 14 30 14 31 15 33 15 34 17 39 25 41 20 47 22 48 21 49 27 51
REMARK Flexibility Score: inf
ROOT
ATOM      1  C   UNL     1     -45.672  39.176  28.491  1.00  0.00     0.064 C 
ATOM      2  C   UNL     1     -45.206  37.704  28.553  1.00  0.00    -0.024 C 
ATOM      3  C   UNL     1     -46.476  36.864  28.393  1.00  0.00    -0.010 C 
ATOM      4  C   UNL     1     -47.318  37.723  27.446  1.00  0.00     0.085 C 
ATOM      5  C   UNL     1     -47.135  39.139  28.007  1.00  0.00     0.101 C 
ATOM      6  H   UNL     1     -45.643  39.599  29.503  1.00  0.00     0.056 H 
ATOM      7  H   UNL     1     -44.486  37.475  27.757  1.00  0.00     0.029 H 
ATOM      8  H   UNL     1     -44.708  37.494  29.506  1.00  0.00     0.029 H 
ATOM      9  H   UNL     1     -46.992  36.783  29.358  1.00  0.00     0.033 H 
ATOM     10  H   UNL     1     -46.947  37.650  26.417  1.00  0.00     0.063 H 
ATOM     11  H   UNL     1     -47.389  39.904  27.267  1.00  0.00     0.065 H 
ENDROOT
BRANCH   1  12
ATOM     12  N   UNL     1     -44.794  39.989  27.659  1.00  0.00    -0.327 N 
ATOM     13  C   UNL     1     -41.813  41.857  27.255  1.00  0.00     0.136 A 
ATOM     14  N   UNL     1     -41.243  41.742  28.469  1.00  0.00    -0.219 NA
ATOM     15  C   UNL     1     -43.043  41.227  27.020  1.00  0.00     0.061 A 
ATOM     16  C   UNL     1     -41.890  41.029  29.410  1.00  0.00     0.120 A 
ATOM     17  C   UNL     1     -43.597  40.522  28.079  1.00  0.00     0.145 A 
ATOM     18  C   UNL     1     -43.941  41.100  25.925  1.00  0.00    -0.031 A 
ATOM     19  N   UNL     1     -43.061  40.379  29.303  1.00  0.00    -0.218 NA
ATOM     20  H   UNL     1     -41.401  40.968  30.378  1.00  0.00     0.106 H 
ATOM     21  C   UNL     1     -45.001  40.321  26.340  1.00  0.00     0.007 A 
ATOM     22  H   UNL     1     -43.820  41.529  24.939  1.00  0.00     0.065 H 
ATOM     23  H   UNL     1     -45.876  39.991  25.798  1.00  0.00     0.082 H 
BRANCH  13  24
ATOM     24  N   UNL     1     -41.125  42.585  26.294  1.00  0.00    -0.383 N 
ATOM     25  H   UNL     1     -41.278  43.577  26.427  1.00  0.00     0.158 HD
ATOM     26  H   UNL     1     -40.170  42.293  26.144  1.00  0.00     0.158 HD
ENDBRANCH  13  24
ENDBRANCH   1  12
BRANCH   5  27
ATOM     27  O   UNL     1     -48.021  39.332  29.120  1.00  0.00    -0.388 OA
ATOM     28  H   UNL     1     -48.775  38.723  28.985  1.00  0.00     0.211 HD
ENDBRANCH   5  27
BRANCH   3  29
ATOM     29  C   UNL     1     -46.235  35.452  27.843  1.00  0.00    -0.044 C 
ATOM     30  H   UNL     1     -45.209  35.144  28.081  1.00  0.00     0.027 H 
ATOM     31  H   UNL     1     -46.893  34.744  28.363  1.00  0.00     0.027 H 
BRANCH  29  32
ATOM     32  C   UNL     1     -46.481  35.308  26.335  1.00  0.00    -0.026 C 
ATOM     33  H   UNL     1     -47.159  36.108  26.009  1.00  0.00     0.032 H 
ATOM     34  H   UNL     1     -45.546  35.476  25.787  1.00  0.00     0.032 H 
BRANCH  32  35
ATOM     35  C   UNL     1     -47.091  33.994  25.934  1.00  0.00    -0.027 A 
ATOM     36  C   UNL     1     -48.308  33.574  26.451  1.00  0.00     0.031 A 
ATOM     37  C   UNL     1     -46.456  33.138  25.028  1.00  0.00    -0.029 A 
ATOM     38  N   UNL     1     -48.902  32.406  26.126  1.00  0.00    -0.254 NA
ATOM     39  H   UNL     1     -48.863  34.179  27.163  1.00  0.00     0.084 H 
ATOM     40  C   UNL     1     -47.021  31.927  24.659  1.00  0.00     0.089 A 
ATOM     41  H   UNL     1     -45.498  33.413  24.594  1.00  0.00     0.065 H 
ATOM     42  C   UNL     1     -48.264  31.609  25.245  1.00  0.00     0.089 A 
ATOM     43  N   UNL     1     -46.381  31.126  23.780  1.00  0.00    -0.255 NA
ATOM     44  C   UNL     1     -48.831  30.399  24.874  1.00  0.00    -0.033 A 
ATOM     45  C   UNL     1     -46.977  29.961  23.452  1.00  0.00     0.028 A 
ATOM     46  C   UNL     1     -48.193  29.556  23.968  1.00  0.00    -0.042 A 
ATOM     47  H   UNL     1     -49.789  30.112  25.301  1.00  0.00     0.065 H 
ATOM     48  H   UNL     1     -46.434  29.344  22.742  1.00  0.00     0.084 H 
ATOM     49  H   UNL     1     -48.635  28.610  23.677  1.00  0.00     0.064 H 
ENDBRANCH  32  35
ENDBRANCH  29  32
ENDBRANCH   3  29
BRANCH   4  50
ATOM     50  O   UNL     1     -48.685  37.336  27.480  1.00  0.00    -0.390 OA
ATOM     51  H   UNL     1     -49.217  38.105  27.207  1.00  0.00     0.211 HD
ENDBRANCH   4  50
TORSDOF 7
ENDMDL
MODEL 2
REMARK VINA RESULT:      -9.7      2.149      9.875
REMARK SMILES Nc1ncnc2c1ccn2[C@@H]1C[C@H](CCc2cnc3cccnc3c2)[C@@H](O)[C@H]1O
REMARK SMILES IDX 11 1 12 2 13 3 26 4 28 5 10 12 2 13 3 14 7 15 4 16 6 17 8 18
REMARK SMILES IDX 5 19 9 21 1 24 29 27 14 29 15 32 16 35 17 36 25 37 18 38
REMARK SMILES IDX 24 40 19 42 23 43 20 44 22 45 21 46 27 50
REMARK H PARENT 11 6 12 7 12 8 13 9 26 10 28 11 4 20 8 22 9 23 1 25 1 26 29 28
REMARK H PARENT 14 30 14 31 15 33 15 34 17 39 25 41 20 47 22 48 21 49 27 51
REMARK Flexibility Score: inf
ROOT
ATOM      1  C   UNL     1     -47.428  32.370  26.157  1.00  0.00     0.064 C 
ATOM      2  C   UNL     1     -48.197  33.710  26.129  1.00  0.00    -0.024 C 
ATOM      3  C   UNL     1     -47.407  34.656  27.039  1.00  0.00    -0.010 C 
ATOM      4  C   UNL     1     -45.964  34.199  26.810  1.00  0.00     0.085 C 
ATOM      5  C   UNL     1     -46.076  32.669  26.835  1.00  0.00     0.101 C 
ATOM      6  H   UNL     1     -47.985  31.655  26.775  1.00  0.00     0.056 H 
ATOM      7  H   UNL     1     -48.264  34.116  25.112  1.00  0.00     0.029 H 
ATOM      8  H   UNL     1     -49.223  33.577  26.490  1.00  0.00     0.029 H 
ATOM      9  H   UNL     1     -47.678  34.475  28.087  1.00  0.00     0.033 H 
ATOM     10  H   UNL     1     -45.590  34.556  25.844  1.00  0.00     0.063 H 
ATOM     11  H   UNL     1     -45.214  32.192  26.361  1.00  0.00     0.065 H 
ENDROOT
BRANCH   1  12
ATOM     12  N   UNL     1     -47.306  31.786  24.827  1.00  0.00    -0.327 N 
ATOM     13  C   UNL     1     -48.724  30.001  22.117  1.00  0.00     0.136 A 
ATOM     14  N   UNL     1     -49.971  29.759  22.563  1.00  0.00    -0.219 NA
ATOM     15  C   UNL     1     -47.836  30.713  22.938  1.00  0.00     0.061 A 
ATOM     16  C   UNL     1     -50.308  30.209  23.787  1.00  0.00     0.120 A 
ATOM     17  C   UNL     1     -48.317  31.119  24.174  1.00  0.00     0.145 A 
ATOM     18  C   UNL     1     -46.491  31.165  22.847  1.00  0.00    -0.031 A 
ATOM     19  N   UNL     1     -49.553  30.903  24.655  1.00  0.00    -0.218 NA
ATOM     20  H   UNL     1     -51.320  29.986  24.111  1.00  0.00     0.106 H 
ATOM     21  C   UNL     1     -46.195  31.836  24.016  1.00  0.00     0.007 A 
ATOM     22  H   UNL     1     -45.817  31.019  22.015  1.00  0.00     0.065 H 
ATOM     23  H   UNL     1     -45.285  32.332  24.323  1.00  0.00     0.082 H 
BRANCH  13  24
ATOM     24  N   UNL     1     -48.400  29.541  20.849  1.00  0.00    -0.383 N 
ATOM     25  H   UNL     1     -49.158  28.985  20.471  1.00  0.00     0.158 HD
ATOM     26  H   UNL     1     -48.002  30.236  20.234  1.00  0.00     0.158 HD
ENDBRANCH  13  24
ENDBRANCH   1  12
BRANCH   5  27
ATOM     27  O   UNL     1     -46.103  32.212  28.196  1.00  0.00    -0.388 OA
ATOM     28  H   UNL     1     -46.858  31.592  28.266  1.00  0.00     0.211 HD
ENDBRANCH   5  27
BRANCH   3  29
ATOM     29  C   UNL     1     -47.607  36.145  26.728  1.00  0.00    -0.044 C 
ATOM     30  H   UNL     1     -46.860  36.461  25.990  1.00  0.00     0.027 H 
ATOM     31  H   UNL     1     -48.585  36.287  26.251  1.00  0.00     0.027 H 
BRANCH  29  32
ATOM     32  C   UNL     1     -47.540  37.063  27.957  1.00  0.00    -0.026 C 
ATOM     33  H   UNL     1     -48.495  37.596  28.052  1.00  0.00     0.032 H 
ATOM     34  H   UNL     1     -47.449  36.459  28.868  1.00  0.00     0.032 H 
BRANCH  32  35
ATOM     35  C   UNL     1     -46.442  38.088  27.899  1.00  0.00    -0.027 A 
ATOM     36  C   UNL     1     -46.295  38.929  26.806  1.00  0.00     0.031 A 
ATOM     37  C   UNL     1     -45.520  38.233  28.942  1.00  0.00    -0.029 A 
ATOM     38  N   UNL     1     -45.330  39.868  26.702  1.00  0.00    -0.254 NA
ATOM     39  H   UNL     1     -46.967  38.878  25.954  1.00  0.00     0.084 H 
ATOM     40  C   UNL     1     -44.510  39.181  28.887  1.00  0.00     0.089 A 
ATOM     41  H   UNL     1     -45.585  37.598  29.822  1.00  0.00     0.065 H 
ATOM     42  C   UNL     1     -44.463  39.984  27.728  1.00  0.00     0.089 A 
ATOM     43  N   UNL     1     -43.639  39.295  29.913  1.00  0.00    -0.255 NA
ATOM     44  C   UNL     1     -43.454  40.933  27.674  1.00  0.00    -0.033 A 
ATOM     45  C   UNL     1     -42.677  40.235  29.810  1.00  0.00     0.028 A 
ATOM     46  C   UNL     1     -42.545  41.072  28.719  1.00  0.00    -0.042 A 
ATOM     47  H   UNL     1     -43.380  41.575  26.800  1.00  0.00     0.065 H 
ATOM     48  H   UNL     1     -41.996  40.298  30.654  1.00  0.00     0.084 H 
ATOM     49  H   UNL     1     -41.755  41.815  28.679  1.00  0.00     0.064 H 
ENDBRANCH  32  35
ENDBRANCH  29  32
ENDBRANCH   3  29
BRANCH   4  50
ATOM     50  O   UNL     1     -45.108  34.662  27.846  1.00  0.00    -0.390 OA
ATOM     51  H   UNL     1     -45.657  35.151  28.486  1.00  0.00     0.211 HD
ENDBRANCH   4  50
TORSDOF 7
ENDMDL
MODEL 3
REMARK VINA RESULT:      -9.5      2.247      9.662
REMARK SMILES Nc1ncnc2c1ccn2[C@@H]1C[C@H](CCc2cnc3cccnc3c2)[C@@H](O)[C@H]1O
REMARK SMILES IDX 11 1 12 2 13 3 26 4 28 5 10 12 2 13 3 14 7 15 4 16 6 17 8 18
REMARK SMILES IDX 5 19 9 21 1 24 29 27 14 29 15 32 16 35 17 36 25 37 18 38
REMARK SMILES IDX 24 40 19 42 23 43 20 44 22 45 21 46 27 50
REMARK H PARENT 11 6 12 7 12 8 13 9 26 10 28 11 4 20 8 22 9 23 1 25 1 26 29 28
REMARK H PARENT 14 30 14 31 15 33 15 34 17 39 25 41 20 47 22 48 21 49 27 51
REMARK Flexibility Score: inf
ROOT
ATOM      1  C   UNL     1     -48.248  32.321  26.035  1.00  0.00     0.064 C 
ATOM      2  C   UNL     1     -48.876  33.701  26.327  1.00  0.00    -0.024 C 
ATOM      3  C   UNL     1     -47.738  34.562  26.886  1.00  0.00    -0.010 C 
ATOM      4  C   UNL     1     -46.523  34.035  26.117  1.00  0.00     0.085 C 
ATOM      5  C   UNL     1     -46.722  32.514  26.154  1.00  0.00     0.101 C 
ATOM      6  H   UNL     1     -48.577  31.612  26.806  1.00  0.00     0.056 H 
ATOM      7  H   UNL     1     -49.295  34.155  25.419  1.00  0.00     0.029 H 
ATOM      8  H   UNL     1     -49.696  33.611  27.048  1.00  0.00     0.029 H 
ATOM      9  H   UNL     1     -47.605  34.352  27.955  1.00  0.00     0.033 H 
ATOM     10  H   UNL     1     -46.519  34.412  25.088  1.00  0.00     0.063 H 
ATOM     11  H   UNL     1     -46.138  32.010  25.379  1.00  0.00     0.065 H 
ENDROOT
BRANCH   1  12
ATOM     12  N   UNL     1     -48.678  31.789  24.748  1.00  0.00    -0.327 N 
ATOM     13  C   UNL     1     -47.904  30.302  21.629  1.00  0.00     0.136 A 
ATOM     14  N   UNL     1     -46.564  30.191  21.696  1.00  0.00    -0.219 NA
ATOM     15  C   UNL     1     -48.595  30.859  22.716  1.00  0.00     0.061 A 
ATOM     16  C   UNL     1     -45.944  30.630  22.808  1.00  0.00     0.120 A 
ATOM     17  C   UNL     1     -47.830  31.268  23.799  1.00  0.00     0.145 A 
ATOM     18  C   UNL     1     -49.951  31.138  23.038  1.00  0.00    -0.031 A 
ATOM     19  N   UNL     1     -46.494  31.172  23.908  1.00  0.00    -0.218 NA
ATOM     20  H   UNL     1     -44.863  30.531  22.818  1.00  0.00     0.106 H 
ATOM     21  C   UNL     1     -49.976  31.696  24.299  1.00  0.00     0.007 A 
ATOM     22  H   UNL     1     -50.814  30.947  22.415  1.00  0.00     0.065 H 
ATOM     23  H   UNL     1     -50.812  32.031  24.896  1.00  0.00     0.082 H 
BRANCH  13  24
ATOM     24  N   UNL     1     -48.526  29.831  20.481  1.00  0.00    -0.383 N 
ATOM     25  H   UNL     1     -48.462  28.821  20.434  1.00  0.00     0.158 HD
ATOM     26  H   UNL     1     -49.433  30.234  20.295  1.00  0.00     0.158 HD
ENDBRANCH  13  24
ENDBRANCH   1  12
BRANCH   5  27
ATOM     27  O   UNL     1     -46.264  32.001  27.415  1.00  0.00    -0.388 OA
ATOM     28  H   UNL     1     -46.404  32.713  28.072  1.00  0.00     0.211 HD
ENDBRANCH   5  27
BRANCH   3  29
ATOM     29  C   UNL     1     -47.938  36.072  26.701  1.00  0.00    -0.044 C 
ATOM     30  H   UNL     1     -47.194  36.448  25.989  1.00  0.00     0.027 H 
ATOM     31  H   UNL     1     -48.918  36.253  26.242  1.00  0.00     0.027 H 
BRANCH  29  32
ATOM     32  C   UNL     1     -47.866  36.883  28.002  1.00  0.00    -0.026 C 
ATOM     33  H   UNL     1     -48.803  37.443  28.123  1.00  0.00     0.032 H 
ATOM     34  H   UNL     1     -47.818  36.204  28.863  1.00  0.00     0.032 H 
BRANCH  32  35
ATOM     35  C   UNL     1     -46.730  37.866  28.051  1.00  0.00    -0.027 A 
ATOM     36  C   UNL     1     -45.777  37.820  29.058  1.00  0.00     0.031 A 
ATOM     37  C   UNL     1     -46.589  38.871  27.087  1.00  0.00    -0.029 A 
ATOM     38  N   UNL     1     -44.736  38.675  29.150  1.00  0.00    -0.254 NA
ATOM     39  H   UNL     1     -45.817  37.073  29.846  1.00  0.00     0.084 H 
ATOM     40  C   UNL     1     -45.538  39.774  27.133  1.00  0.00     0.089 A 
ATOM     41  H   UNL     1     -47.309  38.957  26.277  1.00  0.00     0.065 H 
ATOM     42  C   UNL     1     -44.628  39.627  28.200  1.00  0.00     0.089 A 
ATOM     43  N   UNL     1     -45.431  40.730  26.185  1.00  0.00    -0.255 NA
ATOM     44  C   UNL     1     -43.576  40.529  28.245  1.00  0.00    -0.033 A 
ATOM     45  C   UNL     1     -44.389  41.582  26.275  1.00  0.00     0.028 A 
ATOM     46  C   UNL     1     -43.442  41.522  27.278  1.00  0.00    -0.042 A 
ATOM     47  H   UNL     1     -42.849  40.452  29.049  1.00  0.00     0.065 H 
ATOM     48  H   UNL     1     -44.336  42.335  25.494  1.00  0.00     0.084 H 
ATOM     49  H   UNL     1     -42.620  42.228  27.312  1.00  0.00     0.064 H 
ENDBRANCH  32  35
ENDBRANCH  29  32
ENDBRANCH   3  29
BRANCH   4  50
ATOM     50  O   UNL     1     -45.310  34.404  26.758  1.00  0.00    -0.390 OA
ATOM     51  H   UNL     1     -44.984  35.215  26.328  1.00  0.00     0.211 HD
ENDBRANCH   4  50
TORSDOF 7
ENDMDL
MODEL 4
REMARK VINA RESULT:      -9.4      1.520      2.467
REMARK SMILES Nc1ncnc2c1ccn2[C@@H]1C[C@H](CCc2cnc3cccnc3c2)[C@@H](O)[C@H]1O
REMARK SMILES IDX 11 1 12 2 13 3 26 4 28 5 10 12 2 13 3 14 7 15 4 16 6 17 8 18
REMARK SMILES IDX 5 19 9 21 1 24 29 27 14 29 15 32 16 35 17 36 25 37 18 38
REMARK SMILES IDX 24 40 19 42 23 43 20 44 22 45 21 46 27 50
REMARK H PARENT 11 6 12 7 12 8 13 9 26 10 28 11 4 20 8 22 9 23 1 25 1 26 29 28
REMARK H PARENT 14 30 14 31 15 33 15 34 17 39 25 41 20 47 22 48 21 49 27 51
REMARK Flexibility Score: inf
ROOT
ATOM      1  C   UNL     1     -46.725  37.156  28.414  1.00  0.00     0.064 C 
ATOM      2  C   UNL     1     -45.890  35.871  28.220  1.00  0.00    -0.024 C 
ATOM      3  C   UNL     1     -46.892  34.787  27.810  1.00  0.00    -0.010 C 
ATOM      4  C   UNL     1     -47.915  35.582  26.992  1.00  0.00     0.085 C 
ATOM      5  C   UNL     1     -48.119  36.850  27.830  1.00  0.00     0.101 C 
ATOM      6  H   UNL     1     -46.825  37.354  29.489  1.00  0.00     0.056 H 
ATOM      7  H   UNL     1     -45.122  36.001  27.447  1.00  0.00     0.029 H 
ATOM      8  H   UNL     1     -45.370  35.601  29.146  1.00  0.00     0.029 H 
ATOM      9  H   UNL     1     -47.385  34.381  28.702  1.00  0.00     0.033 H 
ATOM     10  H   UNL     1     -47.520  35.819  25.998  1.00  0.00     0.063 H 
ATOM     11  H   UNL     1     -48.552  37.662  27.238  1.00  0.00     0.065 H 
ENDROOT
BRANCH   1  12
ATOM     12  N   UNL     1     -46.077  38.319  27.821  1.00  0.00    -0.327 N 
ATOM     13  C   UNL     1     -43.582  40.829  27.926  1.00  0.00     0.136 A 
ATOM     14  N   UNL     1     -42.948  40.547  29.079  1.00  0.00    -0.219 NA
ATOM     15  C   UNL     1     -44.660  40.025  27.528  1.00  0.00     0.061 A 
ATOM     16  C   UNL     1     -43.387  39.501  29.806  1.00  0.00     0.120 A 
ATOM     17  C   UNL     1     -45.004  38.979  28.373  1.00  0.00     0.145 A 
ATOM     18  C   UNL     1     -45.557  39.979  26.426  1.00  0.00    -0.031 A 
ATOM     19  N   UNL     1     -44.397  38.660  29.528  1.00  0.00    -0.218 NA
ATOM     20  H   UNL     1     -42.854  39.312  30.734  1.00  0.00     0.106 H 
ATOM     21  C   UNL     1     -46.408  38.912  26.623  1.00  0.00     0.007 A 
ATOM     22  H   UNL     1     -45.574  40.653  25.581  1.00  0.00     0.065 H 
ATOM     23  H   UNL     1     -47.216  38.543  26.007  1.00  0.00     0.082 H 
BRANCH  13  24
ATOM     24  N   UNL     1     -43.107  41.902  27.185  1.00  0.00    -0.383 N 
ATOM     25  H   UNL     1     -42.800  41.591  26.271  1.00  0.00     0.158 HD
ATOM     26  H   UNL     1     -43.693  42.725  27.206  1.00  0.00     0.158 HD
ENDBRANCH  13  24
ENDBRANCH   1  12
BRANCH   5  27
ATOM     27  O   UNL     1     -49.043  36.579  28.895  1.00  0.00    -0.388 OA
ATOM     28  H   UNL     1     -49.713  35.964  28.532  1.00  0.00     0.211 HD
ENDBRANCH   5  27
BRANCH   3  29
ATOM     29  C   UNL     1     -46.280  33.628  27.014  1.00  0.00    -0.044 C 
ATOM     30  H   UNL     1     -45.206  33.571  27.230  1.00  0.00     0.027 H 
ATOM     31  H   UNL     1     -46.711  32.681  27.364  1.00  0.00     0.027 H 
BRANCH  29  32
ATOM     32  C   UNL     1     -46.498  33.716  25.497  1.00  0.00    -0.026 C 
ATOM     33  H   UNL     1     -47.326  34.409  25.298  1.00  0.00     0.032 H 
ATOM     34  H   UNL     1     -45.618  34.167  25.020  1.00  0.00     0.032 H 
BRANCH  32  35
ATOM     35  C   UNL     1     -46.827  32.402  24.846  1.00  0.00    -0.027 A 
ATOM     36  C   UNL     1     -46.062  31.899  23.804  1.00  0.00     0.031 A 
ATOM     37  C   UNL     1     -47.920  31.634  25.260  1.00  0.00    -0.029 A 
ATOM     38  N   UNL     1     -46.310  30.726  23.184  1.00  0.00    -0.254 NA
ATOM     39  H   UNL     1     -45.198  32.437  23.421  1.00  0.00     0.084 H 
ATOM     40  C   UNL     1     -48.220  30.421  24.659  1.00  0.00     0.089 A 
ATOM     41  H   UNL     1     -48.558  31.980  26.070  1.00  0.00     0.065 H 
ATOM     42  C   UNL     1     -47.368  30.009  23.613  1.00  0.00     0.089 A 
ATOM     43  N   UNL     1     -49.283  29.704  25.085  1.00  0.00    -0.255 NA
ATOM     44  C   UNL     1     -47.667  28.795  23.014  1.00  0.00    -0.033 A 
ATOM     45  C   UNL     1     -49.528  28.529  24.469  1.00  0.00     0.028 A 
ATOM     46  C   UNL     1     -48.755  28.036  23.436  1.00  0.00    -0.042 A 
ATOM     47  H   UNL     1     -47.036  28.437  22.204  1.00  0.00     0.065 H 
ATOM     48  H   UNL     1     -50.389  27.980  24.839  1.00  0.00     0.084 H 
ATOM     49  H   UNL     1     -48.989  27.086  22.969  1.00  0.00     0.064 H 
ENDBRANCH  32  35
ENDBRANCH  29  32
ENDBRANCH   3  29
BRANCH   4  50
ATOM     50  O   UNL     1     -49.132  34.863  26.855  1.00  0.00    -0.390 OA
ATOM     51  H   UNL     1     -49.223  34.285  27.634  1.00  0.00     0.211 HD
ENDBRANCH   4  50
TORSDOF 7
ENDMDL
MODEL 5
REMARK VINA RESULT:      -9.4      3.414      5.735
REMARK SMILES Nc1ncnc2c1ccn2[C@@H]1C[C@H](CCc2cnc3cccnc3c2)[C@@H](O)[C@H]1O
REMARK SMILES IDX 11 1 12 2 13 3 26 4 28 5 10 12 2 13 3 14 7 15 4 16 6 17 8 18
REMARK SMILES IDX 5 19 9 21 1 24 29 27 14 29 15 32 16 35 17 36 25 37 18 38
REMARK SMILES IDX 24 40 19 42 23 43 20 44 22 45 21 46 27 50
REMARK H PARENT 11 6 12 7 12 8 13 9 26 10 28 11 4 20 8 22 9 23 1 25 1 26 29 28
REMARK H PARENT 14 30 14 31 15 33 15 34 17 39 25 41 20 47 22 48 21 49 27 51
REMARK Flexibility Score: inf
ROOT
ATOM      1  C   UNL     1     -46.631  34.098  26.679  1.00  0.00     0.064 C 
ATOM      2  C   UNL     1     -47.081  33.737  25.247  1.00  0.00    -0.024 C 
ATOM      3  C   UNL     1     -47.377  32.234  25.275  1.00  0.00    -0.010 C 
ATOM      4  C   UNL     1     -47.920  32.035  26.693  1.00  0.00     0.085 C 
ATOM      5  C   UNL     1     -46.961  32.870  27.552  1.00  0.00     0.101 C 
ATOM      6  H   UNL     1     -45.545  34.253  26.680  1.00  0.00     0.056 H 
ATOM      7  H   UNL     1     -47.974  34.302  24.949  1.00  0.00     0.029 H 
ATOM      8  H   UNL     1     -46.295  33.973  24.521  1.00  0.00     0.029 H 
ATOM      9  H   UNL     1     -46.442  31.669  25.167  1.00  0.00     0.033 H 
ATOM     10  H   UNL     1     -48.949  32.403  26.772  1.00  0.00     0.063 H 
ATOM     11  H   UNL     1     -47.394  33.108  28.527  1.00  0.00     0.065 H 
ENDROOT
BRANCH   1  12
ATOM     12  N   UNL     1     -47.243  35.336  27.145  1.00  0.00    -0.327 N 
ATOM     13  C   UNL     1     -46.951  38.524  28.658  1.00  0.00     0.136 A 
ATOM     14  N   UNL     1     -45.632  38.593  28.915  1.00  0.00    -0.219 NA
ATOM     15  C   UNL     1     -47.464  37.375  28.038  1.00  0.00     0.061 A 
ATOM     16  C   UNL     1     -44.861  37.544  28.570  1.00  0.00     0.120 A 
ATOM     17  C   UNL     1     -46.555  36.371  27.734  1.00  0.00     0.145 A 
ATOM     18  C   UNL     1     -48.740  36.924  27.603  1.00  0.00    -0.031 A 
ATOM     19  N   UNL     1     -45.232  36.400  27.970  1.00  0.00    -0.218 NA
ATOM     20  H   UNL     1     -43.804  37.635  28.802  1.00  0.00     0.106 H 
ATOM     21  C   UNL     1     -48.574  35.674  27.045  1.00  0.00     0.007 A 
ATOM     22  H   UNL     1     -49.676  37.459  27.688  1.00  0.00     0.065 H 
ATOM     23  H   UNL     1     -49.299  35.010  26.594  1.00  0.00     0.082 H 
BRANCH  13  24
ATOM     24  N   UNL     1     -47.727  39.620  29.010  1.00  0.00    -0.383 N 
ATOM     25  H   UNL     1     -47.147  40.445  29.109  1.00  0.00     0.158 HD
ATOM     26  H   UNL     1     -48.575  39.728  28.474  1.00  0.00     0.158 HD
ENDBRANCH  13  24
ENDBRANCH   1  12
BRANCH   5  27
ATOM     27  O   UNL     1     -45.765  32.117  27.804  1.00  0.00    -0.388 OA
ATOM     28  H   UNL     1     -45.507  31.710  26.952  1.00  0.00     0.211 HD
ENDBRANCH   5  27
BRANCH   3  29
ATOM     29  C   UNL     1     -48.364  31.763  24.199  1.00  0.00    -0.044 C 
ATOM     30  H   UNL     1     -49.252  31.341  24.685  1.00  0.00     0.027 H 
ATOM     31  H   UNL     1     -48.715  32.631  23.625  1.00  0.00     0.027 H 
BRANCH  29  32
ATOM     32  C   UNL     1     -47.782  30.745  23.208  1.00  0.00    -0.026 C 
ATOM     33  H   UNL     1     -48.481  30.628  22.369  1.00  0.00     0.032 H 
ATOM     34  H   UNL     1     -46.858  31.140  22.768  1.00  0.00     0.032 H 
BRANCH  32  35
ATOM     35  C   UNL     1     -47.537  29.384  23.799  1.00  0.00    -0.027 A 
ATOM     36  C   UNL     1     -46.397  28.657  23.492  1.00  0.00     0.031 A 
ATOM     37  C   UNL     1     -48.450  28.793  24.679  1.00  0.00    -0.029 A 
ATOM     38  N   UNL     1     -46.125  27.433  23.993  1.00  0.00    -0.254 NA
ATOM     39  H   UNL     1     -45.641  29.044  22.813  1.00  0.00     0.084 H 
ATOM     40  C   UNL     1     -48.221  27.539  25.224  1.00  0.00     0.089 A 
ATOM     41  H   UNL     1     -49.364  29.315  24.953  1.00  0.00     0.065 H 
ATOM     42  C   UNL     1     -47.024  26.897  24.843  1.00  0.00     0.089 A 
ATOM     43  N   UNL     1     -49.123  26.999  26.073  1.00  0.00    -0.255 NA
ATOM     44  C   UNL     1     -46.794  25.644  25.390  1.00  0.00    -0.033 A 
ATOM     45  C   UNL     1     -48.849  25.779  26.577  1.00  0.00     0.028 A 
ATOM     46  C   UNL     1     -47.706  25.066  26.268  1.00  0.00    -0.042 A 
ATOM     47  H   UNL     1     -45.884  25.112  25.125  1.00  0.00     0.065 H 
ATOM     48  H   UNL     1     -49.596  25.377  27.256  1.00  0.00     0.084 H 
ATOM     49  H   UNL     1     -47.527  24.087  26.697  1.00  0.00     0.064 H 
ENDBRANCH  32  35
ENDBRANCH  29  32
ENDBRANCH   3  29
BRANCH   4  50
ATOM     50  O   UNL     1     -47.879  30.666  27.071  1.00  0.00    -0.390 OA
ATOM     51  H   UNL     1     -48.577  30.202  26.574  1.00  0.00     0.211 HD
ENDBRANCH   4  50
TORSDOF 7
ENDMDL
MODEL 6
REMARK VINA RESULT:      -9.2      2.411      3.287
REMARK SMILES Nc1ncnc2c1ccn2[C@@H]1C[C@H](CCc2cnc3cccnc3c2)[C@@H](O)[C@H]1O
REMARK SMILES IDX 11 1 12 2 13 3 26 4 28 5 10 12 2 13 3 14 7 15 4 16 6 17 8 18
REMARK SMILES IDX 5 19 9 21 1 24 29 27 14 29 15 32 16 35 17 36 25 37 18 38
REMARK SMILES IDX 24 40 19 42 23 43 20 44 22 45 21 46 27 50
REMARK H PARENT 11 6 12 7 12 8 13 9 26 10 28 11 4 20 8 22 9 23 1 25 1 26 29 28
REMARK H PARENT 14 30 14 31 15 33 15 34 17 39 25 41 20 47 22 48 21 49 27 51
REMARK Flexibility Score: inf
ROOT
ATOM      1  C   UNL     1     -45.844  38.434  28.308  1.00  0.00     0.064 C 
ATOM      2  C   UNL     1     -45.863  37.200  27.378  1.00  0.00    -0.024 C 
ATOM      3  C   UNL     1     -45.703  35.988  28.300  1.00  0.00    -0.010 C 
ATOM      4  C   UNL     1     -46.444  36.438  29.562  1.00  0.00     0.085 C 
ATOM      5  C   UNL     1     -45.971  37.886  29.744  1.00  0.00     0.101 C 
ATOM      6  H   UNL     1     -44.876  38.940  28.205  1.00  0.00     0.056 H 
ATOM      7  H   UNL     1     -46.800  37.136  26.811  1.00  0.00     0.029 H 
ATOM      8  H   UNL     1     -45.048  37.253  26.646  1.00  0.00     0.029 H 
ATOM      9  H   UNL     1     -44.642  35.841  28.541  1.00  0.00     0.033 H 
ATOM     10  H   UNL     1     -47.529  36.388  29.417  1.00  0.00     0.063 H 
ATOM     11  H   UNL     1     -46.647  38.455  30.389  1.00  0.00     0.065 H 
ENDROOT
BRANCH   1  12
ATOM     12  N   UNL     1     -46.875  39.399  27.950  1.00  0.00    -0.327 N 
ATOM     13  C   UNL     1     -47.827  42.444  26.412  1.00  0.00     0.136 A 
ATOM     14  N   UNL     1     -46.650  42.905  25.951  1.00  0.00    -0.219 NA
ATOM     15  C   UNL     1     -47.856  41.220  27.096  1.00  0.00     0.061 A 
ATOM     16  C   UNL     1     -45.545  42.168  26.175  1.00  0.00     0.120 A 
ATOM     17  C   UNL     1     -46.643  40.564  27.254  1.00  0.00     0.145 A 
ATOM     18  C   UNL     1     -48.848  40.410  27.712  1.00  0.00    -0.031 A 
ATOM     19  N   UNL     1     -45.449  40.986  26.807  1.00  0.00    -0.218 NA
ATOM     20  H   UNL     1     -44.616  42.579  25.794  1.00  0.00     0.106 H 
ATOM     21  C   UNL     1     -48.221  39.289  28.216  1.00  0.00     0.007 A 
ATOM     22  H   UNL     1     -49.906  40.623  27.776  1.00  0.00     0.065 H 
ATOM     23  H   UNL     1     -48.632  38.438  28.740  1.00  0.00     0.082 H 
BRANCH  13  24
ATOM     24  N   UNL     1     -48.955  43.212  26.160  1.00  0.00    -0.383 N 
ATOM     25  H   UNL     1     -49.081  43.904  26.889  1.00  0.00     0.158 HD
ATOM     26  H   UNL     1     -49.041  43.540  25.209  1.00  0.00     0.158 HD
ENDBRANCH  13  24
ENDBRANCH   1  12
BRANCH   5  27
ATOM     27  O   UNL     1     -44.686  37.895  30.383  1.00  0.00    -0.388 OA
ATOM     28  H   UNL     1     -44.657  38.700  30.939  1.00  0.00     0.211 HD
ENDBRANCH   5  27
BRANCH   3  29
ATOM     29  C   UNL     1     -46.264  34.680  27.728  1.00  0.00    -0.044 C 
ATOM     30  H   UNL     1     -45.458  33.938  27.669  1.00  0.00     0.027 H 
ATOM     31  H   UNL     1     -47.006  34.269  28.424  1.00  0.00     0.027 H 
BRANCH  29  32
ATOM     32  C   UNL     1     -46.933  34.826  26.354  1.00  0.00    -0.026 C 
ATOM     33  H   UNL     1     -47.849  35.421  26.467  1.00  0.00     0.032 H 
ATOM     34  H   UNL     1     -46.287  35.407  25.685  1.00  0.00     0.032 H 
BRANCH  32  35
ATOM     35  C   UNL     1     -47.307  33.519  25.711  1.00  0.00    -0.027 A 
ATOM     36  C   UNL     1     -48.505  32.885  26.005  1.00  0.00     0.031 A 
ATOM     37  C   UNL     1     -46.462  32.886  24.793  1.00  0.00    -0.029 A 
ATOM     38  N   UNL     1     -48.893  31.714  25.458  1.00  0.00    -0.254 NA
ATOM     39  H   UNL     1     -49.215  33.310  26.710  1.00  0.00     0.084 H 
ATOM     40  C   UNL     1     -46.811  31.683  24.200  1.00  0.00     0.089 A 
ATOM     41  H   UNL     1     -45.508  33.335  24.527  1.00  0.00     0.065 H 
ATOM     42  C   UNL     1     -48.056  31.135  24.572  1.00  0.00     0.089 A 
ATOM     43  N   UNL     1     -45.971  31.100  23.316  1.00  0.00    -0.255 NA
ATOM     44  C   UNL     1     -48.406  29.933  23.978  1.00  0.00    -0.033 A 
ATOM     45  C   UNL     1     -46.361  29.932  22.766  1.00  0.00     0.028 A 
ATOM     46  C   UNL     1     -47.559  29.313  23.062  1.00  0.00    -0.042 A 
ATOM     47  H   UNL     1     -49.357  29.474  24.234  1.00  0.00     0.065 H 
ATOM     48  H   UNL     1     -45.661  29.494  22.060  1.00  0.00     0.084 H 
ATOM     49  H   UNL     1     -47.832  28.373  22.596  1.00  0.00     0.064 H 
ENDBRANCH  32  35
ENDBRANCH  29  32
ENDBRANCH   3  29
BRANCH   4  50
ATOM     50  O   UNL     1     -46.082  35.642  30.682  1.00  0.00    -0.390 OA
ATOM     51  H   UNL     1     -46.429  34.744  30.531  1.00  0.00     0.211 HD
ENDBRANCH   4  50
TORSDOF 7
ENDMDL
MODEL 7
REMARK VINA RESULT:      -9.1      1.807      2.456
REMARK SMILES Nc1ncnc2c1ccn2[C@@H]1C[C@H](CCc2cnc3cccnc3c2)[C@@H](O)[C@H]1O
REMARK SMILES IDX 11 1 12 2 13 3 26 4 28 5 10 12 2 13 3 14 7 15 4 16 6 17 8 18
REMARK SMILES IDX 5 19 9 21 1 24 29 27 14 29 15 32 16 35 17 36 25 37 18 38
REMARK SMILES IDX 24 40 19 42 23 43 20 44 22 45 21 46 27 50
REMARK H PARENT 11 6 12 7 12 8 13 9 26 10 28 11 4 20 8 22 9 23 1 25 1 26 29 28
REMARK H PARENT 14 30 14 31 15 33 15 34 17 39 25 41 20 47 22 48 21 49 27 51
REMARK Flexibility Score: inf
ROOT
ATOM      1  C   UNL     1     -44.679  38.688  28.165  1.00  0.00     0.064 C 
ATOM      2  C   UNL     1     -45.419  37.423  27.678  1.00  0.00    -0.024 C 
ATOM      3  C   UNL     1     -45.848  36.683  28.949  1.00  0.00    -0.010 C 
ATOM      4  C   UNL     1     -46.135  37.835  29.916  1.00  0.00     0.085 C 
ATOM      5  C   UNL     1     -44.958  38.790  29.678  1.00  0.00     0.101 C 
ATOM      6  H   UNL     1     -43.601  38.549  28.011  1.00  0.00     0.056 H 
ATOM      7  H   UNL     1     -46.293  37.677  27.064  1.00  0.00     0.029 H 
ATOM      8  H   UNL     1     -44.762  36.801  27.060  1.00  0.00     0.029 H 
ATOM      9  H   UNL     1     -45.008  36.092  29.336  1.00  0.00     0.033 H 
ATOM     10  H   UNL     1     -47.092  38.314  29.679  1.00  0.00     0.063 H 
ATOM     11  H   UNL     1     -45.178  39.800  30.033  1.00  0.00     0.065 H 
ENDROOT
BRANCH   1  12
ATOM     12  N   UNL     1     -45.072  39.871  27.410  1.00  0.00    -0.327 N 
ATOM     13  C   UNL     1     -44.295  43.057  26.074  1.00  0.00     0.136 A 
ATOM     14  N   UNL     1     -43.021  43.227  26.475  1.00  0.00    -0.219 NA
ATOM     15  C   UNL     1     -44.964  41.874  26.419  1.00  0.00     0.061 A 
ATOM     16  C   UNL     1     -42.447  42.248  27.201  1.00  0.00     0.120 A 
ATOM     17  C   UNL     1     -44.251  40.949  27.168  1.00  0.00     0.145 A 
ATOM     18  C   UNL     1     -46.255  41.321  26.198  1.00  0.00    -0.031 A 
ATOM     19  N   UNL     1     -42.980  41.076  27.585  1.00  0.00    -0.218 NA
ATOM     20  H   UNL     1     -41.423  42.428  27.512  1.00  0.00     0.106 H 
ATOM     21  C   UNL     1     -46.290  40.083  26.805  1.00  0.00     0.007 A 
ATOM     22  H   UNL     1     -47.067  41.779  25.651  1.00  0.00     0.065 H 
ATOM     23  H   UNL     1     -47.086  39.352  26.851  1.00  0.00     0.082 H 
BRANCH  13  24
ATOM     24  N   UNL     1     -44.864  44.071  25.316  1.00  0.00    -0.383 N 
ATOM     25  H   UNL     1     -44.764  43.872  24.328  1.00  0.00     0.158 HD
ATOM     26  H   UNL     1     -45.779  44.368  25.624  1.00  0.00     0.158 HD
ENDBRANCH  13  24
ENDBRANCH   1  12
BRANCH   5  27
ATOM     27  O   UNL     1     -43.814  38.333  30.415  1.00  0.00    -0.388 OA
ATOM     28  H   UNL     1     -44.099  37.535  30.906  1.00  0.00     0.211 HD
ENDBRANCH   5  27
BRANCH   3  29
ATOM     29  C   UNL     1     -47.058  35.758  28.765  1.00  0.00    -0.044 C 
ATOM     30  H   UNL     1     -46.747  34.721  28.941  1.00  0.00     0.027 H 
ATOM     31  H   UNL     1     -47.808  35.986  29.533  1.00  0.00     0.027 H 
BRANCH  29  32
ATOM     32  C   UNL     1     -47.736  35.868  27.392  1.00  0.00    -0.026 C 
ATOM     33  H   UNL     1     -48.813  36.017  27.540  1.00  0.00     0.032 H 
ATOM     34  H   UNL     1     -47.384  36.770  26.874  1.00  0.00     0.032 H 
BRANCH  32  35
ATOM     35  C   UNL     1     -47.551  34.660  26.516  1.00  0.00    -0.027 A 
ATOM     36  C   UNL     1     -46.344  34.403  25.884  1.00  0.00     0.031 A 
ATOM     37  C   UNL     1     -48.590  33.748  26.300  1.00  0.00    -0.029 A 
ATOM     38  N   UNL     1     -46.122  33.334  25.089  1.00  0.00    -0.254 NA
ATOM     39  H   UNL     1     -45.490  35.065  25.998  1.00  0.00     0.084 H 
ATOM     40  C   UNL     1     -48.416  32.633  25.494  1.00  0.00     0.089 A 
ATOM     41  H   UNL     1     -49.560  33.900  26.767  1.00  0.00     0.065 H 
ATOM     42  C   UNL     1     -47.143  32.473  24.908  1.00  0.00     0.089 A 
ATOM     43  N   UNL     1     -49.439  31.771  25.308  1.00  0.00    -0.255 NA
ATOM     44  C   UNL     1     -46.969  31.357  24.104  1.00  0.00    -0.033 A 
ATOM     45  C   UNL     1     -49.216  30.702  24.517  1.00  0.00     0.028 A 
ATOM     46  C   UNL     1     -48.007  30.453  23.898  1.00  0.00    -0.042 A 
ATOM     47  H   UNL     1     -46.004  31.192  23.631  1.00  0.00     0.065 H 
ATOM     48  H   UNL     1     -50.062  30.031  24.392  1.00  0.00     0.084 H 
ATOM     49  H   UNL     1     -47.872  29.579  23.270  1.00  0.00     0.064 H 
ENDBRANCH  32  35
ENDBRANCH  29  32
ENDBRANCH   3  29
BRANCH   4  50
ATOM     50  O   UNL     1     -46.157  37.382  31.262  1.00  0.00    -0.390 OA
ATOM     51  H   UNL     1     -45.868  38.121  31.827  1.00  0.00     0.211 HD
ENDBRANCH   4  50
TORSDOF 7
ENDMDL
