MODEL 1
REMARK VINA RESULT:     -10.1      0.000      0.000
REMARK SMILES CNc1ccc2ccc(OCc3cc(O)cc(-n4cc(Cl)c5c(N)ncnc54)c3)cc2n1
REMARK SMILES IDX 11 1 10 4 9 5 3 6 4 7 32 8 5 9 31 11 6 12 30 14 7 15 8 17
REMARK SMILES IDX 2 20 1 22 12 26 13 27 29 28 14 29 17 31 16 33 15 35 18 37
REMARK SMILES IDX 19 38 28 39 20 40 22 42 27 43 21 44 23 45 26 46 25 47 24 49
REMARK H PARENT 11 2 11 3 4 10 5 13 30 16 7 18 8 19 2 21 1 23 1 24 1 25 13 30
REMARK H PARENT 29 32 16 34 15 36 19 41 26 48 24 50 24 51
REMARK Flexibility Score: inf
ROOT
ATOM      1  C   UNL     1     -46.676  36.857  26.731  1.00  0.00     0.114 C 
ATOM      2  H   UNL     1     -47.626  37.072  26.229  1.00  0.00     0.076 H 
ATOM      3  H   UNL     1     -45.903  37.286  26.083  1.00  0.00     0.076 H 
ENDROOT
BRANCH   1   4
ATOM      4  O   UNL     1     -46.722  37.516  28.000  1.00  0.00    -0.489 OA
BRANCH   4   5
ATOM      5  C   UNL     1     -45.675  38.315  28.369  1.00  0.00     0.122 A 
ATOM      6  C   UNL     1     -42.740  42.039  27.951  1.00  0.00     0.126 A 
ATOM      7  C   UNL     1     -42.027  41.668  29.086  1.00  0.00    -0.019 A 
ATOM      8  N   UNL     1     -43.800  41.326  27.519  1.00  0.00    -0.231 NA
ATOM      9  C   UNL     1     -42.397  40.520  29.779  1.00  0.00    -0.049 A 
ATOM     10  H   UNL     1     -41.197  42.271  29.435  1.00  0.00     0.066 H 
ATOM     11  C   UNL     1     -44.164  40.215  28.184  1.00  0.00     0.076 A 
ATOM     12  C   UNL     1     -43.484  39.767  29.331  1.00  0.00     0.001 A 
ATOM     13  H   UNL     1     -41.840  40.228  30.666  1.00  0.00     0.063 H 
ATOM     14  C   UNL     1     -45.251  39.479  27.726  1.00  0.00     0.007 A 
ATOM     15  C   UNL     1     -43.901  38.599  29.989  1.00  0.00    -0.049 A 
ATOM     16  H   UNL     1     -45.749  39.856  26.840  1.00  0.00     0.069 H 
ATOM     17  C   UNL     1     -44.993  37.881  29.504  1.00  0.00    -0.019 A 
ATOM     18  H   UNL     1     -43.382  38.245  30.875  1.00  0.00     0.063 H 
ATOM     19  H   UNL     1     -45.312  36.975  30.013  1.00  0.00     0.066 H 
BRANCH   6  20
ATOM     20  N   UNL     1     -42.353  43.218  27.287  1.00  0.00    -0.373 N 
ATOM     21  H   UNL     1     -41.530  43.597  27.745  1.00  0.00     0.161 HD
BRANCH  20  22
ATOM     22  C   UNL     1     -42.146  43.053  25.857  1.00  0.00     0.005 C 
ATOM     23  H   UNL     1     -42.820  42.299  25.435  1.00  0.00     0.045 H 
ATOM     24  H   UNL     1     -42.269  44.000  25.320  1.00  0.00     0.045 H 
ATOM     25  H   UNL     1     -41.119  42.712  25.685  1.00  0.00     0.045 H 
ENDBRANCH  20  22
ENDBRANCH   6  20
ENDBRANCH   4   5
ENDBRANCH   1   4
BRANCH   1  26
ATOM     26  C   UNL     1     -46.566  35.356  26.870  1.00  0.00    -0.005 A 
ATOM     27  C   UNL     1     -46.210  34.784  28.094  1.00  0.00    -0.013 A 
ATOM     28  C   UNL     1     -46.838  34.515  25.775  1.00  0.00    -0.031 A 
ATOM     29  C   UNL     1     -46.116  33.405  28.211  1.00  0.00     0.118 A 
ATOM     30  H   UNL     1     -45.997  35.413  28.955  1.00  0.00     0.067 H 
ATOM     31  C   UNL     1     -46.735  33.118  25.882  1.00  0.00     0.051 A 
ATOM     32  H   UNL     1     -47.097  34.993  24.837  1.00  0.00     0.065 H 
ATOM     33  C   UNL     1     -46.370  32.569  27.124  1.00  0.00     0.004 A 
ATOM     34  H   UNL     1     -46.298  31.499  27.276  1.00  0.00     0.068 H 
BRANCH  29  35
ATOM     35  O   UNL     1     -45.767  32.900  29.430  1.00  0.00    -0.508 OA
ATOM     36  H   UNL     1     -45.336  33.594  29.952  1.00  0.00     0.293 HD
ENDBRANCH  29  35
BRANCH  31  37
ATOM     37  N   UNL     1     -46.982  32.262  24.751  1.00  0.00    -0.299 N 
ATOM     38  C   UNL     1     -45.999  31.753  23.915  1.00  0.00     0.030 A 
ATOM     39  C   UNL     1     -48.210  31.790  24.271  1.00  0.00     0.151 A 
ATOM     40  C   UNL     1     -46.586  31.002  22.927  1.00  0.00     0.072 A 
ATOM     41  H   UNL     1     -44.954  31.979  24.055  1.00  0.00     0.084 H 
ATOM     42  C   UNL     1     -47.982  31.016  23.135  1.00  0.00     0.080 A 
ATOM     43  N   UNL     1     -49.426  32.012  24.811  1.00  0.00    -0.218 NA
ATOM     44  Cl  UNL     1     -45.761  30.193  21.677  1.00  0.00    -0.082 Cl
ATOM     45  C   UNL     1     -49.105  30.461  22.501  1.00  0.00     0.137 A 
ATOM     46  C   UNL     1     -50.419  31.430  24.127  1.00  0.00     0.120 A 
ATOM     47  N   UNL     1     -50.325  30.676  23.021  1.00  0.00    -0.219 NA
ATOM     48  H   UNL     1     -51.422  31.583  24.514  1.00  0.00     0.106 H 
BRANCH  45  49
ATOM     49  N   UNL     1     -49.043  29.680  21.358  1.00  0.00    -0.383 N 
ATOM     50  H   UNL     1     -48.357  28.941  21.445  1.00  0.00     0.158 HD
ATOM     51  H   UNL     1     -49.083  30.175  20.477  1.00  0.00     0.158 HD
ENDBRANCH  45  49
ENDBRANCH  31  37
ENDBRANCH   1  26
TORSDOF 8
ENDMDL
MODEL 2
REMARK VINA RESULT:     -10.1      2.977     10.769
REMARK SMILES CNc1ccc2ccc(OCc3cc(O)cc(-n4cc(Cl)c5c(N)ncnc54)c3)cc2n1
REMARK SMILES IDX 11 1 10 4 9 5 3 6 4 7 32 8 5 9 31 11 6 12 30 14 7 15 8 17
REMARK SMILES IDX 2 20 1 22 12 26 13 27 29 28 14 29 17 31 16 33 15 35 18 37
REMARK SMILES IDX 19 38 28 39 20 40 22 42 27 43 21 44 23 45 26 46 25 47 24 49
REMARK H PARENT 11 2 11 3 4 10 5 13 30 16 7 18 8 19 2 21 1 23 1 24 1 25 13 30
REMARK H PARENT 29 32 16 34 15 36 19 41 26 48 24 50 24 51
REMARK Flexibility Score: inf
ROOT
ATOM      1  C   UNL     1     -47.594  35.218  26.350  1.00  0.00     0.114 C 
ATOM      2  H   UNL     1     -46.933  35.116  25.481  1.00  0.00     0.076 H 
ATOM      3  H   UNL     1     -48.513  35.674  25.965  1.00  0.00     0.076 H 
ENDROOT
BRANCH   1   4
ATOM      4  O   UNL     1     -47.830  33.897  26.845  1.00  0.00    -0.489 OA
BRANCH   4   5
ATOM      5  C   UNL     1     -47.678  32.836  25.995  1.00  0.00     0.122 A 
ATOM      6  C   UNL     1     -48.789  28.580  24.175  1.00  0.00     0.126 A 
ATOM      7  C   UNL     1     -47.742  28.643  23.261  1.00  0.00    -0.019 A 
ATOM      8  N   UNL     1     -49.031  29.585  25.040  1.00  0.00    -0.231 NA
ATOM      9  C   UNL     1     -46.908  29.756  23.254  1.00  0.00    -0.049 A 
ATOM     10  H   UNL     1     -47.583  27.838  22.552  1.00  0.00     0.066 H 
ATOM     11  C   UNL     1     -48.228  30.665  25.040  1.00  0.00     0.076 A 
ATOM     12  C   UNL     1     -47.141  30.795  24.156  1.00  0.00     0.001 A 
ATOM     13  H   UNL     1     -46.090  29.806  22.541  1.00  0.00     0.063 H 
ATOM     14  C   UNL     1     -48.477  31.693  25.942  1.00  0.00     0.007 A 
ATOM     15  C   UNL     1     -46.331  31.941  24.197  1.00  0.00    -0.049 A 
ATOM     16  H   UNL     1     -49.323  31.556  26.607  1.00  0.00     0.069 H 
ATOM     17  C   UNL     1     -46.604  32.953  25.115  1.00  0.00    -0.019 A 
ATOM     18  H   UNL     1     -45.490  32.050  23.518  1.00  0.00     0.063 H 
ATOM     19  H   UNL     1     -45.973  33.838  25.146  1.00  0.00     0.066 H 
BRANCH   6  20
ATOM     20  N   UNL     1     -49.628  27.451  24.139  1.00  0.00    -0.373 N 
ATOM     21  H   UNL     1     -49.476  26.958  23.264  1.00  0.00     0.161 HD
BRANCH  20  22
ATOM     22  C   UNL     1     -49.483  26.568  25.286  1.00  0.00     0.005 C 
ATOM     23  H   UNL     1     -49.803  27.056  26.214  1.00  0.00     0.045 H 
ATOM     24  H   UNL     1     -50.040  25.634  25.148  1.00  0.00     0.045 H 
ATOM     25  H   UNL     1     -48.426  26.303  25.399  1.00  0.00     0.045 H 
ENDBRANCH  20  22
ENDBRANCH   6  20
ENDBRANCH   4   5
ENDBRANCH   1   4
BRANCH   1  26
ATOM     26  C   UNL     1     -46.880  36.088  27.361  1.00  0.00    -0.005 A 
ATOM     27  C   UNL     1     -46.757  35.671  28.689  1.00  0.00    -0.013 A 
ATOM     28  C   UNL     1     -46.317  37.318  26.975  1.00  0.00    -0.031 A 
ATOM     29  C   UNL     1     -46.098  36.475  29.607  1.00  0.00     0.118 A 
ATOM     30  H   UNL     1     -47.182  34.723  29.011  1.00  0.00     0.067 H 
ATOM     31  C   UNL     1     -45.656  38.143  27.900  1.00  0.00     0.051 A 
ATOM     32  H   UNL     1     -46.443  37.617  25.940  1.00  0.00     0.065 H 
ATOM     33  C   UNL     1     -45.550  37.702  29.231  1.00  0.00     0.004 A 
ATOM     34  H   UNL     1     -45.032  38.281  29.985  1.00  0.00     0.068 H 
BRANCH  29  35
ATOM     35  O   UNL     1     -46.004  36.019  30.890  1.00  0.00    -0.508 OA
ATOM     36  H   UNL     1     -45.069  35.904  31.120  1.00  0.00     0.293 HD
ENDBRANCH  29  35
BRANCH  31  37
ATOM     37  N   UNL     1     -45.109  39.416  27.508  1.00  0.00    -0.299 N 
ATOM     38  C   UNL     1     -45.538  40.160  26.420  1.00  0.00     0.030 A 
ATOM     39  C   UNL     1     -44.071  40.136  28.111  1.00  0.00     0.151 A 
ATOM     40  C   UNL     1     -44.784  41.302  26.322  1.00  0.00     0.072 A 
ATOM     41  H   UNL     1     -46.328  39.820  25.768  1.00  0.00     0.084 H 
ATOM     42  C   UNL     1     -43.850  41.303  27.381  1.00  0.00     0.080 A 
ATOM     43  N   UNL     1     -43.393  39.795  29.226  1.00  0.00    -0.218 NA
ATOM     44  Cl  UNL     1     -44.957  42.505  25.131  1.00  0.00    -0.082 Cl
ATOM     45  C   UNL     1     -42.830  42.156  27.830  1.00  0.00     0.137 A 
ATOM     46  C   UNL     1     -42.450  40.685  29.562  1.00  0.00     0.120 A 
ATOM     47  N   UNL     1     -42.140  41.830  28.935  1.00  0.00    -0.219 NA
ATOM     48  H   UNL     1     -41.868  40.455  30.449  1.00  0.00     0.106 H 
BRANCH  45  49
ATOM     49  N   UNL     1     -42.482  43.344  27.207  1.00  0.00    -0.383 N 
ATOM     50  H   UNL     1     -43.298  43.874  26.925  1.00  0.00     0.158 HD
ATOM     51  H   UNL     1     -41.712  43.297  26.554  1.00  0.00     0.158 HD
ENDBRANCH  45  49
ENDBRANCH  31  37
ENDBRANCH   1  26
TORSDOF 8
ENDMDL
MODEL 3
REMARK VINA RESULT:     -10.0      3.093     10.235
REMARK SMILES CNc1ccc2ccc(OCc3cc(O)cc(-n4cc(Cl)c5c(N)ncnc54)c3)cc2n1
REMARK SMILES IDX 11 1 10 4 9 5 3 6 4 7 32 8 5 9 31 11 6 12 30 14 7 15 8 17
REMARK SMILES IDX 2 20 1 22 12 26 13 27 29 28 14 29 17 31 16 33 15 35 18 37
REMARK SMILES IDX 19 38 28 39 20 40 22 42 27 43 21 44 23 45 26 46 25 47 24 49
REMARK H PARENT 11 2 11 3 4 10 5 13 30 16 7 18 8 19 2 21 1 23 1 24 1 25 13 30
REMARK H PARENT 29 32 16 34 15 36 19 41 26 48 24 50 24 51
REMARK Flexibility Score: inf
ROOT
ATOM      1  C   UNL     1     -46.485  34.480  27.159  1.00  0.00     0.114 C 
ATOM      2  H   UNL     1     -45.929  34.052  28.001  1.00  0.00     0.076 H 
ATOM      3  H   UNL     1     -45.814  34.396  26.296  1.00  0.00     0.076 H 
ENDROOT
BRANCH   1   4
ATOM      4  O   UNL     1     -47.658  33.679  26.991  1.00  0.00    -0.489 OA
BRANCH   4   5
ATOM      5  C   UNL     1     -47.663  32.706  26.031  1.00  0.00     0.122 A 
ATOM      6  C   UNL     1     -46.466  30.774  21.848  1.00  0.00     0.126 A 
ATOM      7  C   UNL     1     -47.214  29.630  22.106  1.00  0.00    -0.019 A 
ATOM      8  N   UNL     1     -46.385  31.780  22.741  1.00  0.00    -0.231 NA
ATOM      9  C   UNL     1     -47.916  29.529  23.303  1.00  0.00    -0.049 A 
ATOM     10  H   UNL     1     -47.242  28.818  21.388  1.00  0.00     0.066 H 
ATOM     11  C   UNL     1     -47.061  31.690  23.901  1.00  0.00     0.076 A 
ATOM     12  C   UNL     1     -47.850  30.572  24.228  1.00  0.00     0.001 A 
ATOM     13  H   UNL     1     -48.501  28.636  23.506  1.00  0.00     0.063 H 
ATOM     14  C   UNL     1     -46.982  32.737  24.813  1.00  0.00     0.007 A 
ATOM     15  C   UNL     1     -48.538  30.527  25.450  1.00  0.00    -0.049 A 
ATOM     16  H   UNL     1     -46.364  33.580  24.525  1.00  0.00     0.069 H 
ATOM     17  C   UNL     1     -48.441  31.593  26.343  1.00  0.00    -0.019 A 
ATOM     18  H   UNL     1     -49.150  29.668  25.712  1.00  0.00     0.063 H 
ATOM     19  H   UNL     1     -48.978  31.556  27.288  1.00  0.00     0.066 H 
BRANCH   6  20
ATOM     20  N   UNL     1     -45.751  30.833  20.637  1.00  0.00    -0.373 N 
ATOM     21  H   UNL     1     -45.837  29.940  20.162  1.00  0.00     0.161 HD
BRANCH  20  22
ATOM     22  C   UNL     1     -46.133  31.941  19.775  1.00  0.00     0.005 C 
ATOM     23  H   UNL     1     -46.539  31.587  18.820  1.00  0.00     0.045 H 
ATOM     24  H   UNL     1     -46.858  32.601  20.264  1.00  0.00     0.045 H 
ATOM     25  H   UNL     1     -45.243  32.540  19.553  1.00  0.00     0.045 H 
ENDBRANCH  20  22
ENDBRANCH   6  20
ENDBRANCH   4   5
ENDBRANCH   1   4
BRANCH   1  26
ATOM     26  C   UNL     1     -46.816  35.912  27.514  1.00  0.00    -0.005 A 
ATOM     27  C   UNL     1     -48.143  36.303  27.704  1.00  0.00    -0.013 A 
ATOM     28  C   UNL     1     -45.792  36.864  27.675  1.00  0.00    -0.031 A 
ATOM     29  C   UNL     1     -48.435  37.619  28.034  1.00  0.00     0.118 A 
ATOM     30  H   UNL     1     -48.952  35.585  27.588  1.00  0.00     0.067 H 
ATOM     31  C   UNL     1     -46.079  38.200  27.999  1.00  0.00     0.051 A 
ATOM     32  H   UNL     1     -44.774  36.529  27.506  1.00  0.00     0.065 H 
ATOM     33  C   UNL     1     -47.424  38.568  28.180  1.00  0.00     0.004 A 
ATOM     34  H   UNL     1     -47.707  39.577  28.454  1.00  0.00     0.068 H 
BRANCH  29  35
ATOM     35  O   UNL     1     -49.748  37.947  28.211  1.00  0.00    -0.508 OA
ATOM     36  H   UNL     1     -50.091  38.344  27.395  1.00  0.00     0.293 HD
ENDBRANCH  29  35
BRANCH  31  37
ATOM     37  N   UNL     1     -45.031  39.179  28.130  1.00  0.00    -0.299 N 
ATOM     38  C   UNL     1     -44.063  39.173  29.124  1.00  0.00     0.030 A 
ATOM     39  C   UNL     1     -44.782  40.297  27.325  1.00  0.00     0.151 A 
ATOM     40  C   UNL     1     -43.243  40.262  28.967  1.00  0.00     0.072 A 
ATOM     41  H   UNL     1     -44.037  38.417  29.893  1.00  0.00     0.084 H 
ATOM     42  C   UNL     1     -43.683  40.985  27.837  1.00  0.00     0.080 A 
ATOM     43  N   UNL     1     -45.462  40.661  26.218  1.00  0.00    -0.218 NA
ATOM     44  Cl  UNL     1     -41.923  40.658  29.965  1.00  0.00    -0.082 Cl
ATOM     45  C   UNL     1     -43.287  42.151  27.164  1.00  0.00     0.137 A 
ATOM     46  C   UNL     1     -44.991  41.783  25.658  1.00  0.00     0.120 A 
ATOM     47  N   UNL     1     -43.955  42.533  26.063  1.00  0.00    -0.219 NA
ATOM     48  H   UNL     1     -45.507  42.127  24.766  1.00  0.00     0.106 H 
BRANCH  45  49
ATOM     49  N   UNL     1     -42.224  42.948  27.556  1.00  0.00    -0.383 N 
ATOM     50  H   UNL     1     -42.439  43.934  27.465  1.00  0.00     0.158 HD
ATOM     51  H   UNL     1     -41.306  42.645  27.260  1.00  0.00     0.158 HD
ENDBRANCH  45  49
ENDBRANCH  31  37
ENDBRANCH   1  26
TORSDOF 8
ENDMDL
MODEL 4
REMARK VINA RESULT:      -9.9      1.511      2.135
REMARK SMILES CNc1ccc2ccc(OCc3cc(O)cc(-n4cc(Cl)c5c(N)ncnc54)c3)cc2n1
REMARK SMILES IDX 11 1 10 4 9 5 3 6 4 7 32 8 5 9 31 11 6 12 30 14 7 15 8 17
REMARK SMILES IDX 2 20 1 22 12 26 13 27 29 28 14 29 17 31 16 33 15 35 18 37
REMARK SMILES IDX 19 38 28 39 20 40 22 42 27 43 21 44 23 45 26 46 25 47 24 49
REMARK H PARENT 11 2 11 3 4 10 5 13 30 16 7 18 8 19 2 21 1 23 1 24 1 25 13 30
REMARK H PARENT 29 32 16 34 15 36 19 41 26 48 24 50 24 51
REMARK Flexibility Score: inf
ROOT
ATOM      1  C   UNL     1     -46.912  36.731  26.613  1.00  0.00     0.114 C 
ATOM      2  H   UNL     1     -47.948  36.977  26.352  1.00  0.00     0.076 H 
ATOM      3  H   UNL     1     -46.303  37.140  25.798  1.00  0.00     0.076 H 
ENDROOT
BRANCH   1   4
ATOM      4  O   UNL     1     -46.634  37.386  27.854  1.00  0.00    -0.489 OA
BRANCH   4   5
ATOM      5  C   UNL     1     -45.723  38.406  27.875  1.00  0.00     0.122 A 
ATOM      6  C   UNL     1     -43.515  42.246  26.132  1.00  0.00     0.126 A 
ATOM      7  C   UNL     1     -42.683  42.333  27.243  1.00  0.00    -0.019 A 
ATOM      8  N   UNL     1     -44.456  41.287  26.029  1.00  0.00    -0.231 NA
ATOM      9  C   UNL     1     -42.806  41.395  28.264  1.00  0.00    -0.049 A 
ATOM     10  H   UNL     1     -41.953  43.130  27.322  1.00  0.00     0.066 H 
ATOM     11  C   UNL     1     -44.582  40.375  27.011  1.00  0.00     0.076 A 
ATOM     12  C   UNL     1     -43.768  40.389  28.159  1.00  0.00     0.001 A 
ATOM     13  H   UNL     1     -42.156  41.461  29.132  1.00  0.00     0.063 H 
ATOM     14  C   UNL     1     -45.547  39.382  26.893  1.00  0.00     0.007 A 
ATOM     15  C   UNL     1     -43.936  39.414  29.155  1.00  0.00    -0.049 A 
ATOM     16  H   UNL     1     -46.154  39.405  25.994  1.00  0.00     0.069 H 
ATOM     17  C   UNL     1     -44.911  38.429  29.007  1.00  0.00    -0.019 A 
ATOM     18  H   UNL     1     -43.313  39.416  30.045  1.00  0.00     0.063 H 
ATOM     19  H   UNL     1     -45.037  37.674  29.778  1.00  0.00     0.066 H 
BRANCH   6  20
ATOM     20  N   UNL     1     -43.379  43.225  25.130  1.00  0.00    -0.373 N 
ATOM     21  H   UNL     1     -42.394  43.442  25.016  1.00  0.00     0.161 HD
BRANCH  20  22
ATOM     22  C   UNL     1     -44.001  42.869  23.864  1.00  0.00     0.005 C 
ATOM     23  H   UNL     1     -44.134  41.785  23.770  1.00  0.00     0.045 H 
ATOM     24  H   UNL     1     -44.965  43.373  23.733  1.00  0.00     0.045 H 
ATOM     25  H   UNL     1     -43.350  43.194  23.045  1.00  0.00     0.045 H 
ENDBRANCH  20  22
ENDBRANCH   6  20
ENDBRANCH   4   5
ENDBRANCH   1   4
BRANCH   1  26
ATOM     26  C   UNL     1     -46.817  35.227  26.726  1.00  0.00    -0.005 A 
ATOM     27  C   UNL     1     -46.131  34.641  27.792  1.00  0.00    -0.013 A 
ATOM     28  C   UNL     1     -47.433  34.397  25.770  1.00  0.00    -0.031 A 
ATOM     29  C   UNL     1     -46.054  33.259  27.888  1.00  0.00     0.118 A 
ATOM     30  H   UNL     1     -45.649  35.260  28.545  1.00  0.00     0.067 H 
ATOM     31  C   UNL     1     -47.351  32.998  25.853  1.00  0.00     0.051 A 
ATOM     32  H   UNL     1     -47.944  34.886  24.948  1.00  0.00     0.065 H 
ATOM     33  C   UNL     1     -46.650  32.434  26.935  1.00  0.00     0.004 A 
ATOM     34  H   UNL     1     -46.573  31.362  27.068  1.00  0.00     0.068 H 
BRANCH  29  35
ATOM     35  O   UNL     1     -45.374  32.739  28.951  1.00  0.00    -0.508 OA
ATOM     36  H   UNL     1     -45.990  32.603  29.688  1.00  0.00     0.293 HD
ENDBRANCH  29  35
BRANCH  31  37
ATOM     37  N   UNL     1     -47.954  32.153  24.855  1.00  0.00    -0.299 N 
ATOM     38  C   UNL     1     -49.274  31.727  24.872  1.00  0.00     0.030 A 
ATOM     39  C   UNL     1     -47.362  31.601  23.713  1.00  0.00     0.151 A 
ATOM     40  C   UNL     1     -49.504  30.916  23.790  1.00  0.00     0.072 A 
ATOM     41  H   UNL     1     -49.954  32.001  25.663  1.00  0.00     0.084 H 
ATOM     42  C   UNL     1     -48.307  30.823  23.048  1.00  0.00     0.080 A 
ATOM     43  N   UNL     1     -46.095  31.792  23.289  1.00  0.00    -0.218 NA
ATOM     44  Cl  UNL     1     -50.983  30.162  23.415  1.00  0.00    -0.082 Cl
ATOM     45  C   UNL     1     -47.891  30.173  21.875  1.00  0.00     0.137 A 
ATOM     46  C   UNL     1     -45.814  31.129  22.159  1.00  0.00     0.120 A 
ATOM     47  N   UNL     1     -46.632  30.346  21.440  1.00  0.00    -0.219 NA
ATOM     48  H   UNL     1     -44.804  31.241  21.777  1.00  0.00     0.106 H 
BRANCH  45  49
ATOM     49  N   UNL     1     -48.708  29.357  21.109  1.00  0.00    -0.383 N 
ATOM     50  H   UNL     1     -49.573  29.819  20.859  1.00  0.00     0.158 HD
ATOM     51  H   UNL     1     -48.766  28.389  21.396  1.00  0.00     0.158 HD
ENDBRANCH  45  49
ENDBRANCH  31  37
ENDBRANCH   1  26
TORSDOF 8
ENDMDL
MODEL 5
REMARK VINA RESULT:      -9.7      3.260     10.892
REMARK SMILES CNc1ccc2ccc(OCc3cc(O)cc(-n4cc(Cl)c5c(N)ncnc54)c3)cc2n1
REMARK SMILES IDX 11 1 10 4 9 5 3 6 4 7 32 8 5 9 31 11 6 12 30 14 7 15 8 17
REMARK SMILES IDX 2 20 1 22 12 26 13 27 29 28 14 29 17 31 16 33 15 35 18 37
REMARK SMILES IDX 19 38 28 39 20 40 22 42 27 43 21 44 23 45 26 46 25 47 24 49
REMARK H PARENT 11 2 11 3 4 10 5 13 30 16 7 18 8 19 2 21 1 23 1 24 1 25 13 30
REMARK H PARENT 29 32 16 34 15 36 19 41 26 48 24 50 24 51
REMARK Flexibility Score: inf
ROOT
ATOM      1  C   UNL     1     -46.817  34.912  25.991  1.00  0.00     0.114 C 
ATOM      2  H   UNL     1     -45.841  34.520  26.301  1.00  0.00     0.076 H 
ATOM      3  H   UNL     1     -46.729  35.091  24.913  1.00  0.00     0.076 H 
ENDROOT
BRANCH   1   4
ATOM      4  O   UNL     1     -47.779  33.891  26.276  1.00  0.00    -0.489 OA
BRANCH   4   5
ATOM      5  C   UNL     1     -47.700  32.702  25.605  1.00  0.00     0.122 A 
ATOM      6  C   UNL     1     -49.036  28.260  24.539  1.00  0.00     0.126 A 
ATOM      7  C   UNL     1     -48.026  28.130  23.592  1.00  0.00    -0.019 A 
ATOM      8  N   UNL     1     -49.206  29.400  25.238  1.00  0.00    -0.231 NA
ATOM      9  C   UNL     1     -47.153  29.192  23.375  1.00  0.00    -0.049 A 
ATOM     10  H   UNL     1     -47.925  27.216  23.018  1.00  0.00     0.066 H 
ATOM     11  C   UNL     1     -48.366  30.431  25.035  1.00  0.00     0.076 A 
ATOM     12  C   UNL     1     -47.312  30.371  24.104  1.00  0.00     0.001 A 
ATOM     13  H   UNL     1     -46.364  29.092  22.636  1.00  0.00     0.063 H 
ATOM     14  C   UNL     1     -48.540  31.600  25.767  1.00  0.00     0.007 A 
ATOM     15  C   UNL     1     -46.461  31.474  23.930  1.00  0.00    -0.049 A 
ATOM     16  H   UNL     1     -49.363  31.607  26.473  1.00  0.00     0.069 H 
ATOM     17  C   UNL     1     -46.659  32.631  24.681  1.00  0.00    -0.019 A 
ATOM     18  H   UNL     1     -45.644  31.437  23.214  1.00  0.00     0.063 H 
ATOM     19  H   UNL     1     -45.996  33.482  24.546  1.00  0.00     0.066 H 
BRANCH   6  20
ATOM     20  N   UNL     1     -49.915  27.175  24.716  1.00  0.00    -0.373 N 
ATOM     21  H   UNL     1     -50.276  26.895  23.810  1.00  0.00     0.161 HD
BRANCH  20  22
ATOM     22  C   UNL     1     -49.334  26.051  25.435  1.00  0.00     0.005 C 
ATOM     23  H   UNL     1     -48.260  26.191  25.603  1.00  0.00     0.045 H 
ATOM     24  H   UNL     1     -49.839  25.881  26.392  1.00  0.00     0.045 H 
ATOM     25  H   UNL     1     -49.460  25.144  24.835  1.00  0.00     0.045 H 
ENDBRANCH  20  22
ENDBRANCH   6  20
ENDBRANCH   4   5
ENDBRANCH   1   4
BRANCH   1  26
ATOM     26  C   UNL     1     -47.072  36.174  26.782  1.00  0.00    -0.005 A 
ATOM     27  C   UNL     1     -48.340  36.436  27.306  1.00  0.00    -0.013 A 
ATOM     28  C   UNL     1     -46.032  37.093  27.017  1.00  0.00    -0.031 A 
ATOM     29  C   UNL     1     -48.561  37.596  28.033  1.00  0.00     0.118 A 
ATOM     30  H   UNL     1     -49.160  35.740  27.140  1.00  0.00     0.067 H 
ATOM     31  C   UNL     1     -46.249  38.275  27.744  1.00  0.00     0.051 A 
ATOM     32  H   UNL     1     -45.064  36.865  26.584  1.00  0.00     0.065 H 
ATOM     33  C   UNL     1     -47.537  38.516  28.256  1.00  0.00     0.004 A 
ATOM     34  H   UNL     1     -47.761  39.396  28.845  1.00  0.00     0.068 H 
BRANCH  29  35
ATOM     35  O   UNL     1     -49.819  37.801  28.524  1.00  0.00    -0.508 OA
ATOM     36  H   UNL     1     -49.782  37.829  29.493  1.00  0.00     0.293 HD
ENDBRANCH  29  35
BRANCH  31  37
ATOM     37  N   UNL     1     -45.191  39.229  27.954  1.00  0.00    -0.299 N 
ATOM     38  C   UNL     1     -44.256  39.160  28.975  1.00  0.00     0.030 A 
ATOM     39  C   UNL     1     -44.900  40.378  27.210  1.00  0.00     0.151 A 
ATOM     40  C   UNL     1     -43.414  40.241  28.896  1.00  0.00     0.072 A 
ATOM     41  H   UNL     1     -44.265  38.369  29.709  1.00  0.00     0.084 H 
ATOM     42  C   UNL     1     -43.807  41.023  27.788  1.00  0.00     0.080 A 
ATOM     43  N   UNL     1     -45.538  40.806  26.101  1.00  0.00    -0.218 NA
ATOM     44  Cl  UNL     1     -42.121  40.569  29.951  1.00  0.00    -0.082 Cl
ATOM     45  C   UNL     1     -43.372  42.213  27.184  1.00  0.00     0.137 A 
ATOM     46  C   UNL     1     -45.033  41.944  25.609  1.00  0.00     0.120 A 
ATOM     47  N   UNL     1     -43.999  42.657  26.082  1.00  0.00    -0.219 NA
ATOM     48  H   UNL     1     -45.515  42.338  24.719  1.00  0.00     0.106 H 
BRANCH  45  49
ATOM     49  N   UNL     1     -42.309  42.973  27.645  1.00  0.00    -0.383 N 
ATOM     50  H   UNL     1     -41.456  42.431  27.704  1.00  0.00     0.158 HD
ATOM     51  H   UNL     1     -42.511  43.604  28.409  1.00  0.00     0.158 HD
ENDBRANCH  45  49
ENDBRANCH  31  37
ENDBRANCH   1  26
TORSDOF 8
ENDMDL
MODEL 6
REMARK VINA RESULT:      -9.3      3.375     10.760
REMARK SMILES CNc1ccc2ccc(OCc3cc(O)cc(-n4cc(Cl)c5c(N)ncnc54)c3)cc2n1
REMARK SMILES IDX 11 1 10 4 9 5 3 6 4 7 32 8 5 9 31 11 6 12 30 14 7 15 8 17
REMARK SMILES IDX 2 20 1 22 12 26 13 27 29 28 14 29 17 31 16 33 15 35 18 37
REMARK SMILES IDX 19 38 28 39 20 40 22 42 27 43 21 44 23 45 26 46 25 47 24 49
REMARK H PARENT 11 2 11 3 4 10 5 13 30 16 7 18 8 19 2 21 1 23 1 24 1 25 13 30
REMARK H PARENT 29 32 16 34 15 36 19 41 26 48 24 50 24 51
REMARK Flexibility Score: inf
ROOT
ATOM      1  C   UNL     1     -44.978  38.201  29.171  1.00  0.00     0.114 C 
ATOM      2  H   UNL     1     -46.018  38.532  29.072  1.00  0.00     0.076 H 
ATOM      3  H   UNL     1     -44.914  37.740  30.163  1.00  0.00     0.076 H 
ENDROOT
BRANCH   1   4
ATOM      4  O   UNL     1     -44.751  37.244  28.132  1.00  0.00    -0.489 OA
BRANCH   4   5
ATOM      5  C   UNL     1     -45.788  36.452  27.725  1.00  0.00     0.122 A 
ATOM      6  C   UNL     1     -47.802  32.373  26.323  1.00  0.00     0.126 A 
ATOM      7  C   UNL     1     -49.050  32.974  26.199  1.00  0.00    -0.019 A 
ATOM      8  N   UNL     1     -46.723  33.067  26.736  1.00  0.00    -0.231 NA
ATOM      9  C   UNL     1     -49.187  34.329  26.483  1.00  0.00    -0.049 A 
ATOM     10  H   UNL     1     -49.913  32.392  25.895  1.00  0.00     0.066 H 
ATOM     11  C   UNL     1     -46.846  34.378  27.013  1.00  0.00     0.076 A 
ATOM     12  C   UNL     1     -48.072  35.060  26.897  1.00  0.00     0.001 A 
ATOM     13  H   UNL     1     -50.161  34.800  26.386  1.00  0.00     0.063 H 
ATOM     14  C   UNL     1     -45.727  35.090  27.427  1.00  0.00     0.007 A 
ATOM     15  C   UNL     1     -48.148  36.429  27.195  1.00  0.00    -0.049 A 
ATOM     16  H   UNL     1     -44.801  34.529  27.504  1.00  0.00     0.069 H 
ATOM     17  C   UNL     1     -47.008  37.117  27.606  1.00  0.00    -0.019 A 
ATOM     18  H   UNL     1     -49.090  36.964  27.109  1.00  0.00     0.063 H 
ATOM     19  H   UNL     1     -47.069  38.178  27.833  1.00  0.00     0.066 H 
BRANCH   6  20
ATOM     20  N   UNL     1     -47.705  30.996  26.050  1.00  0.00    -0.373 N 
ATOM     21  H   UNL     1     -47.579  30.496  26.925  1.00  0.00     0.161 HD
BRANCH  20  22
ATOM     22  C   UNL     1     -48.820  30.463  25.282  1.00  0.00     0.005 C 
ATOM     23  H   UNL     1     -48.936  29.383  25.434  1.00  0.00     0.045 H 
ATOM     24  H   UNL     1     -49.758  30.973  25.525  1.00  0.00     0.045 H 
ATOM     25  H   UNL     1     -48.626  30.627  24.216  1.00  0.00     0.045 H 
ENDBRANCH  20  22
ENDBRANCH   6  20
ENDBRANCH   4   5
ENDBRANCH   1   4
BRANCH   1  26
ATOM     26  C   UNL     1     -44.097  39.421  29.027  1.00  0.00    -0.005 A 
ATOM     27  C   UNL     1     -43.038  39.636  29.912  1.00  0.00    -0.013 A 
ATOM     28  C   UNL     1     -44.322  40.347  27.991  1.00  0.00    -0.031 A 
ATOM     29  C   UNL     1     -42.234  40.758  29.768  1.00  0.00     0.118 A 
ATOM     30  H   UNL     1     -42.842  38.934  30.719  1.00  0.00     0.067 H 
ATOM     31  C   UNL     1     -43.520  41.490  27.845  1.00  0.00     0.051 A 
ATOM     32  H   UNL     1     -45.162  40.157  27.332  1.00  0.00     0.065 H 
ATOM     33  C   UNL     1     -42.463  41.685  28.751  1.00  0.00     0.004 A 
ATOM     34  H   UNL     1     -41.795  42.534  28.676  1.00  0.00     0.068 H 
BRANCH  29  35
ATOM     35  O   UNL     1     -41.212  40.917  30.658  1.00  0.00    -0.508 OA
ATOM     36  H   UNL     1     -40.499  41.424  30.237  1.00  0.00     0.293 HD
ENDBRANCH  29  35
BRANCH  31  37
ATOM     37  N   UNL     1     -43.774  42.453  26.803  1.00  0.00    -0.299 N 
ATOM     38  C   UNL     1     -43.835  42.156  25.450  1.00  0.00     0.030 A 
ATOM     39  C   UNL     1     -43.994  43.829  26.930  1.00  0.00     0.151 A 
ATOM     40  C   UNL     1     -44.065  43.308  24.741  1.00  0.00     0.072 A 
ATOM     41  H   UNL     1     -43.683  41.156  25.075  1.00  0.00     0.084 H 
ATOM     42  C   UNL     1     -44.166  44.376  25.659  1.00  0.00     0.080 A 
ATOM     43  N   UNL     1     -44.058  44.534  28.079  1.00  0.00    -0.218 NA
ATOM     44  Cl  UNL     1     -44.207  43.418  23.049  1.00  0.00    -0.082 Cl
ATOM     45  C   UNL     1     -44.388  45.760  25.581  1.00  0.00     0.137 A 
ATOM     46  C   UNL     1     -44.281  45.840  27.882  1.00  0.00     0.120 A 
ATOM     47  N   UNL     1     -44.449  46.480  26.714  1.00  0.00    -0.219 NA
ATOM     48  H   UNL     1     -44.334  46.457  28.774  1.00  0.00     0.106 H 
BRANCH  45  49
ATOM     49  N   UNL     1     -44.565  46.451  24.394  1.00  0.00    -0.383 N 
ATOM     50  H   UNL     1     -44.182  47.388  24.443  1.00  0.00     0.158 HD
ATOM     51  H   UNL     1     -45.464  46.341  23.943  1.00  0.00     0.158 HD
ENDBRANCH  45  49
ENDBRANCH  31  37
ENDBRANCH   1  26
TORSDOF 8
ENDMDL
MODEL 7
REMARK VINA RESULT:      -9.3      1.899      2.561
REMARK SMILES CNc1ccc2ccc(OCc3cc(O)cc(-n4cc(Cl)c5c(N)ncnc54)c3)cc2n1
REMARK SMILES IDX 11 1 10 4 9 5 3 6 4 7 32 8 5 9 31 11 6 12 30 14 7 15 8 17
REMARK SMILES IDX 2 20 1 22 12 26 13 27 29 28 14 29 17 31 16 33 15 35 18 37
REMARK SMILES IDX 19 38 28 39 20 40 22 42 27 43 21 44 23 45 26 46 25 47 24 49
REMARK H PARENT 11 2 11 3 4 10 5 13 30 16 7 18 8 19 2 21 1 23 1 24 1 25 13 30
REMARK H PARENT 29 32 16 34 15 36 19 41 26 48 24 50 24 51
REMARK Flexibility Score: inf
ROOT
ATOM      1  C   UNL     1     -46.047  36.428  27.196  1.00  0.00     0.114 C 
ATOM      2  H   UNL     1     -45.842  36.993  26.279  1.00  0.00     0.076 H 
ATOM      3  H   UNL     1     -45.141  35.839  27.382  1.00  0.00     0.076 H 
ENDROOT
BRANCH   1   4
ATOM      4  O   UNL     1     -46.268  37.390  28.231  1.00  0.00    -0.489 OA
BRANCH   4   5
ATOM      5  C   UNL     1     -45.281  38.291  28.519  1.00  0.00     0.122 A 
ATOM      6  C   UNL     1     -42.526  42.080  27.674  1.00  0.00     0.126 A 
ATOM      7  C   UNL     1     -41.845  41.915  28.876  1.00  0.00    -0.019 A 
ATOM      8  N   UNL     1     -43.527  41.253  27.312  1.00  0.00    -0.231 NA
ATOM      9  C   UNL     1     -42.186  40.858  29.714  1.00  0.00    -0.049 A 
ATOM     10  H   UNL     1     -41.063  42.608  29.164  1.00  0.00     0.066 H 
ATOM     11  C   UNL     1     -43.863  40.229  28.116  1.00  0.00     0.076 A 
ATOM     12  C   UNL     1     -43.212  39.988  29.340  1.00  0.00     0.001 A 
ATOM     13  H   UNL     1     -41.655  40.728  30.653  1.00  0.00     0.063 H 
ATOM     14  C   UNL     1     -44.889  39.374  27.731  1.00  0.00     0.007 A 
ATOM     15  C   UNL     1     -43.598  38.904  30.144  1.00  0.00    -0.049 A 
ATOM     16  H   UNL     1     -45.366  39.592  26.782  1.00  0.00     0.069 H 
ATOM     17  C   UNL     1     -44.628  38.063  29.729  1.00  0.00    -0.019 A 
ATOM     18  H   UNL     1     -43.101  38.710  31.091  1.00  0.00     0.063 H 
ATOM     19  H   UNL     1     -44.923  37.222  30.352  1.00  0.00     0.066 H 
BRANCH   6  20
ATOM     20  N   UNL     1     -42.170  43.172  26.861  1.00  0.00    -0.373 N 
ATOM     21  H   UNL     1     -41.405  42.894  26.256  1.00  0.00     0.161 HD
BRANCH  20  22
ATOM     22  C   UNL     1     -43.278  43.735  26.105  1.00  0.00     0.005 C 
ATOM     23  H   UNL     1     -43.704  43.003  25.408  1.00  0.00     0.045 H 
ATOM     24  H   UNL     1     -44.064  44.117  26.765  1.00  0.00     0.045 H 
ATOM     25  H   UNL     1     -42.910  44.579  25.512  1.00  0.00     0.045 H 
ENDBRANCH  20  22
ENDBRANCH   6  20
ENDBRANCH   4   5
ENDBRANCH   1   4
BRANCH   1  26
ATOM     26  C   UNL     1     -47.267  35.573  26.938  1.00  0.00    -0.005 A 
ATOM     27  C   UNL     1     -48.542  36.052  27.250  1.00  0.00    -0.013 A 
ATOM     28  C   UNL     1     -47.137  34.294  26.366  1.00  0.00    -0.031 A 
ATOM     29  C   UNL     1     -49.655  35.260  27.006  1.00  0.00     0.118 A 
ATOM     30  H   UNL     1     -48.669  37.038  27.690  1.00  0.00     0.067 H 
ATOM     31  C   UNL     1     -48.257  33.483  26.125  1.00  0.00     0.051 A 
ATOM     32  H   UNL     1     -46.131  33.949  26.151  1.00  0.00     0.065 H 
ATOM     33  C   UNL     1     -49.529  33.986  26.452  1.00  0.00     0.004 A 
ATOM     34  H   UNL     1     -50.432  33.419  26.268  1.00  0.00     0.068 H 
BRANCH  29  35
ATOM     35  O   UNL     1     -50.877  35.777  27.326  1.00  0.00    -0.508 OA
ATOM     36  H   UNL     1     -51.279  35.237  28.024  1.00  0.00     0.293 HD
ENDBRANCH  29  35
BRANCH  31  37
ATOM     37  N   UNL     1     -48.117  32.161  25.570  1.00  0.00    -0.299 N 
ATOM     38  C   UNL     1     -48.794  31.038  26.021  1.00  0.00     0.030 A 
ATOM     39  C   UNL     1     -47.300  31.747  24.511  1.00  0.00     0.151 A 
ATOM     40  C   UNL     1     -48.403  29.946  25.289  1.00  0.00     0.072 A 
ATOM     41  H   UNL     1     -49.484  31.079  26.850  1.00  0.00     0.084 H 
ATOM     42  C   UNL     1     -47.458  30.374  24.331  1.00  0.00     0.080 A 
ATOM     43  N   UNL     1     -46.499  32.528  23.757  1.00  0.00    -0.218 NA
ATOM     44  Cl  UNL     1     -48.971  28.356  25.502  1.00  0.00    -0.082 Cl
ATOM     45  C   UNL     1     -46.704  29.770  23.313  1.00  0.00     0.137 A 
ATOM     46  C   UNL     1     -45.835  31.845  22.815  1.00  0.00     0.120 A 
ATOM     47  N   UNL     1     -45.896  30.530  22.556  1.00  0.00    -0.219 NA
ATOM     48  H   UNL     1     -45.169  32.424  22.183  1.00  0.00     0.106 H 
BRANCH  45  49
ATOM     49  N   UNL     1     -46.742  28.416  23.019  1.00  0.00    -0.383 N 
ATOM     50  H   UNL     1     -47.196  27.885  23.752  1.00  0.00     0.158 HD
ATOM     51  H   UNL     1     -45.902  28.024  22.615  1.00  0.00     0.158 HD
ENDBRANCH  45  49
ENDBRANCH  31  37
ENDBRANCH   1  26
TORSDOF 8
ENDMDL
