MODEL 1
REMARK VINA RESULT:     -10.7      0.000      0.000
REMARK SMILES Nc1ncnc2c1c(CO)cn2[C@@H]1O[C@H](COc2ccc3ccc(N4CCC4)nc3c2)[C@@H](O)[C@@H]1F
REMARK SMILES IDX 13 1 14 2 15 3 32 4 34 5 35 6 12 11 2 12 3 13 7 14 4 15 6 16
REMARK SMILES IDX 8 17 5 18 11 20 1 22 9 25 10 28 16 30 17 33 18 34 19 35
REMARK SMILES IDX 31 36 20 37 30 39 21 41 29 43 22 44 24 45 23 46 25 49 26 50
REMARK SMILES IDX 28 51 27 52 33 59
REMARK H PARENT 13 7 15 8 32 9 34 10 4 19 11 21 1 23 1 24 9 26 9 27 10 29
REMARK H PARENT 16 31 16 32 19 38 31 40 20 42 22 47 23 48 26 53 26 54 28 55
REMARK H PARENT 28 56 27 57 27 58 33 60
REMARK Flexibility Score: inf
ROOT
ATOM      1  C   UNL     1     -45.010  37.934  28.921  1.00  0.00     0.169 C 
ATOM      2  O   UNL     1     -45.023  36.821  27.999  1.00  0.00    -0.345 OA
ATOM      3  C   UNL     1     -46.194  36.018  28.288  1.00  0.00     0.123 C 
ATOM      4  C   UNL     1     -46.759  36.522  29.620  1.00  0.00     0.119 C 
ATOM      5  C   UNL     1     -46.366  37.980  29.610  1.00  0.00     0.173 C 
ATOM      6  F   UNL     1     -47.285  38.656  28.866  1.00  0.00    -0.239 F 
ATOM      7  H   UNL     1     -44.209  37.723  29.640  1.00  0.00     0.088 H 
ATOM      8  H   UNL     1     -45.857  34.977  28.358  1.00  0.00     0.067 H 
ATOM      9  H   UNL     1     -47.838  36.362  29.699  1.00  0.00     0.066 H 
ATOM     10  H   UNL     1     -46.320  38.442  30.600  1.00  0.00     0.074 H 
ENDROOT
BRANCH   1  11
ATOM     11  N   UNL     1     -44.661  39.162  28.228  1.00  0.00    -0.303 N 
ATOM     12  C   UNL     1     -42.670  42.082  28.084  1.00  0.00     0.136 A 
ATOM     13  N   UNL     1     -41.913  41.950  29.192  1.00  0.00    -0.219 NA
ATOM     14  C   UNL     1     -43.618  41.090  27.783  1.00  0.00     0.067 A 
ATOM     15  C   UNL     1     -42.099  40.866  29.968  1.00  0.00     0.120 A 
ATOM     16  C   UNL     1     -43.692  40.025  28.672  1.00  0.00     0.148 A 
ATOM     17  C   UNL     1     -44.605  40.859  26.764  1.00  0.00     0.008 A 
ATOM     18  N   UNL     1     -42.960  39.852  29.786  1.00  0.00    -0.218 NA
ATOM     19  H   UNL     1     -41.470  40.806  30.852  1.00  0.00     0.106 H 
ATOM     20  C   UNL     1     -45.226  39.660  27.081  1.00  0.00     0.015 A 
ATOM     21  H   UNL     1     -46.036  39.133  26.589  1.00  0.00     0.082 H 
BRANCH  12  22
ATOM     22  N   UNL     1     -42.433  43.209  27.306  1.00  0.00    -0.383 N 
ATOM     23  H   UNL     1     -43.274  43.776  27.274  1.00  0.00     0.158 HD
ATOM     24  H   UNL     1     -41.591  43.711  27.541  1.00  0.00     0.158 HD
ENDBRANCH  12  22
BRANCH  17  25
ATOM     25  C   UNL     1     -44.914  41.759  25.615  1.00  0.00     0.070 C 
ATOM     26  H   UNL     1     -44.038  41.856  24.966  1.00  0.00     0.062 H 
ATOM     27  H   UNL     1     -45.737  41.349  25.021  1.00  0.00     0.062 H 
BRANCH  25  28
ATOM     28  O   UNL     1     -45.303  43.068  26.021  1.00  0.00    -0.392 OA
ATOM     29  H   UNL     1     -45.416  43.035  26.986  1.00  0.00     0.211 HD
ENDBRANCH  25  28
ENDBRANCH  17  25
ENDBRANCH   1  11
BRANCH   3  30
ATOM     30  C   UNL     1     -47.194  36.173  27.131  1.00  0.00     0.117 C 
ATOM     31  H   UNL     1     -46.665  36.175  26.171  1.00  0.00     0.073 H 
ATOM     32  H   UNL     1     -47.762  37.102  27.263  1.00  0.00     0.073 H 
BRANCH  30  33
ATOM     33  O   UNL     1     -48.096  35.061  27.165  1.00  0.00    -0.491 OA
BRANCH  33  34
ATOM     34  C   UNL     1     -47.807  33.998  26.353  1.00  0.00     0.121 A 
ATOM     35  C   UNL     1     -46.694  34.180  25.536  1.00  0.00    -0.019 A 
ATOM     36  C   UNL     1     -48.514  32.795  26.289  1.00  0.00     0.007 A 
ATOM     37  C   UNL     1     -46.292  33.170  24.664  1.00  0.00    -0.049 A 
ATOM     38  H   UNL     1     -46.139  35.113  25.576  1.00  0.00     0.066 H 
ATOM     39  C   UNL     1     -48.134  31.770  25.430  1.00  0.00     0.076 A 
ATOM     40  H   UNL     1     -49.387  32.616  26.908  1.00  0.00     0.069 H 
ATOM     41  C   UNL     1     -47.009  31.966  24.608  1.00  0.00     0.001 A 
ATOM     42  H   UNL     1     -45.422  33.330  24.032  1.00  0.00     0.063 H 
ATOM     43  N   UNL     1     -48.850  30.632  25.414  1.00  0.00    -0.231 NA
ATOM     44  C   UNL     1     -46.640  30.926  23.752  1.00  0.00    -0.049 A 
ATOM     45  C   UNL     1     -48.492  29.634  24.574  1.00  0.00     0.129 A 
ATOM     46  C   UNL     1     -47.386  29.752  23.738  1.00  0.00    -0.019 A 
ATOM     47  H   UNL     1     -45.776  31.019  23.098  1.00  0.00     0.063 H 
ATOM     48  H   UNL     1     -47.098  28.937  23.084  1.00  0.00     0.066 H 
BRANCH  45  49
ATOM     49  N   UNL     1     -49.248  28.446  24.575  1.00  0.00    -0.356 N 
ATOM     50  C   UNL     1     -49.430  27.611  25.729  1.00  0.00     0.021 C 
ATOM     51  C   UNL     1     -50.620  28.314  24.181  1.00  0.00     0.021 C 
ATOM     52  C   UNL     1     -50.636  27.015  24.994  1.00  0.00    -0.018 C 
ATOM     53  H   UNL     1     -49.676  28.175  26.635  1.00  0.00     0.049 H 
ATOM     54  H   UNL     1     -48.596  26.929  25.908  1.00  0.00     0.049 H 
ATOM     55  H   UNL     1     -51.258  29.113  24.573  1.00  0.00     0.049 H 
ATOM     56  H   UNL     1     -50.758  28.200  23.103  1.00  0.00     0.049 H 
ATOM     57  H   UNL     1     -50.411  26.114  24.412  1.00  0.00     0.030 H 
ATOM     58  H   UNL     1     -51.527  26.844  25.603  1.00  0.00     0.030 H 
ENDBRANCH  45  49
ENDBRANCH  33  34
ENDBRANCH  30  33
ENDBRANCH   3  30
BRANCH   4  59
ATOM     59  O   UNL     1     -46.130  35.851  30.716  1.00  0.00    -0.387 OA
ATOM     60  H   UNL     1     -45.292  35.471  30.395  1.00  0.00     0.211 HD
ENDBRANCH   4  59
TORSDOF 9
ENDMDL
MODEL 2
REMARK VINA RESULT:     -10.3      1.265      2.096
REMARK SMILES Nc1ncnc2c1c(CO)cn2[C@@H]1O[C@H](COc2ccc3ccc(N4CCC4)nc3c2)[C@@H](O)[C@@H]1F
REMARK SMILES IDX 13 1 14 2 15 3 32 4 34 5 35 6 12 11 2 12 3 13 7 14 4 15 6 16
REMARK SMILES IDX 8 17 5 18 11 20 1 22 9 25 10 28 16 30 17 33 18 34 19 35
REMARK SMILES IDX 31 36 20 37 30 39 21 41 29 43 22 44 24 45 23 46 25 49 26 50
REMARK SMILES IDX 28 51 27 52 33 59
REMARK H PARENT 13 7 15 8 32 9 34 10 4 19 11 21 1 23 1 24 9 26 9 27 10 29
REMARK H PARENT 16 31 16 32 19 38 31 40 20 42 22 47 23 48 26 53 26 54 28 55
REMARK H PARENT 28 56 27 57 27 58 33 60
REMARK Flexibility Score: inf
ROOT
ATOM      1  C   UNL     1     -44.858  38.100  29.012  1.00  0.00     0.169 C 
ATOM      2  O   UNL     1     -44.976  36.979  28.109  1.00  0.00    -0.345 OA
ATOM      3  C   UNL     1     -46.151  36.221  28.491  1.00  0.00     0.123 C 
ATOM      4  C   UNL     1     -46.602  36.762  29.852  1.00  0.00     0.119 C 
ATOM      5  C   UNL     1     -46.160  38.204  29.794  1.00  0.00     0.173 C 
ATOM      6  F   UNL     1     -47.105  38.903  29.107  1.00  0.00    -0.239 F 
ATOM      7  H   UNL     1     -44.016  37.869  29.676  1.00  0.00     0.088 H 
ATOM      8  H   UNL     1     -45.846  35.170  28.552  1.00  0.00     0.067 H 
ATOM      9  H   UNL     1     -47.678  36.641  30.009  1.00  0.00     0.066 H 
ATOM     10  H   UNL     1     -46.027  38.675  30.772  1.00  0.00     0.074 H 
ENDROOT
BRANCH   1  11
ATOM     11  N   UNL     1     -44.516  39.307  28.278  1.00  0.00    -0.303 N 
ATOM     12  C   UNL     1     -42.503  42.203  28.010  1.00  0.00     0.136 A 
ATOM     13  N   UNL     1     -41.720  42.092  29.100  1.00  0.00    -0.219 NA
ATOM     14  C   UNL     1     -43.467  41.213  27.758  1.00  0.00     0.067 A 
ATOM     15  C   UNL     1     -41.895  41.031  29.910  1.00  0.00     0.120 A 
ATOM     16  C   UNL     1     -43.528  40.172  28.676  1.00  0.00     0.148 A 
ATOM     17  C   UNL     1     -44.482  40.966  26.771  1.00  0.00     0.008 A 
ATOM     18  N   UNL     1     -42.769  40.021  29.775  1.00  0.00    -0.218 NA
ATOM     19  H   UNL     1     -41.245  40.987  30.778  1.00  0.00     0.106 H 
ATOM     20  C   UNL     1     -45.106  39.781  27.134  1.00  0.00     0.015 A 
ATOM     21  H   UNL     1     -45.932  39.249  26.676  1.00  0.00     0.082 H 
BRANCH  12  22
ATOM     22  N   UNL     1     -42.277  43.308  27.197  1.00  0.00    -0.383 N 
ATOM     23  H   UNL     1     -43.164  43.747  26.974  1.00  0.00     0.158 HD
ATOM     24  H   UNL     1     -41.564  43.937  27.534  1.00  0.00     0.158 HD
ENDBRANCH  12  22
BRANCH  17  25
ATOM     25  C   UNL     1     -44.813  41.839  25.607  1.00  0.00     0.070 C 
ATOM     26  H   UNL     1     -43.961  41.890  24.920  1.00  0.00     0.062 H 
ATOM     27  H   UNL     1     -45.670  41.436  25.060  1.00  0.00     0.062 H 
BRANCH  25  28
ATOM     28  O   UNL     1     -45.147  43.170  25.987  1.00  0.00    -0.392 OA
ATOM     29  H   UNL     1     -45.192  43.688  25.166  1.00  0.00     0.211 HD
ENDBRANCH  25  28
ENDBRANCH  17  25
ENDBRANCH   1  11
BRANCH   3  30
ATOM     30  C   UNL     1     -47.224  36.399  27.405  1.00  0.00     0.117 C 
ATOM     31  H   UNL     1     -47.395  37.465  27.213  1.00  0.00     0.073 H 
ATOM     32  H   UNL     1     -48.151  35.909  27.725  1.00  0.00     0.073 H 
BRANCH  30  33
ATOM     33  O   UNL     1     -46.754  35.777  26.203  1.00  0.00    -0.491 OA
BRANCH  33  34
ATOM     34  C   UNL     1     -47.253  34.538  25.906  1.00  0.00     0.121 A 
ATOM     35  C   UNL     1     -48.525  34.288  26.416  1.00  0.00    -0.019 A 
ATOM     36  C   UNL     1     -46.609  33.549  25.158  1.00  0.00     0.007 A 
ATOM     37  C   UNL     1     -49.146  33.064  26.181  1.00  0.00    -0.049 A 
ATOM     38  H   UNL     1     -49.033  35.050  27.001  1.00  0.00     0.066 H 
ATOM     39  C   UNL     1     -47.206  32.320  24.907  1.00  0.00     0.076 A 
ATOM     40  H   UNL     1     -45.618  33.705  24.746  1.00  0.00     0.069 H 
ATOM     41  C   UNL     1     -48.491  32.078  25.428  1.00  0.00     0.001 A 
ATOM     42  H   UNL     1     -50.138  32.886  26.588  1.00  0.00     0.063 H 
ATOM     43  N   UNL     1     -46.541  31.406  24.177  1.00  0.00    -0.231 NA
ATOM     44  C   UNL     1     -49.078  30.839  25.166  1.00  0.00    -0.049 A 
ATOM     45  C   UNL     1     -47.112  30.205  23.936  1.00  0.00     0.129 A 
ATOM     46  C   UNL     1     -48.383  29.898  24.412  1.00  0.00    -0.019 A 
ATOM     47  H   UNL     1     -50.070  30.599  25.538  1.00  0.00     0.063 H 
ATOM     48  H   UNL     1     -48.838  28.937  24.195  1.00  0.00     0.066 H 
BRANCH  45  49
ATOM     49  N   UNL     1     -46.405  29.263  23.164  1.00  0.00    -0.356 N 
ATOM     50  C   UNL     1     -45.142  29.528  22.533  1.00  0.00     0.021 C 
ATOM     51  C   UNL     1     -45.994  27.956  23.587  1.00  0.00     0.021 C 
ATOM     52  C   UNL     1     -44.969  28.008  22.449  1.00  0.00    -0.018 C 
ATOM     53  H   UNL     1     -44.431  30.038  23.190  1.00  0.00     0.049 H 
ATOM     54  H   UNL     1     -45.235  30.051  21.578  1.00  0.00     0.049 H 
ATOM     55  H   UNL     1     -45.565  27.947  24.595  1.00  0.00     0.049 H 
ATOM     56  H   UNL     1     -46.773  27.198  23.489  1.00  0.00     0.049 H 
ATOM     57  H   UNL     1     -45.314  27.564  21.509  1.00  0.00     0.030 H 
ATOM     58  H   UNL     1     -43.971  27.629  22.688  1.00  0.00     0.030 H 
ENDBRANCH  45  49
ENDBRANCH  33  34
ENDBRANCH  30  33
ENDBRANCH   3  30
BRANCH   4  59
ATOM     59  O   UNL     1     -45.921  36.080  30.910  1.00  0.00    -0.387 OA
ATOM     60  H   UNL     1     -45.724  36.731  31.609  1.00  0.00     0.211 HD
ENDBRANCH   4  59
TORSDOF 9
ENDMDL
MODEL 3
REMARK VINA RESULT:      -9.7      2.728     10.524
REMARK SMILES Nc1ncnc2c1c(CO)cn2[C@@H]1O[C@H](COc2ccc3ccc(N4CCC4)nc3c2)[C@@H](O)[C@@H]1F
REMARK SMILES IDX 13 1 14 2 15 3 32 4 34 5 35 6 12 11 2 12 3 13 7 14 4 15 6 16
REMARK SMILES IDX 8 17 5 18 11 20 1 22 9 25 10 28 16 30 17 33 18 34 19 35
REMARK SMILES IDX 31 36 20 37 30 39 21 41 29 43 22 44 24 45 23 46 25 49 26 50
REMARK SMILES IDX 28 51 27 52 33 59
REMARK H PARENT 13 7 15 8 32 9 34 10 4 19 11 21 1 23 1 24 9 26 9 27 10 29
REMARK H PARENT 16 31 16 32 19 38 31 40 20 42 22 47 23 48 26 53 26 54 28 55
REMARK H PARENT 28 56 27 57 27 58 33 60
REMARK Flexibility Score: inf
ROOT
ATOM      1  C   UNL     1     -47.351  32.497  26.123  1.00  0.00     0.169 C 
ATOM      2  O   UNL     1     -48.253  33.276  26.941  1.00  0.00    -0.345 OA
ATOM      3  C   UNL     1     -47.554  34.477  27.353  1.00  0.00     0.123 C 
ATOM      4  C   UNL     1     -46.079  34.277  26.992  1.00  0.00     0.119 C 
ATOM      5  C   UNL     1     -46.158  33.378  25.781  1.00  0.00     0.173 C 
ATOM      6  F   UNL     1     -46.407  34.162  24.695  1.00  0.00    -0.239 F 
ATOM      7  H   UNL     1     -47.046  31.641  26.738  1.00  0.00     0.088 H 
ATOM      8  H   UNL     1     -47.698  34.572  28.435  1.00  0.00     0.067 H 
ATOM      9  H   UNL     1     -45.568  35.225  26.799  1.00  0.00     0.066 H 
ATOM     10  H   UNL     1     -45.250  32.801  25.587  1.00  0.00     0.074 H 
ENDROOT
BRANCH   1  11
ATOM     11  N   UNL     1     -48.047  31.972  24.961  1.00  0.00    -0.303 N 
ATOM     12  C   UNL     1     -47.882  30.289  21.854  1.00  0.00     0.136 A 
ATOM     13  N   UNL     1     -46.561  30.050  21.744  1.00  0.00    -0.219 NA
ATOM     14  C   UNL     1     -48.362  30.963  22.989  1.00  0.00     0.067 A 
ATOM     15  C   UNL     1     -45.749  30.470  22.732  1.00  0.00     0.120 A 
ATOM     16  C   UNL     1     -47.408  31.330  23.931  1.00  0.00     0.148 A 
ATOM     17  C   UNL     1     -49.633  31.426  23.474  1.00  0.00     0.008 A 
ATOM     18  N   UNL     1     -46.084  31.113  23.863  1.00  0.00    -0.218 NA
ATOM     19  H   UNL     1     -44.693  30.260  22.597  1.00  0.00     0.106 H 
ATOM     20  C   UNL     1     -49.390  32.045  24.691  1.00  0.00     0.015 A 
ATOM     21  H   UNL     1     -50.066  32.544  25.377  1.00  0.00     0.082 H 
BRANCH  12  22
ATOM     22  N   UNL     1     -48.682  29.825  20.816  1.00  0.00    -0.383 N 
ATOM     23  H   UNL     1     -48.142  29.192  20.236  1.00  0.00     0.158 HD
ATOM     24  H   UNL     1     -49.581  29.473  21.107  1.00  0.00     0.158 HD
ENDBRANCH  12  22
BRANCH  17  25
ATOM     25  C   UNL     1     -50.946  31.290  22.778  1.00  0.00     0.070 C 
ATOM     26  H   UNL     1     -51.165  30.234  22.589  1.00  0.00     0.062 H 
ATOM     27  H   UNL     1     -51.749  31.702  23.396  1.00  0.00     0.062 H 
BRANCH  25  28
ATOM     28  O   UNL     1     -50.986  31.973  21.528  1.00  0.00    -0.392 OA
ATOM     29  H   UNL     1     -51.557  31.446  20.944  1.00  0.00     0.211 HD
ENDBRANCH  25  28
ENDBRANCH  17  25
ENDBRANCH   1  11
BRANCH   3  30
ATOM     30  C   UNL     1     -48.178  35.680  26.629  1.00  0.00     0.117 C 
ATOM     31  H   UNL     1     -49.162  35.413  26.227  1.00  0.00     0.073 H 
ATOM     32  H   UNL     1     -47.508  36.009  25.825  1.00  0.00     0.073 H 
BRANCH  30  33
ATOM     33  O   UNL     1     -48.333  36.744  27.576  1.00  0.00    -0.491 OA
BRANCH  33  34
ATOM     34  C   UNL     1     -47.247  37.548  27.794  1.00  0.00     0.121 A 
ATOM     35  C   UNL     1     -46.594  37.324  29.005  1.00  0.00    -0.019 A 
ATOM     36  C   UNL     1     -46.763  38.530  26.928  1.00  0.00     0.007 A 
ATOM     37  C   UNL     1     -45.471  38.075  29.345  1.00  0.00    -0.049 A 
ATOM     38  H   UNL     1     -46.965  36.563  29.687  1.00  0.00     0.066 H 
ATOM     39  C   UNL     1     -45.644  39.293  27.241  1.00  0.00     0.076 A 
ATOM     40  H   UNL     1     -47.244  38.736  25.977  1.00  0.00     0.069 H 
ATOM     41  C   UNL     1     -44.994  39.059  28.467  1.00  0.00     0.001 A 
ATOM     42  H   UNL     1     -44.976  37.889  30.295  1.00  0.00     0.063 H 
ATOM     43  N   UNL     1     -45.220  40.223  26.366  1.00  0.00    -0.231 NA
ATOM     44  C   UNL     1     -43.871  39.833  28.767  1.00  0.00    -0.049 A 
ATOM     45  C   UNL     1     -44.137  40.975  26.669  1.00  0.00     0.129 A 
ATOM     46  C   UNL     1     -43.439  40.795  27.859  1.00  0.00    -0.019 A 
ATOM     47  H   UNL     1     -43.326  39.693  29.696  1.00  0.00     0.063 H 
ATOM     48  H   UNL     1     -42.561  41.391  28.080  1.00  0.00     0.066 H 
BRANCH  45  49
ATOM     49  N   UNL     1     -43.703  41.939  25.739  1.00  0.00    -0.356 N 
ATOM     50  C   UNL     1     -44.563  42.571  24.777  1.00  0.00     0.021 C 
ATOM     51  C   UNL     1     -43.029  43.168  26.042  1.00  0.00     0.021 C 
ATOM     52  C   UNL     1     -43.485  43.655  24.662  1.00  0.00    -0.018 C 
ATOM     53  H   UNL     1     -45.512  42.909  25.205  1.00  0.00     0.049 H 
ATOM     54  H   UNL     1     -44.731  41.969  23.882  1.00  0.00     0.049 H 
ATOM     55  H   UNL     1     -43.472  43.701  26.890  1.00  0.00     0.049 H 
ATOM     56  H   UNL     1     -41.951  43.056  26.172  1.00  0.00     0.049 H 
ATOM     57  H   UNL     1     -42.758  43.487  23.860  1.00  0.00     0.030 H 
ATOM     58  H   UNL     1     -43.849  44.685  24.616  1.00  0.00     0.030 H 
ENDBRANCH  45  49
ENDBRANCH  33  34
ENDBRANCH  30  33
ENDBRANCH   3  30
BRANCH   4  59
ATOM     59  O   UNL     1     -45.390  33.611  28.054  1.00  0.00    -0.387 OA
ATOM     60  H   UNL     1     -44.889  32.869  27.669  1.00  0.00     0.211 HD
ENDBRANCH   4  59
TORSDOF 9
ENDMDL
MODEL 4
REMARK VINA RESULT:      -9.1      3.425     11.772
REMARK SMILES Nc1ncnc2c1c(CO)cn2[C@@H]1O[C@H](COc2ccc3ccc(N4CCC4)nc3c2)[C@@H](O)[C@@H]1F
REMARK SMILES IDX 13 1 14 2 15 3 32 4 34 5 35 6 12 11 2 12 3 13 7 14 4 15 6 16
REMARK SMILES IDX 8 17 5 18 11 20 1 22 9 25 10 28 16 30 17 33 18 34 19 35
REMARK SMILES IDX 31 36 20 37 30 39 21 41 29 43 22 44 24 45 23 46 25 49 26 50
REMARK SMILES IDX 28 51 27 52 33 59
REMARK H PARENT 13 7 15 8 32 9 34 10 4 19 11 21 1 23 1 24 9 26 9 27 10 29
REMARK H PARENT 16 31 16 32 19 38 31 40 20 42 22 47 23 48 26 53 26 54 28 55
REMARK H PARENT 28 56 27 57 27 58 33 60
REMARK Flexibility Score: inf
ROOT
ATOM      1  C   UNL     1     -48.948  29.335  23.281  1.00  0.00     0.169 C 
ATOM      2  O   UNL     1     -47.803  30.153  23.610  1.00  0.00    -0.345 OA
ATOM      3  C   UNL     1     -48.225  31.539  23.586  1.00  0.00     0.123 C 
ATOM      4  C   UNL     1     -49.616  31.567  22.946  1.00  0.00     0.119 C 
ATOM      5  C   UNL     1     -50.183  30.223  23.337  1.00  0.00     0.173 C 
ATOM      6  F   UNL     1     -50.669  30.328  24.605  1.00  0.00    -0.239 F 
ATOM      7  H   UNL     1     -48.774  28.966  22.262  1.00  0.00     0.088 H 
ATOM      8  H   UNL     1     -47.490  32.085  22.984  1.00  0.00     0.067 H 
ATOM      9  H   UNL     1     -50.216  32.412  23.297  1.00  0.00     0.066 H 
ATOM     10  H   UNL     1     -50.988  29.867  22.689  1.00  0.00     0.074 H 
ENDROOT
BRANCH   1  11
ATOM     11  N   UNL     1     -49.015  28.179  24.158  1.00  0.00    -0.303 N 
ATOM     12  C   UNL     1     -47.337  25.511  25.763  1.00  0.00     0.136 A 
ATOM     13  N   UNL     1     -46.071  25.691  25.338  1.00  0.00    -0.219 NA
ATOM     14  C   UNL     1     -48.336  26.398  25.329  1.00  0.00     0.067 A 
ATOM     15  C   UNL     1     -45.814  26.719  24.508  1.00  0.00     0.120 A 
ATOM     16  C   UNL     1     -47.921  27.418  24.480  1.00  0.00     0.148 A 
ATOM     17  C   UNL     1     -49.754  26.550  25.509  1.00  0.00     0.008 A 
ATOM     18  N   UNL     1     -46.673  27.634  24.031  1.00  0.00    -0.218 NA
ATOM     19  H   UNL     1     -44.782  26.820  24.188  1.00  0.00     0.106 H 
ATOM     20  C   UNL     1     -50.129  27.659  24.766  1.00  0.00     0.015 A 
ATOM     21  H   UNL     1     -51.104  28.107  24.611  1.00  0.00     0.082 H 
BRANCH  12  22
ATOM     22  N   UNL     1     -47.552  24.445  26.629  1.00  0.00    -0.383 N 
ATOM     23  H   UNL     1     -48.159  23.767  26.181  1.00  0.00     0.158 HD
ATOM     24  H   UNL     1     -46.713  24.061  27.036  1.00  0.00     0.158 HD
ENDBRANCH  12  22
BRANCH  17  25
ATOM     25  C   UNL     1     -50.641  25.661  26.314  1.00  0.00     0.070 C 
ATOM     26  H   UNL     1     -50.992  24.824  25.701  1.00  0.00     0.062 H 
ATOM     27  H   UNL     1     -50.096  25.253  27.171  1.00  0.00     0.062 H 
BRANCH  25  28
ATOM     28  O   UNL     1     -51.787  26.334  26.827  1.00  0.00    -0.392 OA
ATOM     29  H   UNL     1     -51.626  26.466  27.777  1.00  0.00     0.211 HD
ENDBRANCH  25  28
ENDBRANCH  17  25
ENDBRANCH   1  11
BRANCH   3  30
ATOM     30  C   UNL     1     -48.231  32.076  25.026  1.00  0.00     0.117 C 
ATOM     31  H   UNL     1     -48.051  31.259  25.736  1.00  0.00     0.073 H 
ATOM     32  H   UNL     1     -49.192  32.561  25.230  1.00  0.00     0.073 H 
BRANCH  30  33
ATOM     33  O   UNL     1     -47.180  33.042  25.150  1.00  0.00    -0.491 OA
BRANCH  33  34
ATOM     34  C   UNL     1     -47.466  34.189  25.841  1.00  0.00     0.121 A 
ATOM     35  C   UNL     1     -48.731  34.214  26.423  1.00  0.00    -0.019 A 
ATOM     36  C   UNL     1     -46.617  35.286  26.001  1.00  0.00     0.007 A 
ATOM     37  C   UNL     1     -49.143  35.325  27.157  1.00  0.00    -0.049 A 
ATOM     38  H   UNL     1     -49.400  33.366  26.302  1.00  0.00     0.066 H 
ATOM     39  C   UNL     1     -47.001  36.406  26.729  1.00  0.00     0.076 A 
ATOM     40  H   UNL     1     -45.625  35.305  25.561  1.00  0.00     0.069 H 
ATOM     41  C   UNL     1     -48.282  36.421  27.311  1.00  0.00     0.001 A 
ATOM     42  H   UNL     1     -50.135  35.328  27.602  1.00  0.00     0.063 H 
ATOM     43  N   UNL     1     -46.140  37.432  26.854  1.00  0.00    -0.231 NA
ATOM     44  C   UNL     1     -48.652  37.553  28.041  1.00  0.00    -0.049 A 
ATOM     45  C   UNL     1     -46.511  38.529  27.553  1.00  0.00     0.129 A 
ATOM     46  C   UNL     1     -47.758  38.612  28.164  1.00  0.00    -0.019 A 
ATOM     47  H   UNL     1     -49.627  37.618  28.517  1.00  0.00     0.063 H 
ATOM     48  H   UNL     1     -48.035  39.489  28.738  1.00  0.00     0.066 H 
BRANCH  45  49
ATOM     49  N   UNL     1     -45.595  39.591  27.679  1.00  0.00    -0.356 N 
ATOM     50  C   UNL     1     -44.400  39.530  28.474  1.00  0.00     0.021 C 
ATOM     51  C   UNL     1     -44.926  40.266  26.606  1.00  0.00     0.021 C 
ATOM     52  C   UNL     1     -43.902  40.723  27.650  1.00  0.00    -0.018 C 
ATOM     53  H   UNL     1     -43.834  38.604  28.332  1.00  0.00     0.049 H 
ATOM     54  H   UNL     1     -44.573  39.723  29.535  1.00  0.00     0.049 H 
ATOM     55  H   UNL     1     -44.536  39.582  25.845  1.00  0.00     0.049 H 
ATOM     56  H   UNL     1     -45.522  41.059  26.148  1.00  0.00     0.049 H 
ATOM     57  H   UNL     1     -44.115  41.701  28.096  1.00  0.00     0.030 H 
ATOM     58  H   UNL     1     -42.854  40.683  27.341  1.00  0.00     0.030 H 
ENDBRANCH  45  49
ENDBRANCH  33  34
ENDBRANCH  30  33
ENDBRANCH   3  30
BRANCH   4  59
ATOM     59  O   UNL     1     -49.510  31.661  21.523  1.00  0.00    -0.387 OA
ATOM     60  H   UNL     1     -48.563  31.673  21.292  1.00  0.00     0.211 HD
ENDBRANCH   4  59
TORSDOF 9
ENDMDL
MODEL 5
REMARK VINA RESULT:      -9.0      4.213      9.357
REMARK SMILES Nc1ncnc2c1c(CO)cn2[C@@H]1O[C@H](COc2ccc3ccc(N4CCC4)nc3c2)[C@@H](O)[C@@H]1F
REMARK SMILES IDX 13 1 14 2 15 3 32 4 34 5 35 6 12 11 2 12 3 13 7 14 4 15 6 16
REMARK SMILES IDX 8 17 5 18 11 20 1 22 9 25 10 28 16 30 17 33 18 34 19 35
REMARK SMILES IDX 31 36 20 37 30 39 21 41 29 43 22 44 24 45 23 46 25 49 26 50
REMARK SMILES IDX 28 51 27 52 33 59
REMARK H PARENT 13 7 15 8 32 9 34 10 4 19 11 21 1 23 1 24 9 26 9 27 10 29
REMARK H PARENT 16 31 16 32 19 38 31 40 20 42 22 47 23 48 26 53 26 54 28 55
REMARK H PARENT 28 56 27 57 27 58 33 60
REMARK Flexibility Score: inf
ROOT
ATOM      1  C   UNL     1     -48.241  36.397  28.064  1.00  0.00     0.169 C 
ATOM      2  O   UNL     1     -47.258  36.236  29.110  1.00  0.00    -0.345 OA
ATOM      3  C   UNL     1     -46.169  35.441  28.579  1.00  0.00     0.123 C 
ATOM      4  C   UNL     1     -46.650  34.872  27.241  1.00  0.00     0.119 C 
ATOM      5  C   UNL     1     -47.609  35.933  26.760  1.00  0.00     0.173 C 
ATOM      6  F   UNL     1     -46.879  36.923  26.175  1.00  0.00    -0.239 F 
ATOM      7  H   UNL     1     -49.088  35.757  28.342  1.00  0.00     0.088 H 
ATOM      8  H   UNL     1     -45.968  34.648  29.309  1.00  0.00     0.067 H 
ATOM      9  H   UNL     1     -45.822  34.686  26.549  1.00  0.00     0.066 H 
ATOM     10  H   UNL     1     -48.349  35.579  26.036  1.00  0.00     0.074 H 
ENDROOT
BRANCH   1  11
ATOM     11  N   UNL     1     -48.724  37.767  28.029  1.00  0.00    -0.303 N 
ATOM     12  C   UNL     1     -51.416  40.027  28.422  1.00  0.00     0.136 A 
ATOM     13  N   UNL     1     -52.423  39.195  28.752  1.00  0.00    -0.219 NA
ATOM     14  C   UNL     1     -50.141  39.492  28.176  1.00  0.00     0.067 A 
ATOM     15  C   UNL     1     -52.165  37.877  28.831  1.00  0.00     0.120 A 
ATOM     16  C   UNL     1     -50.022  38.113  28.304  1.00  0.00     0.148 A 
ATOM     17  C   UNL     1     -48.850  39.993  27.788  1.00  0.00     0.008 A 
ATOM     18  N   UNL     1     -50.996  37.247  28.629  1.00  0.00    -0.218 NA
ATOM     19  H   UNL     1     -53.008  37.246  29.095  1.00  0.00     0.106 H 
ATOM     20  C   UNL     1     -48.009  38.893  27.707  1.00  0.00     0.015 A 
ATOM     21  H   UNL     1     -46.963  38.824  27.429  1.00  0.00     0.082 H 
BRANCH  12  22
ATOM     22  N   UNL     1     -51.726  41.381  28.366  1.00  0.00    -0.383 N 
ATOM     23  H   UNL     1     -51.616  41.788  29.289  1.00  0.00     0.158 HD
ATOM     24  H   UNL     1     -51.269  41.885  27.622  1.00  0.00     0.158 HD
ENDBRANCH  12  22
BRANCH  17  25
ATOM     25  C   UNL     1     -48.506  41.415  27.500  1.00  0.00     0.070 C 
ATOM     26  H   UNL     1     -48.726  42.040  28.372  1.00  0.00     0.062 H 
ATOM     27  H   UNL     1     -47.441  41.511  27.269  1.00  0.00     0.062 H 
BRANCH  25  28
ATOM     28  O   UNL     1     -49.225  41.948  26.391  1.00  0.00    -0.392 OA
ATOM     29  H   UNL     1     -48.577  42.424  25.845  1.00  0.00     0.211 HD
ENDBRANCH  25  28
ENDBRANCH  17  25
ENDBRANCH   1  11
BRANCH   3  30
ATOM     30  C   UNL     1     -44.934  36.342  28.424  1.00  0.00     0.117 C 
ATOM     31  H   UNL     1     -44.905  36.775  27.417  1.00  0.00     0.073 H 
ATOM     32  H   UNL     1     -44.028  35.755  28.619  1.00  0.00     0.073 H 
BRANCH  30  33
ATOM     33  O   UNL     1     -45.026  37.400  29.386  1.00  0.00    -0.491 OA
BRANCH  33  34
ATOM     34  C   UNL     1     -44.409  38.581  29.074  1.00  0.00     0.121 A 
ATOM     35  C   UNL     1     -43.424  38.976  29.976  1.00  0.00    -0.019 A 
ATOM     36  C   UNL     1     -44.681  39.383  27.963  1.00  0.00     0.007 A 
ATOM     37  C   UNL     1     -42.719  40.160  29.770  1.00  0.00    -0.049 A 
ATOM     38  H   UNL     1     -43.207  38.360  30.845  1.00  0.00     0.066 H 
ATOM     39  C   UNL     1     -43.992  40.568  27.732  1.00  0.00     0.076 A 
ATOM     40  H   UNL     1     -45.442  39.110  27.239  1.00  0.00     0.069 H 
ATOM     41  C   UNL     1     -43.000  40.958  28.651  1.00  0.00     0.001 A 
ATOM     42  H   UNL     1     -41.955  40.454  30.485  1.00  0.00     0.063 H 
ATOM     43  N   UNL     1     -44.293  41.298  26.643  1.00  0.00    -0.231 NA
ATOM     44  C   UNL     1     -42.316  42.150  28.404  1.00  0.00    -0.049 A 
ATOM     45  C   UNL     1     -43.633  42.456  26.417  1.00  0.00     0.129 A 
ATOM     46  C   UNL     1     -42.634  42.902  27.277  1.00  0.00    -0.019 A 
ATOM     47  H   UNL     1     -41.537  42.498  29.076  1.00  0.00     0.063 H 
ATOM     48  H   UNL     1     -42.099  43.823  27.074  1.00  0.00     0.066 H 
BRANCH  45  49
ATOM     49  N   UNL     1     -43.956  43.205  25.269  1.00  0.00    -0.356 N 
ATOM     50  C   UNL     1     -43.371  44.477  24.948  1.00  0.00     0.021 C 
ATOM     51  C   UNL     1     -43.877  42.752  23.911  1.00  0.00     0.021 C 
ATOM     52  C   UNL     1     -43.848  44.232  23.513  1.00  0.00    -0.018 C 
ATOM     53  H   UNL     1     -42.284  44.495  25.075  1.00  0.00     0.049 H 
ATOM     54  H   UNL     1     -43.839  45.315  25.470  1.00  0.00     0.049 H 
ATOM     55  H   UNL     1     -42.957  42.198  23.696  1.00  0.00     0.049 H 
ATOM     56  H   UNL     1     -44.755  42.190  23.584  1.00  0.00     0.049 H 
ATOM     57  H   UNL     1     -44.831  44.658  23.284  1.00  0.00     0.030 H 
ATOM     58  H   UNL     1     -43.141  44.500  22.724  1.00  0.00     0.030 H 
ENDBRANCH  45  49
ENDBRANCH  33  34
ENDBRANCH  30  33
ENDBRANCH   3  30
BRANCH   4  59
ATOM     59  O   UNL     1     -47.343  33.636  27.443  1.00  0.00    -0.387 OA
ATOM     60  H   UNL     1     -46.829  33.104  28.077  1.00  0.00     0.211 HD
ENDBRANCH   4  59
TORSDOF 9
ENDMDL
MODEL 6
REMARK VINA RESULT:      -9.0      2.429     11.029
REMARK SMILES Nc1ncnc2c1c(CO)cn2[C@@H]1O[C@H](COc2ccc3ccc(N4CCC4)nc3c2)[C@@H](O)[C@@H]1F
REMARK SMILES IDX 13 1 14 2 15 3 32 4 34 5 35 6 12 11 2 12 3 13 7 14 4 15 6 16
REMARK SMILES IDX 8 17 5 18 11 20 1 22 9 25 10 28 16 30 17 33 18 34 19 35
REMARK SMILES IDX 31 36 20 37 30 39 21 41 29 43 22 44 24 45 23 46 25 49 26 50
REMARK SMILES IDX 28 51 27 52 33 59
REMARK H PARENT 13 7 15 8 32 9 34 10 4 19 11 21 1 23 1 24 9 26 9 27 10 29
REMARK H PARENT 16 31 16 32 19 38 31 40 20 42 22 47 23 48 26 53 26 54 28 55
REMARK H PARENT 28 56 27 57 27 58 33 60
REMARK Flexibility Score: inf
ROOT
ATOM      1  C   UNL     1     -48.263  31.663  26.059  1.00  0.00     0.169 C 
ATOM      2  O   UNL     1     -48.809  32.790  26.780  1.00  0.00    -0.345 OA
ATOM      3  C   UNL     1     -47.718  33.697  27.078  1.00  0.00     0.123 C 
ATOM      4  C   UNL     1     -46.421  32.948  26.759  1.00  0.00     0.119 C 
ATOM      5  C   UNL     1     -46.843  32.021  25.645  1.00  0.00     0.173 C 
ATOM      6  F   UNL     1     -46.822  32.729  24.482  1.00  0.00    -0.239 F 
ATOM      7  H   UNL     1     -48.269  30.821  26.762  1.00  0.00     0.088 H 
ATOM      8  H   UNL     1     -47.793  33.946  28.143  1.00  0.00     0.067 H 
ATOM      9  H   UNL     1     -45.610  33.627  26.478  1.00  0.00     0.066 H 
ATOM     10  H   UNL     1     -46.205  31.142  25.523  1.00  0.00     0.074 H 
ENDROOT
BRANCH   1  11
ATOM     11  N   UNL     1     -49.128  31.307  24.946  1.00  0.00    -0.303 N 
ATOM     12  C   UNL     1     -50.513  28.784  22.891  1.00  0.00     0.136 A 
ATOM     13  N   UNL     1     -49.959  27.673  23.415  1.00  0.00    -0.219 NA
ATOM     14  C   UNL     1     -50.197  30.033  23.451  1.00  0.00     0.067 A 
ATOM     15  C   UNL     1     -49.121  27.806  24.460  1.00  0.00     0.120 A 
ATOM     16  C   UNL     1     -49.323  30.015  24.532  1.00  0.00     0.148 A 
ATOM     17  C   UNL     1     -50.527  31.408  23.198  1.00  0.00     0.008 A 
ATOM     18  N   UNL     1     -48.749  28.934  25.085  1.00  0.00    -0.218 NA
ATOM     19  H   UNL     1     -48.696  26.884  24.844  1.00  0.00     0.106 H 
ATOM     20  C   UNL     1     -49.842  32.159  24.142  1.00  0.00     0.015 A 
ATOM     21  H   UNL     1     -49.796  33.231  24.293  1.00  0.00     0.082 H 
BRANCH  12  22
ATOM     22  N   UNL     1     -51.383  28.596  21.824  1.00  0.00    -0.383 N 
ATOM     23  H   UNL     1     -51.032  27.848  21.234  1.00  0.00     0.158 HD
ATOM     24  H   UNL     1     -52.353  28.512  22.084  1.00  0.00     0.158 HD
ENDBRANCH  12  22
BRANCH  17  25
ATOM     25  C   UNL     1     -51.408  31.918  22.107  1.00  0.00     0.070 C 
ATOM     26  H   UNL     1     -50.814  32.459  21.364  1.00  0.00     0.062 H 
ATOM     27  H   UNL     1     -51.912  31.087  21.605  1.00  0.00     0.062 H 
BRANCH  25  28
ATOM     28  O   UNL     1     -52.424  32.800  22.578  1.00  0.00    -0.392 OA
ATOM     29  H   UNL     1     -53.274  32.366  22.392  1.00  0.00     0.211 HD
ENDBRANCH  25  28
ENDBRANCH  17  25
ENDBRANCH   1  11
BRANCH   3  30
ATOM     30  C   UNL     1     -47.888  34.965  26.226  1.00  0.00     0.117 C 
ATOM     31  H   UNL     1     -48.674  34.815  25.476  1.00  0.00     0.073 H 
ATOM     32  H   UNL     1     -46.935  35.211  25.744  1.00  0.00     0.073 H 
BRANCH  30  33
ATOM     33  O   UNL     1     -48.268  36.041  27.092  1.00  0.00    -0.491 OA
BRANCH  33  34
ATOM     34  C   UNL     1     -47.261  36.717  27.725  1.00  0.00     0.121 A 
ATOM     35  C   UNL     1     -46.865  36.162  28.940  1.00  0.00    -0.019 A 
ATOM     36  C   UNL     1     -46.625  37.870  27.260  1.00  0.00     0.007 A 
ATOM     37  C   UNL     1     -45.845  36.755  29.682  1.00  0.00    -0.049 A 
ATOM     38  H   UNL     1     -47.355  35.266  29.312  1.00  0.00     0.066 H 
ATOM     39  C   UNL     1     -45.603  38.481  27.978  1.00  0.00     0.076 A 
ATOM     40  H   UNL     1     -46.906  38.333  26.320  1.00  0.00     0.069 H 
ATOM     41  C   UNL     1     -45.213  37.913  29.205  1.00  0.00     0.001 A 
ATOM     42  H   UNL     1     -45.550  36.310  30.629  1.00  0.00     0.063 H 
ATOM     43  N   UNL     1     -45.024  39.588  27.480  1.00  0.00    -0.231 NA
ATOM     44  C   UNL     1     -44.185  38.537  29.914  1.00  0.00    -0.049 A 
ATOM     45  C   UNL     1     -44.036  40.192  28.178  1.00  0.00     0.129 A 
ATOM     46  C   UNL     1     -43.592  39.683  29.394  1.00  0.00    -0.019 A 
ATOM     47  H   UNL     1     -43.838  38.140  30.865  1.00  0.00     0.063 H 
ATOM     48  H   UNL     1     -42.785  40.167  29.934  1.00  0.00     0.066 H 
BRANCH  45  49
ATOM     49  N   UNL     1     -43.436  41.346  27.638  1.00  0.00    -0.356 N 
ATOM     50  C   UNL     1     -42.054  41.693  27.819  1.00  0.00     0.021 C 
ATOM     51  C   UNL     1     -43.418  41.726  26.255  1.00  0.00     0.021 C 
ATOM     52  C   UNL     1     -42.221  42.615  26.607  1.00  0.00    -0.018 C 
ATOM     53  H   UNL     1     -41.375  40.848  27.665  1.00  0.00     0.049 H 
ATOM     54  H   UNL     1     -41.851  42.188  28.771  1.00  0.00     0.049 H 
ATOM     55  H   UNL     1     -43.192  40.890  25.584  1.00  0.00     0.049 H 
ATOM     56  H   UNL     1     -44.320  42.250  25.933  1.00  0.00     0.049 H 
ATOM     57  H   UNL     1     -42.484  43.649  26.858  1.00  0.00     0.030 H 
ATOM     58  H   UNL     1     -41.397  42.612  25.889  1.00  0.00     0.030 H 
ENDBRANCH  45  49
ENDBRANCH  33  34
ENDBRANCH  30  33
ENDBRANCH   3  30
BRANCH   4  59
ATOM     59  O   UNL     1     -45.989  32.191  27.893  1.00  0.00    -0.387 OA
ATOM     60  H   UNL     1     -46.271  32.666  28.697  1.00  0.00     0.211 HD
ENDBRANCH   4  59
TORSDOF 9
ENDMDL
MODEL 7
REMARK VINA RESULT:      -8.8      2.651     10.608
REMARK SMILES Nc1ncnc2c1c(CO)cn2[C@@H]1O[C@H](COc2ccc3ccc(N4CCC4)nc3c2)[C@@H](O)[C@@H]1F
REMARK SMILES IDX 13 1 14 2 15 3 32 4 34 5 35 6 12 11 2 12 3 13 7 14 4 15 6 16
REMARK SMILES IDX 8 17 5 18 11 20 1 22 9 25 10 28 16 30 17 33 18 34 19 35
REMARK SMILES IDX 31 36 20 37 30 39 21 41 29 43 22 44 24 45 23 46 25 49 26 50
REMARK SMILES IDX 28 51 27 52 33 59
REMARK H PARENT 13 7 15 8 32 9 34 10 4 19 11 21 1 23 1 24 9 26 9 27 10 29
REMARK H PARENT 16 31 16 32 19 38 31 40 20 42 22 47 23 48 26 53 26 54 28 55
REMARK H PARENT 28 56 27 57 27 58 33 60
REMARK Flexibility Score: inf
ROOT
ATOM      1  C   UNL     1     -47.119  32.925  26.770  1.00  0.00     0.169 C 
ATOM      2  O   UNL     1     -48.165  33.910  26.927  1.00  0.00    -0.345 OA
ATOM      3  C   UNL     1     -47.596  35.059  27.603  1.00  0.00     0.123 C 
ATOM      4  C   UNL     1     -46.217  34.632  28.117  1.00  0.00     0.119 C 
ATOM      5  C   UNL     1     -45.795  33.599  27.099  1.00  0.00     0.173 C 
ATOM      6  F   UNL     1     -45.285  34.258  26.022  1.00  0.00    -0.239 F 
ATOM      7  H   UNL     1     -47.344  32.126  27.488  1.00  0.00     0.088 H 
ATOM      8  H   UNL     1     -48.275  35.313  28.425  1.00  0.00     0.067 H 
ATOM      9  H   UNL     1     -45.525  35.476  28.195  1.00  0.00     0.066 H 
ATOM     10  H   UNL     1     -45.041  32.894  27.458  1.00  0.00     0.074 H 
ENDROOT
BRANCH   1  11
ATOM     11  N   UNL     1     -47.167  32.343  25.440  1.00  0.00    -0.303 N 
ATOM     12  C   UNL     1     -49.113  31.102  22.760  1.00  0.00     0.136 A 
ATOM     13  N   UNL     1     -50.364  31.262  23.235  1.00  0.00    -0.219 NA
ATOM     14  C   UNL     1     -48.024  31.489  23.559  1.00  0.00     0.067 A 
ATOM     15  C   UNL     1     -50.520  31.790  24.463  1.00  0.00     0.120 A 
ATOM     16  C   UNL     1     -48.339  32.025  24.802  1.00  0.00     0.148 A 
ATOM     17  C   UNL     1     -46.591  31.470  23.457  1.00  0.00     0.008 A 
ATOM     18  N   UNL     1     -49.568  32.203  25.315  1.00  0.00    -0.218 NA
ATOM     19  H   UNL     1     -51.545  31.895  24.805  1.00  0.00     0.106 H 
ATOM     20  C   UNL     1     -46.105  32.003  24.641  1.00  0.00     0.015 A 
ATOM     21  H   UNL     1     -45.086  32.151  24.983  1.00  0.00     0.082 H 
BRANCH  12  22
ATOM     22  N   UNL     1     -49.002  30.567  21.482  1.00  0.00    -0.383 N 
ATOM     23  H   UNL     1     -49.497  29.682  21.446  1.00  0.00     0.158 HD
ATOM     24  H   UNL     1     -49.227  31.210  20.738  1.00  0.00     0.158 HD
ENDBRANCH  12  22
BRANCH  17  25
ATOM     25  C   UNL     1     -45.795  30.945  22.310  1.00  0.00     0.070 C 
ATOM     26  H   UNL     1     -45.957  31.565  21.423  1.00  0.00     0.062 H 
ATOM     27  H   UNL     1     -44.727  30.960  22.549  1.00  0.00     0.062 H 
BRANCH  25  28
ATOM     28  O   UNL     1     -46.128  29.602  21.969  1.00  0.00    -0.392 OA
ATOM     29  H   UNL     1     -45.288  29.118  21.900  1.00  0.00     0.211 HD
ENDBRANCH  25  28
ENDBRANCH  17  25
ENDBRANCH   1  11
BRANCH   3  30
ATOM     30  C   UNL     1     -47.514  36.225  26.605  1.00  0.00     0.117 C 
ATOM     31  H   UNL     1     -48.279  36.113  25.827  1.00  0.00     0.073 H 
ATOM     32  H   UNL     1     -46.512  36.256  26.162  1.00  0.00     0.073 H 
BRANCH  30  33
ATOM     33  O   UNL     1     -47.751  37.444  27.320  1.00  0.00    -0.491 OA
BRANCH  33  34
ATOM     34  C   UNL     1     -46.691  38.299  27.463  1.00  0.00     0.121 A 
ATOM     35  C   UNL     1     -45.912  38.070  28.595  1.00  0.00    -0.019 A 
ATOM     36  C   UNL     1     -46.346  39.335  26.593  1.00  0.00     0.007 A 
ATOM     37  C   UNL     1     -44.801  38.869  28.854  1.00  0.00    -0.049 A 
ATOM     38  H   UNL     1     -46.174  37.267  29.280  1.00  0.00     0.066 H 
ATOM     39  C   UNL     1     -45.241  40.146  26.826  1.00  0.00     0.076 A 
ATOM     40  H   UNL     1     -46.928  39.546  25.702  1.00  0.00     0.069 H 
ATOM     41  C   UNL     1     -44.463  39.907  27.973  1.00  0.00     0.001 A 
ATOM     42  H   UNL     1     -44.205  38.678  29.744  1.00  0.00     0.063 H 
ATOM     43  N   UNL     1     -44.954  41.127  25.951  1.00  0.00    -0.231 NA
ATOM     44  C   UNL     1     -43.356  40.730  28.193  1.00  0.00    -0.049 A 
ATOM     45  C   UNL     1     -43.887  41.926  26.177  1.00  0.00     0.129 A 
ATOM     46  C   UNL     1     -43.066  41.745  27.286  1.00  0.00    -0.019 A 
ATOM     47  H   UNL     1     -42.716  40.589  29.059  1.00  0.00     0.063 H 
ATOM     48  H   UNL     1     -42.202  42.380  27.444  1.00  0.00     0.066 H 
BRANCH  45  49
ATOM     49  N   UNL     1     -43.597  42.944  25.248  1.00  0.00    -0.356 N 
ATOM     50  C   UNL     1     -42.287  43.498  25.046  1.00  0.00     0.021 C 
ATOM     51  C   UNL     1     -43.871  42.912  23.841  1.00  0.00     0.021 C 
ATOM     52  C   UNL     1     -42.809  44.008  23.699  1.00  0.00    -0.018 C 
ATOM     53  H   UNL     1     -41.503  42.737  24.978  1.00  0.00     0.049 H 
ATOM     54  H   UNL     1     -42.023  44.266  25.777  1.00  0.00     0.049 H 
ATOM     55  H   UNL     1     -43.612  41.954  23.375  1.00  0.00     0.049 H 
ATOM     56  H   UNL     1     -44.892  43.205  23.586  1.00  0.00     0.049 H 
ATOM     57  H   UNL     1     -43.207  45.028  23.724  1.00  0.00     0.030 H 
ATOM     58  H   UNL     1     -42.125  43.903  22.853  1.00  0.00     0.030 H 
ENDBRANCH  45  49
ENDBRANCH  33  34
ENDBRANCH  30  33
ENDBRANCH   3  30
BRANCH   4  59
ATOM     59  O   UNL     1     -46.330  34.031  29.410  1.00  0.00    -0.387 OA
ATOM     60  H   UNL     1     -46.066  34.694  30.074  1.00  0.00     0.211 HD
ENDBRANCH   4  59
TORSDOF 9
ENDMDL
