MODEL 1
REMARK VINA RESULT:     -11.6      0.000      0.000
REMARK SMILES O=C(NCc1ccc2cc(CNC3CCCCC3)[nH]c2c1)c1cc(=O)n2ccccc2n1
REMARK SMILES IDX 5 1 6 2 7 3 8 4 9 5 10 6 19 7 20 8 21 9 4 15 3 18 1 19 2 20
REMARK SMILES IDX 22 22 23 23 32 24 24 25 31 27 25 28 26 29 30 30 27 31 29 32
REMARK SMILES IDX 28 34 11 38 12 41 13 43 14 44 18 45 15 47 17 50 16 53
REMARK H PARENT 6 10 7 11 9 12 19 13 21 14 4 16 4 17 3 21 23 26 30 33 27 35
REMARK H PARENT 29 36 28 37 11 39 11 40 12 42 13 46 14 48 14 49 18 51 18 52
REMARK H PARENT 15 54 15 55 17 56 17 57 16 58 16 59
REMARK Flexibility Score: inf
ROOT
ATOM      1  C   UNL     1     -47.818  35.165  26.657  1.00  0.00    -0.027 A 
ATOM      2  C   UNL     1     -46.578  35.059  26.017  1.00  0.00    -0.057 A 
ATOM      3  C   UNL     1     -46.223  33.900  25.313  1.00  0.00    -0.052 A 
ATOM      4  C   UNL     1     -47.125  32.823  25.257  1.00  0.00    -0.000 A 
ATOM      5  C   UNL     1     -47.096  31.536  24.649  1.00  0.00    -0.032 A 
ATOM      6  C   UNL     1     -48.285  30.900  24.938  1.00  0.00     0.030 A 
ATOM      7  N   UNL     1     -49.030  31.763  25.708  1.00  0.00    -0.357 N 
ATOM      8  C   UNL     1     -48.350  32.940  25.912  1.00  0.00     0.046 A 
ATOM      9  C   UNL     1     -48.723  34.090  26.619  1.00  0.00    -0.033 A 
ATOM     10  H   UNL     1     -45.869  35.883  26.061  1.00  0.00     0.063 H 
ATOM     11  H   UNL     1     -45.259  33.837  24.816  1.00  0.00     0.063 H 
ATOM     12  H   UNL     1     -46.285  31.125  24.062  1.00  0.00     0.065 H 
ATOM     13  H   UNL     1     -49.964  31.559  26.037  1.00  0.00     0.166 HD
ATOM     14  H   UNL     1     -49.683  34.147  27.125  1.00  0.00     0.065 H 
ENDROOT
BRANCH   1  15
ATOM     15  C   UNL     1     -48.165  36.407  27.436  1.00  0.00     0.043 C 
ATOM     16  H   UNL     1     -49.044  36.903  27.009  1.00  0.00     0.054 H 
ATOM     17  H   UNL     1     -48.417  36.159  28.474  1.00  0.00     0.054 H 
BRANCH  15  18
ATOM     18  N   UNL     1     -47.068  37.337  27.432  1.00  0.00    -0.347 N 
ATOM     19  O   UNL     1     -48.330  39.198  27.890  1.00  0.00    -0.268 OA
ATOM     20  C   UNL     1     -47.248  38.679  27.645  1.00  0.00     0.270 C 
ATOM     21  H   UNL     1     -46.130  37.022  27.203  1.00  0.00     0.164 HD
BRANCH  20  22
ATOM     22  C   UNL     1     -45.958  39.457  27.542  1.00  0.00     0.136 A 
ATOM     23  C   UNL     1     -45.760  40.133  26.407  1.00  0.00     0.035 A 
ATOM     24  N   UNL     1     -45.078  39.423  28.599  1.00  0.00    -0.225 NA
ATOM     25  C   UNL     1     -44.519  40.903  26.264  1.00  0.00     0.258 A 
ATOM     26  H   UNL     1     -46.460  40.151  25.582  1.00  0.00     0.071 H 
ATOM     27  C   UNL     1     -43.982  40.107  28.469  1.00  0.00     0.140 A 
ATOM     28  O   UNL     1     -44.328  41.530  25.224  1.00  0.00    -0.269 OA
ATOM     29  N   UNL     1     -43.650  40.854  27.345  1.00  0.00    -0.268 N 
ATOM     30  C   UNL     1     -43.000  40.099  29.591  1.00  0.00    -0.019 A 
ATOM     31  C   UNL     1     -42.452  41.559  27.284  1.00  0.00     0.014 A 
ATOM     32  C   UNL     1     -41.861  40.794  29.485  1.00  0.00    -0.057 A 
ATOM     33  H   UNL     1     -43.250  39.520  30.470  1.00  0.00     0.066 H 
ATOM     34  C   UNL     1     -41.575  41.548  28.295  1.00  0.00    -0.045 A 
ATOM     35  H   UNL     1     -42.257  42.122  26.374  1.00  0.00     0.082 H 
ATOM     36  H   UNL     1     -41.134  40.802  30.291  1.00  0.00     0.062 H 
ATOM     37  H   UNL     1     -40.644  42.103  28.236  1.00  0.00     0.064 H 
ENDBRANCH  20  22
ENDBRANCH  15  18
ENDBRANCH   1  15
BRANCH   6  38
ATOM     38  C   UNL     1     -48.794  29.548  24.576  1.00  0.00     0.036 C 
ATOM     39  H   UNL     1     -48.622  29.396  23.505  1.00  0.00     0.049 H 
ATOM     40  H   UNL     1     -49.874  29.501  24.758  1.00  0.00     0.049 H 
BRANCH  38  41
ATOM     41  N   UNL     1     -48.093  28.546  25.377  1.00  0.00    -0.308 NA
ATOM     42  H   UNL     1     -48.658  28.383  26.212  1.00  0.00     0.123 HD
BRANCH  41  43
ATOM     43  C   UNL     1     -47.916  27.270  24.665  1.00  0.00     0.007 C 
ATOM     44  C   UNL     1     -46.587  26.578  25.015  1.00  0.00    -0.038 C 
ATOM     45  C   UNL     1     -49.084  26.330  25.025  1.00  0.00    -0.038 C 
ATOM     46  H   UNL     1     -47.957  27.450  23.583  1.00  0.00     0.046 H 
ATOM     47  C   UNL     1     -46.526  26.128  26.476  1.00  0.00    -0.052 C 
ATOM     48  H   UNL     1     -45.731  27.223  24.795  1.00  0.00     0.028 H 
ATOM     49  H   UNL     1     -46.471  25.697  24.371  1.00  0.00     0.028 H 
ATOM     50  C   UNL     1     -49.043  25.866  26.482  1.00  0.00    -0.052 C 
ATOM     51  H   UNL     1     -49.044  25.449  24.371  1.00  0.00     0.028 H 
ATOM     52  H   UNL     1     -50.045  26.818  24.823  1.00  0.00     0.028 H 
ATOM     53  C   UNL     1     -47.704  25.224  26.832  1.00  0.00    -0.053 C 
ATOM     54  H   UNL     1     -45.588  25.589  26.654  1.00  0.00     0.027 H 
ATOM     55  H   UNL     1     -46.519  27.002  27.138  1.00  0.00     0.027 H 
ATOM     56  H   UNL     1     -49.229  26.714  27.151  1.00  0.00     0.027 H 
ATOM     57  H   UNL     1     -49.851  25.144  26.658  1.00  0.00     0.027 H 
ATOM     58  H   UNL     1     -47.676  24.984  27.900  1.00  0.00     0.027 H 
ATOM     59  H   UNL     1     -47.606  24.274  26.291  1.00  0.00     0.027 H 
ENDBRANCH  41  43
ENDBRANCH  38  41
ENDBRANCH   6  38
TORSDOF 6
ENDMDL
MODEL 2
REMARK VINA RESULT:     -11.3      1.621      2.290
REMARK SMILES O=C(NCc1ccc2cc(CNC3CCCCC3)[nH]c2c1)c1cc(=O)n2ccccc2n1
REMARK SMILES IDX 5 1 6 2 7 3 8 4 9 5 10 6 19 7 20 8 21 9 4 15 3 18 1 19 2 20
REMARK SMILES IDX 22 22 23 23 32 24 24 25 31 27 25 28 26 29 30 30 27 31 29 32
REMARK SMILES IDX 28 34 11 38 12 41 13 43 14 44 18 45 15 47 17 50 16 53
REMARK H PARENT 6 10 7 11 9 12 19 13 21 14 4 16 4 17 3 21 23 26 30 33 27 35
REMARK H PARENT 29 36 28 37 11 39 11 40 12 42 13 46 14 48 14 49 18 51 18 52
REMARK H PARENT 15 54 15 55 17 56 17 57 16 58 16 59
REMARK Flexibility Score: inf
ROOT
ATOM      1  C   UNL     1     -48.128  34.586  26.440  1.00  0.00    -0.027 A 
ATOM      2  C   UNL     1     -46.854  34.587  25.858  1.00  0.00    -0.057 A 
ATOM      3  C   UNL     1     -46.392  33.486  25.124  1.00  0.00    -0.052 A 
ATOM      4  C   UNL     1     -47.218  32.357  24.979  1.00  0.00    -0.000 A 
ATOM      5  C   UNL     1     -47.076  31.104  24.320  1.00  0.00    -0.032 A 
ATOM      6  C   UNL     1     -48.234  30.381  24.523  1.00  0.00     0.030 A 
ATOM      7  N   UNL     1     -49.068  31.160  25.290  1.00  0.00    -0.357 N 
ATOM      8  C   UNL     1     -48.477  32.367  25.577  1.00  0.00     0.046 A 
ATOM      9  C   UNL     1     -48.957  33.458  26.312  1.00  0.00    -0.033 A 
ATOM     10  H   UNL     1     -46.204  35.452  25.971  1.00  0.00     0.063 H 
ATOM     11  H   UNL     1     -45.404  33.507  24.674  1.00  0.00     0.063 H 
ATOM     12  H   UNL     1     -46.214  30.772  23.758  1.00  0.00     0.065 H 
ATOM     13  H   UNL     1     -50.001  30.882  25.565  1.00  0.00     0.166 HD
ATOM     14  H   UNL     1     -49.941  33.432  26.772  1.00  0.00     0.065 H 
ENDROOT
BRANCH   1  15
ATOM     15  C   UNL     1     -48.591  35.767  27.252  1.00  0.00     0.043 C 
ATOM     16  H   UNL     1     -49.443  36.262  26.771  1.00  0.00     0.054 H 
ATOM     17  H   UNL     1     -48.931  35.449  28.245  1.00  0.00     0.054 H 
BRANCH  15  18
ATOM     18  N   UNL     1     -47.532  36.728  27.408  1.00  0.00    -0.347 N 
ATOM     19  O   UNL     1     -46.996  36.145  29.562  1.00  0.00    -0.268 OA
ATOM     20  C   UNL     1     -46.824  36.850  28.575  1.00  0.00     0.270 C 
ATOM     21  H   UNL     1     -47.327  37.390  26.666  1.00  0.00     0.164 HD
BRANCH  20  22
ATOM     22  C   UNL     1     -45.801  37.959  28.516  1.00  0.00     0.136 A 
ATOM     23  C   UNL     1     -44.970  38.059  29.556  1.00  0.00     0.035 A 
ATOM     24  N   UNL     1     -45.787  38.788  27.417  1.00  0.00    -0.225 NA
ATOM     25  C   UNL     1     -43.960  39.123  29.540  1.00  0.00     0.258 A 
ATOM     26  H   UNL     1     -44.993  37.401  30.415  1.00  0.00     0.071 H 
ATOM     27  C   UNL     1     -44.891  39.728  27.406  1.00  0.00     0.140 A 
ATOM     28  O   UNL     1     -43.189  39.223  30.493  1.00  0.00    -0.269 OA
ATOM     29  N   UNL     1     -43.965  39.944  28.421  1.00  0.00    -0.268 N 
ATOM     30  C   UNL     1     -44.838  40.649  26.235  1.00  0.00    -0.019 A 
ATOM     31  C   UNL     1     -43.037  40.976  28.333  1.00  0.00     0.014 A 
ATOM     32  C   UNL     1     -43.926  41.627  26.196  1.00  0.00    -0.057 A 
ATOM     33  H   UNL     1     -45.555  40.488  25.440  1.00  0.00     0.066 H 
ATOM     34  C   UNL     1     -42.995  41.799  27.278  1.00  0.00    -0.045 A 
ATOM     35  H   UNL     1     -42.343  41.087  29.163  1.00  0.00     0.082 H 
ATOM     36  H   UNL     1     -43.871  42.307  25.352  1.00  0.00     0.062 H 
ATOM     37  H   UNL     1     -42.266  42.601  27.221  1.00  0.00     0.064 H 
ENDBRANCH  20  22
ENDBRANCH  15  18
ENDBRANCH   1  15
BRANCH   6  38
ATOM     38  C   UNL     1     -48.635  29.018  24.080  1.00  0.00     0.036 C 
ATOM     39  H   UNL     1     -48.408  28.926  23.013  1.00  0.00     0.049 H 
ATOM     40  H   UNL     1     -49.716  28.892  24.211  1.00  0.00     0.049 H 
BRANCH  38  41
ATOM     41  N   UNL     1     -47.903  28.027  24.868  1.00  0.00    -0.308 NA
ATOM     42  H   UNL     1     -46.954  28.385  24.991  1.00  0.00     0.123 HD
BRANCH  41  43
ATOM     43  C   UNL     1     -48.501  27.799  26.194  1.00  0.00     0.007 C 
ATOM     44  C   UNL     1     -49.638  26.762  26.159  1.00  0.00    -0.038 C 
ATOM     45  C   UNL     1     -47.403  27.311  27.160  1.00  0.00    -0.038 C 
ATOM     46  H   UNL     1     -48.888  28.749  26.585  1.00  0.00     0.046 H 
ATOM     47  C   UNL     1     -49.144  25.361  25.797  1.00  0.00    -0.052 C 
ATOM     48  H   UNL     1     -50.429  27.062  25.465  1.00  0.00     0.028 H 
ATOM     49  H   UNL     1     -50.107  26.725  27.151  1.00  0.00     0.028 H 
ATOM     50  C   UNL     1     -46.894  25.909  26.818  1.00  0.00    -0.052 C 
ATOM     51  H   UNL     1     -47.808  27.301  28.181  1.00  0.00     0.028 H 
ATOM     52  H   UNL     1     -46.561  28.013  27.171  1.00  0.00     0.028 H 
ATOM     53  C   UNL     1     -48.035  24.899  26.739  1.00  0.00    -0.053 C 
ATOM     54  H   UNL     1     -49.981  24.655  25.847  1.00  0.00     0.027 H 
ATOM     55  H   UNL     1     -48.779  25.347  24.763  1.00  0.00     0.027 H 
ATOM     56  H   UNL     1     -46.355  25.929  25.864  1.00  0.00     0.027 H 
ATOM     57  H   UNL     1     -46.173  25.587  27.580  1.00  0.00     0.027 H 
ATOM     58  H   UNL     1     -47.649  23.929  26.407  1.00  0.00     0.027 H 
ATOM     59  H   UNL     1     -48.453  24.747  27.742  1.00  0.00     0.027 H 
ENDBRANCH  41  43
ENDBRANCH  38  41
ENDBRANCH   6  38
TORSDOF 6
ENDMDL
MODEL 3
REMARK VINA RESULT:     -10.8      2.109      3.189
REMARK SMILES O=C(NCc1ccc2cc(CNC3CCCCC3)[nH]c2c1)c1cc(=O)n2ccccc2n1
REMARK SMILES IDX 5 1 6 2 7 3 8 4 9 5 10 6 19 7 20 8 21 9 4 15 3 18 1 19 2 20
REMARK SMILES IDX 22 22 23 23 32 24 24 25 31 27 25 28 26 29 30 30 27 31 29 32
REMARK SMILES IDX 28 34 11 38 12 41 13 43 14 44 18 45 15 47 17 50 16 53
REMARK H PARENT 6 10 7 11 9 12 19 13 21 14 4 16 4 17 3 21 23 26 30 33 27 35
REMARK H PARENT 29 36 28 37 11 39 11 40 12 42 13 46 14 48 14 49 18 51 18 52
REMARK H PARENT 15 54 15 55 17 56 17 57 16 58 16 59
REMARK Flexibility Score: inf
ROOT
ATOM      1  C   UNL     1     -46.643  35.628  28.354  1.00  0.00    -0.027 A 
ATOM      2  C   UNL     1     -47.986  35.746  27.973  1.00  0.00    -0.057 A 
ATOM      3  C   UNL     1     -48.514  34.971  26.932  1.00  0.00    -0.052 A 
ATOM      4  C   UNL     1     -47.677  34.067  26.252  1.00  0.00    -0.000 A 
ATOM      5  C   UNL     1     -47.873  33.150  25.181  1.00  0.00    -0.032 A 
ATOM      6  C   UNL     1     -46.671  32.521  24.932  1.00  0.00     0.030 A 
ATOM      7  N   UNL     1     -45.754  33.035  25.819  1.00  0.00    -0.357 N 
ATOM      8  C   UNL     1     -46.340  33.973  26.634  1.00  0.00     0.046 A 
ATOM      9  C   UNL     1     -45.795  34.737  27.673  1.00  0.00    -0.033 A 
ATOM     10  H   UNL     1     -48.639  36.448  28.488  1.00  0.00     0.063 H 
ATOM     11  H   UNL     1     -49.559  35.070  26.653  1.00  0.00     0.063 H 
ATOM     12  H   UNL     1     -48.800  32.974  24.651  1.00  0.00     0.065 H 
ATOM     13  H   UNL     1     -44.792  32.727  25.875  1.00  0.00     0.166 HD
ATOM     14  H   UNL     1     -44.747  34.645  27.943  1.00  0.00     0.065 H 
ENDROOT
BRANCH   1  15
ATOM     15  C   UNL     1     -46.090  36.494  29.455  1.00  0.00     0.043 C 
ATOM     16  H   UNL     1     -46.892  36.860  30.106  1.00  0.00     0.054 H 
ATOM     17  H   UNL     1     -45.403  35.924  30.092  1.00  0.00     0.054 H 
BRANCH  15  18
ATOM     18  N   UNL     1     -45.389  37.627  28.912  1.00  0.00    -0.347 N 
ATOM     19  O   UNL     1     -44.364  38.236  30.873  1.00  0.00    -0.268 OA
ATOM     20  C   UNL     1     -44.586  38.426  29.683  1.00  0.00     0.270 C 
ATOM     21  H   UNL     1     -45.528  37.900  27.944  1.00  0.00     0.164 HD
BRANCH  20  22
ATOM     22  C   UNL     1     -44.001  39.579  28.904  1.00  0.00     0.136 A 
ATOM     23  C   UNL     1     -42.953  40.199  29.453  1.00  0.00     0.035 A 
ATOM     24  N   UNL     1     -44.571  39.920  27.698  1.00  0.00    -0.225 NA
ATOM     25  C   UNL     1     -42.353  41.325  28.729  1.00  0.00     0.258 A 
ATOM     26  H   UNL     1     -42.515  39.921  30.403  1.00  0.00     0.071 H 
ATOM     27  C   UNL     1     -44.036  40.917  27.061  1.00  0.00     0.140 A 
ATOM     28  O   UNL     1     -41.387  41.902  29.227  1.00  0.00    -0.269 OA
ATOM     29  N   UNL     1     -42.945  41.648  27.517  1.00  0.00    -0.268 N 
ATOM     30  C   UNL     1     -44.621  41.320  25.750  1.00  0.00    -0.019 A 
ATOM     31  C   UNL     1     -42.432  42.705  26.772  1.00  0.00     0.014 A 
ATOM     32  C   UNL     1     -44.091  42.344  25.070  1.00  0.00    -0.057 A 
ATOM     33  H   UNL     1     -45.470  40.757  25.387  1.00  0.00     0.066 H 
ATOM     34  C   UNL     1     -42.961  43.062  25.595  1.00  0.00    -0.045 A 
ATOM     35  H   UNL     1     -41.577  43.233  27.189  1.00  0.00     0.082 H 
ATOM     36  H   UNL     1     -44.502  42.653  24.114  1.00  0.00     0.062 H 
ATOM     37  H   UNL     1     -42.552  43.888  25.023  1.00  0.00     0.064 H 
ENDBRANCH  20  22
ENDBRANCH  15  18
ENDBRANCH   1  15
BRANCH   6  38
ATOM     38  C   UNL     1     -46.287  31.488  23.931  1.00  0.00     0.036 C 
ATOM     39  H   UNL     1     -45.194  31.423  23.911  1.00  0.00     0.049 H 
ATOM     40  H   UNL     1     -46.629  31.794  22.936  1.00  0.00     0.049 H 
BRANCH  38  41
ATOM     41  N   UNL     1     -46.889  30.211  24.311  1.00  0.00    -0.308 NA
ATOM     42  H   UNL     1     -47.883  30.385  24.469  1.00  0.00     0.123 HD
BRANCH  41  43
ATOM     43  C   UNL     1     -46.746  29.181  23.269  1.00  0.00     0.007 C 
ATOM     44  C   UNL     1     -46.747  27.754  23.846  1.00  0.00    -0.038 C 
ATOM     45  C   UNL     1     -47.907  29.320  22.265  1.00  0.00    -0.038 C 
ATOM     46  H   UNL     1     -45.811  29.349  22.720  1.00  0.00     0.046 H 
ATOM     47  C   UNL     1     -48.091  27.375  24.472  1.00  0.00    -0.052 C 
ATOM     48  H   UNL     1     -45.949  27.620  24.582  1.00  0.00     0.028 H 
ATOM     49  H   UNL     1     -46.527  27.049  23.034  1.00  0.00     0.028 H 
ATOM     50  C   UNL     1     -49.262  28.945  22.870  1.00  0.00    -0.052 C 
ATOM     51  H   UNL     1     -47.711  28.668  21.404  1.00  0.00     0.028 H 
ATOM     52  H   UNL     1     -47.953  30.343  21.871  1.00  0.00     0.028 H 
ATOM     53  C   UNL     1     -49.238  27.547  23.480  1.00  0.00    -0.053 C 
ATOM     54  H   UNL     1     -48.054  26.332  24.810  1.00  0.00     0.027 H 
ATOM     55  H   UNL     1     -48.276  27.989  25.361  1.00  0.00     0.027 H 
ATOM     56  H   UNL     1     -49.544  29.675  23.637  1.00  0.00     0.027 H 
ATOM     57  H   UNL     1     -50.034  28.991  22.092  1.00  0.00     0.027 H 
ATOM     58  H   UNL     1     -50.192  27.345  23.981  1.00  0.00     0.027 H 
ATOM     59  H   UNL     1     -49.137  26.804  22.679  1.00  0.00     0.027 H 
ENDBRANCH  41  43
ENDBRANCH  38  41
ENDBRANCH   6  38
TORSDOF 6
ENDMDL
MODEL 4
REMARK VINA RESULT:     -10.7      1.742      2.449
REMARK SMILES O=C(NCc1ccc2cc(CNC3CCCCC3)[nH]c2c1)c1cc(=O)n2ccccc2n1
REMARK SMILES IDX 5 1 6 2 7 3 8 4 9 5 10 6 19 7 20 8 21 9 4 15 3 18 1 19 2 20
REMARK SMILES IDX 22 22 23 23 32 24 24 25 31 27 25 28 26 29 30 30 27 31 29 32
REMARK SMILES IDX 28 34 11 38 12 41 13 43 14 44 18 45 15 47 17 50 16 53
REMARK H PARENT 6 10 7 11 9 12 19 13 21 14 4 16 4 17 3 21 23 26 30 33 27 35
REMARK H PARENT 29 36 28 37 11 39 11 40 12 42 13 46 14 48 14 49 18 51 18 52
REMARK H PARENT 15 54 15 55 17 56 17 57 16 58 16 59
REMARK Flexibility Score: inf
ROOT
ATOM      1  C   UNL     1     -46.459  35.276  27.822  1.00  0.00    -0.027 A 
ATOM      2  C   UNL     1     -47.712  35.818  27.510  1.00  0.00    -0.057 A 
ATOM      3  C   UNL     1     -48.670  35.070  26.813  1.00  0.00    -0.052 A 
ATOM      4  C   UNL     1     -48.364  33.757  26.412  1.00  0.00    -0.000 A 
ATOM      5  C   UNL     1     -49.077  32.743  25.713  1.00  0.00    -0.032 A 
ATOM      6  C   UNL     1     -48.255  31.639  25.607  1.00  0.00     0.030 A 
ATOM      7  N   UNL     1     -47.066  31.960  26.218  1.00  0.00    -0.357 N 
ATOM      8  C   UNL     1     -47.107  33.238  26.719  1.00  0.00     0.046 A 
ATOM      9  C   UNL     1     -46.137  33.970  27.416  1.00  0.00    -0.033 A 
ATOM     10  H   UNL     1     -47.956  36.836  27.808  1.00  0.00     0.063 H 
ATOM     11  H   UNL     1     -49.640  35.503  26.584  1.00  0.00     0.063 H 
ATOM     12  H   UNL     1     -50.085  32.819  25.329  1.00  0.00     0.065 H 
ATOM     13  H   UNL     1     -46.291  31.317  26.310  1.00  0.00     0.166 HD
ATOM     14  H   UNL     1     -45.164  33.539  27.634  1.00  0.00     0.065 H 
ENDROOT
BRANCH   1  15
ATOM     15  C   UNL     1     -45.432  36.110  28.544  1.00  0.00     0.043 C 
ATOM     16  H   UNL     1     -45.714  36.255  29.593  1.00  0.00     0.054 H 
ATOM     17  H   UNL     1     -44.456  35.610  28.546  1.00  0.00     0.054 H 
BRANCH  15  18
ATOM     18  N   UNL     1     -45.293  37.400  27.925  1.00  0.00    -0.347 N 
ATOM     19  O   UNL     1     -44.542  38.486  29.802  1.00  0.00    -0.268 OA
ATOM     20  C   UNL     1     -44.870  38.502  28.621  1.00  0.00     0.270 C 
ATOM     21  H   UNL     1     -45.572  37.538  26.958  1.00  0.00     0.164 HD
BRANCH  20  22
ATOM     22  C   UNL     1     -44.854  39.750  27.772  1.00  0.00     0.136 A 
ATOM     23  C   UNL     1     -46.023  40.132  27.251  1.00  0.00     0.035 A 
ATOM     24  N   UNL     1     -43.659  40.408  27.585  1.00  0.00    -0.225 NA
ATOM     25  C   UNL     1     -46.053  41.340  26.419  1.00  0.00     0.258 A 
ATOM     26  H   UNL     1     -46.955  39.604  27.405  1.00  0.00     0.071 H 
ATOM     27  C   UNL     1     -43.690  41.477  26.849  1.00  0.00     0.140 A 
ATOM     28  O   UNL     1     -47.124  41.699  25.935  1.00  0.00    -0.269 OA
ATOM     29  N   UNL     1     -44.836  41.985  26.247  1.00  0.00    -0.268 N 
ATOM     30  C   UNL     1     -42.419  42.222  26.621  1.00  0.00    -0.019 A 
ATOM     31  C   UNL     1     -44.784  43.138  25.470  1.00  0.00     0.014 A 
ATOM     32  C   UNL     1     -42.420  43.327  25.865  1.00  0.00    -0.057 A 
ATOM     33  H   UNL     1     -41.522  41.835  27.085  1.00  0.00     0.066 H 
ATOM     34  C   UNL     1     -43.640  43.802  25.270  1.00  0.00    -0.045 A 
ATOM     35  H   UNL     1     -45.719  43.478  25.030  1.00  0.00     0.082 H 
ATOM     36  H   UNL     1     -41.505  43.884  25.688  1.00  0.00     0.062 H 
ATOM     37  H   UNL     1     -43.611  44.701  24.662  1.00  0.00     0.064 H 
ENDBRANCH  20  22
ENDBRANCH  15  18
ENDBRANCH   1  15
BRANCH   6  38
ATOM     38  C   UNL     1     -48.468  30.308  24.975  1.00  0.00     0.036 C 
ATOM     39  H   UNL     1     -47.676  30.153  24.235  1.00  0.00     0.049 H 
ATOM     40  H   UNL     1     -49.431  30.300  24.451  1.00  0.00     0.049 H 
BRANCH  38  41
ATOM     41  N   UNL     1     -48.439  29.279  26.012  1.00  0.00    -0.308 NA
ATOM     42  H   UNL     1     -49.004  29.623  26.790  1.00  0.00     0.123 HD
BRANCH  41  43
ATOM     43  C   UNL     1     -48.991  27.993  25.555  1.00  0.00     0.007 C 
ATOM     44  C   UNL     1     -48.315  27.484  24.269  1.00  0.00    -0.038 C 
ATOM     45  C   UNL     1     -48.807  26.944  26.670  1.00  0.00    -0.038 C 
ATOM     46  H   UNL     1     -50.069  28.104  25.379  1.00  0.00     0.046 H 
ATOM     47  C   UNL     1     -46.842  27.130  24.480  1.00  0.00    -0.052 C 
ATOM     48  H   UNL     1     -48.405  28.212  23.457  1.00  0.00     0.028 H 
ATOM     49  H   UNL     1     -48.847  26.587  23.927  1.00  0.00     0.028 H 
ATOM     50  C   UNL     1     -47.340  26.574  26.898  1.00  0.00    -0.052 C 
ATOM     51  H   UNL     1     -49.363  26.038  26.399  1.00  0.00     0.028 H 
ATOM     52  H   UNL     1     -49.244  27.303  27.610  1.00  0.00     0.028 H 
ATOM     53  C   UNL     1     -46.667  26.116  25.608  1.00  0.00    -0.053 C 
ATOM     54  H   UNL     1     -46.430  26.718  23.552  1.00  0.00     0.027 H 
ATOM     55  H   UNL     1     -46.268  28.036  24.706  1.00  0.00     0.027 H 
ATOM     56  H   UNL     1     -46.797  27.432  27.311  1.00  0.00     0.027 H 
ATOM     57  H   UNL     1     -47.278  25.773  27.646  1.00  0.00     0.027 H 
ATOM     58  H   UNL     1     -45.600  25.944  25.787  1.00  0.00     0.027 H 
ATOM     59  H   UNL     1     -47.096  25.155  25.298  1.00  0.00     0.027 H 
ENDBRANCH  41  43
ENDBRANCH  38  41
ENDBRANCH   6  38
TORSDOF 6
ENDMDL
MODEL 5
REMARK VINA RESULT:     -10.4      3.047      4.281
REMARK SMILES O=C(NCc1ccc2cc(CNC3CCCCC3)[nH]c2c1)c1cc(=O)n2ccccc2n1
REMARK SMILES IDX 5 1 6 2 7 3 8 4 9 5 10 6 19 7 20 8 21 9 4 15 3 18 1 19 2 20
REMARK SMILES IDX 22 22 23 23 32 24 24 25 31 27 25 28 26 29 30 30 27 31 29 32
REMARK SMILES IDX 28 34 11 38 12 41 13 43 14 44 18 45 15 47 17 50 16 53
REMARK H PARENT 6 10 7 11 9 12 19 13 21 14 4 16 4 17 3 21 23 26 30 33 27 35
REMARK H PARENT 29 36 28 37 11 39 11 40 12 42 13 46 14 48 14 49 18 51 18 52
REMARK H PARENT 15 54 15 55 17 56 17 57 16 58 16 59
REMARK Flexibility Score: inf
ROOT
ATOM      1  C   UNL     1     -46.416  36.068  28.318  1.00  0.00    -0.027 A 
ATOM      2  C   UNL     1     -47.724  36.290  27.871  1.00  0.00    -0.057 A 
ATOM      3  C   UNL     1     -48.288  35.500  26.861  1.00  0.00    -0.052 A 
ATOM      4  C   UNL     1     -47.523  34.473  26.279  1.00  0.00    -0.000 A 
ATOM      5  C   UNL     1     -47.771  33.508  25.263  1.00  0.00    -0.032 A 
ATOM      6  C   UNL     1     -46.630  32.747  25.110  1.00  0.00     0.030 A 
ATOM      7  N   UNL     1     -45.699  33.229  26.001  1.00  0.00    -0.357 N 
ATOM      8  C   UNL     1     -46.218  34.274  26.726  1.00  0.00     0.046 A 
ATOM      9  C   UNL     1     -45.638  35.052  27.736  1.00  0.00    -0.033 A 
ATOM     10  H   UNL     1     -48.322  37.087  28.309  1.00  0.00     0.063 H 
ATOM     11  H   UNL     1     -49.307  35.683  26.530  1.00  0.00     0.063 H 
ATOM     12  H   UNL     1     -48.690  33.387  24.706  1.00  0.00     0.065 H 
ATOM     13  H   UNL     1     -44.777  32.832  26.119  1.00  0.00     0.166 HD
ATOM     14  H   UNL     1     -44.615  34.876  28.058  1.00  0.00     0.065 H 
ENDROOT
BRANCH   1  15
ATOM     15  C   UNL     1     -45.819  36.950  29.383  1.00  0.00     0.043 C 
ATOM     16  H   UNL     1     -46.601  37.368  30.028  1.00  0.00     0.054 H 
ATOM     17  H   UNL     1     -45.148  36.375  30.034  1.00  0.00     0.054 H 
BRANCH  15  18
ATOM     18  N   UNL     1     -45.081  38.035  28.796  1.00  0.00    -0.347 N 
ATOM     19  O   UNL     1     -46.872  39.454  28.581  1.00  0.00    -0.268 OA
ATOM     20  C   UNL     1     -45.682  39.208  28.421  1.00  0.00     0.270 C 
ATOM     21  H   UNL     1     -44.094  37.928  28.584  1.00  0.00     0.164 HD
BRANCH  20  22
ATOM     22  C   UNL     1     -44.714  40.174  27.782  1.00  0.00     0.136 A 
ATOM     23  C   UNL     1     -43.572  40.394  28.439  1.00  0.00     0.035 A 
ATOM     24  N   UNL     1     -45.057  40.762  26.586  1.00  0.00    -0.225 NA
ATOM     25  C   UNL     1     -42.602  41.327  27.854  1.00  0.00     0.258 A 
ATOM     26  H   UNL     1     -43.314  39.926  29.380  1.00  0.00     0.071 H 
ATOM     27  C   UNL     1     -44.196  41.586  26.072  1.00  0.00     0.140 A 
ATOM     28  O   UNL     1     -41.547  41.536  28.451  1.00  0.00    -0.269 OA
ATOM     29  N   UNL     1     -42.971  41.905  26.648  1.00  0.00    -0.268 N 
ATOM     30  C   UNL     1     -44.526  42.245  24.776  1.00  0.00    -0.019 A 
ATOM     31  C   UNL     1     -42.103  42.800  26.031  1.00  0.00     0.014 A 
ATOM     32  C   UNL     1     -43.658  43.099  24.221  1.00  0.00    -0.057 A 
ATOM     33  H   UNL     1     -45.477  42.003  24.320  1.00  0.00     0.066 H 
ATOM     34  C   UNL     1     -42.406  43.388  24.867  1.00  0.00    -0.045 A 
ATOM     35  H   UNL     1     -41.163  43.003  26.537  1.00  0.00     0.082 H 
ATOM     36  H   UNL     1     -43.880  43.589  23.278  1.00  0.00     0.062 H 
ATOM     37  H   UNL     1     -41.721  44.085  24.395  1.00  0.00     0.064 H 
ENDBRANCH  20  22
ENDBRANCH  15  18
ENDBRANCH   1  15
BRANCH   6  38
ATOM     38  C   UNL     1     -46.315  31.614  24.197  1.00  0.00     0.036 C 
ATOM     39  H   UNL     1     -47.128  30.883  24.269  1.00  0.00     0.049 H 
ATOM     40  H   UNL     1     -45.389  31.126  24.521  1.00  0.00     0.049 H 
BRANCH  38  41
ATOM     41  N   UNL     1     -46.177  32.126  22.835  1.00  0.00    -0.308 NA
ATOM     42  H   UNL     1     -45.395  32.783  22.841  1.00  0.00     0.123 HD
BRANCH  41  43
ATOM     43  C   UNL     1     -45.899  31.065  21.853  1.00  0.00     0.007 C 
ATOM     44  C   UNL     1     -46.983  29.973  21.840  1.00  0.00    -0.038 C 
ATOM     45  C   UNL     1     -45.801  31.695  20.449  1.00  0.00    -0.038 C 
ATOM     46  H   UNL     1     -44.927  30.608  22.079  1.00  0.00     0.046 H 
ATOM     47  C   UNL     1     -48.337  30.495  21.355  1.00  0.00    -0.052 C 
ATOM     48  H   UNL     1     -47.100  29.515  22.827  1.00  0.00     0.028 H 
ATOM     49  H   UNL     1     -46.658  29.165  21.172  1.00  0.00     0.028 H 
ATOM     50  C   UNL     1     -47.145  32.224  19.943  1.00  0.00    -0.052 C 
ATOM     51  H   UNL     1     -45.431  30.938  19.746  1.00  0.00     0.028 H 
ATOM     52  H   UNL     1     -45.063  32.506  20.443  1.00  0.00     0.028 H 
ATOM     53  C   UNL     1     -48.224  31.146  19.979  1.00  0.00    -0.053 C 
ATOM     54  H   UNL     1     -49.052  29.666  21.309  1.00  0.00     0.027 H 
ATOM     55  H   UNL     1     -48.739  31.219  22.074  1.00  0.00     0.027 H 
ATOM     56  H   UNL     1     -47.462  33.081  20.548  1.00  0.00     0.027 H 
ATOM     57  H   UNL     1     -47.029  32.590  18.915  1.00  0.00     0.027 H 
ATOM     58  H   UNL     1     -49.190  31.579  19.696  1.00  0.00     0.027 H 
ATOM     59  H   UNL     1     -47.992  30.376  19.234  1.00  0.00     0.027 H 
ENDBRANCH  41  43
ENDBRANCH  38  41
ENDBRANCH   6  38
TORSDOF 6
ENDMDL
MODEL 6
REMARK VINA RESULT:     -10.1      2.183      3.314
REMARK SMILES O=C(NCc1ccc2cc(CNC3CCCCC3)[nH]c2c1)c1cc(=O)n2ccccc2n1
REMARK SMILES IDX 5 1 6 2 7 3 8 4 9 5 10 6 19 7 20 8 21 9 4 15 3 18 1 19 2 20
REMARK SMILES IDX 22 22 23 23 32 24 24 25 31 27 25 28 26 29 30 30 27 31 29 32
REMARK SMILES IDX 28 34 11 38 12 41 13 43 14 44 18 45 15 47 17 50 16 53
REMARK H PARENT 6 10 7 11 9 12 19 13 21 14 4 16 4 17 3 21 23 26 30 33 27 35
REMARK H PARENT 29 36 28 37 11 39 11 40 12 42 13 46 14 48 14 49 18 51 18 52
REMARK H PARENT 15 54 15 55 17 56 17 57 16 58 16 59
REMARK Flexibility Score: inf
ROOT
ATOM      1  C   UNL     1     -47.959  34.857  26.622  1.00  0.00    -0.027 A 
ATOM      2  C   UNL     1     -46.684  34.804  26.046  1.00  0.00    -0.057 A 
ATOM      3  C   UNL     1     -46.300  33.728  25.233  1.00  0.00    -0.052 A 
ATOM      4  C   UNL     1     -47.209  32.680  25.001  1.00  0.00    -0.000 A 
ATOM      5  C   UNL     1     -47.157  31.472  24.251  1.00  0.00    -0.032 A 
ATOM      6  C   UNL     1     -48.368  30.827  24.395  1.00  0.00     0.030 A 
ATOM      7  N   UNL     1     -49.148  31.609  25.216  1.00  0.00    -0.357 N 
ATOM      8  C   UNL     1     -48.469  32.742  25.594  1.00  0.00     0.046 A 
ATOM      9  C   UNL     1     -48.871  33.809  26.407  1.00  0.00    -0.033 A 
ATOM     10  H   UNL     1     -45.970  35.606  26.225  1.00  0.00     0.063 H 
ATOM     11  H   UNL     1     -45.309  33.706  24.789  1.00  0.00     0.063 H 
ATOM     12  H   UNL     1     -46.318  31.117  23.668  1.00  0.00     0.065 H 
ATOM     13  H   UNL     1     -50.102  31.384  25.465  1.00  0.00     0.166 HD
ATOM     14  H   UNL     1     -49.858  33.825  26.860  1.00  0.00     0.065 H 
ENDROOT
BRANCH   1  15
ATOM     15  C   UNL     1     -48.338  36.007  27.518  1.00  0.00     0.043 C 
ATOM     16  H   UNL     1     -49.298  36.439  27.214  1.00  0.00     0.054 H 
ATOM     17  H   UNL     1     -48.458  35.670  28.555  1.00  0.00     0.054 H 
BRANCH  15  18
ATOM     18  N   UNL     1     -47.338  37.039  27.476  1.00  0.00    -0.347 N 
ATOM     19  O   UNL     1     -46.638  36.783  29.647  1.00  0.00    -0.268 OA
ATOM     20  C   UNL     1     -46.572  37.358  28.567  1.00  0.00     0.270 C 
ATOM     21  H   UNL     1     -47.221  37.607  26.642  1.00  0.00     0.164 HD
BRANCH  20  22
ATOM     22  C   UNL     1     -45.630  38.506  28.295  1.00  0.00     0.136 A 
ATOM     23  C   UNL     1     -45.855  39.210  27.183  1.00  0.00     0.035 A 
ATOM     24  N   UNL     1     -44.613  38.755  29.190  1.00  0.00    -0.225 NA
ATOM     25  C   UNL     1     -44.963  40.335  26.880  1.00  0.00     0.258 A 
ATOM     26  H   UNL     1     -46.657  39.004  26.487  1.00  0.00     0.071 H 
ATOM     27  C   UNL     1     -43.828  39.752  28.918  1.00  0.00     0.140 A 
ATOM     28  O   UNL     1     -45.162  40.990  25.858  1.00  0.00    -0.269 OA
ATOM     29  N   UNL     1     -43.948  40.566  27.797  1.00  0.00    -0.268 N 
ATOM     30  C   UNL     1     -42.713  40.058  29.860  1.00  0.00    -0.019 A 
ATOM     31  C   UNL     1     -43.061  41.615  27.578  1.00  0.00     0.014 A 
ATOM     32  C   UNL     1     -41.886  41.079  29.606  1.00  0.00    -0.057 A 
ATOM     33  H   UNL     1     -42.612  39.430  30.735  1.00  0.00     0.066 H 
ATOM     34  C   UNL     1     -42.063  41.885  28.428  1.00  0.00    -0.045 A 
ATOM     35  H   UNL     1     -43.215  42.211  26.681  1.00  0.00     0.082 H 
ATOM     36  H   UNL     1     -41.070  41.318  30.280  1.00  0.00     0.062 H 
ATOM     37  H   UNL     1     -41.378  42.707  28.247  1.00  0.00     0.064 H 
ENDBRANCH  20  22
ENDBRANCH  15  18
ENDBRANCH   1  15
BRANCH   6  38
ATOM     38  C   UNL     1     -48.869  29.535  23.850  1.00  0.00     0.036 C 
ATOM     39  H   UNL     1     -49.930  29.446  24.108  1.00  0.00     0.049 H 
ATOM     40  H   UNL     1     -48.332  28.704  24.321  1.00  0.00     0.049 H 
BRANCH  38  41
ATOM     41  N   UNL     1     -48.670  29.522  22.402  1.00  0.00    -0.308 NA
ATOM     42  H   UNL     1     -47.803  29.011  22.225  1.00  0.00     0.123 HD
BRANCH  41  43
ATOM     43  C   UNL     1     -49.769  28.858  21.682  1.00  0.00     0.007 C 
ATOM     44  C   UNL     1     -51.099  29.623  21.798  1.00  0.00    -0.038 C 
ATOM     45  C   UNL     1     -49.388  28.732  20.193  1.00  0.00    -0.038 C 
ATOM     46  H   UNL     1     -49.899  27.842  22.077  1.00  0.00     0.046 H 
ATOM     47  C   UNL     1     -51.055  30.986  21.105  1.00  0.00    -0.052 C 
ATOM     48  H   UNL     1     -51.394  29.753  22.844  1.00  0.00     0.028 H 
ATOM     49  H   UNL     1     -51.891  29.019  21.337  1.00  0.00     0.028 H 
ATOM     50  C   UNL     1     -49.339  30.085  19.478  1.00  0.00    -0.052 C 
ATOM     51  H   UNL     1     -50.126  28.093  19.691  1.00  0.00     0.028 H 
ATOM     52  H   UNL     1     -48.421  28.226  20.086  1.00  0.00     0.028 H 
ATOM     53  C   UNL     1     -50.645  30.855  19.641  1.00  0.00    -0.053 C 
ATOM     54  H   UNL     1     -52.042  31.459  21.167  1.00  0.00     0.027 H 
ATOM     55  H   UNL     1     -50.354  31.649  21.627  1.00  0.00     0.027 H 
ATOM     56  H   UNL     1     -48.508  30.684  19.869  1.00  0.00     0.027 H 
ATOM     57  H   UNL     1     -49.138  29.926  18.412  1.00  0.00     0.027 H 
ATOM     58  H   UNL     1     -50.546  31.851  19.195  1.00  0.00     0.027 H 
ATOM     59  H   UNL     1     -51.440  30.339  19.088  1.00  0.00     0.027 H 
ENDBRANCH  41  43
ENDBRANCH  38  41
ENDBRANCH   6  38
TORSDOF 6
ENDMDL
MODEL 7
REMARK VINA RESULT:     -10.0      1.981      3.086
REMARK SMILES O=C(NCc1ccc2cc(CNC3CCCCC3)[nH]c2c1)c1cc(=O)n2ccccc2n1
REMARK SMILES IDX 5 1 6 2 7 3 8 4 9 5 10 6 19 7 20 8 21 9 4 15 3 18 1 19 2 20
REMARK SMILES IDX 22 22 23 23 32 24 24 25 31 27 25 28 26 29 30 30 27 31 29 32
REMARK SMILES IDX 28 34 11 38 12 41 13 43 14 44 18 45 15 47 17 50 16 53
REMARK H PARENT 6 10 7 11 9 12 19 13 21 14 4 16 4 17 3 21 23 26 30 33 27 35
REMARK H PARENT 29 36 28 37 11 39 11 40 12 42 13 46 14 48 14 49 18 51 18 52
REMARK H PARENT 15 54 15 55 17 56 17 57 16 58 16 59
REMARK Flexibility Score: inf
ROOT
ATOM      1  C   UNL     1     -47.683  36.172  27.098  1.00  0.00    -0.027 A 
ATOM      2  C   UNL     1     -46.379  35.839  26.711  1.00  0.00    -0.057 A 
ATOM      3  C   UNL     1     -46.085  34.584  26.163  1.00  0.00    -0.052 A 
ATOM      4  C   UNL     1     -47.116  33.639  26.008  1.00  0.00    -0.000 A 
ATOM      5  C   UNL     1     -47.174  32.311  25.501  1.00  0.00    -0.032 A 
ATOM      6  C   UNL     1     -48.479  31.872  25.601  1.00  0.00     0.030 A 
ATOM      7  N   UNL     1     -49.208  32.896  26.159  1.00  0.00    -0.357 N 
ATOM      8  C   UNL     1     -48.405  33.982  26.411  1.00  0.00     0.046 A 
ATOM      9  C   UNL     1     -48.719  35.232  26.960  1.00  0.00    -0.033 A 
ATOM     10  H   UNL     1     -45.573  36.560  26.834  1.00  0.00     0.063 H 
ATOM     11  H   UNL     1     -45.069  34.344  25.862  1.00  0.00     0.063 H 
ATOM     12  H   UNL     1     -46.344  31.740  25.105  1.00  0.00     0.065 H 
ATOM     13  H   UNL     1     -50.206  32.852  26.319  1.00  0.00     0.166 HD
ATOM     14  H   UNL     1     -49.733  35.466  27.271  1.00  0.00     0.065 H 
ENDROOT
BRANCH   1  15
ATOM     15  C   UNL     1     -47.970  37.516  27.715  1.00  0.00     0.043 C 
ATOM     16  H   UNL     1     -48.890  37.947  27.303  1.00  0.00     0.054 H 
ATOM     17  H   UNL     1     -48.124  37.423  28.798  1.00  0.00     0.054 H 
BRANCH  15  18
ATOM     18  N   UNL     1     -46.888  38.431  27.475  1.00  0.00    -0.347 N 
ATOM     19  O   UNL     1     -46.008  38.323  29.592  1.00  0.00    -0.268 OA
ATOM     20  C   UNL     1     -45.993  38.777  28.454  1.00  0.00     0.270 C 
ATOM     21  H   UNL     1     -46.800  38.898  26.577  1.00  0.00     0.164 HD
BRANCH  20  22
ATOM     22  C   UNL     1     -44.980  39.791  27.978  1.00  0.00     0.136 A 
ATOM     23  C   UNL     1     -43.901  39.960  28.747  1.00  0.00     0.035 A 
ATOM     24  N   UNL     1     -45.223  40.469  26.805  1.00  0.00    -0.225 NA
ATOM     25  C   UNL     1     -42.891  40.935  28.322  1.00  0.00     0.258 A 
ATOM     26  H   UNL     1     -43.723  39.421  29.668  1.00  0.00     0.071 H 
ATOM     27  C   UNL     1     -44.326  41.330  26.433  1.00  0.00     0.140 A 
ATOM     28  O   UNL     1     -41.893  41.098  29.023  1.00  0.00    -0.269 OA
ATOM     29  N   UNL     1     -43.158  41.605  27.136  1.00  0.00    -0.268 N 
ATOM     30  C   UNL     1     -44.547  42.087  25.167  1.00  0.00    -0.019 A 
ATOM     31  C   UNL     1     -42.246  42.545  26.668  1.00  0.00     0.014 A 
ATOM     32  C   UNL     1     -43.640  42.982  24.758  1.00  0.00    -0.057 A 
ATOM     33  H   UNL     1     -45.453  41.880  24.613  1.00  0.00     0.066 H 
ATOM     34  C   UNL     1     -42.451  43.221  25.531  1.00  0.00    -0.045 A 
ATOM     35  H   UNL     1     -41.355  42.709  27.269  1.00  0.00     0.082 H 
ATOM     36  H   UNL     1     -43.783  43.542  23.839  1.00  0.00     0.062 H 
ATOM     37  H   UNL     1     -41.732  43.952  25.175  1.00  0.00     0.064 H 
ENDBRANCH  20  22
ENDBRANCH  15  18
ENDBRANCH   1  15
BRANCH   6  38
ATOM     38  C   UNL     1     -49.114  30.576  25.238  1.00  0.00     0.036 C 
ATOM     39  H   UNL     1     -49.610  30.699  24.269  1.00  0.00     0.049 H 
ATOM     40  H   UNL     1     -49.877  30.318  25.981  1.00  0.00     0.049 H 
BRANCH  38  41
ATOM     41  N   UNL     1     -48.083  29.541  25.180  1.00  0.00    -0.308 NA
ATOM     42  H   UNL     1     -48.195  28.961  26.014  1.00  0.00     0.123 HD
BRANCH  41  43
ATOM     43  C   UNL     1     -48.199  28.686  23.987  1.00  0.00     0.007 C 
ATOM     44  C   UNL     1     -48.980  29.366  22.848  1.00  0.00    -0.038 C 
ATOM     45  C   UNL     1     -46.784  28.331  23.487  1.00  0.00    -0.038 C 
ATOM     46  H   UNL     1     -48.698  27.748  24.261  1.00  0.00     0.046 H 
ATOM     47  C   UNL     1     -48.252  30.588  22.284  1.00  0.00    -0.052 C 
ATOM     48  H   UNL     1     -49.985  29.655  23.171  1.00  0.00     0.028 H 
ATOM     49  H   UNL     1     -49.123  28.637  22.040  1.00  0.00     0.028 H 
ATOM     50  C   UNL     1     -46.037  29.539  22.916  1.00  0.00    -0.052 C 
ATOM     51  H   UNL     1     -46.867  27.565  22.705  1.00  0.00     0.028 H 
ATOM     52  H   UNL     1     -46.193  27.883  24.294  1.00  0.00     0.028 H 
ATOM     53  C   UNL     1     -46.841  30.233  21.821  1.00  0.00    -0.053 C 
ATOM     54  H   UNL     1     -48.821  30.993  21.440  1.00  0.00     0.027 H 
ATOM     55  H   UNL     1     -48.204  31.378  23.042  1.00  0.00     0.027 H 
ATOM     56  H   UNL     1     -45.815  30.254  23.717  1.00  0.00     0.027 H 
ATOM     57  H   UNL     1     -45.072  29.212  22.510  1.00  0.00     0.027 H 
ATOM     58  H   UNL     1     -46.320  31.141  21.498  1.00  0.00     0.027 H 
ATOM     59  H   UNL     1     -46.903  29.574  20.946  1.00  0.00     0.027 H 
ENDBRANCH  41  43
ENDBRANCH  38  41
ENDBRANCH   6  38
TORSDOF 6
ENDMDL
