MODEL 1
REMARK VINA RESULT:     -11.5      0.000      0.000
REMARK SMILES O=C(NCc1ccc2cc(CN3CC(C4CCC4)C3)[nH]c2c1)c1cc(=O)n2ccccc2n1
REMARK SMILES IDX 5 1 6 2 7 3 8 4 9 5 10 6 20 7 21 8 22 9 4 15 3 18 1 19 2 20
REMARK SMILES IDX 23 22 24 23 33 24 25 25 32 27 26 28 27 29 31 30 28 31 30 32
REMARK SMILES IDX 29 34 11 38 12 41 13 42 19 43 14 44 15 50 16 51 18 52 17 54
REMARK H PARENT 6 10 7 11 9 12 20 13 22 14 4 16 4 17 3 21 24 26 31 33 28 35
REMARK H PARENT 30 36 29 37 11 39 11 40 13 45 13 46 19 47 19 48 14 49 15 53
REMARK H PARENT 16 55 16 56 18 57 18 58 17 59 17 60
REMARK Flexibility Score: inf
ROOT
ATOM      1  C   UNL     1     -47.864  35.125  27.071  1.00  0.00    -0.027 A 
ATOM      2  C   UNL     1     -46.523  35.040  26.674  1.00  0.00    -0.057 A 
ATOM      3  C   UNL     1     -46.084  34.026  25.813  1.00  0.00    -0.052 A 
ATOM      4  C   UNL     1     -47.009  33.080  25.336  1.00  0.00    -0.000 A 
ATOM      5  C   UNL     1     -46.915  31.953  24.472  1.00  0.00    -0.032 A 
ATOM      6  C   UNL     1     -48.173  31.395  24.358  1.00  0.00     0.030 A 
ATOM      7  N   UNL     1     -49.020  32.150  25.133  1.00  0.00    -0.357 N 
ATOM      8  C   UNL     1     -48.340  33.182  25.735  1.00  0.00     0.046 A 
ATOM      9  C   UNL     1     -48.799  34.190  26.592  1.00  0.00    -0.033 A 
ATOM     10  H   UNL     1     -45.804  35.776  27.032  1.00  0.00     0.063 H 
ATOM     11  H   UNL     1     -45.041  33.976  25.517  1.00  0.00     0.063 H 
ATOM     12  H   UNL     1     -46.018  31.593  23.985  1.00  0.00     0.065 H 
ATOM     13  H   UNL     1     -50.013  31.976  25.210  1.00  0.00     0.166 HD
ATOM     14  H   UNL     1     -49.844  34.244  26.878  1.00  0.00     0.065 H 
ENDROOT
BRANCH   1  15
ATOM     15  C   UNL     1     -48.309  36.245  27.979  1.00  0.00     0.043 C 
ATOM     16  H   UNL     1     -49.280  36.634  27.656  1.00  0.00     0.054 H 
ATOM     17  H   UNL     1     -48.432  35.877  29.004  1.00  0.00     0.054 H 
BRANCH  15  18
ATOM     18  N   UNL     1     -47.372  37.339  27.937  1.00  0.00    -0.347 N 
ATOM     19  O   UNL     1     -46.337  36.897  29.945  1.00  0.00    -0.268 OA
ATOM     20  C   UNL     1     -46.410  37.529  28.897  1.00  0.00     0.270 C 
ATOM     21  H   UNL     1     -47.245  37.851  27.071  1.00  0.00     0.164 HD
BRANCH  20  22
ATOM     22  C   UNL     1     -45.424  38.608  28.515  1.00  0.00     0.136 A 
ATOM     23  C   UNL     1     -45.621  39.202  27.336  1.00  0.00     0.035 A 
ATOM     24  N   UNL     1     -44.407  38.916  29.391  1.00  0.00    -0.225 NA
ATOM     25  C   UNL     1     -44.690  40.261  26.928  1.00  0.00     0.258 A 
ATOM     26  H   UNL     1     -46.426  38.952  26.658  1.00  0.00     0.071 H 
ATOM     27  C   UNL     1     -43.590  39.857  29.027  1.00  0.00     0.140 A 
ATOM     28  O   UNL     1     -44.860  40.811  25.841  1.00  0.00    -0.269 OA
ATOM     29  N   UNL     1     -43.677  40.555  27.828  1.00  0.00    -0.268 N 
ATOM     30  C   UNL     1     -42.475  40.228  29.944  1.00  0.00    -0.019 A 
ATOM     31  C   UNL     1     -42.757  41.551  27.512  1.00  0.00     0.014 A 
ATOM     32  C   UNL     1     -41.615  41.193  29.597  1.00  0.00    -0.057 A 
ATOM     33  H   UNL     1     -42.400  39.690  30.882  1.00  0.00     0.066 H 
ATOM     34  C   UNL     1     -41.759  41.877  28.340  1.00  0.00    -0.045 A 
ATOM     35  H   UNL     1     -42.885  42.055  26.558  1.00  0.00     0.082 H 
ATOM     36  H   UNL     1     -40.797  41.477  30.251  1.00  0.00     0.062 H 
ATOM     37  H   UNL     1     -41.047  42.656  28.083  1.00  0.00     0.064 H 
ENDBRANCH  20  22
ENDBRANCH  15  18
ENDBRANCH   1  15
BRANCH   6  38
ATOM     38  C   UNL     1     -48.658  30.206  23.595  1.00  0.00     0.039 C 
ATOM     39  H   UNL     1     -48.276  30.291  22.570  1.00  0.00     0.050 H 
ATOM     40  H   UNL     1     -49.754  30.229  23.527  1.00  0.00     0.050 H 
BRANCH  38  41
ATOM     41  N   UNL     1     -48.153  28.964  24.189  1.00  0.00    -0.297 NA
ATOM     42  C   UNL     1     -48.652  28.796  25.578  1.00  0.00     0.003 C 
ATOM     43  C   UNL     1     -48.982  27.813  23.763  1.00  0.00     0.003 C 
ATOM     44  C   UNL     1     -49.022  27.345  25.232  1.00  0.00    -0.013 C 
ATOM     45  H   UNL     1     -47.904  28.951  26.359  1.00  0.00     0.043 H 
ATOM     46  H   UNL     1     -49.530  29.401  25.845  1.00  0.00     0.043 H 
ATOM     47  H   UNL     1     -49.975  28.060  23.364  1.00  0.00     0.043 H 
ATOM     48  H   UNL     1     -48.490  27.141  23.053  1.00  0.00     0.043 H 
ATOM     49  H   UNL     1     -50.023  27.049  25.569  1.00  0.00     0.033 H 
BRANCH  44  50
ATOM     50  C   UNL     1     -47.977  26.252  25.514  1.00  0.00    -0.036 C 
ATOM     51  C   UNL     1     -47.104  26.374  26.784  1.00  0.00    -0.050 C 
ATOM     52  C   UNL     1     -48.607  24.997  26.161  1.00  0.00    -0.050 C 
ATOM     53  H   UNL     1     -47.386  26.002  24.621  1.00  0.00     0.031 H 
ATOM     54  C   UNL     1     -47.289  24.848  26.952  1.00  0.00    -0.053 C 
ATOM     55  H   UNL     1     -46.075  26.702  26.616  1.00  0.00     0.027 H 
ATOM     56  H   UNL     1     -47.513  26.934  27.629  1.00  0.00     0.027 H 
ATOM     57  H   UNL     1     -49.480  25.181  26.800  1.00  0.00     0.027 H 
ATOM     58  H   UNL     1     -48.841  24.177  25.477  1.00  0.00     0.027 H 
ATOM     59  H   UNL     1     -46.529  24.250  26.436  1.00  0.00     0.027 H 
ATOM     60  H   UNL     1     -47.389  24.491  27.980  1.00  0.00     0.027 H 
ENDBRANCH  44  50
ENDBRANCH  38  41
ENDBRANCH   6  38
TORSDOF 6
ENDMDL
MODEL 2
REMARK VINA RESULT:     -10.5      2.529      4.059
REMARK SMILES O=C(NCc1ccc2cc(CN3CC(C4CCC4)C3)[nH]c2c1)c1cc(=O)n2ccccc2n1
REMARK SMILES IDX 5 1 6 2 7 3 8 4 9 5 10 6 20 7 21 8 22 9 4 15 3 18 1 19 2 20
REMARK SMILES IDX 23 22 24 23 33 24 25 25 32 27 26 28 27 29 31 30 28 31 30 32
REMARK SMILES IDX 29 34 11 38 12 41 13 42 19 43 14 44 15 50 16 51 18 52 17 54
REMARK H PARENT 6 10 7 11 9 12 20 13 22 14 4 16 4 17 3 21 24 26 31 33 28 35
REMARK H PARENT 30 36 29 37 11 39 11 40 13 45 13 46 19 47 19 48 14 49 15 53
REMARK H PARENT 16 55 16 56 18 57 18 58 17 59 17 60
REMARK Flexibility Score: inf
ROOT
ATOM      1  C   UNL     1     -46.655  36.170  28.052  1.00  0.00    -0.027 A 
ATOM      2  C   UNL     1     -48.037  36.074  27.841  1.00  0.00    -0.057 A 
ATOM      3  C   UNL     1     -48.573  35.121  26.966  1.00  0.00    -0.052 A 
ATOM      4  C   UNL     1     -47.707  34.242  26.291  1.00  0.00    -0.000 A 
ATOM      5  C   UNL     1     -47.901  33.182  25.362  1.00  0.00    -0.032 A 
ATOM      6  C   UNL     1     -46.663  32.663  25.041  1.00  0.00     0.030 A 
ATOM      7  N   UNL     1     -45.728  33.383  25.746  1.00  0.00    -0.357 N 
ATOM      8  C   UNL     1     -46.336  34.346  26.517  1.00  0.00     0.046 A 
ATOM      9  C   UNL     1     -45.781  35.289  27.390  1.00  0.00    -0.033 A 
ATOM     10  H   UNL     1     -48.714  36.746  28.369  1.00  0.00     0.063 H 
ATOM     11  H   UNL     1     -49.647  35.063  26.816  1.00  0.00     0.063 H 
ATOM     12  H   UNL     1     -48.850  32.839  24.972  1.00  0.00     0.065 H 
ATOM     13  H   UNL     1     -44.736  33.193  25.716  1.00  0.00     0.166 HD
ATOM     14  H   UNL     1     -44.709  35.339  27.547  1.00  0.00     0.065 H 
ENDROOT
BRANCH   1  15
ATOM     15  C   UNL     1     -46.112  37.191  29.021  1.00  0.00     0.043 C 
ATOM     16  H   UNL     1     -46.932  37.705  29.533  1.00  0.00     0.054 H 
ATOM     17  H   UNL     1     -45.508  36.697  29.792  1.00  0.00     0.054 H 
BRANCH  15  18
ATOM     18  N   UNL     1     -45.340  38.192  28.330  1.00  0.00    -0.347 N 
ATOM     19  O   UNL     1     -47.074  39.648  27.917  1.00  0.00    -0.268 OA
ATOM     20  C   UNL     1     -45.878  39.378  27.898  1.00  0.00     0.270 C 
ATOM     21  H   UNL     1     -44.327  38.148  28.364  1.00  0.00     0.164 HD
BRANCH  20  22
ATOM     22  C   UNL     1     -44.824  40.338  27.400  1.00  0.00     0.136 A 
ATOM     23  C   UNL     1     -43.730  40.462  28.154  1.00  0.00     0.035 A 
ATOM     24  N   UNL     1     -45.046  41.010  26.218  1.00  0.00    -0.225 NA
ATOM     25  C   UNL     1     -42.676  41.381  27.704  1.00  0.00     0.258 A 
ATOM     26  H   UNL     1     -43.567  39.926  29.080  1.00  0.00     0.071 H 
ATOM     27  C   UNL     1     -44.109  41.817  25.823  1.00  0.00     0.140 A 
ATOM     28  O   UNL     1     -41.666  41.505  28.394  1.00  0.00    -0.269 OA
ATOM     29  N   UNL     1     -42.921  42.042  26.510  1.00  0.00    -0.268 N 
ATOM     30  C   UNL     1     -44.302  42.564  24.547  1.00  0.00    -0.019 A 
ATOM     31  C   UNL     1     -41.967  42.927  26.018  1.00  0.00     0.014 A 
ATOM     32  C   UNL     1     -43.355  43.404  24.114  1.00  0.00    -0.057 A 
ATOM     33  H   UNL     1     -45.224  42.394  24.004  1.00  0.00     0.066 H 
ATOM     34  C   UNL     1     -42.148  43.594  24.872  1.00  0.00    -0.045 A 
ATOM     35  H   UNL     1     -41.062  43.054  26.607  1.00  0.00     0.082 H 
ATOM     36  H   UNL     1     -43.478  43.956  23.187  1.00  0.00     0.062 H 
ATOM     37  H   UNL     1     -41.397  44.282  24.498  1.00  0.00     0.064 H 
ENDBRANCH  20  22
ENDBRANCH  15  18
ENDBRANCH   1  15
BRANCH   6  38
ATOM     38  C   UNL     1     -46.267  31.555  24.120  1.00  0.00     0.039 C 
ATOM     39  H   UNL     1     -46.107  30.657  24.731  1.00  0.00     0.050 H 
ATOM     40  H   UNL     1     -45.305  31.791  23.646  1.00  0.00     0.050 H 
BRANCH  38  41
ATOM     41  N   UNL     1     -47.328  31.283  23.145  1.00  0.00    -0.297 NA
ATOM     42  C   UNL     1     -46.759  30.818  21.855  1.00  0.00     0.003 C 
ATOM     43  C   UNL     1     -47.901  29.936  23.367  1.00  0.00     0.003 C 
ATOM     44  C   UNL     1     -47.792  29.680  21.850  1.00  0.00    -0.013 C 
ATOM     45  H   UNL     1     -46.807  31.544  21.040  1.00  0.00     0.043 H 
ATOM     46  H   UNL     1     -45.725  30.446  21.897  1.00  0.00     0.043 H 
ATOM     47  H   UNL     1     -47.288  29.247  23.963  1.00  0.00     0.043 H 
ATOM     48  H   UNL     1     -48.912  29.939  23.787  1.00  0.00     0.043 H 
ATOM     49  H   UNL     1     -47.371  28.698  21.602  1.00  0.00     0.033 H 
BRANCH  44  50
ATOM     50  C   UNL     1     -49.129  29.928  21.129  1.00  0.00    -0.036 C 
ATOM     51  C   UNL     1     -49.102  30.278  19.624  1.00  0.00    -0.050 C 
ATOM     52  C   UNL     1     -49.829  28.608  20.731  1.00  0.00    -0.050 C 
ATOM     53  H   UNL     1     -49.792  30.591  21.703  1.00  0.00     0.031 H 
ATOM     54  C   UNL     1     -50.334  29.354  19.477  1.00  0.00    -0.053 C 
ATOM     55  H   UNL     1     -49.279  31.329  19.383  1.00  0.00     0.027 H 
ATOM     56  H   UNL     1     -48.250  29.926  19.036  1.00  0.00     0.027 H 
ATOM     57  H   UNL     1     -49.163  27.769  20.501  1.00  0.00     0.027 H 
ATOM     58  H   UNL     1     -50.607  28.260  21.417  1.00  0.00     0.027 H 
ATOM     59  H   UNL     1     -51.292  29.867  19.622  1.00  0.00     0.027 H 
ATOM     60  H   UNL     1     -50.379  28.764  18.559  1.00  0.00     0.027 H 
ENDBRANCH  44  50
ENDBRANCH  38  41
ENDBRANCH   6  38
TORSDOF 6
ENDMDL
MODEL 3
REMARK VINA RESULT:     -10.2      1.715      2.513
REMARK SMILES O=C(NCc1ccc2cc(CN3CC(C4CCC4)C3)[nH]c2c1)c1cc(=O)n2ccccc2n1
REMARK SMILES IDX 5 1 6 2 7 3 8 4 9 5 10 6 20 7 21 8 22 9 4 15 3 18 1 19 2 20
REMARK SMILES IDX 23 22 24 23 33 24 25 25 32 27 26 28 27 29 31 30 28 31 30 32
REMARK SMILES IDX 29 34 11 38 12 41 13 42 19 43 14 44 15 50 16 51 18 52 17 54
REMARK H PARENT 6 10 7 11 9 12 20 13 22 14 4 16 4 17 3 21 24 26 31 33 28 35
REMARK H PARENT 30 36 29 37 11 39 11 40 13 45 13 46 19 47 19 48 14 49 15 53
REMARK H PARENT 16 55 16 56 18 57 18 58 17 59 17 60
REMARK Flexibility Score: inf
ROOT
ATOM      1  C   UNL     1     -46.520  35.225  28.248  1.00  0.00    -0.027 A 
ATOM      2  C   UNL     1     -47.809  35.588  27.834  1.00  0.00    -0.057 A 
ATOM      3  C   UNL     1     -48.443  34.928  26.775  1.00  0.00    -0.052 A 
ATOM      4  C   UNL     1     -47.774  33.879  26.118  1.00  0.00    -0.000 A 
ATOM      5  C   UNL     1     -48.109  33.015  25.038  1.00  0.00    -0.032 A 
ATOM      6  C   UNL     1     -47.046  32.159  24.829  1.00  0.00     0.030 A 
ATOM      7  N   UNL     1     -46.078  32.488  25.748  1.00  0.00    -0.357 N 
ATOM      8  C   UNL     1     -46.496  33.526  26.546  1.00  0.00     0.046 A 
ATOM      9  C   UNL     1     -45.847  34.171  27.606  1.00  0.00    -0.033 A 
ATOM     10  H   UNL     1     -48.336  36.393  28.346  1.00  0.00     0.063 H 
ATOM     11  H   UNL     1     -49.441  35.224  26.468  1.00  0.00     0.063 H 
ATOM     12  H   UNL     1     -49.034  33.021  24.477  1.00  0.00     0.065 H 
ATOM     13  H   UNL     1     -45.198  31.997  25.834  1.00  0.00     0.166 HD
ATOM     14  H   UNL     1     -44.853  33.866  27.918  1.00  0.00     0.065 H 
ENDROOT
BRANCH   1  15
ATOM     15  C   UNL     1     -45.876  35.939  29.412  1.00  0.00     0.043 C 
ATOM     16  H   UNL     1     -46.616  36.142  30.192  1.00  0.00     0.054 H 
ATOM     17  H   UNL     1     -45.099  35.309  29.859  1.00  0.00     0.054 H 
BRANCH  15  18
ATOM     18  N   UNL     1     -45.331  37.205  28.995  1.00  0.00    -0.347 N 
ATOM     19  O   UNL     1     -44.957  38.057  31.101  1.00  0.00    -0.268 OA
ATOM     20  C   UNL     1     -44.847  38.134  29.882  1.00  0.00     0.270 C 
ATOM     21  H   UNL     1     -45.068  37.337  28.024  1.00  0.00     0.164 HD
BRANCH  20  22
ATOM     22  C   UNL     1     -44.138  39.274  29.189  1.00  0.00     0.136 A 
ATOM     23  C   UNL     1     -43.049  39.752  29.794  1.00  0.00     0.035 A 
ATOM     24  N   UNL     1     -44.643  39.739  27.995  1.00  0.00    -0.225 NA
ATOM     25  C   UNL     1     -42.326  40.857  29.152  1.00  0.00     0.258 A 
ATOM     26  H   UNL     1     -42.661  39.376  30.732  1.00  0.00     0.071 H 
ATOM     27  C   UNL     1     -43.997  40.713  27.430  1.00  0.00     0.140 A 
ATOM     28  O   UNL     1     -41.323  41.307  29.704  1.00  0.00    -0.269 OA
ATOM     29  N   UNL     1     -42.851  41.304  27.950  1.00  0.00    -0.268 N 
ATOM     30  C   UNL     1     -44.504  41.247  26.133  1.00  0.00    -0.019 A 
ATOM     31  C   UNL     1     -42.218  42.347  27.280  1.00  0.00     0.014 A 
ATOM     32  C   UNL     1     -43.860  42.251  25.526  1.00  0.00    -0.057 A 
ATOM     33  H   UNL     1     -45.395  40.791  25.720  1.00  0.00     0.066 H 
ATOM     34  C   UNL     1     -42.680  42.821  26.117  1.00  0.00    -0.045 A 
ATOM     35  H   UNL     1     -41.328  42.763  27.744  1.00  0.00     0.082 H 
ATOM     36  H   UNL     1     -44.213  42.653  24.582  1.00  0.00     0.062 H 
ATOM     37  H   UNL     1     -42.177  43.635  25.603  1.00  0.00     0.064 H 
ENDBRANCH  20  22
ENDBRANCH  15  18
ENDBRANCH   1  15
BRANCH   6  38
ATOM     38  C   UNL     1     -46.844  31.063  23.835  1.00  0.00     0.039 C 
ATOM     39  H   UNL     1     -45.773  31.027  23.594  1.00  0.00     0.050 H 
ATOM     40  H   UNL     1     -47.370  31.305  22.902  1.00  0.00     0.050 H 
BRANCH  38  41
ATOM     41  N   UNL     1     -47.248  29.770  24.395  1.00  0.00    -0.297 NA
ATOM     42  C   UNL     1     -48.607  29.847  24.988  1.00  0.00     0.003 C 
ATOM     43  C   UNL     1     -47.775  28.887  23.329  1.00  0.00     0.003 C 
ATOM     44  C   UNL     1     -48.966  28.549  24.248  1.00  0.00    -0.013 C 
ATOM     45  H   UNL     1     -48.636  29.827  26.081  1.00  0.00     0.043 H 
ATOM     46  H   UNL     1     -49.221  30.699  24.663  1.00  0.00     0.043 H 
ATOM     47  H   UNL     1     -48.078  29.387  22.400  1.00  0.00     0.043 H 
ATOM     48  H   UNL     1     -47.114  28.055  23.065  1.00  0.00     0.043 H 
ATOM     49  H   UNL     1     -49.935  28.582  23.736  1.00  0.00     0.033 H 
BRANCH  44  50
ATOM     50  C   UNL     1     -48.757  27.218  24.992  1.00  0.00    -0.036 C 
ATOM     51  C   UNL     1     -49.149  27.137  26.484  1.00  0.00    -0.050 C 
ATOM     52  C   UNL     1     -49.898  26.212  24.717  1.00  0.00    -0.050 C 
ATOM     53  H   UNL     1     -47.767  26.783  24.793  1.00  0.00     0.031 H 
ATOM     54  C   UNL     1     -49.708  25.729  26.171  1.00  0.00    -0.053 C 
ATOM     55  H   UNL     1     -48.315  27.159  27.191  1.00  0.00     0.027 H 
ATOM     56  H   UNL     1     -49.925  27.818  26.844  1.00  0.00     0.027 H 
ATOM     57  H   UNL     1     -50.884  26.654  24.530  1.00  0.00     0.027 H 
ATOM     58  H   UNL     1     -49.696  25.466  23.943  1.00  0.00     0.027 H 
ATOM     59  H   UNL     1     -48.970  24.926  26.278  1.00  0.00     0.027 H 
ATOM     60  H   UNL     1     -50.620  25.450  26.703  1.00  0.00     0.027 H 
ENDBRANCH  44  50
ENDBRANCH  38  41
ENDBRANCH   6  38
TORSDOF 6
ENDMDL
MODEL 4
REMARK VINA RESULT:     -10.2      2.748      4.733
REMARK SMILES O=C(NCc1ccc2cc(CN3CC(C4CCC4)C3)[nH]c2c1)c1cc(=O)n2ccccc2n1
REMARK SMILES IDX 5 1 6 2 7 3 8 4 9 5 10 6 20 7 21 8 22 9 4 15 3 18 1 19 2 20
REMARK SMILES IDX 23 22 24 23 33 24 25 25 32 27 26 28 27 29 31 30 28 31 30 32
REMARK SMILES IDX 29 34 11 38 12 41 13 42 19 43 14 44 15 50 16 51 18 52 17 54
REMARK H PARENT 6 10 7 11 9 12 20 13 22 14 4 16 4 17 3 21 24 26 31 33 28 35
REMARK H PARENT 30 36 29 37 11 39 11 40 13 45 13 46 19 47 19 48 14 49 15 53
REMARK H PARENT 16 55 16 56 18 57 18 58 17 59 17 60
REMARK Flexibility Score: inf
ROOT
ATOM      1  C   UNL     1     -45.407  37.716  28.266  1.00  0.00    -0.027 A 
ATOM      2  C   UNL     1     -46.421  38.163  27.408  1.00  0.00    -0.057 A 
ATOM      3  C   UNL     1     -47.175  37.262  26.645  1.00  0.00    -0.052 A 
ATOM      4  C   UNL     1     -46.911  35.884  26.747  1.00  0.00    -0.000 A 
ATOM      5  C   UNL     1     -47.467  34.723  26.140  1.00  0.00    -0.032 A 
ATOM      6  C   UNL     1     -46.800  33.621  26.637  1.00  0.00     0.030 A 
ATOM      7  N   UNL     1     -45.855  34.085  27.521  1.00  0.00    -0.357 N 
ATOM      8  C   UNL     1     -45.904  35.456  27.610  1.00  0.00     0.046 A 
ATOM      9  C   UNL     1     -45.142  36.340  28.383  1.00  0.00    -0.033 A 
ATOM     10  H   UNL     1     -46.637  39.228  27.332  1.00  0.00     0.063 H 
ATOM     11  H   UNL     1     -47.956  37.628  25.985  1.00  0.00     0.063 H 
ATOM     12  H   UNL     1     -48.271  34.702  25.417  1.00  0.00     0.065 H 
ATOM     13  H   UNL     1     -45.241  33.482  28.051  1.00  0.00     0.166 HD
ATOM     14  H   UNL     1     -44.369  35.972  29.050  1.00  0.00     0.065 H 
ENDROOT
BRANCH   1  15
ATOM     15  C   UNL     1     -44.631  38.711  29.094  1.00  0.00     0.043 C 
ATOM     16  H   UNL     1     -45.169  38.938  30.020  1.00  0.00     0.054 H 
ATOM     17  H   UNL     1     -43.659  38.291  29.378  1.00  0.00     0.054 H 
BRANCH  15  18
ATOM     18  N   UNL     1     -44.464  39.950  28.379  1.00  0.00    -0.347 N 
ATOM     19  O   UNL     1     -42.430  40.527  29.288  1.00  0.00    -0.268 OA
ATOM     20  C   UNL     1     -43.334  40.722  28.484  1.00  0.00     0.270 C 
ATOM     21  H   UNL     1     -45.073  40.157  27.595  1.00  0.00     0.164 HD
BRANCH  20  22
ATOM     22  C   UNL     1     -43.314  41.849  27.479  1.00  0.00     0.136 A 
ATOM     23  C   UNL     1     -42.168  42.037  26.820  1.00  0.00     0.035 A 
ATOM     24  N   UNL     1     -44.457  42.596  27.298  1.00  0.00    -0.225 NA
ATOM     25  C   UNL     1     -42.107  43.118  25.828  1.00  0.00     0.258 A 
ATOM     26  H   UNL     1     -41.278  41.441  26.969  1.00  0.00     0.071 H 
ATOM     27  C   UNL     1     -44.397  43.547  26.417  1.00  0.00     0.140 A 
ATOM     28  O   UNL     1     -41.054  43.302  25.219  1.00  0.00    -0.269 OA
ATOM     29  N   UNL     1     -43.270  43.853  25.662  1.00  0.00    -0.268 N 
ATOM     30  C   UNL     1     -45.612  44.381  26.184  1.00  0.00    -0.019 A 
ATOM     31  C   UNL     1     -43.289  44.892  24.737  1.00  0.00     0.014 A 
ATOM     32  C   UNL     1     -45.581  45.370  25.283  1.00  0.00    -0.057 A 
ATOM     33  H   UNL     1     -46.495  44.149  26.767  1.00  0.00     0.066 H 
ATOM     34  C   UNL     1     -44.383  45.636  24.535  1.00  0.00    -0.045 A 
ATOM     35  H   UNL     1     -42.373  45.076  24.183  1.00  0.00     0.082 H 
ATOM     36  H   UNL     1     -46.455  45.987  25.100  1.00  0.00     0.062 H 
ATOM     37  H   UNL     1     -44.386  46.445  23.810  1.00  0.00     0.064 H 
ENDBRANCH  20  22
ENDBRANCH  15  18
ENDBRANCH   1  15
BRANCH   6  38
ATOM     38  C   UNL     1     -46.957  32.163  26.352  1.00  0.00     0.039 C 
ATOM     39  H   UNL     1     -47.627  31.746  27.114  1.00  0.00     0.050 H 
ATOM     40  H   UNL     1     -45.991  31.655  26.467  1.00  0.00     0.050 H 
BRANCH  38  41
ATOM     41  N   UNL     1     -47.554  31.952  25.029  1.00  0.00    -0.297 NA
ATOM     42  C   UNL     1     -46.554  31.411  24.074  1.00  0.00     0.003 C 
ATOM     43  C   UNL     1     -48.277  30.660  24.989  1.00  0.00     0.003 C 
ATOM     44  C   UNL     1     -47.588  30.358  23.642  1.00  0.00    -0.013 C 
ATOM     45  H   UNL     1     -46.211  32.118  23.315  1.00  0.00     0.043 H 
ATOM     46  H   UNL     1     -45.660  30.959  24.525  1.00  0.00     0.043 H 
ATOM     47  H   UNL     1     -48.015  29.940  25.775  1.00  0.00     0.043 H 
ATOM     48  H   UNL     1     -49.368  30.754  24.965  1.00  0.00     0.043 H 
ATOM     49  H   UNL     1     -47.186  29.340  23.576  1.00  0.00     0.033 H 
BRANCH  44  50
ATOM     50  C   UNL     1     -48.496  30.694  22.446  1.00  0.00    -0.036 C 
ATOM     51  C   UNL     1     -47.868  30.754  21.035  1.00  0.00    -0.050 C 
ATOM     52  C   UNL     1     -49.291  29.461  21.955  1.00  0.00    -0.050 C 
ATOM     53  H   UNL     1     -49.152  31.552  22.651  1.00  0.00     0.031 H 
ATOM     54  C   UNL     1     -49.144  30.040  20.531  1.00  0.00    -0.053 C 
ATOM     55  H   UNL     1     -47.708  31.758  20.635  1.00  0.00     0.027 H 
ATOM     56  H   UNL     1     -46.966  30.161  20.855  1.00  0.00     0.027 H 
ATOM     57  H   UNL     1     -48.792  28.494  22.085  1.00  0.00     0.027 H 
ATOM     58  H   UNL     1     -50.316  29.380  22.327  1.00  0.00     0.027 H 
ATOM     59  H   UNL     1     -49.951  30.725  20.247  1.00  0.00     0.027 H 
ATOM     60  H   UNL     1     -48.997  29.309  19.733  1.00  0.00     0.027 H 
ENDBRANCH  44  50
ENDBRANCH  38  41
ENDBRANCH   6  38
TORSDOF 6
ENDMDL
MODEL 5
REMARK VINA RESULT:     -10.2      1.869      2.762
REMARK SMILES O=C(NCc1ccc2cc(CN3CC(C4CCC4)C3)[nH]c2c1)c1cc(=O)n2ccccc2n1
REMARK SMILES IDX 5 1 6 2 7 3 8 4 9 5 10 6 20 7 21 8 22 9 4 15 3 18 1 19 2 20
REMARK SMILES IDX 23 22 24 23 33 24 25 25 32 27 26 28 27 29 31 30 28 31 30 32
REMARK SMILES IDX 29 34 11 38 12 41 13 42 19 43 14 44 15 50 16 51 18 52 17 54
REMARK H PARENT 6 10 7 11 9 12 20 13 22 14 4 16 4 17 3 21 24 26 31 33 28 35
REMARK H PARENT 30 36 29 37 11 39 11 40 13 45 13 46 19 47 19 48 14 49 15 53
REMARK H PARENT 16 55 16 56 18 57 18 58 17 59 17 60
REMARK Flexibility Score: inf
ROOT
ATOM      1  C   UNL     1     -47.111  36.318  27.818  1.00  0.00    -0.027 A 
ATOM      2  C   UNL     1     -45.885  35.655  27.963  1.00  0.00    -0.057 A 
ATOM      3  C   UNL     1     -45.696  34.363  27.457  1.00  0.00    -0.052 A 
ATOM      4  C   UNL     1     -46.755  33.723  26.788  1.00  0.00    -0.000 A 
ATOM      5  C   UNL     1     -46.907  32.453  26.164  1.00  0.00    -0.032 A 
ATOM      6  C   UNL     1     -48.189  32.376  25.658  1.00  0.00     0.030 A 
ATOM      7  N   UNL     1     -48.815  33.562  25.964  1.00  0.00    -0.357 N 
ATOM      8  C   UNL     1     -47.965  34.399  26.647  1.00  0.00     0.046 A 
ATOM      9  C   UNL     1     -48.173  35.692  27.141  1.00  0.00    -0.033 A 
ATOM     10  H   UNL     1     -45.058  36.149  28.472  1.00  0.00     0.063 H 
ATOM     11  H   UNL     1     -44.739  33.865  27.581  1.00  0.00     0.063 H 
ATOM     12  H   UNL     1     -46.153  31.680  26.095  1.00  0.00     0.065 H 
ATOM     13  H   UNL     1     -49.761  33.783  25.685  1.00  0.00     0.166 HD
ATOM     14  H   UNL     1     -49.127  36.192  27.008  1.00  0.00     0.065 H 
ENDROOT
BRANCH   1  15
ATOM     15  C   UNL     1     -47.274  37.721  28.351  1.00  0.00     0.043 C 
ATOM     16  H   UNL     1     -48.229  38.145  28.023  1.00  0.00     0.054 H 
ATOM     17  H   UNL     1     -47.283  37.711  29.447  1.00  0.00     0.054 H 
BRANCH  15  18
ATOM     18  N   UNL     1     -46.229  38.580  27.857  1.00  0.00    -0.347 N 
ATOM     19  O   UNL     1     -47.493  39.682  26.281  1.00  0.00    -0.268 OA
ATOM     20  C   UNL     1     -46.448  39.545  26.906  1.00  0.00     0.270 C 
ATOM     21  H   UNL     1     -45.361  38.654  28.376  1.00  0.00     0.164 HD
BRANCH  20  22
ATOM     22  C   UNL     1     -45.251  40.447  26.718  1.00  0.00     0.136 A 
ATOM     23  C   UNL     1     -44.317  40.401  27.670  1.00  0.00     0.035 A 
ATOM     24  N   UNL     1     -45.190  41.241  25.593  1.00  0.00    -0.225 NA
ATOM     25  C   UNL     1     -43.133  41.257  27.524  1.00  0.00     0.258 A 
ATOM     26  H   UNL     1     -44.376  39.771  28.548  1.00  0.00     0.071 H 
ATOM     27  C   UNL     1     -44.139  41.991  25.467  1.00  0.00     0.140 A 
ATOM     28  O   UNL     1     -42.269  41.225  28.399  1.00  0.00    -0.269 OA
ATOM     29  N   UNL     1     -43.093  42.043  26.383  1.00  0.00    -0.268 N 
ATOM     30  C   UNL     1     -44.026  42.865  24.264  1.00  0.00    -0.019 A 
ATOM     31  C   UNL     1     -42.000  42.878  26.173  1.00  0.00     0.014 A 
ATOM     32  C   UNL     1     -42.955  43.651  24.106  1.00  0.00    -0.057 A 
ATOM     33  H   UNL     1     -44.836  42.830  23.545  1.00  0.00     0.066 H 
ATOM     34  C   UNL     1     -41.907  43.660  25.091  1.00  0.00    -0.045 A 
ATOM     35  H   UNL     1     -41.220  42.868  26.929  1.00  0.00     0.082 H 
ATOM     36  H   UNL     1     -42.855  44.294  23.237  1.00  0.00     0.062 H 
ATOM     37  H   UNL     1     -41.049  44.308  24.937  1.00  0.00     0.064 H 
ENDBRANCH  20  22
ENDBRANCH  15  18
ENDBRANCH   1  15
BRANCH   6  38
ATOM     38  C   UNL     1     -48.893  31.286  24.919  1.00  0.00     0.039 C 
ATOM     39  H   UNL     1     -48.557  31.322  23.875  1.00  0.00     0.050 H 
ATOM     40  H   UNL     1     -49.974  31.480  24.911  1.00  0.00     0.050 H 
BRANCH  38  41
ATOM     41  N   UNL     1     -48.557  29.974  25.481  1.00  0.00    -0.297 NA
ATOM     42  C   UNL     1     -49.613  28.976  25.173  1.00  0.00     0.003 C 
ATOM     43  C   UNL     1     -47.626  29.251  24.584  1.00  0.00     0.003 C 
ATOM     44  C   UNL     1     -48.511  27.997  24.737  1.00  0.00    -0.013 C 
ATOM     45  H   UNL     1     -50.236  28.685  26.022  1.00  0.00     0.043 H 
ATOM     46  H   UNL     1     -50.290  29.239  24.348  1.00  0.00     0.043 H 
ATOM     47  H   UNL     1     -47.576  29.618  23.551  1.00  0.00     0.043 H 
ATOM     48  H   UNL     1     -46.603  29.172  24.966  1.00  0.00     0.043 H 
ATOM     49  H   UNL     1     -48.716  27.490  23.787  1.00  0.00     0.033 H 
BRANCH  44  50
ATOM     50  C   UNL     1     -47.954  27.027  25.794  1.00  0.00    -0.036 C 
ATOM     51  C   UNL     1     -48.657  25.666  25.991  1.00  0.00    -0.050 C 
ATOM     52  C   UNL     1     -46.734  26.234  25.272  1.00  0.00    -0.050 C 
ATOM     53  H   UNL     1     -47.740  27.532  26.748  1.00  0.00     0.031 H 
ATOM     54  C   UNL     1     -47.244  25.053  26.125  1.00  0.00    -0.053 C 
ATOM     55  H   UNL     1     -49.285  25.586  26.883  1.00  0.00     0.027 H 
ATOM     56  H   UNL     1     -49.208  25.251  25.142  1.00  0.00     0.027 H 
ATOM     57  H   UNL     1     -46.731  26.025  24.195  1.00  0.00     0.027 H 
ATOM     58  H   UNL     1     -45.754  26.631  25.554  1.00  0.00     0.027 H 
ATOM     59  H   UNL     1     -46.858  25.050  27.151  1.00  0.00     0.027 H 
ATOM     60  H   UNL     1     -47.112  24.060  25.690  1.00  0.00     0.027 H 
ENDBRANCH  44  50
ENDBRANCH  38  41
ENDBRANCH   6  38
TORSDOF 6
ENDMDL
MODEL 6
REMARK VINA RESULT:     -10.1      2.867     11.747
REMARK SMILES O=C(NCc1ccc2cc(CN3CC(C4CCC4)C3)[nH]c2c1)c1cc(=O)n2ccccc2n1
REMARK SMILES IDX 5 1 6 2 7 3 8 4 9 5 10 6 20 7 21 8 22 9 4 15 3 18 1 19 2 20
REMARK SMILES IDX 23 22 24 23 33 24 25 25 32 27 26 28 27 29 31 30 28 31 30 32
REMARK SMILES IDX 29 34 11 38 12 41 13 42 19 43 14 44 15 50 16 51 18 52 17 54
REMARK H PARENT 6 10 7 11 9 12 20 13 22 14 4 16 4 17 3 21 24 26 31 33 28 35
REMARK H PARENT 30 36 29 37 11 39 11 40 13 45 13 46 19 47 19 48 14 49 15 53
REMARK H PARENT 16 55 16 56 18 57 18 58 17 59 17 60
REMARK Flexibility Score: inf
ROOT
ATOM      1  C   UNL     1     -46.336  33.537  25.878  1.00  0.00    -0.027 A 
ATOM      2  C   UNL     1     -46.081  33.169  27.206  1.00  0.00    -0.057 A 
ATOM      3  C   UNL     1     -46.192  34.096  28.249  1.00  0.00    -0.052 A 
ATOM      4  C   UNL     1     -46.570  35.419  27.958  1.00  0.00    -0.000 A 
ATOM      5  C   UNL     1     -46.777  36.586  28.746  1.00  0.00    -0.032 A 
ATOM      6  C   UNL     1     -47.153  37.611  27.902  1.00  0.00     0.030 A 
ATOM      7  N   UNL     1     -47.172  37.097  26.627  1.00  0.00    -0.357 N 
ATOM      8  C   UNL     1     -46.826  35.767  26.633  1.00  0.00     0.046 A 
ATOM      9  C   UNL     1     -46.725  34.854  25.576  1.00  0.00    -0.033 A 
ATOM     10  H   UNL     1     -45.798  32.143  27.439  1.00  0.00     0.063 H 
ATOM     11  H   UNL     1     -45.989  33.792  29.272  1.00  0.00     0.063 H 
ATOM     12  H   UNL     1     -46.663  36.660  29.820  1.00  0.00     0.065 H 
ATOM     13  H   UNL     1     -47.441  37.632  25.812  1.00  0.00     0.166 HD
ATOM     14  H   UNL     1     -46.938  35.157  24.556  1.00  0.00     0.065 H 
ENDROOT
BRANCH   1  15
ATOM     15  C   UNL     1     -46.233  32.506  24.780  1.00  0.00     0.043 C 
ATOM     16  H   UNL     1     -46.516  32.945  23.818  1.00  0.00     0.054 H 
ATOM     17  H   UNL     1     -45.199  32.155  24.685  1.00  0.00     0.054 H 
BRANCH  15  18
ATOM     18  N   UNL     1     -47.126  31.404  25.030  1.00  0.00    -0.347 N 
ATOM     19  O   UNL     1     -48.541  31.781  23.253  1.00  0.00    -0.268 OA
ATOM     20  C   UNL     1     -48.170  31.090  24.195  1.00  0.00     0.270 C 
ATOM     21  H   UNL     1     -46.857  30.688  25.695  1.00  0.00     0.164 HD
BRANCH  20  22
ATOM     22  C   UNL     1     -48.818  29.774  24.557  1.00  0.00     0.136 A 
ATOM     23  C   UNL     1     -50.096  29.625  24.206  1.00  0.00     0.035 A 
ATOM     24  N   UNL     1     -48.064  28.822  25.208  1.00  0.00    -0.225 NA
ATOM     25  C   UNL     1     -50.763  28.358  24.533  1.00  0.00     0.258 A 
ATOM     26  H   UNL     1     -50.677  30.380  23.693  1.00  0.00     0.071 H 
ATOM     27  C   UNL     1     -48.657  27.703  25.490  1.00  0.00     0.140 A 
ATOM     28  O   UNL     1     -51.943  28.213  24.217  1.00  0.00    -0.269 OA
ATOM     29  N   UNL     1     -49.983  27.415  25.184  1.00  0.00    -0.268 N 
ATOM     30  C   UNL     1     -47.881  26.640  26.190  1.00  0.00    -0.019 A 
ATOM     31  C   UNL     1     -50.545  26.188  25.524  1.00  0.00     0.014 A 
ATOM     32  C   UNL     1     -48.465  25.476  26.496  1.00  0.00    -0.057 A 
ATOM     33  H   UNL     1     -46.847  26.855  26.431  1.00  0.00     0.066 H 
ATOM     34  C   UNL     1     -49.841  25.240  26.153  1.00  0.00    -0.045 A 
ATOM     35  H   UNL     1     -51.586  26.032  25.254  1.00  0.00     0.082 H 
ATOM     36  H   UNL     1     -47.916  24.690  27.005  1.00  0.00     0.062 H 
ATOM     37  H   UNL     1     -50.290  24.287  26.413  1.00  0.00     0.064 H 
ENDBRANCH  20  22
ENDBRANCH  15  18
ENDBRANCH   1  15
BRANCH   6  38
ATOM     38  C   UNL     1     -47.486  39.041  28.176  1.00  0.00     0.039 C 
ATOM     39  H   UNL     1     -48.081  39.072  29.098  1.00  0.00     0.050 H 
ATOM     40  H   UNL     1     -48.125  39.435  27.374  1.00  0.00     0.050 H 
BRANCH  38  41
ATOM     41  N   UNL     1     -46.267  39.833  28.370  1.00  0.00    -0.297 NA
ATOM     42  C   UNL     1     -45.066  38.961  28.410  1.00  0.00     0.003 C 
ATOM     43  C   UNL     1     -45.805  40.394  27.080  1.00  0.00     0.003 C 
ATOM     44  C   UNL     1     -44.379  39.924  27.428  1.00  0.00    -0.013 C 
ATOM     45  H   UNL     1     -44.614  38.843  29.398  1.00  0.00     0.043 H 
ATOM     46  H   UNL     1     -45.195  37.954  27.988  1.00  0.00     0.043 H 
ATOM     47  H   UNL     1     -46.207  39.915  26.178  1.00  0.00     0.043 H 
ATOM     48  H   UNL     1     -45.949  41.475  26.981  1.00  0.00     0.043 H 
ATOM     49  H   UNL     1     -43.869  39.423  26.597  1.00  0.00     0.033 H 
BRANCH  44  50
ATOM     50  C   UNL     1     -43.528  41.062  28.018  1.00  0.00    -0.036 C 
ATOM     51  C   UNL     1     -42.562  40.737  29.180  1.00  0.00    -0.050 C 
ATOM     52  C   UNL     1     -42.274  41.356  27.161  1.00  0.00    -0.050 C 
ATOM     53  H   UNL     1     -44.120  41.969  28.206  1.00  0.00     0.031 H 
ATOM     54  C   UNL     1     -41.548  41.677  28.486  1.00  0.00    -0.053 C 
ATOM     55  H   UNL     1     -42.893  41.060  30.170  1.00  0.00     0.027 H 
ATOM     56  H   UNL     1     -42.187  39.712  29.257  1.00  0.00     0.027 H 
ATOM     57  H   UNL     1     -41.852  40.495  26.630  1.00  0.00     0.027 H 
ATOM     58  H   UNL     1     -42.365  42.191  26.460  1.00  0.00     0.027 H 
ATOM     59  H   UNL     1     -41.634  42.725  28.795  1.00  0.00     0.027 H 
ATOM     60  H   UNL     1     -40.501  41.371  28.540  1.00  0.00     0.027 H 
ENDBRANCH  44  50
ENDBRANCH  38  41
ENDBRANCH   6  38
TORSDOF 6
ENDMDL
MODEL 7
REMARK VINA RESULT:     -10.0      2.966     11.894
REMARK SMILES O=C(NCc1ccc2cc(CN3CC(C4CCC4)C3)[nH]c2c1)c1cc(=O)n2ccccc2n1
REMARK SMILES IDX 5 1 6 2 7 3 8 4 9 5 10 6 20 7 21 8 22 9 4 15 3 18 1 19 2 20
REMARK SMILES IDX 23 22 24 23 33 24 25 25 32 27 26 28 27 29 31 30 28 31 30 32
REMARK SMILES IDX 29 34 11 38 12 41 13 42 19 43 14 44 15 50 16 51 18 52 17 54
REMARK H PARENT 6 10 7 11 9 12 20 13 22 14 4 16 4 17 3 21 24 26 31 33 28 35
REMARK H PARENT 30 36 29 37 11 39 11 40 13 45 13 46 19 47 19 48 14 49 15 53
REMARK H PARENT 16 55 16 56 18 57 18 58 17 59 17 60
REMARK Flexibility Score: inf
ROOT
ATOM      1  C   UNL     1     -48.133  34.092  26.479  1.00  0.00    -0.027 A 
ATOM      2  C   UNL     1     -46.900  33.500  26.786  1.00  0.00    -0.057 A 
ATOM      3  C   UNL     1     -45.836  34.260  27.287  1.00  0.00    -0.052 A 
ATOM      4  C   UNL     1     -46.011  35.641  27.490  1.00  0.00    -0.000 A 
ATOM      5  C   UNL     1     -45.172  36.684  27.972  1.00  0.00    -0.032 A 
ATOM      6  C   UNL     1     -45.897  37.858  27.957  1.00  0.00     0.030 A 
ATOM      7  N   UNL     1     -47.148  37.553  27.474  1.00  0.00    -0.357 N 
ATOM      8  C   UNL     1     -47.245  36.212  27.186  1.00  0.00     0.046 A 
ATOM      9  C   UNL     1     -48.323  35.470  26.688  1.00  0.00    -0.033 A 
ATOM     10  H   UNL     1     -46.762  32.429  26.641  1.00  0.00     0.063 H 
ATOM     11  H   UNL     1     -44.888  33.784  27.518  1.00  0.00     0.063 H 
ATOM     12  H   UNL     1     -44.145  36.580  28.296  1.00  0.00     0.065 H 
ATOM     13  H   UNL     1     -47.893  38.230  27.383  1.00  0.00     0.166 HD
ATOM     14  H   UNL     1     -49.272  35.946  26.468  1.00  0.00     0.065 H 
ENDROOT
BRANCH   1  15
ATOM     15  C   UNL     1     -49.268  33.240  25.967  1.00  0.00     0.043 C 
ATOM     16  H   UNL     1     -50.118  33.281  26.656  1.00  0.00     0.054 H 
ATOM     17  H   UNL     1     -49.618  33.618  24.999  1.00  0.00     0.054 H 
BRANCH  15  18
ATOM     18  N   UNL     1     -48.865  31.861  25.862  1.00  0.00    -0.347 N 
ATOM     19  O   UNL     1     -49.985  31.389  23.907  1.00  0.00    -0.268 OA
ATOM     20  C   UNL     1     -49.201  31.068  24.794  1.00  0.00     0.270 C 
ATOM     21  H   UNL     1     -48.119  31.516  26.457  1.00  0.00     0.164 HD
BRANCH  20  22
ATOM     22  C   UNL     1     -48.483  29.740  24.818  1.00  0.00     0.136 A 
ATOM     23  C   UNL     1     -47.498  29.581  23.931  1.00  0.00     0.035 A 
ATOM     24  N   UNL     1     -48.873  28.792  25.739  1.00  0.00    -0.225 NA
ATOM     25  C   UNL     1     -46.768  28.307  23.924  1.00  0.00     0.258 A 
ATOM     26  H   UNL     1     -47.199  30.335  23.215  1.00  0.00     0.071 H 
ATOM     27  C   UNL     1     -48.221  27.670  25.731  1.00  0.00     0.140 A 
ATOM     28  O   UNL     1     -45.861  28.150  23.108  1.00  0.00    -0.269 OA
ATOM     29  N   UNL     1     -47.176  27.372  24.862  1.00  0.00    -0.268 N 
ATOM     30  C   UNL     1     -48.604  26.615  26.712  1.00  0.00    -0.019 A 
ATOM     31  C   UNL     1     -46.529  26.141  24.918  1.00  0.00     0.014 A 
ATOM     32  C   UNL     1     -47.952  25.446  26.728  1.00  0.00    -0.057 A 
ATOM     33  H   UNL     1     -49.416  26.839  27.393  1.00  0.00     0.066 H 
ATOM     34  C   UNL     1     -46.880  25.199  25.802  1.00  0.00    -0.045 A 
ATOM     35  H   UNL     1     -45.722  25.976  24.210  1.00  0.00     0.082 H 
ATOM     36  H   UNL     1     -48.216  24.667  27.435  1.00  0.00     0.062 H 
ATOM     37  H   UNL     1     -46.368  24.242  25.836  1.00  0.00     0.064 H 
ENDBRANCH  20  22
ENDBRANCH  15  18
ENDBRANCH   1  15
BRANCH   6  38
ATOM     38  C   UNL     1     -45.525  39.252  28.343  1.00  0.00     0.039 C 
ATOM     39  H   UNL     1     -44.840  39.188  29.198  1.00  0.00     0.050 H 
ATOM     40  H   UNL     1     -46.415  39.793  28.691  1.00  0.00     0.050 H 
BRANCH  38  41
ATOM     41  N   UNL     1     -44.843  39.935  27.239  1.00  0.00    -0.297 NA
ATOM     42  C   UNL     1     -45.617  41.118  26.786  1.00  0.00     0.003 C 
ATOM     43  C   UNL     1     -43.790  40.837  27.761  1.00  0.00     0.003 C 
ATOM     44  C   UNL     1     -44.317  41.937  26.818  1.00  0.00    -0.013 C 
ATOM     45  H   UNL     1     -46.114  41.002  25.819  1.00  0.00     0.043 H 
ATOM     46  H   UNL     1     -46.368  41.496  27.493  1.00  0.00     0.043 H 
ATOM     47  H   UNL     1     -43.873  41.105  28.823  1.00  0.00     0.043 H 
ATOM     48  H   UNL     1     -42.768  40.490  27.579  1.00  0.00     0.043 H 
ATOM     49  H   UNL     1     -44.419  42.916  27.303  1.00  0.00     0.033 H 
BRANCH  44  50
ATOM     50  C   UNL     1     -43.492  42.025  25.522  1.00  0.00    -0.036 C 
ATOM     51  C   UNL     1     -44.137  42.677  24.279  1.00  0.00    -0.050 C 
ATOM     52  C   UNL     1     -42.505  43.216  25.539  1.00  0.00    -0.050 C 
ATOM     53  H   UNL     1     -42.989  41.077  25.286  1.00  0.00     0.031 H 
ATOM     54  C   UNL     1     -42.764  43.342  24.023  1.00  0.00    -0.053 C 
ATOM     55  H   UNL     1     -44.469  41.982  23.503  1.00  0.00     0.027 H 
ATOM     56  H   UNL     1     -44.927  43.415  24.444  1.00  0.00     0.027 H 
ATOM     57  H   UNL     1     -42.832  44.093  26.111  1.00  0.00     0.027 H 
ATOM     58  H   UNL     1     -41.477  42.976  25.823  1.00  0.00     0.027 H 
ATOM     59  H   UNL     1     -42.088  42.738  23.407  1.00  0.00     0.027 H 
ATOM     60  H   UNL     1     -42.794  44.360  23.628  1.00  0.00     0.027 H 
ENDBRANCH  44  50
ENDBRANCH  38  41
ENDBRANCH   6  38
TORSDOF 6
ENDMDL
