MODEL 1
REMARK VINA RESULT:     -10.5      0.000      0.000
REMARK SMILES CNc1ccc2ccc(OC[C@H]3O[C@@H](n4cc(-c5ccn(C)n5)c5c(N)ncnc54)[C@@H](F)[C@@H]3O)cc2n1
REMARK SMILES IDX 11 1 10 4 9 5 3 6 4 7 37 8 5 9 36 11 6 12 35 14 7 15 8 17
REMARK SMILES IDX 2 20 1 22 12 26 13 27 33 28 14 30 31 31 32 34 34 36 15 38
REMARK SMILES IDX 16 39 30 40 17 41 24 43 29 44 25 45 28 46 27 47 18 49 19 50
REMARK SMILES IDX 23 51 20 52 21 54 22 56 26 60
REMARK H PARENT 11 2 11 3 4 10 5 13 35 16 7 18 8 19 2 21 1 23 1 24 1 25 12 29
REMARK H PARENT 33 32 14 33 31 35 34 37 16 42 28 48 19 53 20 55 22 57 22 58
REMARK H PARENT 22 59 26 61 26 62
REMARK Flexibility Score: inf
ROOT
ATOM      1  C   UNL     1     -47.016  36.177  27.063  1.00  0.00     0.117 C 
ATOM      2  H   UNL     1     -47.388  37.205  26.983  1.00  0.00     0.073 H 
ATOM      3  H   UNL     1     -46.463  35.940  26.145  1.00  0.00     0.073 H 
ENDROOT
BRANCH   1   4
ATOM      4  O   UNL     1     -48.095  35.259  27.242  1.00  0.00    -0.491 OA
BRANCH   4   5
ATOM      5  C   UNL     1     -48.124  34.166  26.417  1.00  0.00     0.121 A 
ATOM      6  C   UNL     1     -46.232  30.981  23.440  1.00  0.00     0.126 A 
ATOM      7  C   UNL     1     -47.440  30.313  23.294  1.00  0.00    -0.019 A 
ATOM      8  N   UNL     1     -46.096  32.060  24.233  1.00  0.00    -0.231 NA
ATOM      9  C   UNL     1     -48.557  30.786  23.974  1.00  0.00    -0.049 A 
ATOM     10  H   UNL     1     -47.512  29.425  22.677  1.00  0.00     0.066 H 
ATOM     11  C   UNL     1     -47.174  32.523  24.894  1.00  0.00     0.076 A 
ATOM     12  C   UNL     1     -48.439  31.913  24.792  1.00  0.00     0.001 A 
ATOM     13  H   UNL     1     -49.506  30.268  23.868  1.00  0.00     0.063 H 
ATOM     14  C   UNL     1     -47.040  33.643  25.708  1.00  0.00     0.007 A 
ATOM     15  C   UNL     1     -49.533  32.431  25.500  1.00  0.00    -0.049 A 
ATOM     16  H   UNL     1     -46.054  34.089  25.766  1.00  0.00     0.069 H 
ATOM     17  C   UNL     1     -49.371  33.554  26.308  1.00  0.00    -0.019 A 
ATOM     18  H   UNL     1     -50.513  31.966  25.427  1.00  0.00     0.063 H 
ATOM     19  H   UNL     1     -50.222  33.953  26.855  1.00  0.00     0.066 H 
BRANCH   6  20
ATOM     20  N   UNL     1     -45.067  30.557  22.800  1.00  0.00    -0.373 N 
ATOM     21  H   UNL     1     -45.000  31.172  21.988  1.00  0.00     0.161 HD
BRANCH  20  22
ATOM     22  C   UNL     1     -45.084  29.160  22.401  1.00  0.00     0.005 C 
ATOM     23  H   UNL     1     -44.841  28.538  23.268  1.00  0.00     0.045 H 
ATOM     24  H   UNL     1     -44.340  28.954  21.623  1.00  0.00     0.045 H 
ATOM     25  H   UNL     1     -46.073  28.851  22.047  1.00  0.00     0.045 H 
ENDBRANCH  20  22
ENDBRANCH   6  20
ENDBRANCH   4   5
ENDBRANCH   1   4
BRANCH   1  26
ATOM     26  C   UNL     1     -46.061  36.047  28.255  1.00  0.00     0.123 C 
ATOM     27  O   UNL     1     -44.922  36.906  28.034  1.00  0.00    -0.345 OA
ATOM     28  C   UNL     1     -46.694  36.466  29.587  1.00  0.00     0.119 C 
ATOM     29  H   UNL     1     -45.694  35.016  28.315  1.00  0.00     0.067 H 
ATOM     30  C   UNL     1     -44.956  37.952  29.037  1.00  0.00     0.169 C 
ATOM     31  C   UNL     1     -46.343  37.934  29.664  1.00  0.00     0.173 C 
ATOM     32  H   UNL     1     -47.771  36.285  29.636  1.00  0.00     0.066 H 
ATOM     33  H   UNL     1     -44.182  37.696  29.772  1.00  0.00     0.088 H 
ATOM     34  F   UNL     1     -47.235  38.624  28.898  1.00  0.00    -0.239 F 
ATOM     35  H   UNL     1     -46.358  38.352  30.674  1.00  0.00     0.074 H 
BRANCH  28  36
ATOM     36  O   UNL     1     -46.078  35.778  30.681  1.00  0.00    -0.387 OA
ATOM     37  H   UNL     1     -45.154  35.594  30.429  1.00  0.00     0.211 HD
ENDBRANCH  28  36
BRANCH  30  38
ATOM     38  N   UNL     1     -44.593  39.228  28.445  1.00  0.00    -0.302 N 
ATOM     39  C   UNL     1     -45.199  39.857  27.387  1.00  0.00     0.019 A 
ATOM     40  C   UNL     1     -43.556  40.001  28.905  1.00  0.00     0.148 A 
ATOM     41  C   UNL     1     -44.542  41.055  27.166  1.00  0.00     0.033 A 
ATOM     42  H   UNL     1     -46.050  39.412  26.890  1.00  0.00     0.083 H 
ATOM     43  C   UNL     1     -43.477  41.145  28.118  1.00  0.00     0.071 A 
ATOM     44  N   UNL     1     -42.768  39.679  29.945  1.00  0.00    -0.218 NA
ATOM     45  C   UNL     1     -42.440  42.040  28.439  1.00  0.00     0.137 A 
ATOM     46  C   UNL     1     -41.839  40.623  30.167  1.00  0.00     0.120 A 
ATOM     47  N   UNL     1     -41.639  41.766  29.490  1.00  0.00    -0.219 NA
ATOM     48  H   UNL     1     -41.162  40.441  30.997  1.00  0.00     0.106 H 
BRANCH  41  49
ATOM     49  C   UNL     1     -44.890  42.053  26.150  1.00  0.00     0.095 A 
ATOM     50  C   UNL     1     -44.207  42.215  24.922  1.00  0.00    -0.016 A 
ATOM     51  N   UNL     1     -45.916  42.909  26.260  1.00  0.00    -0.173 NA
ATOM     52  C   UNL     1     -44.865  43.237  24.278  1.00  0.00     0.025 A 
ATOM     53  H   UNL     1     -43.350  41.668  24.557  1.00  0.00     0.066 H 
ATOM     54  N   UNL     1     -45.870  43.618  25.115  1.00  0.00    -0.275 N 
ATOM     55  H   UNL     1     -44.701  43.710  23.320  1.00  0.00     0.084 H 
BRANCH  54  56
ATOM     56  C   UNL     1     -46.839  44.663  24.888  1.00  0.00     0.030 C 
ATOM     57  H   UNL     1     -47.045  44.713  23.817  1.00  0.00     0.048 H 
ATOM     58  H   UNL     1     -47.756  44.433  25.435  1.00  0.00     0.048 H 
ATOM     59  H   UNL     1     -46.418  45.606  25.244  1.00  0.00     0.048 H 
ENDBRANCH  54  56
ENDBRANCH  41  49
BRANCH  45  60
ATOM     60  N   UNL     1     -42.176  43.210  27.741  1.00  0.00    -0.383 N 
ATOM     61  H   UNL     1     -41.511  43.058  26.997  1.00  0.00     0.158 HD
ATOM     62  H   UNL     1     -42.002  44.002  28.367  1.00  0.00     0.158 HD
ENDBRANCH  45  60
ENDBRANCH  30  38
ENDBRANCH   1  26
TORSDOF 10
ENDMDL
MODEL 2
REMARK VINA RESULT:      -9.5      1.702      2.258
REMARK SMILES CNc1ccc2ccc(OC[C@H]3O[C@@H](n4cc(-c5ccn(C)n5)c5c(N)ncnc54)[C@@H](F)[C@@H]3O)cc2n1
REMARK SMILES IDX 11 1 10 4 9 5 3 6 4 7 37 8 5 9 36 11 6 12 35 14 7 15 8 17
REMARK SMILES IDX 2 20 1 22 12 26 13 27 33 28 14 30 31 31 32 34 34 36 15 38
REMARK SMILES IDX 16 39 30 40 17 41 24 43 29 44 25 45 28 46 27 47 18 49 19 50
REMARK SMILES IDX 23 51 20 52 21 54 22 56 26 60
REMARK H PARENT 11 2 11 3 4 10 5 13 35 16 7 18 8 19 2 21 1 23 1 24 1 25 12 29
REMARK H PARENT 33 32 14 33 31 35 34 37 16 42 28 48 19 53 20 55 22 57 22 58
REMARK H PARENT 22 59 26 61 26 62
REMARK Flexibility Score: inf
ROOT
ATOM      1  C   UNL     1     -46.106  34.671  27.288  1.00  0.00     0.117 C 
ATOM      2  H   UNL     1     -46.188  35.024  26.253  1.00  0.00     0.073 H 
ATOM      3  H   UNL     1     -45.099  34.909  27.653  1.00  0.00     0.073 H 
ENDROOT
BRANCH   1   4
ATOM      4  O   UNL     1     -46.342  33.265  27.365  1.00  0.00    -0.491 OA
BRANCH   4   5
ATOM      5  C   UNL     1     -46.885  32.665  26.261  1.00  0.00     0.121 A 
ATOM      6  C   UNL     1     -46.824  31.003  21.808  1.00  0.00     0.126 A 
ATOM      7  C   UNL     1     -48.143  30.576  21.887  1.00  0.00    -0.019 A 
ATOM      8  N   UNL     1     -46.195  31.597  22.840  1.00  0.00    -0.231 NA
ATOM      9  C   UNL     1     -48.848  30.787  23.067  1.00  0.00    -0.049 A 
ATOM     10  H   UNL     1     -48.613  30.068  21.054  1.00  0.00     0.066 H 
ATOM     11  C   UNL     1     -46.874  31.804  23.984  1.00  0.00     0.076 A 
ATOM     12  C   UNL     1     -48.218  31.413  24.145  1.00  0.00     0.001 A 
ATOM     13  H   UNL     1     -49.880  30.453  23.139  1.00  0.00     0.063 H 
ATOM     14  C   UNL     1     -46.231  32.425  25.050  1.00  0.00     0.007 A 
ATOM     15  C   UNL     1     -48.883  31.650  25.357  1.00  0.00    -0.049 A 
ATOM     16  H   UNL     1     -45.197  32.713  24.895  1.00  0.00     0.069 H 
ATOM     17  C   UNL     1     -48.214  32.274  26.407  1.00  0.00    -0.019 A 
ATOM     18  H   UNL     1     -49.919  31.350  25.489  1.00  0.00     0.063 H 
ATOM     19  H   UNL     1     -48.733  32.455  27.346  1.00  0.00     0.066 H 
BRANCH   6  20
ATOM     20  N   UNL     1     -46.050  30.815  20.663  1.00  0.00    -0.373 N 
ATOM     21  H   UNL     1     -45.116  30.632  21.029  1.00  0.00     0.161 HD
BRANCH  20  22
ATOM     22  C   UNL     1     -46.046  31.952  19.756  1.00  0.00     0.005 C 
ATOM     23  H   UNL     1     -45.523  32.786  20.233  1.00  0.00     0.045 H 
ATOM     24  H   UNL     1     -47.063  32.284  19.523  1.00  0.00     0.045 H 
ATOM     25  H   UNL     1     -45.515  31.725  18.826  1.00  0.00     0.045 H 
ENDBRANCH  20  22
ENDBRANCH   6  20
ENDBRANCH   4   5
ENDBRANCH   1   4
BRANCH   1  26
ATOM     26  C   UNL     1     -47.129  35.388  28.177  1.00  0.00     0.123 C 
ATOM     27  O   UNL     1     -46.485  36.512  28.812  1.00  0.00    -0.345 OA
ATOM     28  C   UNL     1     -48.332  35.933  27.398  1.00  0.00     0.119 C 
ATOM     29  H   UNL     1     -47.464  34.705  28.967  1.00  0.00     0.067 H 
ATOM     30  C   UNL     1     -47.095  37.721  28.294  1.00  0.00     0.169 C 
ATOM     31  C   UNL     1     -47.884  37.334  27.051  1.00  0.00     0.173 C 
ATOM     32  H   UNL     1     -48.588  35.340  26.517  1.00  0.00     0.066 H 
ATOM     33  H   UNL     1     -47.755  38.095  29.087  1.00  0.00     0.088 H 
ATOM     34  F   UNL     1     -47.072  37.261  25.959  1.00  0.00    -0.239 F 
ATOM     35  H   UNL     1     -48.698  38.030  26.831  1.00  0.00     0.074 H 
BRANCH  28  36
ATOM     36  O   UNL     1     -49.490  36.006  28.237  1.00  0.00    -0.387 OA
ATOM     37  H   UNL     1     -49.701  36.949  28.365  1.00  0.00     0.211 HD
ENDBRANCH  28  36
BRANCH  30  38
ATOM     38  N   UNL     1     -46.080  38.734  28.056  1.00  0.00    -0.302 N 
ATOM     39  C   UNL     1     -46.032  39.636  27.024  1.00  0.00     0.019 A 
ATOM     40  C   UNL     1     -45.001  38.923  28.882  1.00  0.00     0.148 A 
ATOM     41  C   UNL     1     -44.904  40.422  27.194  1.00  0.00     0.033 A 
ATOM     42  H   UNL     1     -46.804  39.657  26.267  1.00  0.00     0.083 H 
ATOM     43  C   UNL     1     -44.228  39.960  28.367  1.00  0.00     0.071 A 
ATOM     44  N   UNL     1     -44.760  38.213  29.998  1.00  0.00    -0.218 NA
ATOM     45  C   UNL     1     -43.058  40.267  29.085  1.00  0.00     0.137 A 
ATOM     46  C   UNL     1     -43.633  38.620  30.605  1.00  0.00     0.120 A 
ATOM     47  N   UNL     1     -42.789  39.592  30.222  1.00  0.00    -0.219 NA
ATOM     48  H   UNL     1     -43.369  38.098  31.520  1.00  0.00     0.106 H 
BRANCH  41  49
ATOM     49  C   UNL     1     -44.494  41.536  26.333  1.00  0.00     0.095 A 
ATOM     50  C   UNL     1     -45.390  42.416  25.684  1.00  0.00    -0.016 A 
ATOM     51  N   UNL     1     -43.217  41.862  26.087  1.00  0.00    -0.173 NA
ATOM     52  C   UNL     1     -44.590  43.305  25.004  1.00  0.00     0.025 A 
ATOM     53  H   UNL     1     -46.470  42.403  25.701  1.00  0.00     0.066 H 
ATOM     54  N   UNL     1     -43.308  42.931  25.272  1.00  0.00    -0.275 N 
ATOM     55  H   UNL     1     -44.825  44.147  24.369  1.00  0.00     0.084 H 
BRANCH  54  56
ATOM     56  C   UNL     1     -42.102  43.555  24.783  1.00  0.00     0.030 C 
ATOM     57  H   UNL     1     -41.249  43.099  25.291  1.00  0.00     0.048 H 
ATOM     58  H   UNL     1     -42.023  43.398  23.705  1.00  0.00     0.048 H 
ATOM     59  H   UNL     1     -42.153  44.624  25.003  1.00  0.00     0.048 H 
ENDBRANCH  54  56
ENDBRANCH  41  49
BRANCH  45  60
ATOM     60  N   UNL     1     -42.142  41.237  28.702  1.00  0.00    -0.383 N 
ATOM     61  H   UNL     1     -42.338  42.126  29.138  1.00  0.00     0.158 HD
ATOM     62  H   UNL     1     -41.981  41.240  27.690  1.00  0.00     0.158 HD
ENDBRANCH  45  60
ENDBRANCH  30  38
ENDBRANCH   1  26
TORSDOF 10
ENDMDL
MODEL 3
REMARK VINA RESULT:      -9.0      1.943      2.701
REMARK SMILES CNc1ccc2ccc(OC[C@H]3O[C@@H](n4cc(-c5ccn(C)n5)c5c(N)ncnc54)[C@@H](F)[C@@H]3O)cc2n1
REMARK SMILES IDX 11 1 10 4 9 5 3 6 4 7 37 8 5 9 36 11 6 12 35 14 7 15 8 17
REMARK SMILES IDX 2 20 1 22 12 26 13 27 33 28 14 30 31 31 32 34 34 36 15 38
REMARK SMILES IDX 16 39 30 40 17 41 24 43 29 44 25 45 28 46 27 47 18 49 19 50
REMARK SMILES IDX 23 51 20 52 21 54 22 56 26 60
REMARK H PARENT 11 2 11 3 4 10 5 13 35 16 7 18 8 19 2 21 1 23 1 24 1 25 12 29
REMARK H PARENT 33 32 14 33 31 35 34 37 16 42 28 48 19 53 20 55 22 57 22 58
REMARK H PARENT 22 59 26 61 26 62
REMARK Flexibility Score: inf
ROOT
ATOM      1  C   UNL     1     -45.942  34.733  27.778  1.00  0.00     0.117 C 
ATOM      2  H   UNL     1     -45.843  35.048  26.733  1.00  0.00     0.073 H 
ATOM      3  H   UNL     1     -44.995  34.945  28.291  1.00  0.00     0.073 H 
ENDROOT
BRANCH   1   4
ATOM      4  O   UNL     1     -46.249  33.341  27.862  1.00  0.00    -0.491 OA
BRANCH   4   5
ATOM      5  C   UNL     1     -46.681  32.730  26.716  1.00  0.00     0.121 A 
ATOM      6  C   UNL     1     -49.268  29.621  24.220  1.00  0.00     0.126 A 
ATOM      7  C   UNL     1     -48.736  30.056  23.014  1.00  0.00    -0.019 A 
ATOM      8  N   UNL     1     -48.916  30.161  25.401  1.00  0.00    -0.231 NA
ATOM      9  C   UNL     1     -47.789  31.074  23.026  1.00  0.00    -0.049 A 
ATOM     10  H   UNL     1     -49.064  29.628  22.075  1.00  0.00     0.066 H 
ATOM     11  C   UNL     1     -48.000  31.147  25.418  1.00  0.00     0.076 A 
ATOM     12  C   UNL     1     -47.400  31.641  24.243  1.00  0.00     0.001 A 
ATOM     13  H   UNL     1     -47.369  31.424  22.087  1.00  0.00     0.063 H 
ATOM     14  C   UNL     1     -47.626  31.704  26.637  1.00  0.00     0.007 A 
ATOM     15  C   UNL     1     -46.450  32.670  24.312  1.00  0.00    -0.049 A 
ATOM     16  H   UNL     1     -48.105  31.304  27.524  1.00  0.00     0.069 H 
ATOM     17  C   UNL     1     -46.095  33.208  25.546  1.00  0.00    -0.019 A 
ATOM     18  H   UNL     1     -45.984  33.056  23.409  1.00  0.00     0.063 H 
ATOM     19  H   UNL     1     -45.358  34.006  25.595  1.00  0.00     0.066 H 
BRANCH   6  20
ATOM     20  N   UNL     1     -50.231  28.613  24.286  1.00  0.00    -0.373 N 
ATOM     21  H   UNL     1     -51.081  29.107  24.556  1.00  0.00     0.161 HD
BRANCH  20  22
ATOM     22  C   UNL     1     -49.917  27.553  25.230  1.00  0.00     0.005 C 
ATOM     23  H   UNL     1     -50.766  26.866  25.291  1.00  0.00     0.045 H 
ATOM     24  H   UNL     1     -49.735  27.951  26.235  1.00  0.00     0.045 H 
ATOM     25  H   UNL     1     -49.049  26.968  24.909  1.00  0.00     0.045 H 
ENDBRANCH  20  22
ENDBRANCH   6  20
ENDBRANCH   4   5
ENDBRANCH   1   4
BRANCH   1  26
ATOM     26  C   UNL     1     -47.058  35.523  28.470  1.00  0.00     0.123 C 
ATOM     27  O   UNL     1     -46.500  36.739  29.011  1.00  0.00    -0.345 OA
ATOM     28  C   UNL     1     -48.192  35.927  27.520  1.00  0.00     0.119 C 
ATOM     29  H   UNL     1     -47.453  34.935  29.307  1.00  0.00     0.067 H 
ATOM     30  C   UNL     1     -47.081  37.852  28.287  1.00  0.00     0.169 C 
ATOM     31  C   UNL     1     -47.741  37.286  27.038  1.00  0.00     0.173 C 
ATOM     32  H   UNL     1     -48.352  35.219  26.703  1.00  0.00     0.066 H 
ATOM     33  H   UNL     1     -47.822  38.303  28.961  1.00  0.00     0.088 H 
ATOM     34  F   UNL     1     -46.827  37.101  26.043  1.00  0.00    -0.239 F 
ATOM     35  H   UNL     1     -48.545  37.922  26.656  1.00  0.00     0.074 H 
BRANCH  28  36
ATOM     36  O   UNL     1     -49.426  36.068  28.233  1.00  0.00    -0.387 OA
ATOM     37  H   UNL     1     -49.902  35.220  28.165  1.00  0.00     0.211 HD
ENDBRANCH  28  36
BRANCH  30  38
ATOM     38  N   UNL     1     -46.069  38.858  28.015  1.00  0.00    -0.302 N 
ATOM     39  C   UNL     1     -46.042  39.750  26.972  1.00  0.00     0.019 A 
ATOM     40  C   UNL     1     -44.971  39.053  28.814  1.00  0.00     0.148 A 
ATOM     41  C   UNL     1     -44.908  40.533  27.108  1.00  0.00     0.033 A 
ATOM     42  H   UNL     1     -46.832  39.765  26.234  1.00  0.00     0.083 H 
ATOM     43  C   UNL     1     -44.207  40.081  28.270  1.00  0.00     0.071 A 
ATOM     44  N   UNL     1     -44.706  38.354  29.931  1.00  0.00    -0.218 NA
ATOM     45  C   UNL     1     -43.019  40.392  28.957  1.00  0.00     0.137 A 
ATOM     46  C   UNL     1     -43.564  38.763  30.508  1.00  0.00     0.120 A 
ATOM     47  N   UNL     1     -42.726  39.728  30.095  1.00  0.00    -0.219 NA
ATOM     48  H   UNL     1     -43.280  38.251  31.422  1.00  0.00     0.106 H 
BRANCH  41  49
ATOM     49  C   UNL     1     -44.514  41.636  26.225  1.00  0.00     0.095 A 
ATOM     50  C   UNL     1     -45.421  42.516  25.592  1.00  0.00    -0.016 A 
ATOM     51  N   UNL     1     -43.242  41.951  25.942  1.00  0.00    -0.173 NA
ATOM     52  C   UNL     1     -44.635  43.393  24.883  1.00  0.00     0.025 A 
ATOM     53  H   UNL     1     -46.501  42.510  25.639  1.00  0.00     0.066 H 
ATOM     54  N   UNL     1     -43.348  43.014  25.120  1.00  0.00    -0.275 N 
ATOM     55  H   UNL     1     -44.881  44.231  24.246  1.00  0.00     0.084 H 
BRANCH  54  56
ATOM     56  C   UNL     1     -42.152  43.625  24.592  1.00  0.00     0.030 C 
ATOM     57  H   UNL     1     -41.323  42.924  24.721  1.00  0.00     0.048 H 
ATOM     58  H   UNL     1     -42.294  43.846  23.532  1.00  0.00     0.048 H 
ATOM     59  H   UNL     1     -41.964  44.548  25.145  1.00  0.00     0.048 H 
ENDBRANCH  54  56
ENDBRANCH  41  49
BRANCH  45  60
ATOM     60  N   UNL     1     -42.109  41.354  28.543  1.00  0.00    -0.383 N 
ATOM     61  H   UNL     1     -42.391  41.783  27.673  1.00  0.00     0.158 HD
ATOM     62  H   UNL     1     -41.141  41.024  28.606  1.00  0.00     0.158 HD
ENDBRANCH  45  60
ENDBRANCH  30  38
ENDBRANCH   1  26
TORSDOF 10
ENDMDL
MODEL 4
REMARK VINA RESULT:      -8.8      2.241      3.004
REMARK SMILES CNc1ccc2ccc(OC[C@H]3O[C@@H](n4cc(-c5ccn(C)n5)c5c(N)ncnc54)[C@@H](F)[C@@H]3O)cc2n1
REMARK SMILES IDX 11 1 10 4 9 5 3 6 4 7 37 8 5 9 36 11 6 12 35 14 7 15 8 17
REMARK SMILES IDX 2 20 1 22 12 26 13 27 33 28 14 30 31 31 32 34 34 36 15 38
REMARK SMILES IDX 16 39 30 40 17 41 24 43 29 44 25 45 28 46 27 47 18 49 19 50
REMARK SMILES IDX 23 51 20 52 21 54 22 56 26 60
REMARK H PARENT 11 2 11 3 4 10 5 13 35 16 7 18 8 19 2 21 1 23 1 24 1 25 12 29
REMARK H PARENT 33 32 14 33 31 35 34 37 16 42 28 48 19 53 20 55 22 57 22 58
REMARK H PARENT 22 59 26 61 26 62
REMARK Flexibility Score: inf
ROOT
ATOM      1  C   UNL     1     -46.579  35.164  26.379  1.00  0.00     0.117 C 
ATOM      2  H   UNL     1     -46.934  36.045  25.831  1.00  0.00     0.073 H 
ATOM      3  H   UNL     1     -45.808  34.671  25.773  1.00  0.00     0.073 H 
ENDROOT
BRANCH   1   4
ATOM      4  O   UNL     1     -47.653  34.261  26.641  1.00  0.00    -0.491 OA
BRANCH   4   5
ATOM      5  C   UNL     1     -47.828  33.230  25.758  1.00  0.00     0.121 A 
ATOM      6  C   UNL     1     -46.409  30.098  22.477  1.00  0.00     0.126 A 
ATOM      7  C   UNL     1     -47.676  29.541  22.375  1.00  0.00    -0.019 A 
ATOM      8  N   UNL     1     -46.131  31.110  23.320  1.00  0.00    -0.231 NA
ATOM      9  C   UNL     1     -48.703  30.059  23.158  1.00  0.00    -0.049 A 
ATOM     10  H   UNL     1     -47.863  28.704  21.715  1.00  0.00     0.066 H 
ATOM     11  C   UNL     1     -47.121  31.615  24.080  1.00  0.00     0.076 A 
ATOM     12  C   UNL     1     -48.438  31.118  24.030  1.00  0.00     0.001 A 
ATOM     13  H   UNL     1     -49.698  29.628  23.087  1.00  0.00     0.063 H 
ATOM     14  C   UNL     1     -46.841  32.666  24.946  1.00  0.00     0.007 A 
ATOM     15  C   UNL     1     -49.436  31.677  24.841  1.00  0.00    -0.049 A 
ATOM     16  H   UNL     1     -45.818  33.027  24.962  1.00  0.00     0.069 H 
ATOM     17  C   UNL     1     -49.127  32.729  25.700  1.00  0.00    -0.019 A 
ATOM     18  H   UNL     1     -50.454  31.298  24.809  1.00  0.00     0.063 H 
ATOM     19  H   UNL     1     -49.904  33.160  26.327  1.00  0.00     0.066 H 
BRANCH   6  20
ATOM     20  N   UNL     1     -45.327  29.623  21.734  1.00  0.00    -0.373 N 
ATOM     21  H   UNL     1     -45.760  29.238  20.894  1.00  0.00     0.161 HD
BRANCH  20  22
ATOM     22  C   UNL     1     -44.531  28.620  22.421  1.00  0.00     0.005 C 
ATOM     23  H   UNL     1     -44.623  28.770  23.501  1.00  0.00     0.045 H 
ATOM     24  H   UNL     1     -43.469  28.702  22.162  1.00  0.00     0.045 H 
ATOM     25  H   UNL     1     -44.880  27.606  22.203  1.00  0.00     0.045 H 
ENDBRANCH  20  22
ENDBRANCH   6  20
ENDBRANCH   4   5
ENDBRANCH   1   4
BRANCH   1  26
ATOM     26  C   UNL     1     -45.954  35.582  27.715  1.00  0.00     0.123 C 
ATOM     27  O   UNL     1     -45.570  36.971  27.634  1.00  0.00    -0.345 OA
ATOM     28  C   UNL     1     -46.916  35.446  28.902  1.00  0.00     0.119 C 
ATOM     29  H   UNL     1     -45.046  34.994  27.891  1.00  0.00     0.067 H 
ATOM     30  C   UNL     1     -46.402  37.715  28.558  1.00  0.00     0.169 C 
ATOM     31  C   UNL     1     -47.562  36.811  28.953  1.00  0.00     0.173 C 
ATOM     32  H   UNL     1     -47.642  34.638  28.785  1.00  0.00     0.066 H 
ATOM     33  H   UNL     1     -45.766  37.949  29.422  1.00  0.00     0.088 H 
ATOM     34  F   UNL     1     -48.551  36.848  28.015  1.00  0.00    -0.239 F 
ATOM     35  H   UNL     1     -47.994  37.074  29.922  1.00  0.00     0.074 H 
BRANCH  28  36
ATOM     36  O   UNL     1     -46.194  35.223  30.118  1.00  0.00    -0.387 OA
ATOM     37  H   UNL     1     -45.273  35.508  29.969  1.00  0.00     0.211 HD
ENDBRANCH  28  36
BRANCH  30  38
ATOM     38  N   UNL     1     -46.812  38.975  27.963  1.00  0.00    -0.302 N 
ATOM     39  C   UNL     1     -48.074  39.513  27.941  1.00  0.00     0.019 A 
ATOM     40  C   UNL     1     -45.940  39.825  27.330  1.00  0.00     0.148 A 
ATOM     41  C   UNL     1     -48.010  40.731  27.286  1.00  0.00     0.033 A 
ATOM     42  H   UNL     1     -48.906  38.997  28.403  1.00  0.00     0.083 H 
ATOM     43  C   UNL     1     -46.654  40.929  26.873  1.00  0.00     0.071 A 
ATOM     44  N   UNL     1     -44.622  39.603  27.192  1.00  0.00    -0.218 NA
ATOM     45  C   UNL     1     -45.910  41.893  26.170  1.00  0.00     0.137 A 
ATOM     46  C   UNL     1     -44.021  40.605  26.530  1.00  0.00     0.120 A 
ATOM     47  N   UNL     1     -44.580  41.719  26.027  1.00  0.00    -0.219 NA
ATOM     48  H   UNL     1     -42.951  40.504  26.380  1.00  0.00     0.106 H 
BRANCH  41  49
ATOM     49  C   UNL     1     -49.130  41.654  27.073  1.00  0.00     0.095 A 
ATOM     50  C   UNL     1     -50.056  42.031  28.074  1.00  0.00    -0.016 A 
ATOM     51  N   UNL     1     -49.385  42.267  25.909  1.00  0.00    -0.173 NA
ATOM     52  C   UNL     1     -50.915  42.908  27.455  1.00  0.00     0.025 A 
ATOM     53  H   UNL     1     -50.098  41.704  29.103  1.00  0.00     0.066 H 
ATOM     54  N   UNL     1     -50.477  43.013  26.169  1.00  0.00    -0.275 N 
ATOM     55  H   UNL     1     -51.778  43.449  27.816  1.00  0.00     0.084 H 
BRANCH  54  56
ATOM     56  C   UNL     1     -51.054  43.816  25.118  1.00  0.00     0.030 C 
ATOM     57  H   UNL     1     -52.018  44.195  25.466  1.00  0.00     0.048 H 
ATOM     58  H   UNL     1     -50.385  44.649  24.889  1.00  0.00     0.048 H 
ATOM     59  H   UNL     1     -51.183  43.186  24.235  1.00  0.00     0.048 H 
ENDBRANCH  54  56
ENDBRANCH  41  49
BRANCH  45  60
ATOM     60  N   UNL     1     -46.455  43.036  25.603  1.00  0.00    -0.383 N 
ATOM     61  H   UNL     1     -45.831  43.826  25.684  1.00  0.00     0.158 HD
ATOM     62  H   UNL     1     -47.429  43.182  25.885  1.00  0.00     0.158 HD
ENDBRANCH  45  60
ENDBRANCH  30  38
ENDBRANCH   1  26
TORSDOF 10
ENDMDL
MODEL 5
REMARK VINA RESULT:      -8.7      2.617      3.521
REMARK SMILES CNc1ccc2ccc(OC[C@H]3O[C@@H](n4cc(-c5ccn(C)n5)c5c(N)ncnc54)[C@@H](F)[C@@H]3O)cc2n1
REMARK SMILES IDX 11 1 10 4 9 5 3 6 4 7 37 8 5 9 36 11 6 12 35 14 7 15 8 17
REMARK SMILES IDX 2 20 1 22 12 26 13 27 33 28 14 30 31 31 32 34 34 36 15 38
REMARK SMILES IDX 16 39 30 40 17 41 24 43 29 44 25 45 28 46 27 47 18 49 19 50
REMARK SMILES IDX 23 51 20 52 21 54 22 56 26 60
REMARK H PARENT 11 2 11 3 4 10 5 13 35 16 7 18 8 19 2 21 1 23 1 24 1 25 12 29
REMARK H PARENT 33 32 14 33 31 35 34 37 16 42 28 48 19 53 20 55 22 57 22 58
REMARK H PARENT 22 59 26 61 26 62
REMARK Flexibility Score: inf
ROOT
ATOM      1  C   UNL     1     -46.733  35.367  26.148  1.00  0.00     0.117 C 
ATOM      2  H   UNL     1     -47.143  36.263  25.668  1.00  0.00     0.073 H 
ATOM      3  H   UNL     1     -45.957  34.952  25.492  1.00  0.00     0.073 H 
ENDROOT
BRANCH   1   4
ATOM      4  O   UNL     1     -47.757  34.399  26.379  1.00  0.00    -0.491 OA
BRANCH   4   5
ATOM      5  C   UNL     1     -47.640  33.203  25.724  1.00  0.00     0.121 A 
ATOM      6  C   UNL     1     -48.932  28.761  24.633  1.00  0.00     0.126 A 
ATOM      7  C   UNL     1     -47.883  28.614  23.735  1.00  0.00    -0.019 A 
ATOM      8  N   UNL     1     -49.139  29.900  25.320  1.00  0.00    -0.231 NA
ATOM      9  C   UNL     1     -47.001  29.673  23.553  1.00  0.00    -0.049 A 
ATOM     10  H   UNL     1     -47.762  27.699  23.168  1.00  0.00     0.066 H 
ATOM     11  C   UNL     1     -48.287  30.928  25.148  1.00  0.00     0.076 A 
ATOM     12  C   UNL     1     -47.190  30.859  24.267  1.00  0.00     0.001 A 
ATOM     13  H   UNL     1     -46.178  29.568  22.851  1.00  0.00     0.063 H 
ATOM     14  C   UNL     1     -48.491  32.104  25.863  1.00  0.00     0.007 A 
ATOM     15  C   UNL     1     -46.330  31.957  24.121  1.00  0.00    -0.049 A 
ATOM     16  H   UNL     1     -49.344  32.126  26.532  1.00  0.00     0.069 H 
ATOM     17  C   UNL     1     -46.559  33.122  24.850  1.00  0.00    -0.019 A 
ATOM     18  H   UNL     1     -45.482  31.912  23.443  1.00  0.00     0.063 H 
ATOM     19  H   UNL     1     -45.889  33.971  24.734  1.00  0.00     0.066 H 
BRANCH   6  20
ATOM     20  N   UNL     1     -49.865  27.748  24.858  1.00  0.00    -0.373 N 
ATOM     21  H   UNL     1     -50.757  28.241  24.882  1.00  0.00     0.161 HD
BRANCH  20  22
ATOM     22  C   UNL     1     -49.644  27.001  26.085  1.00  0.00     0.005 C 
ATOM     23  H   UNL     1     -48.630  27.199  26.446  1.00  0.00     0.045 H 
ATOM     24  H   UNL     1     -49.736  25.922  25.922  1.00  0.00     0.045 H 
ATOM     25  H   UNL     1     -50.336  27.308  26.877  1.00  0.00     0.045 H 
ENDBRANCH  20  22
ENDBRANCH   6  20
ENDBRANCH   4   5
ENDBRANCH   1   4
BRANCH   1  26
ATOM     26  C   UNL     1     -46.090  35.729  27.492  1.00  0.00     0.123 C 
ATOM     27  O   UNL     1     -45.648  37.103  27.441  1.00  0.00    -0.345 OA
ATOM     28  C   UNL     1     -47.055  35.607  28.677  1.00  0.00     0.119 C 
ATOM     29  H   UNL     1     -45.207  35.100  27.653  1.00  0.00     0.067 H 
ATOM     30  C   UNL     1     -46.448  37.859  28.384  1.00  0.00     0.169 C 
ATOM     31  C   UNL     1     -47.644  36.995  28.760  1.00  0.00     0.173 C 
ATOM     32  H   UNL     1     -47.815  34.832  28.544  1.00  0.00     0.066 H 
ATOM     33  H   UNL     1     -45.802  38.047  29.251  1.00  0.00     0.088 H 
ATOM     34  F   UNL     1     -48.632  37.094  27.826  1.00  0.00    -0.239 F 
ATOM     35  H   UNL     1     -48.064  37.253  29.736  1.00  0.00     0.074 H 
BRANCH  28  36
ATOM     36  O   UNL     1     -46.341  35.326  29.887  1.00  0.00    -0.387 OA
ATOM     37  H   UNL     1     -45.525  34.853  29.642  1.00  0.00     0.211 HD
ENDBRANCH  28  36
BRANCH  30  38
ATOM     38  N   UNL     1     -46.807  39.148  27.818  1.00  0.00    -0.302 N 
ATOM     39  C   UNL     1     -48.047  39.735  27.806  1.00  0.00     0.019 A 
ATOM     40  C   UNL     1     -45.900  39.979  27.208  1.00  0.00     0.148 A 
ATOM     41  C   UNL     1     -47.933  40.965  27.180  1.00  0.00     0.033 A 
ATOM     42  H   UNL     1     -48.900  39.242  28.252  1.00  0.00     0.083 H 
ATOM     43  C   UNL     1     -46.569  41.120  26.776  1.00  0.00     0.071 A 
ATOM     44  N   UNL     1     -44.591  39.708  27.068  1.00  0.00    -0.218 NA
ATOM     45  C   UNL     1     -45.785  42.071  26.098  1.00  0.00     0.137 A 
ATOM     46  C   UNL     1     -43.949  40.701  26.432  1.00  0.00     0.120 A 
ATOM     47  N   UNL     1     -44.462  41.848  25.955  1.00  0.00    -0.219 NA
ATOM     48  H   UNL     1     -42.883  40.563  26.284  1.00  0.00     0.106 H 
BRANCH  41  49
ATOM     49  C   UNL     1     -49.015  41.936  26.986  1.00  0.00     0.095 A 
ATOM     50  C   UNL     1     -49.160  43.130  27.730  1.00  0.00    -0.016 A 
ATOM     51  N   UNL     1     -49.976  41.812  26.060  1.00  0.00    -0.173 NA
ATOM     52  C   UNL     1     -50.282  43.738  27.217  1.00  0.00     0.025 A 
ATOM     53  H   UNL     1     -48.538  43.497  28.534  1.00  0.00     0.066 H 
ATOM     54  N   UNL     1     -50.733  42.914  26.230  1.00  0.00    -0.275 N 
ATOM     55  H   UNL     1     -50.781  44.662  27.470  1.00  0.00     0.084 H 
BRANCH  54  56
ATOM     56  C   UNL     1     -51.892  43.114  25.394  1.00  0.00     0.030 C 
ATOM     57  H   UNL     1     -51.578  43.648  24.494  1.00  0.00     0.048 H 
ATOM     58  H   UNL     1     -52.318  42.145  25.126  1.00  0.00     0.048 H 
ATOM     59  H   UNL     1     -52.623  43.702  25.954  1.00  0.00     0.048 H 
ENDBRANCH  54  56
ENDBRANCH  41  49
BRANCH  45  60
ATOM     60  N   UNL     1     -46.283  43.247  25.557  1.00  0.00    -0.383 N 
ATOM     61  H   UNL     1     -45.568  43.957  25.488  1.00  0.00     0.158 HD
ATOM     62  H   UNL     1     -47.173  43.523  25.984  1.00  0.00     0.158 HD
ENDBRANCH  45  60
ENDBRANCH  30  38
ENDBRANCH   1  26
TORSDOF 10
ENDMDL
MODEL 6
REMARK VINA RESULT:      -8.5      3.873      7.165
REMARK SMILES CNc1ccc2ccc(OC[C@H]3O[C@@H](n4cc(-c5ccn(C)n5)c5c(N)ncnc54)[C@@H](F)[C@@H]3O)cc2n1
REMARK SMILES IDX 11 1 10 4 9 5 3 6 4 7 37 8 5 9 36 11 6 12 35 14 7 15 8 17
REMARK SMILES IDX 2 20 1 22 12 26 13 27 33 28 14 30 31 31 32 34 34 36 15 38
REMARK SMILES IDX 16 39 30 40 17 41 24 43 29 44 25 45 28 46 27 47 18 49 19 50
REMARK SMILES IDX 23 51 20 52 21 54 22 56 26 60
REMARK H PARENT 11 2 11 3 4 10 5 13 35 16 7 18 8 19 2 21 1 23 1 24 1 25 12 29
REMARK H PARENT 33 32 14 33 31 35 34 37 16 42 28 48 19 53 20 55 22 57 22 58
REMARK H PARENT 22 59 26 61 26 62
REMARK Flexibility Score: inf
ROOT
ATOM      1  C   UNL     1     -48.770  37.221  28.120  1.00  0.00     0.117 C 
ATOM      2  H   UNL     1     -49.512  36.756  27.460  1.00  0.00     0.073 H 
ATOM      3  H   UNL     1     -49.171  37.218  29.141  1.00  0.00     0.073 H 
ENDROOT
BRANCH   1   4
ATOM      4  O   UNL     1     -48.484  38.556  27.703  1.00  0.00    -0.491 OA
BRANCH   4   5
ATOM      5  C   UNL     1     -49.251  39.553  28.244  1.00  0.00     0.121 A 
ATOM      6  C   UNL     1     -49.969  43.686  30.479  1.00  0.00     0.126 A 
ATOM      7  C   UNL     1     -51.349  43.556  30.400  1.00  0.00    -0.019 A 
ATOM      8  N   UNL     1     -49.127  42.765  29.972  1.00  0.00    -0.231 NA
ATOM      9  C   UNL     1     -51.884  42.425  29.794  1.00  0.00    -0.049 A 
ATOM     10  H   UNL     1     -52.002  44.329  30.785  1.00  0.00     0.066 H 
ATOM     11  C   UNL     1     -49.640  41.669  29.383  1.00  0.00     0.076 A 
ATOM     12  C   UNL     1     -51.028  41.452  29.272  1.00  0.00     0.001 A 
ATOM     13  H   UNL     1     -52.963  42.316  29.725  1.00  0.00     0.063 H 
ATOM     14  C   UNL     1     -48.775  40.711  28.865  1.00  0.00     0.007 A 
ATOM     15  C   UNL     1     -51.515  40.293  28.650  1.00  0.00    -0.049 A 
ATOM     16  H   UNL     1     -47.713  40.906  28.966  1.00  0.00     0.069 H 
ATOM     17  C   UNL     1     -50.625  39.350  28.140  1.00  0.00    -0.019 A 
ATOM     18  H   UNL     1     -52.584  40.119  28.560  1.00  0.00     0.063 H 
ATOM     19  H   UNL     1     -51.007  38.453  27.659  1.00  0.00     0.066 H 
BRANCH   6  20
ATOM     20  N   UNL     1     -49.360  44.798  31.061  1.00  0.00    -0.373 N 
ATOM     21  H   UNL     1     -49.009  45.327  30.263  1.00  0.00     0.161 HD
BRANCH  20  22
ATOM     22  C   UNL     1     -48.287  44.470  31.986  1.00  0.00     0.005 C 
ATOM     23  H   UNL     1     -48.548  44.845  32.981  1.00  0.00     0.045 H 
ATOM     24  H   UNL     1     -47.342  44.938  31.689  1.00  0.00     0.045 H 
ATOM     25  H   UNL     1     -48.145  43.388  32.074  1.00  0.00     0.045 H 
ENDBRANCH  20  22
ENDBRANCH   6  20
ENDBRANCH   4   5
ENDBRANCH   1   4
BRANCH   1  26
ATOM     26  C   UNL     1     -47.466  36.414  28.106  1.00  0.00     0.123 C 
ATOM     27  O   UNL     1     -46.488  37.125  27.317  1.00  0.00    -0.345 OA
ATOM     28  C   UNL     1     -46.864  36.214  29.502  1.00  0.00     0.119 C 
ATOM     29  H   UNL     1     -47.644  35.446  27.625  1.00  0.00     0.067 H 
ATOM     30  C   UNL     1     -45.427  37.551  28.208  1.00  0.00     0.169 C 
ATOM     31  C   UNL     1     -45.944  37.405  29.632  1.00  0.00     0.173 C 
ATOM     32  H   UNL     1     -47.611  36.167  30.298  1.00  0.00     0.066 H 
ATOM     33  H   UNL     1     -44.580  36.879  28.019  1.00  0.00     0.088 H 
ATOM     34  F   UNL     1     -46.696  38.484  29.992  1.00  0.00    -0.239 F 
ATOM     35  H   UNL     1     -45.142  37.282  30.365  1.00  0.00     0.074 H 
BRANCH  28  36
ATOM     36  O   UNL     1     -46.085  35.013  29.552  1.00  0.00    -0.387 OA
ATOM     37  H   UNL     1     -45.192  35.228  29.225  1.00  0.00     0.211 HD
ENDBRANCH  28  36
BRANCH  30  38
ATOM     38  N   UNL     1     -44.999  38.899  27.871  1.00  0.00    -0.302 N 
ATOM     39  C   UNL     1     -45.472  39.692  26.856  1.00  0.00     0.019 A 
ATOM     40  C   UNL     1     -44.032  39.576  28.570  1.00  0.00     0.148 A 
ATOM     41  C   UNL     1     -44.798  40.900  26.907  1.00  0.00     0.033 A 
ATOM     42  H   UNL     1     -46.253  39.342  26.195  1.00  0.00     0.083 H 
ATOM     43  C   UNL     1     -43.861  40.827  27.986  1.00  0.00     0.071 A 
ATOM     44  N   UNL     1     -43.378  39.086  29.637  1.00  0.00    -0.218 NA
ATOM     45  C   UNL     1     -42.876  41.646  28.568  1.00  0.00     0.137 A 
ATOM     46  C   UNL     1     -42.488  39.970  30.116  1.00  0.00     0.120 A 
ATOM     47  N   UNL     1     -42.211  41.201  29.654  1.00  0.00    -0.219 NA
ATOM     48  H   UNL     1     -41.919  39.652  30.985  1.00  0.00     0.106 H 
BRANCH  41  49
ATOM     49  C   UNL     1     -45.023  42.049  26.024  1.00  0.00     0.095 A 
ATOM     50  C   UNL     1     -44.264  42.323  24.862  1.00  0.00    -0.016 A 
ATOM     51  N   UNL     1     -45.994  42.955  26.203  1.00  0.00    -0.173 NA
ATOM     52  C   UNL     1     -44.815  43.467  24.336  1.00  0.00     0.025 A 
ATOM     53  H   UNL     1     -43.425  41.768  24.465  1.00  0.00     0.066 H 
ATOM     54  N   UNL     1     -45.837  43.806  25.170  1.00  0.00    -0.275 N 
ATOM     55  H   UNL     1     -44.567  44.051  23.461  1.00  0.00     0.084 H 
BRANCH  54  56
ATOM     56  C   UNL     1     -46.720  44.940  25.045  1.00  0.00     0.030 C 
ATOM     57  H   UNL     1     -47.749  44.573  25.023  1.00  0.00     0.048 H 
ATOM     58  H   UNL     1     -46.579  45.607  25.899  1.00  0.00     0.048 H 
ATOM     59  H   UNL     1     -46.478  45.464  24.118  1.00  0.00     0.048 H 
ENDBRANCH  54  56
ENDBRANCH  41  49
BRANCH  45  60
ATOM     60  N   UNL     1     -42.534  42.906  28.098  1.00  0.00    -0.383 N 
ATOM     61  H   UNL     1     -42.072  42.856  27.202  1.00  0.00     0.158 HD
ATOM     62  H   UNL     1     -42.088  43.480  28.821  1.00  0.00     0.158 HD
ENDBRANCH  45  60
ENDBRANCH  30  38
ENDBRANCH   1  26
TORSDOF 10
ENDMDL
MODEL 7
REMARK VINA RESULT:      -8.5      1.857      2.532
REMARK SMILES CNc1ccc2ccc(OC[C@H]3O[C@@H](n4cc(-c5ccn(C)n5)c5c(N)ncnc54)[C@@H](F)[C@@H]3O)cc2n1
REMARK SMILES IDX 11 1 10 4 9 5 3 6 4 7 37 8 5 9 36 11 6 12 35 14 7 15 8 17
REMARK SMILES IDX 2 20 1 22 12 26 13 27 33 28 14 30 31 31 32 34 34 36 15 38
REMARK SMILES IDX 16 39 30 40 17 41 24 43 29 44 25 45 28 46 27 47 18 49 19 50
REMARK SMILES IDX 23 51 20 52 21 54 22 56 26 60
REMARK H PARENT 11 2 11 3 4 10 5 13 35 16 7 18 8 19 2 21 1 23 1 24 1 25 12 29
REMARK H PARENT 33 32 14 33 31 35 34 37 16 42 28 48 19 53 20 55 22 57 22 58
REMARK H PARENT 22 59 26 61 26 62
REMARK Flexibility Score: inf
ROOT
ATOM      1  C   UNL     1     -45.565  37.222  27.643  1.00  0.00     0.117 C 
ATOM      2  H   UNL     1     -45.766  37.243  26.565  1.00  0.00     0.073 H 
ATOM      3  H   UNL     1     -44.522  37.523  27.803  1.00  0.00     0.073 H 
ENDROOT
BRANCH   1   4
ATOM      4  O   UNL     1     -45.791  35.917  28.176  1.00  0.00    -0.491 OA
BRANCH   4   5
ATOM      5  C   UNL     1     -46.435  35.018  27.369  1.00  0.00     0.121 A 
ATOM      6  C   UNL     1     -46.657  31.479  24.204  1.00  0.00     0.126 A 
ATOM      7  C   UNL     1     -48.044  31.482  24.211  1.00  0.00    -0.019 A 
ATOM      8  N   UNL     1     -45.930  32.317  24.968  1.00  0.00    -0.231 NA
ATOM      9  C   UNL     1     -48.711  32.396  25.019  1.00  0.00    -0.049 A 
ATOM     10  H   UNL     1     -48.604  30.772  23.614  1.00  0.00     0.066 H 
ATOM     11  C   UNL     1     -46.570  33.204  25.752  1.00  0.00     0.076 A 
ATOM     12  C   UNL     1     -47.976  33.282  25.809  1.00  0.00     0.001 A 
ATOM     13  H   UNL     1     -49.798  32.403  25.033  1.00  0.00     0.063 H 
ATOM     14  C   UNL     1     -45.824  34.077  26.536  1.00  0.00     0.007 A 
ATOM     15  C   UNL     1     -48.598  34.224  26.642  1.00  0.00    -0.049 A 
ATOM     16  H   UNL     1     -44.745  33.992  26.470  1.00  0.00     0.069 H 
ATOM     17  C   UNL     1     -47.825  35.086  27.417  1.00  0.00    -0.019 A 
ATOM     18  H   UNL     1     -49.681  34.290  26.693  1.00  0.00     0.063 H 
ATOM     19  H   UNL     1     -48.312  35.815  28.061  1.00  0.00     0.066 H 
BRANCH   6  20
ATOM     20  N   UNL     1     -45.919  30.583  23.429  1.00  0.00    -0.373 N 
ATOM     21  H   UNL     1     -44.970  30.673  23.793  1.00  0.00     0.161 HD
BRANCH  20  22
ATOM     22  C   UNL     1     -45.963  30.857  22.002  1.00  0.00     0.005 C 
ATOM     23  H   UNL     1     -45.021  31.324  21.700  1.00  0.00     0.045 H 
ATOM     24  H   UNL     1     -46.775  31.549  21.751  1.00  0.00     0.045 H 
ATOM     25  H   UNL     1     -46.074  29.939  21.416  1.00  0.00     0.045 H 
ENDBRANCH  20  22
ENDBRANCH   6  20
ENDBRANCH   4   5
ENDBRANCH   1   4
BRANCH   1  26
ATOM     26  C   UNL     1     -46.476  38.214  28.374  1.00  0.00     0.123 C 
ATOM     27  O   UNL     1     -45.795  39.483  28.477  1.00  0.00    -0.345 OA
ATOM     28  C   UNL     1     -47.802  38.468  27.647  1.00  0.00     0.119 C 
ATOM     29  H   UNL     1     -46.663  37.852  29.392  1.00  0.00     0.067 H 
ATOM     30  C   UNL     1     -46.525  40.442  27.671  1.00  0.00     0.169 C 
ATOM     31  C   UNL     1     -47.470  39.655  26.774  1.00  0.00     0.173 C 
ATOM     32  H   UNL     1     -48.159  37.608  27.075  1.00  0.00     0.066 H 
ATOM     33  H   UNL     1     -47.078  41.076  28.377  1.00  0.00     0.088 H 
ATOM     34  F   UNL     1     -46.823  39.198  25.664  1.00  0.00    -0.239 F 
ATOM     35  H   UNL     1     -48.337  40.240  26.453  1.00  0.00     0.074 H 
BRANCH  28  36
ATOM     36  O   UNL     1     -48.828  38.840  28.575  1.00  0.00    -0.387 OA
ATOM     37  H   UNL     1     -48.820  38.187  29.298  1.00  0.00     0.211 HD
ENDBRANCH  28  36
BRANCH  30  38
ATOM     38  N   UNL     1     -45.600  41.297  26.947  1.00  0.00    -0.302 N 
ATOM     39  C   UNL     1     -45.880  42.107  25.876  1.00  0.00     0.019 A 
ATOM     40  C   UNL     1     -44.272  41.411  27.273  1.00  0.00     0.148 A 
ATOM     41  C   UNL     1     -44.713  42.754  25.510  1.00  0.00     0.033 A 
ATOM     42  H   UNL     1     -46.883  42.168  25.473  1.00  0.00     0.083 H 
ATOM     43  C   UNL     1     -43.675  42.299  26.384  1.00  0.00     0.071 A 
ATOM     44  N   UNL     1     -43.677  40.762  28.288  1.00  0.00    -0.218 NA
ATOM     45  C   UNL     1     -42.295  42.510  26.560  1.00  0.00     0.137 A 
ATOM     46  C   UNL     1     -42.371  41.067  28.369  1.00  0.00     0.120 A 
ATOM     47  N   UNL     1     -41.663  41.894  27.581  1.00  0.00    -0.219 NA
ATOM     48  H   UNL     1     -41.817  40.586  29.169  1.00  0.00     0.106 H 
BRANCH  41  49
ATOM     49  C   UNL     1     -44.576  43.739  24.432  1.00  0.00     0.095 A 
ATOM     50  C   UNL     1     -44.370  45.123  24.637  1.00  0.00    -0.016 A 
ATOM     51  N   UNL     1     -44.603  43.432  23.128  1.00  0.00    -0.173 NA
ATOM     52  C   UNL     1     -44.284  45.663  23.375  1.00  0.00     0.025 A 
ATOM     53  H   UNL     1     -44.300  45.658  25.573  1.00  0.00     0.066 H 
ATOM     54  N   UNL     1     -44.432  44.618  22.513  1.00  0.00    -0.275 N 
ATOM     55  H   UNL     1     -44.135  46.677  23.032  1.00  0.00     0.084 H 
BRANCH  54  56
ATOM     56  C   UNL     1     -44.420  44.674  21.071  1.00  0.00     0.030 C 
ATOM     57  H   UNL     1     -44.883  43.762  20.688  1.00  0.00     0.048 H 
ATOM     58  H   UNL     1     -44.983  45.549  20.737  1.00  0.00     0.048 H 
ATOM     59  H   UNL     1     -43.383  44.748  20.737  1.00  0.00     0.048 H 
ENDBRANCH  54  56
ENDBRANCH  41  49
BRANCH  45  60
ATOM     60  N   UNL     1     -41.521  43.324  25.747  1.00  0.00    -0.383 N 
ATOM     61  H   UNL     1     -41.439  42.948  24.814  1.00  0.00     0.158 HD
ATOM     62  H   UNL     1     -40.655  43.620  26.207  1.00  0.00     0.158 HD
ENDBRANCH  45  60
ENDBRANCH  30  38
ENDBRANCH   1  26
TORSDOF 10
ENDMDL
