MODEL 1
REMARK VINA RESULT:     -10.3      0.000      0.000
REMARK SMILES CCNc1ccc2ccc(CCc3cncc(-n4cc([C@@H]5CCCO5)c5c(N)ncnc54)n3)cc2n1
REMARK SMILES IDX 11 1 10 4 4 5 5 6 36 7 6 8 35 10 7 11 34 13 8 14 9 16 3 19
REMARK SMILES IDX 2 21 1 24 12 28 13 31 14 32 33 33 15 34 17 36 16 37 18 39
REMARK SMILES IDX 19 40 32 41 20 42 26 44 31 45 27 46 30 47 29 48 21 50 22 51
REMARK SMILES IDX 25 52 23 54 24 57 28 62
REMARK H PARENT 11 2 11 3 5 9 6 12 34 15 8 17 9 18 3 20 2 22 2 23 1 25 1 26
REMARK H PARENT 1 27 12 29 12 30 14 35 16 38 19 43 30 49 21 53 22 55 22 56
REMARK H PARENT 23 58 23 59 24 60 24 61 28 63 28 64
REMARK Flexibility Score: inf
ROOT
ATOM      1  C   UNL     1     -47.866  33.865  26.307  1.00  0.00    -0.022 C 
ATOM      2  H   UNL     1     -47.925  33.625  27.377  1.00  0.00     0.032 H 
ATOM      3  H   UNL     1     -48.852  34.263  26.038  1.00  0.00     0.032 H 
ENDROOT
BRANCH   1   4
ATOM      4  C   UNL     1     -47.644  32.599  25.513  1.00  0.00    -0.045 A 
ATOM      5  C   UNL     1     -48.985  28.132  24.494  1.00  0.00     0.126 A 
ATOM      6  C   UNL     1     -47.994  27.999  23.534  1.00  0.00    -0.019 A 
ATOM      7  N   UNL     1     -49.146  29.266  25.203  1.00  0.00    -0.231 NA
ATOM      8  C   UNL     1     -47.147  29.075  23.283  1.00  0.00    -0.049 A 
ATOM      9  H   UNL     1     -47.856  27.071  22.994  1.00  0.00     0.066 H 
ATOM     10  C   UNL     1     -48.322  30.308  24.974  1.00  0.00     0.073 A 
ATOM     11  C   UNL     1     -47.297  30.257  24.012  1.00  0.00     0.000 A 
ATOM     12  H   UNL     1     -46.371  28.978  22.530  1.00  0.00     0.063 H 
ATOM     13  C   UNL     1     -48.474  31.481  25.704  1.00  0.00    -0.032 A 
ATOM     14  C   UNL     1     -46.458  31.365  23.804  1.00  0.00    -0.053 A 
ATOM     15  H   UNL     1     -49.274  31.522  26.440  1.00  0.00     0.065 H 
ATOM     16  C   UNL     1     -46.632  32.529  24.553  1.00  0.00    -0.058 A 
ATOM     17  H   UNL     1     -45.673  31.330  23.054  1.00  0.00     0.063 H 
ATOM     18  H   UNL     1     -45.984  33.381  24.366  1.00  0.00     0.063 H 
BRANCH   5  19
ATOM     19  N   UNL     1     -49.848  27.101  24.836  1.00  0.00    -0.370 N 
ATOM     20  H   UNL     1     -49.819  26.451  24.052  1.00  0.00     0.162 HD
BRANCH  19  21
ATOM     21  C   UNL     1     -49.710  26.457  26.134  1.00  0.00     0.013 C 
ATOM     22  H   UNL     1     -50.593  25.824  26.283  1.00  0.00     0.049 H 
ATOM     23  H   UNL     1     -49.714  27.183  26.953  1.00  0.00     0.049 H 
BRANCH  21  24
ATOM     24  C   UNL     1     -48.472  25.577  26.206  1.00  0.00    -0.048 C 
ATOM     25  H   UNL     1     -47.724  25.884  25.470  1.00  0.00     0.025 H 
ATOM     26  H   UNL     1     -48.720  24.527  26.020  1.00  0.00     0.025 H 
ATOM     27  H   UNL     1     -48.014  25.650  27.197  1.00  0.00     0.025 H 
ENDBRANCH  21  24
ENDBRANCH  19  21
ENDBRANCH   5  19
ENDBRANCH   1   4
BRANCH   1  28
ATOM     28  C   UNL     1     -46.809  34.950  26.065  1.00  0.00    -0.005 C 
ATOM     29  H   UNL     1     -46.697  35.110  24.986  1.00  0.00     0.034 H 
ATOM     30  H   UNL     1     -45.828  34.619  26.429  1.00  0.00     0.034 H 
BRANCH  28  31
ATOM     31  C   UNL     1     -47.155  36.261  26.717  1.00  0.00     0.061 A 
ATOM     32  C   UNL     1     -48.364  36.463  27.364  1.00  0.00     0.049 A 
ATOM     33  N   UNL     1     -46.216  37.233  26.686  1.00  0.00    -0.232 NA
ATOM     34  N   UNL     1     -48.672  37.623  27.988  1.00  0.00    -0.259 NA
ATOM     35  H   UNL     1     -49.127  35.694  27.404  1.00  0.00     0.086 H 
ATOM     36  C   UNL     1     -46.482  38.400  27.322  1.00  0.00     0.157 A 
ATOM     37  C   UNL     1     -47.706  38.580  27.954  1.00  0.00     0.070 A 
ATOM     38  H   UNL     1     -47.982  39.485  28.479  1.00  0.00     0.088 H 
BRANCH  36  39
ATOM     39  N   UNL     1     -45.475  39.417  27.352  1.00  0.00    -0.284 N 
ATOM     40  C   UNL     1     -45.311  40.445  26.432  1.00  0.00     0.019 A 
ATOM     41  C   UNL     1     -44.495  39.568  28.325  1.00  0.00     0.151 A 
ATOM     42  C   UNL     1     -44.249  41.253  26.807  1.00  0.00     0.012 A 
ATOM     43  H   UNL     1     -45.957  40.529  25.572  1.00  0.00     0.083 H 
ATOM     44  C   UNL     1     -43.733  40.689  28.020  1.00  0.00     0.067 A 
ATOM     45  N   UNL     1     -44.306  38.780  29.401  1.00  0.00    -0.218 NA
ATOM     46  C   UNL     1     -42.688  41.006  28.908  1.00  0.00     0.136 A 
ATOM     47  C   UNL     1     -43.301  39.185  30.181  1.00  0.00     0.120 A 
ATOM     48  N   UNL     1     -42.486  40.237  29.992  1.00  0.00    -0.219 NA
ATOM     49  H   UNL     1     -43.121  38.587  31.069  1.00  0.00     0.106 H 
BRANCH  42  50
ATOM     50  C   UNL     1     -43.718  42.491  26.131  1.00  0.00     0.085 C 
ATOM     51  C   UNL     1     -44.179  43.823  26.711  1.00  0.00    -0.020 C 
ATOM     52  O   UNL     1     -44.137  42.515  24.745  1.00  0.00    -0.373 OA
ATOM     53  H   UNL     1     -42.622  42.441  26.150  1.00  0.00     0.066 H 
ATOM     54  C   UNL     1     -45.442  44.099  25.935  1.00  0.00    -0.027 C 
ATOM     55  H   UNL     1     -44.317  43.838  27.795  1.00  0.00     0.030 H 
ATOM     56  H   UNL     1     -43.441  44.598  26.465  1.00  0.00     0.030 H 
ATOM     57  C   UNL     1     -45.080  43.580  24.561  1.00  0.00     0.048 C 
ATOM     58  H   UNL     1     -46.275  43.521  26.349  1.00  0.00     0.029 H 
ATOM     59  H   UNL     1     -45.730  45.154  25.926  1.00  0.00     0.029 H 
ATOM     60  H   UNL     1     -44.591  44.355  23.961  1.00  0.00     0.057 H 
ATOM     61  H   UNL     1     -45.949  43.209  24.010  1.00  0.00     0.057 H 
ENDBRANCH  42  50
BRANCH  46  62
ATOM     62  N   UNL     1     -41.818  42.075  28.719  1.00  0.00    -0.383 N 
ATOM     63  H   UNL     1     -41.847  42.684  29.528  1.00  0.00     0.158 HD
ATOM     64  H   UNL     1     -40.886  41.766  28.441  1.00  0.00     0.158 HD
ENDBRANCH  46  62
ENDBRANCH  36  39
ENDBRANCH  28  31
ENDBRANCH   1  28
TORSDOF 9
ENDMDL
MODEL 2
REMARK VINA RESULT:      -9.6      2.329      3.472
REMARK SMILES CCNc1ccc2ccc(CCc3cncc(-n4cc([C@@H]5CCCO5)c5c(N)ncnc54)n3)cc2n1
REMARK SMILES IDX 11 1 10 4 4 5 5 6 36 7 6 8 35 10 7 11 34 13 8 14 9 16 3 19
REMARK SMILES IDX 2 21 1 24 12 28 13 31 14 32 33 33 15 34 17 36 16 37 18 39
REMARK SMILES IDX 19 40 32 41 20 42 26 44 31 45 27 46 30 47 29 48 21 50 22 51
REMARK SMILES IDX 25 52 23 54 24 57 28 62
REMARK H PARENT 11 2 11 3 5 9 6 12 34 15 8 17 9 18 3 20 2 22 2 23 1 25 1 26
REMARK H PARENT 1 27 12 29 12 30 14 35 16 38 19 43 30 49 21 53 22 55 22 56
REMARK H PARENT 23 58 23 59 24 60 24 61 28 63 28 64
REMARK Flexibility Score: inf
ROOT
ATOM      1  C   UNL     1     -46.354  36.470  27.394  1.00  0.00    -0.022 C 
ATOM      2  H   UNL     1     -45.959  37.119  26.601  1.00  0.00     0.032 H 
ATOM      3  H   UNL     1     -45.477  36.110  27.946  1.00  0.00     0.032 H 
ENDROOT
BRANCH   1   4
ATOM      4  C   UNL     1     -47.040  35.274  26.778  1.00  0.00    -0.045 A 
ATOM      5  C   UNL     1     -46.723  31.257  24.218  1.00  0.00     0.126 A 
ATOM      6  C   UNL     1     -48.077  30.996  24.365  1.00  0.00    -0.019 A 
ATOM      7  N   UNL     1     -46.142  32.345  24.760  1.00  0.00    -0.231 NA
ATOM      8  C   UNL     1     -48.858  31.875  25.109  1.00  0.00    -0.049 A 
ATOM      9  H   UNL     1     -48.536  30.134  23.898  1.00  0.00     0.066 H 
ATOM     10  C   UNL     1     -46.895  33.207  25.471  1.00  0.00     0.073 A 
ATOM     11  C   UNL     1     -48.273  33.010  25.675  1.00  0.00     0.000 A 
ATOM     12  H   UNL     1     -49.918  31.674  25.232  1.00  0.00     0.063 H 
ATOM     13  C   UNL     1     -46.307  34.337  26.029  1.00  0.00    -0.032 A 
ATOM     14  C   UNL     1     -49.022  33.934  26.422  1.00  0.00    -0.053 A 
ATOM     15  H   UNL     1     -45.239  34.482  25.880  1.00  0.00     0.065 H 
ATOM     16  C   UNL     1     -48.408  35.060  26.969  1.00  0.00    -0.058 A 
ATOM     17  H   UNL     1     -50.084  33.777  26.589  1.00  0.00     0.063 H 
ATOM     18  H   UNL     1     -49.000  35.755  27.559  1.00  0.00     0.063 H 
BRANCH   5  19
ATOM     19  N   UNL     1     -45.878  30.457  23.463  1.00  0.00    -0.370 N 
ATOM     20  H   UNL     1     -45.742  29.610  24.012  1.00  0.00     0.162 HD
BRANCH  19  21
ATOM     21  C   UNL     1     -46.198  30.201  22.066  1.00  0.00     0.013 C 
ATOM     22  H   UNL     1     -47.265  29.956  22.011  1.00  0.00     0.049 H 
ATOM     23  H   UNL     1     -45.665  29.326  21.678  1.00  0.00     0.049 H 
BRANCH  21  24
ATOM     24  C   UNL     1     -45.939  31.416  21.190  1.00  0.00    -0.048 C 
ATOM     25  H   UNL     1     -45.575  32.261  21.780  1.00  0.00     0.025 H 
ATOM     26  H   UNL     1     -46.851  31.732  20.671  1.00  0.00     0.025 H 
ATOM     27  H   UNL     1     -45.180  31.184  20.436  1.00  0.00     0.025 H 
ENDBRANCH  21  24
ENDBRANCH  19  21
ENDBRANCH   5  19
ENDBRANCH   1   4
BRANCH   1  28
ATOM     28  C   UNL     1     -47.242  37.281  28.347  1.00  0.00    -0.005 C 
ATOM     29  H   UNL     1     -46.761  37.332  29.332  1.00  0.00     0.034 H 
ATOM     30  H   UNL     1     -48.202  36.773  28.502  1.00  0.00     0.034 H 
BRANCH  28  31
ATOM     31  C   UNL     1     -47.502  38.679  27.860  1.00  0.00     0.061 A 
ATOM     32  C   UNL     1     -48.739  39.289  28.002  1.00  0.00     0.049 A 
ATOM     33  N   UNL     1     -46.462  39.345  27.309  1.00  0.00    -0.232 NA
ATOM     34  N   UNL     1     -48.976  40.559  27.603  1.00  0.00    -0.259 NA
ATOM     35  H   UNL     1     -49.583  38.773  28.445  1.00  0.00     0.086 H 
ATOM     36  C   UNL     1     -46.658  40.628  26.920  1.00  0.00     0.157 A 
ATOM     37  C   UNL     1     -47.911  41.211  27.064  1.00  0.00     0.070 A 
ATOM     38  H   UNL     1     -48.135  42.230  26.776  1.00  0.00     0.088 H 
BRANCH  36  39
ATOM     39  N   UNL     1     -45.553  41.369  26.392  1.00  0.00    -0.284 N 
ATOM     40  C   UNL     1     -45.558  42.162  25.252  1.00  0.00     0.019 A 
ATOM     41  C   UNL     1     -44.279  41.441  26.943  1.00  0.00     0.151 A 
ATOM     42  C   UNL     1     -44.314  42.745  25.073  1.00  0.00     0.012 A 
ATOM     43  H   UNL     1     -46.445  42.254  24.644  1.00  0.00     0.083 H 
ATOM     44  C   UNL     1     -43.501  42.283  26.159  1.00  0.00     0.067 A 
ATOM     45  N   UNL     1     -43.853  40.819  28.059  1.00  0.00    -0.218 NA
ATOM     46  C   UNL     1     -42.171  42.485  26.573  1.00  0.00     0.136 A 
ATOM     47  C   UNL     1     -42.584  41.096  28.365  1.00  0.00     0.120 A 
ATOM     48  N   UNL     1     -41.727  41.880  27.688  1.00  0.00    -0.219 NA
ATOM     49  H   UNL     1     -42.201  40.628  29.267  1.00  0.00     0.106 H 
BRANCH  42  50
ATOM     50  C   UNL     1     -43.861  43.694  23.992  1.00  0.00     0.085 C 
ATOM     51  C   UNL     1     -43.966  45.179  24.315  1.00  0.00    -0.020 C 
ATOM     52  O   UNL     1     -44.663  43.505  22.801  1.00  0.00    -0.373 OA
ATOM     53  H   UNL     1     -42.823  43.445  23.740  1.00  0.00     0.066 H 
ATOM     54  C   UNL     1     -45.359  45.518  23.846  1.00  0.00    -0.027 C 
ATOM     55  H   UNL     1     -43.776  45.446  25.357  1.00  0.00     0.030 H 
ATOM     56  H   UNL     1     -43.246  45.734  23.699  1.00  0.00     0.030 H 
ATOM     57  C   UNL     1     -45.484  44.666  22.603  1.00  0.00     0.048 C 
ATOM     58  H   UNL     1     -46.097  45.205  24.594  1.00  0.00     0.029 H 
ATOM     59  H   UNL     1     -45.508  46.583  23.646  1.00  0.00     0.029 H 
ATOM     60  H   UNL     1     -45.104  45.193  21.722  1.00  0.00     0.057 H 
ATOM     61  H   UNL     1     -46.514  44.357  22.407  1.00  0.00     0.057 H 
ENDBRANCH  42  50
BRANCH  46  62
ATOM     62  N   UNL     1     -41.261  43.271  25.874  1.00  0.00    -0.383 N 
ATOM     63  H   UNL     1     -40.332  43.137  26.255  1.00  0.00     0.158 HD
ATOM     64  H   UNL     1     -41.338  43.141  24.864  1.00  0.00     0.158 HD
ENDBRANCH  46  62
ENDBRANCH  36  39
ENDBRANCH  28  31
ENDBRANCH   1  28
TORSDOF 9
ENDMDL
MODEL 3
REMARK VINA RESULT:      -9.5      1.781      2.754
REMARK SMILES CCNc1ccc2ccc(CCc3cncc(-n4cc([C@@H]5CCCO5)c5c(N)ncnc54)n3)cc2n1
REMARK SMILES IDX 11 1 10 4 4 5 5 6 36 7 6 8 35 10 7 11 34 13 8 14 9 16 3 19
REMARK SMILES IDX 2 21 1 24 12 28 13 31 14 32 33 33 15 34 17 36 16 37 18 39
REMARK SMILES IDX 19 40 32 41 20 42 26 44 31 45 27 46 30 47 29 48 21 50 22 51
REMARK SMILES IDX 25 52 23 54 24 57 28 62
REMARK H PARENT 11 2 11 3 5 9 6 12 34 15 8 17 9 18 3 20 2 22 2 23 1 25 1 26
REMARK H PARENT 1 27 12 29 12 30 14 35 16 38 19 43 30 49 21 53 22 55 22 56
REMARK H PARENT 23 58 23 59 24 60 24 61 28 63 28 64
REMARK Flexibility Score: inf
ROOT
ATOM      1  C   UNL     1     -46.015  34.369  26.668  1.00  0.00    -0.022 C 
ATOM      2  H   UNL     1     -45.873  35.186  25.948  1.00  0.00     0.032 H 
ATOM      3  H   UNL     1     -45.007  33.998  26.895  1.00  0.00     0.032 H 
ENDROOT
BRANCH   1   4
ATOM      4  C   UNL     1     -46.788  33.246  26.018  1.00  0.00    -0.045 A 
ATOM      5  C   UNL     1     -47.553  30.499  22.189  1.00  0.00     0.126 A 
ATOM      6  C   UNL     1     -48.530  29.767  22.847  1.00  0.00    -0.019 A 
ATOM      7  N   UNL     1     -46.895  31.511  22.787  1.00  0.00    -0.231 NA
ATOM      8  C   UNL     1     -48.831  30.075  24.170  1.00  0.00    -0.049 A 
ATOM      9  H   UNL     1     -49.073  28.976  22.344  1.00  0.00     0.066 H 
ATOM     10  C   UNL     1     -47.190  31.823  24.064  1.00  0.00     0.073 A 
ATOM     11  C   UNL     1     -48.161  31.124  24.804  1.00  0.00     0.000 A 
ATOM     12  H   UNL     1     -49.592  29.503  24.691  1.00  0.00     0.063 H 
ATOM     13  C   UNL     1     -46.522  32.870  24.689  1.00  0.00    -0.032 A 
ATOM     14  C   UNL     1     -48.439  31.483  26.133  1.00  0.00    -0.053 A 
ATOM     15  H   UNL     1     -45.763  33.402  24.120  1.00  0.00     0.065 H 
ATOM     16  C   UNL     1     -47.756  32.539  26.735  1.00  0.00    -0.058 A 
ATOM     17  H   UNL     1     -49.182  30.936  26.708  1.00  0.00     0.063 H 
ATOM     18  H   UNL     1     -47.972  32.790  27.770  1.00  0.00     0.063 H 
BRANCH   5  19
ATOM     19  N   UNL     1     -47.217  30.285  20.860  1.00  0.00    -0.370 N 
ATOM     20  H   UNL     1     -47.606  29.375  20.623  1.00  0.00     0.162 HD
BRANCH  19  21
ATOM     21  C   UNL     1     -47.506  31.319  19.877  1.00  0.00     0.013 C 
ATOM     22  H   UNL     1     -48.216  32.019  20.333  1.00  0.00     0.049 H 
ATOM     23  H   UNL     1     -48.006  30.912  18.992  1.00  0.00     0.049 H 
BRANCH  21  24
ATOM     24  C   UNL     1     -46.259  32.091  19.477  1.00  0.00    -0.048 C 
ATOM     25  H   UNL     1     -45.439  31.911  20.177  1.00  0.00     0.025 H 
ATOM     26  H   UNL     1     -46.452  33.169  19.451  1.00  0.00     0.025 H 
ATOM     27  H   UNL     1     -45.924  31.780  18.483  1.00  0.00     0.025 H 
ENDBRANCH  21  24
ENDBRANCH  19  21
ENDBRANCH   5  19
ENDBRANCH   1   4
BRANCH   1  28
ATOM     28  C   UNL     1     -46.650  34.904  27.957  1.00  0.00    -0.005 C 
ATOM     29  H   UNL     1     -45.940  34.785  28.785  1.00  0.00     0.034 H 
ATOM     30  H   UNL     1     -47.533  34.310  28.225  1.00  0.00     0.034 H 
BRANCH  28  31
ATOM     31  C   UNL     1     -47.046  36.351  27.860  1.00  0.00     0.061 A 
ATOM     32  C   UNL     1     -48.363  36.763  27.991  1.00  0.00     0.049 A 
ATOM     33  N   UNL     1     -46.053  37.252  27.679  1.00  0.00    -0.232 NA
ATOM     34  N   UNL     1     -48.727  38.065  27.944  1.00  0.00    -0.259 NA
ATOM     35  H   UNL     1     -49.171  36.056  28.141  1.00  0.00     0.086 H 
ATOM     36  C   UNL     1     -46.381  38.567  27.651  1.00  0.00     0.157 A 
ATOM     37  C   UNL     1     -47.710  38.952  27.775  1.00  0.00     0.070 A 
ATOM     38  H   UNL     1     -48.039  39.982  27.761  1.00  0.00     0.088 H 
BRANCH  36  39
ATOM     39  N   UNL     1     -45.337  39.538  27.523  1.00  0.00    -0.284 N 
ATOM     40  C   UNL     1     -45.188  40.461  26.496  1.00  0.00     0.019 A 
ATOM     41  C   UNL     1     -44.295  39.742  28.420  1.00  0.00     0.151 A 
ATOM     42  C   UNL     1     -44.077  41.256  26.728  1.00  0.00     0.012 A 
ATOM     43  H   UNL     1     -45.881  40.488  25.669  1.00  0.00     0.083 H 
ATOM     44  C   UNL     1     -43.511  40.793  27.961  1.00  0.00     0.067 A 
ATOM     45  N   UNL     1     -44.073  39.057  29.558  1.00  0.00    -0.218 NA
ATOM     46  C   UNL     1     -42.405  41.151  28.753  1.00  0.00     0.136 A 
ATOM     47  C   UNL     1     -43.009  39.492  30.236  1.00  0.00     0.120 A 
ATOM     48  N   UNL     1     -42.168  40.485  29.897  1.00  0.00    -0.219 NA
ATOM     49  H   UNL     1     -42.799  38.978  31.169  1.00  0.00     0.106 H 
BRANCH  42  50
ATOM     50  C   UNL     1     -43.541  42.398  25.902  1.00  0.00     0.085 C 
ATOM     51  C   UNL     1     -43.809  43.798  26.438  1.00  0.00    -0.020 C 
ATOM     52  O   UNL     1     -44.138  42.375  24.583  1.00  0.00    -0.373 OA
ATOM     53  H   UNL     1     -42.461  42.249  25.784  1.00  0.00     0.066 H 
ATOM     54  C   UNL     1     -45.138  44.140  25.811  1.00  0.00    -0.027 C 
ATOM     55  H   UNL     1     -43.800  43.892  27.526  1.00  0.00     0.030 H 
ATOM     56  H   UNL     1     -43.050  44.487  26.045  1.00  0.00     0.030 H 
ATOM     57  C   UNL     1     -45.007  43.508  24.444  1.00  0.00     0.048 C 
ATOM     58  H   UNL     1     -45.953  43.667  26.370  1.00  0.00     0.029 H 
ATOM     59  H   UNL     1     -45.337  45.214  25.764  1.00  0.00     0.029 H 
ATOM     60  H   UNL     1     -44.540  44.197  23.732  1.00  0.00     0.057 H 
ATOM     61  H   UNL     1     -45.969  43.185  24.037  1.00  0.00     0.057 H 
ENDBRANCH  42  50
BRANCH  46  62
ATOM     62  N   UNL     1     -41.508  42.158  28.410  1.00  0.00    -0.383 N 
ATOM     63  H   UNL     1     -40.758  42.192  29.090  1.00  0.00     0.158 HD
ATOM     64  H   UNL     1     -41.208  42.088  27.437  1.00  0.00     0.158 HD
ENDBRANCH  46  62
ENDBRANCH  36  39
ENDBRANCH  28  31
ENDBRANCH   1  28
TORSDOF 9
ENDMDL
MODEL 4
REMARK VINA RESULT:      -9.4      3.070     11.815
REMARK SMILES CCNc1ccc2ccc(CCc3cncc(-n4cc([C@@H]5CCCO5)c5c(N)ncnc54)n3)cc2n1
REMARK SMILES IDX 11 1 10 4 4 5 5 6 36 7 6 8 35 10 7 11 34 13 8 14 9 16 3 19
REMARK SMILES IDX 2 21 1 24 12 28 13 31 14 32 33 33 15 34 17 36 16 37 18 39
REMARK SMILES IDX 19 40 32 41 20 42 26 44 31 45 27 46 30 47 29 48 21 50 22 51
REMARK SMILES IDX 25 52 23 54 24 57 28 62
REMARK H PARENT 11 2 11 3 5 9 6 12 34 15 8 17 9 18 3 20 2 22 2 23 1 25 1 26
REMARK H PARENT 1 27 12 29 12 30 14 35 16 38 19 43 30 49 21 53 22 55 22 56
REMARK H PARENT 23 58 23 59 24 60 24 61 28 63 28 64
REMARK Flexibility Score: inf
ROOT
ATOM      1  C   UNL     1     -46.800  37.659  27.957  1.00  0.00    -0.022 C 
ATOM      2  H   UNL     1     -47.637  38.361  27.842  1.00  0.00     0.032 H 
ATOM      3  H   UNL     1     -47.104  36.965  28.752  1.00  0.00     0.032 H 
ENDROOT
BRANCH   1   4
ATOM      4  C   UNL     1     -45.574  38.403  28.433  1.00  0.00    -0.045 A 
ATOM      5  C   UNL     1     -42.409  41.912  27.755  1.00  0.00     0.126 A 
ATOM      6  C   UNL     1     -41.750  41.615  28.938  1.00  0.00    -0.019 A 
ATOM      7  N   UNL     1     -43.487  41.216  27.343  1.00  0.00    -0.231 NA
ATOM      8  C   UNL     1     -42.225  40.578  29.735  1.00  0.00    -0.049 A 
ATOM      9  H   UNL     1     -40.867  42.162  29.241  1.00  0.00     0.066 H 
ATOM     10  C   UNL     1     -43.945  40.202  28.104  1.00  0.00     0.073 A 
ATOM     11  C   UNL     1     -43.339  39.844  29.322  1.00  0.00     0.000 A 
ATOM     12  H   UNL     1     -41.716  40.343  30.665  1.00  0.00     0.063 H 
ATOM     13  C   UNL     1     -45.052  39.473  27.686  1.00  0.00    -0.032 A 
ATOM     14  C   UNL     1     -43.847  38.779  30.084  1.00  0.00    -0.053 A 
ATOM     15  H   UNL     1     -45.527  39.759  26.749  1.00  0.00     0.065 H 
ATOM     16  C   UNL     1     -44.959  38.063  29.641  1.00  0.00    -0.058 A 
ATOM     17  H   UNL     1     -43.386  38.508  31.030  1.00  0.00     0.063 H 
ATOM     18  H   UNL     1     -45.348  37.253  30.252  1.00  0.00     0.063 H 
BRANCH   5  19
ATOM     19  N   UNL     1     -41.983  42.902  26.882  1.00  0.00    -0.370 N 
ATOM     20  H   UNL     1     -41.008  42.688  26.682  1.00  0.00     0.162 HD
BRANCH  19  21
ATOM     21  C   UNL     1     -42.772  43.194  25.694  1.00  0.00     0.013 C 
ATOM     22  H   UNL     1     -43.525  42.402  25.596  1.00  0.00     0.049 H 
ATOM     23  H   UNL     1     -42.168  43.154  24.782  1.00  0.00     0.049 H 
BRANCH  21  24
ATOM     24  C   UNL     1     -43.491  44.529  25.801  1.00  0.00    -0.048 C 
ATOM     25  H   UNL     1     -43.947  44.812  24.848  1.00  0.00     0.025 H 
ATOM     26  H   UNL     1     -42.802  45.328  26.096  1.00  0.00     0.025 H 
ATOM     27  H   UNL     1     -44.288  44.471  26.548  1.00  0.00     0.025 H 
ENDBRANCH  21  24
ENDBRANCH  19  21
ENDBRANCH   5  19
ENDBRANCH   1   4
BRANCH   1  28
ATOM     28  C   UNL     1     -46.589  36.867  26.661  1.00  0.00    -0.005 C 
ATOM     29  H   UNL     1     -45.665  37.207  26.177  1.00  0.00     0.034 H 
ATOM     30  H   UNL     1     -47.400  37.072  25.950  1.00  0.00     0.034 H 
BRANCH  28  31
ATOM     31  C   UNL     1     -46.502  35.383  26.887  1.00  0.00     0.061 A 
ATOM     32  C   UNL     1     -46.070  34.848  28.090  1.00  0.00     0.049 A 
ATOM     33  N   UNL     1     -46.906  34.580  25.877  1.00  0.00    -0.232 NA
ATOM     34  N   UNL     1     -46.024  33.516  28.321  1.00  0.00    -0.259 NA
ATOM     35  H   UNL     1     -45.748  35.476  28.913  1.00  0.00     0.086 H 
ATOM     36  C   UNL     1     -46.895  33.240  26.082  1.00  0.00     0.157 A 
ATOM     37  C   UNL     1     -46.447  32.729  27.294  1.00  0.00     0.070 A 
ATOM     38  H   UNL     1     -46.413  31.673  27.524  1.00  0.00     0.088 H 
BRANCH  36  39
ATOM     39  N   UNL     1     -47.377  32.377  25.047  1.00  0.00    -0.284 N 
ATOM     40  C   UNL     1     -46.608  31.556  24.231  1.00  0.00     0.019 A 
ATOM     41  C   UNL     1     -48.707  32.192  24.690  1.00  0.00     0.151 A 
ATOM     42  C   UNL     1     -47.426  30.845  23.368  1.00  0.00     0.012 A 
ATOM     43  H   UNL     1     -45.533  31.537  24.317  1.00  0.00     0.083 H 
ATOM     44  C   UNL     1     -48.767  31.253  23.668  1.00  0.00     0.067 A 
ATOM     45  N   UNL     1     -49.776  32.798  25.241  1.00  0.00    -0.218 NA
ATOM     46  C   UNL     1     -50.047  30.929  23.180  1.00  0.00     0.136 A 
ATOM     47  C   UNL     1     -50.936  32.403  24.713  1.00  0.00     0.120 A 
ATOM     48  N   UNL     1     -51.129  31.517  23.720  1.00  0.00    -0.219 NA
ATOM     49  H   UNL     1     -51.827  32.855  25.137  1.00  0.00     0.106 H 
BRANCH  42  50
ATOM     50  C   UNL     1     -47.042  29.825  22.326  1.00  0.00     0.085 C 
ATOM     51  C   UNL     1     -47.107  28.365  22.760  1.00  0.00    -0.020 C 
ATOM     52  O   UNL     1     -45.672  30.038  21.909  1.00  0.00    -0.373 OA
ATOM     53  H   UNL     1     -47.687  29.978  21.452  1.00  0.00     0.066 H 
ATOM     54  C   UNL     1     -45.725  28.127  23.314  1.00  0.00    -0.027 C 
ATOM     55  H   UNL     1     -47.909  28.120  23.459  1.00  0.00     0.030 H 
ATOM     56  H   UNL     1     -47.241  27.731  21.873  1.00  0.00     0.030 H 
ATOM     57  C   UNL     1     -44.868  28.943  22.372  1.00  0.00     0.048 C 
ATOM     58  H   UNL     1     -45.651  28.526  24.332  1.00  0.00     0.029 H 
ATOM     59  H   UNL     1     -45.438  27.072  23.340  1.00  0.00     0.029 H 
ATOM     60  H   UNL     1     -44.573  28.356  21.496  1.00  0.00     0.057 H 
ATOM     61  H   UNL     1     -43.965  29.329  22.853  1.00  0.00     0.057 H 
ENDBRANCH  42  50
BRANCH  46  62
ATOM     62  N   UNL     1     -50.267  30.035  22.137  1.00  0.00    -0.383 N 
ATOM     63  H   UNL     1     -49.380  29.682  21.799  1.00  0.00     0.158 HD
ATOM     64  H   UNL     1     -50.953  29.320  22.384  1.00  0.00     0.158 HD
ENDBRANCH  46  62
ENDBRANCH  36  39
ENDBRANCH  28  31
ENDBRANCH   1  28
TORSDOF 9
ENDMDL
MODEL 5
REMARK VINA RESULT:      -9.3      1.820      2.811
REMARK SMILES CCNc1ccc2ccc(CCc3cncc(-n4cc([C@@H]5CCCO5)c5c(N)ncnc54)n3)cc2n1
REMARK SMILES IDX 11 1 10 4 4 5 5 6 36 7 6 8 35 10 7 11 34 13 8 14 9 16 3 19
REMARK SMILES IDX 2 21 1 24 12 28 13 31 14 32 33 33 15 34 17 36 16 37 18 39
REMARK SMILES IDX 19 40 32 41 20 42 26 44 31 45 27 46 30 47 29 48 21 50 22 51
REMARK SMILES IDX 25 52 23 54 24 57 28 62
REMARK H PARENT 11 2 11 3 5 9 6 12 34 15 8 17 9 18 3 20 2 22 2 23 1 25 1 26
REMARK H PARENT 1 27 12 29 12 30 14 35 16 38 19 43 30 49 21 53 22 55 22 56
REMARK H PARENT 23 58 23 59 24 60 24 61 28 63 28 64
REMARK Flexibility Score: inf
ROOT
ATOM      1  C   UNL     1     -47.083  33.173  26.653  1.00  0.00    -0.022 C 
ATOM      2  H   UNL     1     -46.272  32.877  27.333  1.00  0.00     0.032 H 
ATOM      3  H   UNL     1     -47.994  33.174  27.264  1.00  0.00     0.032 H 
ENDROOT
BRANCH   1   4
ATOM      4  C   UNL     1     -47.247  32.129  25.573  1.00  0.00    -0.045 A 
ATOM      5  C   UNL     1     -49.524  28.261  23.947  1.00  0.00     0.126 A 
ATOM      6  C   UNL     1     -48.781  28.253  22.777  1.00  0.00    -0.019 A 
ATOM      7  N   UNL     1     -49.341  29.192  24.904  1.00  0.00    -0.231 NA
ATOM      8  C   UNL     1     -47.826  29.245  22.575  1.00  0.00    -0.049 A 
ATOM      9  H   UNL     1     -48.917  27.481  22.030  1.00  0.00     0.066 H 
ATOM     10  C   UNL     1     -48.409  30.148  24.721  1.00  0.00     0.073 A 
ATOM     11  C   UNL     1     -47.619  30.215  23.559  1.00  0.00     0.000 A 
ATOM     12  H   UNL     1     -47.243  29.246  21.660  1.00  0.00     0.063 H 
ATOM     13  C   UNL     1     -48.205  31.109  25.705  1.00  0.00    -0.032 A 
ATOM     14  C   UNL     1     -46.658  31.228  23.408  1.00  0.00    -0.053 A 
ATOM     15  H   UNL     1     -48.825  31.063  26.598  1.00  0.00     0.065 H 
ATOM     16  C   UNL     1     -46.473  32.179  24.411  1.00  0.00    -0.058 A 
ATOM     17  H   UNL     1     -46.055  31.287  22.505  1.00  0.00     0.063 H 
ATOM     18  H   UNL     1     -45.736  32.965  24.269  1.00  0.00     0.063 H 
BRANCH   5  19
ATOM     19  N   UNL     1     -50.468  27.291  24.248  1.00  0.00    -0.370 N 
ATOM     20  H   UNL     1     -50.338  26.559  23.552  1.00  0.00     0.162 HD
BRANCH  19  21
ATOM     21  C   UNL     1     -50.568  26.791  25.611  1.00  0.00     0.013 C 
ATOM     22  H   UNL     1     -51.586  26.405  25.747  1.00  0.00     0.049 H 
ATOM     23  H   UNL     1     -50.444  27.589  26.350  1.00  0.00     0.049 H 
BRANCH  21  24
ATOM     24  C   UNL     1     -49.587  25.660  25.877  1.00  0.00    -0.048 C 
ATOM     25  H   UNL     1     -49.314  25.146  24.952  1.00  0.00     0.025 H 
ATOM     26  H   UNL     1     -50.012  24.920  26.564  1.00  0.00     0.025 H 
ATOM     27  H   UNL     1     -48.669  26.054  26.324  1.00  0.00     0.025 H 
ENDBRANCH  21  24
ENDBRANCH  19  21
ENDBRANCH   5  19
ENDBRANCH   1   4
BRANCH   1  28
ATOM     28  C   UNL     1     -46.839  34.591  26.123  1.00  0.00    -0.005 C 
ATOM     29  H   UNL     1     -47.674  34.882  25.473  1.00  0.00     0.034 H 
ATOM     30  H   UNL     1     -45.939  34.617  25.495  1.00  0.00     0.034 H 
BRANCH  28  31
ATOM     31  C   UNL     1     -46.698  35.611  27.220  1.00  0.00     0.061 A 
ATOM     32  C   UNL     1     -46.762  35.262  28.560  1.00  0.00     0.049 A 
ATOM     33  N   UNL     1     -46.462  36.889  26.847  1.00  0.00    -0.232 NA
ATOM     34  N   UNL     1     -46.599  36.163  29.555  1.00  0.00    -0.259 NA
ATOM     35  H   UNL     1     -46.946  34.242  28.877  1.00  0.00     0.086 H 
ATOM     36  C   UNL     1     -46.269  37.813  27.820  1.00  0.00     0.157 A 
ATOM     37  C   UNL     1     -46.349  37.439  29.156  1.00  0.00     0.070 A 
ATOM     38  H   UNL     1     -46.206  38.124  29.980  1.00  0.00     0.088 H 
BRANCH  36  39
ATOM     39  N   UNL     1     -45.957  39.158  27.445  1.00  0.00    -0.284 N 
ATOM     40  C   UNL     1     -44.687  39.709  27.324  1.00  0.00     0.019 A 
ATOM     41  C   UNL     1     -46.873  40.149  27.114  1.00  0.00     0.151 A 
ATOM     42  C   UNL     1     -44.779  41.029  26.912  1.00  0.00     0.012 A 
ATOM     43  H   UNL     1     -43.806  39.126  27.542  1.00  0.00     0.083 H 
ATOM     44  C   UNL     1     -46.179  41.304  26.777  1.00  0.00     0.067 A 
ATOM     45  N   UNL     1     -48.214  40.027  27.101  1.00  0.00    -0.218 NA
ATOM     46  C   UNL     1     -46.950  42.420  26.401  1.00  0.00     0.136 A 
ATOM     47  C   UNL     1     -48.841  41.141  26.714  1.00  0.00     0.120 A 
ATOM     48  N   UNL     1     -48.290  42.319  26.374  1.00  0.00    -0.219 NA
ATOM     49  H   UNL     1     -49.924  41.084  26.673  1.00  0.00     0.106 H 
BRANCH  42  50
ATOM     50  C   UNL     1     -43.669  42.010  26.628  1.00  0.00     0.085 C 
ATOM     51  C   UNL     1     -42.251  41.510  26.875  1.00  0.00    -0.020 C 
ATOM     52  O   UNL     1     -43.814  43.177  27.473  1.00  0.00    -0.373 OA
ATOM     53  H   UNL     1     -43.769  42.336  25.586  1.00  0.00     0.066 H 
ATOM     54  C   UNL     1     -42.024  41.872  28.321  1.00  0.00    -0.027 C 
ATOM     55  H   UNL     1     -42.083  40.454  26.655  1.00  0.00     0.030 H 
ATOM     56  H   UNL     1     -41.552  42.089  26.257  1.00  0.00     0.030 H 
ATOM     57  C   UNL     1     -42.741  43.200  28.425  1.00  0.00     0.048 C 
ATOM     58  H   UNL     1     -42.501  41.134  28.976  1.00  0.00     0.029 H 
ATOM     59  H   UNL     1     -40.968  41.939  28.596  1.00  0.00     0.029 H 
ATOM     60  H   UNL     1     -42.078  44.029  28.156  1.00  0.00     0.057 H 
ATOM     61  H   UNL     1     -43.142  43.384  29.426  1.00  0.00     0.057 H 
ENDBRANCH  42  50
BRANCH  46  62
ATOM     62  N   UNL     1     -46.401  43.655  26.071  1.00  0.00    -0.383 N 
ATOM     63  H   UNL     1     -46.520  43.826  25.079  1.00  0.00     0.158 HD
ATOM     64  H   UNL     1     -46.738  44.400  26.682  1.00  0.00     0.158 HD
ENDBRANCH  46  62
ENDBRANCH  36  39
ENDBRANCH  28  31
ENDBRANCH   1  28
TORSDOF 9
ENDMDL
MODEL 6
REMARK VINA RESULT:      -9.3      3.291     11.934
REMARK SMILES CCNc1ccc2ccc(CCc3cncc(-n4cc([C@@H]5CCCO5)c5c(N)ncnc54)n3)cc2n1
REMARK SMILES IDX 11 1 10 4 4 5 5 6 36 7 6 8 35 10 7 11 34 13 8 14 9 16 3 19
REMARK SMILES IDX 2 21 1 24 12 28 13 31 14 32 33 33 15 34 17 36 16 37 18 39
REMARK SMILES IDX 19 40 32 41 20 42 26 44 31 45 27 46 30 47 29 48 21 50 22 51
REMARK SMILES IDX 25 52 23 54 24 57 28 62
REMARK H PARENT 11 2 11 3 5 9 6 12 34 15 8 17 9 18 3 20 2 22 2 23 1 25 1 26
REMARK H PARENT 1 27 12 29 12 30 14 35 16 38 19 43 30 49 21 53 22 55 22 56
REMARK H PARENT 23 58 23 59 24 60 24 61 28 63 28 64
REMARK Flexibility Score: inf
ROOT
ATOM      1  C   UNL     1     -46.610  36.392  28.543  1.00  0.00    -0.022 C 
ATOM      2  H   UNL     1     -47.615  36.806  28.700  1.00  0.00     0.032 H 
ATOM      3  H   UNL     1     -46.493  35.606  29.300  1.00  0.00     0.032 H 
ENDROOT
BRANCH   1   4
ATOM      4  C   UNL     1     -45.573  37.457  28.815  1.00  0.00    -0.045 A 
ATOM      5  C   UNL     1     -43.231  41.345  27.336  1.00  0.00     0.126 A 
ATOM      6  C   UNL     1     -42.528  41.436  28.528  1.00  0.00    -0.019 A 
ATOM      7  N   UNL     1     -44.134  40.370  27.112  1.00  0.00    -0.231 NA
ATOM      8  C   UNL     1     -42.772  40.503  29.531  1.00  0.00    -0.049 A 
ATOM      9  H   UNL     1     -41.782  42.207  28.682  1.00  0.00     0.066 H 
ATOM     10  C   UNL     1     -44.366  39.455  28.074  1.00  0.00     0.073 A 
ATOM     11  C   UNL     1     -43.701  39.484  29.314  1.00  0.00     0.000 A 
ATOM     12  H   UNL     1     -42.227  40.572  30.467  1.00  0.00     0.063 H 
ATOM     13  C   UNL     1     -45.290  38.441  27.852  1.00  0.00    -0.032 A 
ATOM     14  C   UNL     1     -43.972  38.510  30.290  1.00  0.00    -0.053 A 
ATOM     15  H   UNL     1     -45.812  38.428  26.897  1.00  0.00     0.065 H 
ATOM     16  C   UNL     1     -44.903  37.502  30.040  1.00  0.00    -0.058 A 
ATOM     17  H   UNL     1     -43.467  38.538  31.252  1.00  0.00     0.063 H 
ATOM     18  H   UNL     1     -45.112  36.768  30.813  1.00  0.00     0.063 H 
BRANCH   5  19
ATOM     19  N   UNL     1     -43.024  42.207  26.270  1.00  0.00    -0.370 N 
ATOM     20  H   UNL     1     -42.791  41.611  25.478  1.00  0.00     0.162 HD
BRANCH  19  21
ATOM     21  C   UNL     1     -44.027  43.218  25.965  1.00  0.00     0.013 C 
ATOM     22  H   UNL     1     -45.012  42.751  26.085  1.00  0.00     0.049 H 
ATOM     23  H   UNL     1     -43.972  43.546  24.922  1.00  0.00     0.049 H 
BRANCH  21  24
ATOM     24  C   UNL     1     -43.941  44.409  26.905  1.00  0.00    -0.048 C 
ATOM     25  H   UNL     1     -44.122  45.348  26.374  1.00  0.00     0.025 H 
ATOM     26  H   UNL     1     -42.955  44.471  27.377  1.00  0.00     0.025 H 
ATOM     27  H   UNL     1     -44.693  44.322  27.695  1.00  0.00     0.025 H 
ENDBRANCH  21  24
ENDBRANCH  19  21
ENDBRANCH   5  19
ENDBRANCH   1   4
BRANCH   1  28
ATOM     28  C   UNL     1     -46.509  35.759  27.150  1.00  0.00    -0.005 C 
ATOM     29  H   UNL     1     -45.580  35.181  27.083  1.00  0.00     0.034 H 
ATOM     30  H   UNL     1     -46.441  36.537  26.379  1.00  0.00     0.034 H 
BRANCH  28  31
ATOM     31  C   UNL     1     -47.669  34.856  26.831  1.00  0.00     0.061 A 
ATOM     32  C   UNL     1     -48.983  35.244  27.042  1.00  0.00     0.049 A 
ATOM     33  N   UNL     1     -47.382  33.652  26.285  1.00  0.00    -0.232 NA
ATOM     34  N   UNL     1     -50.035  34.457  26.723  1.00  0.00    -0.259 NA
ATOM     35  H   UNL     1     -49.232  36.207  27.474  1.00  0.00     0.086 H 
ATOM     36  C   UNL     1     -48.414  32.848  25.932  1.00  0.00     0.157 A 
ATOM     37  C   UNL     1     -49.721  33.258  26.164  1.00  0.00     0.070 A 
ATOM     38  H   UNL     1     -50.590  32.666  25.906  1.00  0.00     0.088 H 
BRANCH  36  39
ATOM     39  N   UNL     1     -48.131  31.598  25.296  1.00  0.00    -0.284 N 
ATOM     40  C   UNL     1     -48.692  30.366  25.609  1.00  0.00     0.019 A 
ATOM     41  C   UNL     1     -47.258  31.399  24.233  1.00  0.00     0.151 A 
ATOM     42  C   UNL     1     -48.198  29.389  24.759  1.00  0.00     0.012 A 
ATOM     43  H   UNL     1     -49.400  30.267  26.417  1.00  0.00     0.083 H 
ATOM     44  C   UNL     1     -47.284  30.056  23.880  1.00  0.00     0.067 A 
ATOM     45  N   UNL     1     -46.512  32.341  23.623  1.00  0.00    -0.218 NA
ATOM     46  C   UNL     1     -46.460  29.668  22.807  1.00  0.00     0.136 A 
ATOM     47  C   UNL     1     -45.785  31.863  22.611  1.00  0.00     0.120 A 
ATOM     48  N   UNL     1     -45.713  30.592  22.178  1.00  0.00    -0.219 NA
ATOM     49  H   UNL     1     -45.179  32.590  22.080  1.00  0.00     0.106 H 
BRANCH  42  50
ATOM     50  C   UNL     1     -48.535  27.920  24.709  1.00  0.00     0.085 C 
ATOM     51  C   UNL     1     -49.388  27.388  25.854  1.00  0.00    -0.020 C 
ATOM     52  O   UNL     1     -47.319  27.134  24.743  1.00  0.00    -0.373 OA
ATOM     53  H   UNL     1     -49.036  27.723  23.754  1.00  0.00     0.066 H 
ATOM     54  C   UNL     1     -48.352  26.982  26.873  1.00  0.00    -0.027 C 
ATOM     55  H   UNL     1     -50.137  28.082  26.241  1.00  0.00     0.030 H 
ATOM     56  H   UNL     1     -49.920  26.487  25.519  1.00  0.00     0.030 H 
ATOM     57  C   UNL     1     -47.251  26.434  25.993  1.00  0.00     0.048 C 
ATOM     58  H   UNL     1     -47.995  27.861  27.421  1.00  0.00     0.029 H 
ATOM     59  H   UNL     1     -48.716  26.252  27.601  1.00  0.00     0.029 H 
ATOM     60  H   UNL     1     -47.403  25.369  25.786  1.00  0.00     0.057 H 
ATOM     61  H   UNL     1     -46.258  26.565  26.433  1.00  0.00     0.057 H 
ENDBRANCH  42  50
BRANCH  46  62
ATOM     62  N   UNL     1     -46.352  28.355  22.359  1.00  0.00    -0.383 N 
ATOM     63  H   UNL     1     -45.986  28.347  21.414  1.00  0.00     0.158 HD
ATOM     64  H   UNL     1     -45.850  27.764  23.023  1.00  0.00     0.158 HD
ENDBRANCH  46  62
ENDBRANCH  36  39
ENDBRANCH  28  31
ENDBRANCH   1  28
TORSDOF 9
ENDMDL
MODEL 7
REMARK VINA RESULT:      -9.0      3.409     12.143
REMARK SMILES CCNc1ccc2ccc(CCc3cncc(-n4cc([C@@H]5CCCO5)c5c(N)ncnc54)n3)cc2n1
REMARK SMILES IDX 11 1 10 4 4 5 5 6 36 7 6 8 35 10 7 11 34 13 8 14 9 16 3 19
REMARK SMILES IDX 2 21 1 24 12 28 13 31 14 32 33 33 15 34 17 36 16 37 18 39
REMARK SMILES IDX 19 40 32 41 20 42 26 44 31 45 27 46 30 47 29 48 21 50 22 51
REMARK SMILES IDX 25 52 23 54 24 57 28 62
REMARK H PARENT 11 2 11 3 5 9 6 12 34 15 8 17 9 18 3 20 2 22 2 23 1 25 1 26
REMARK H PARENT 1 27 12 29 12 30 14 35 16 38 19 43 30 49 21 53 22 55 22 56
REMARK H PARENT 23 58 23 59 24 60 24 61 28 63 28 64
REMARK Flexibility Score: inf
ROOT
ATOM      1  C   UNL     1     -48.092  35.884  28.387  1.00  0.00    -0.022 C 
ATOM      2  H   UNL     1     -48.912  36.212  29.041  1.00  0.00     0.032 H 
ATOM      3  H   UNL     1     -47.695  34.970  28.847  1.00  0.00     0.032 H 
ENDROOT
BRANCH   1   4
ATOM      4  C   UNL     1     -46.994  36.921  28.388  1.00  0.00    -0.045 A 
ATOM      5  C   UNL     1     -45.037  40.797  26.404  1.00  0.00     0.126 A 
ATOM      6  C   UNL     1     -44.037  40.845  27.363  1.00  0.00    -0.019 A 
ATOM      7  N   UNL     1     -45.991  39.846  26.414  1.00  0.00    -0.231 NA
ATOM      8  C   UNL     1     -44.026  39.893  28.378  1.00  0.00    -0.049 A 
ATOM      9  H   UNL     1     -43.258  41.596  27.325  1.00  0.00     0.066 H 
ATOM     10  C   UNL     1     -45.979  38.913  27.386  1.00  0.00     0.073 A 
ATOM     11  C   UNL     1     -45.005  38.897  28.401  1.00  0.00     0.000 A 
ATOM     12  H   UNL     1     -43.247  39.927  29.134  1.00  0.00     0.063 H 
ATOM     13  C   UNL     1     -46.955  37.923  27.403  1.00  0.00    -0.032 A 
ATOM     14  C   UNL     1     -45.028  37.906  29.396  1.00  0.00    -0.053 A 
ATOM     15  H   UNL     1     -47.715  37.943  26.624  1.00  0.00     0.065 H 
ATOM     16  C   UNL     1     -46.018  36.923  29.388  1.00  0.00    -0.058 A 
ATOM     17  H   UNL     1     -44.282  37.900  30.186  1.00  0.00     0.063 H 
ATOM     18  H   UNL     1     -46.029  36.174  30.176  1.00  0.00     0.063 H 
BRANCH   5  19
ATOM     19  N   UNL     1     -45.102  41.681  25.337  1.00  0.00    -0.370 N 
ATOM     20  H   UNL     1     -46.052  41.605  24.978  1.00  0.00     0.162 HD
BRANCH  19  21
ATOM     21  C   UNL     1     -44.655  43.054  25.521  1.00  0.00     0.013 C 
ATOM     22  H   UNL     1     -44.316  43.155  26.559  1.00  0.00     0.049 H 
ATOM     23  H   UNL     1     -45.474  43.771  25.397  1.00  0.00     0.049 H 
BRANCH  21  24
ATOM     24  C   UNL     1     -43.496  43.404  24.601  1.00  0.00    -0.048 C 
ATOM     25  H   UNL     1     -42.620  43.724  25.171  1.00  0.00     0.025 H 
ATOM     26  H   UNL     1     -43.766  44.213  23.913  1.00  0.00     0.025 H 
ATOM     27  H   UNL     1     -43.208  42.532  24.007  1.00  0.00     0.025 H 
ENDBRANCH  21  24
ENDBRANCH  19  21
ENDBRANCH   5  19
ENDBRANCH   1   4
BRANCH   1  28
ATOM     28  C   UNL     1     -48.632  35.543  26.992  1.00  0.00    -0.005 C 
ATOM     29  H   UNL     1     -48.624  36.448  26.372  1.00  0.00     0.034 H 
ATOM     30  H   UNL     1     -49.680  35.224  27.054  1.00  0.00     0.034 H 
BRANCH  28  31
ATOM     31  C   UNL     1     -47.835  34.471  26.301  1.00  0.00     0.061 A 
ATOM     32  C   UNL     1     -46.484  34.619  26.032  1.00  0.00     0.049 A 
ATOM     33  N   UNL     1     -48.483  33.327  25.984  1.00  0.00    -0.232 NA
ATOM     34  N   UNL     1     -45.747  33.648  25.446  1.00  0.00    -0.259 NA
ATOM     35  H   UNL     1     -45.946  35.527  26.282  1.00  0.00     0.086 H 
ATOM     36  C   UNL     1     -47.770  32.324  25.417  1.00  0.00     0.157 A 
ATOM     37  C   UNL     1     -46.418  32.503  25.149  1.00  0.00     0.070 A 
ATOM     38  H   UNL     1     -45.791  31.744  24.700  1.00  0.00     0.088 H 
BRANCH  36  39
ATOM     39  N   UNL     1     -48.424  31.084  25.133  1.00  0.00    -0.284 N 
ATOM     40  C   UNL     1     -48.325  29.909  25.867  1.00  0.00     0.019 A 
ATOM     41  C   UNL     1     -49.296  30.843  24.078  1.00  0.00     0.151 A 
ATOM     42  C   UNL     1     -49.125  28.927  25.305  1.00  0.00     0.012 A 
ATOM     43  H   UNL     1     -47.689  29.850  26.737  1.00  0.00     0.083 H 
ATOM     44  C   UNL     1     -49.746  29.531  24.163  1.00  0.00     0.067 A 
ATOM     45  N   UNL     1     -49.669  31.723  23.130  1.00  0.00    -0.218 NA
ATOM     46  C   UNL     1     -50.653  29.107  23.173  1.00  0.00     0.136 A 
ATOM     47  C   UNL     1     -50.543  31.218  22.256  1.00  0.00     0.120 A 
ATOM     48  N   UNL     1     -51.044  29.972  22.221  1.00  0.00    -0.219 NA
ATOM     49  H   UNL     1     -50.883  31.898  21.481  1.00  0.00     0.106 H 
BRANCH  42  50
ATOM     50  C   UNL     1     -49.351  27.510  25.768  1.00  0.00     0.085 C 
ATOM     51  C   UNL     1     -48.670  27.115  27.073  1.00  0.00    -0.020 C 
ATOM     52  O   UNL     1     -48.847  26.581  24.779  1.00  0.00    -0.373 OA
ATOM     53  H   UNL     1     -50.433  27.355  25.856  1.00  0.00     0.066 H 
ATOM     54  C   UNL     1     -47.330  26.608  26.602  1.00  0.00    -0.027 C 
ATOM     55  H   UNL     1     -48.602  27.905  27.824  1.00  0.00     0.030 H 
ATOM     56  H   UNL     1     -49.219  26.279  27.527  1.00  0.00     0.030 H 
ATOM     57  C   UNL     1     -47.699  25.908  25.313  1.00  0.00     0.048 C 
ATOM     58  H   UNL     1     -46.658  27.449  26.395  1.00  0.00     0.029 H 
ATOM     59  H   UNL     1     -46.835  25.945  27.317  1.00  0.00     0.029 H 
ATOM     60  H   UNL     1     -47.982  24.866  25.496  1.00  0.00     0.057 H 
ATOM     61  H   UNL     1     -46.889  25.925  24.579  1.00  0.00     0.057 H 
ENDBRANCH  42  50
BRANCH  46  62
ATOM     62  N   UNL     1     -51.164  27.815  23.104  1.00  0.00    -0.383 N 
ATOM     63  H   UNL     1     -52.122  27.846  22.777  1.00  0.00     0.158 HD
ATOM     64  H   UNL     1     -50.549  27.187  22.586  1.00  0.00     0.158 HD
ENDBRANCH  46  62
ENDBRANCH  36  39
ENDBRANCH  28  31
ENDBRANCH   1  28
TORSDOF 9
ENDMDL
