MODEL 1
REMARK VINA RESULT:     -10.1      0.000      0.000
REMARK SMILES Cc1cc(N)c2ccc(OCc3cncc(-n4ccc5c(N)ncnc54)c3)cc2n1
REMARK SMILES IDX 11 1 10 4 9 5 2 6 3 7 30 8 4 9 29 11 6 12 28 13 7 14 8 16
REMARK SMILES IDX 1 19 5 23 12 26 13 27 27 28 14 29 16 31 15 33 17 35 18 36
REMARK SMILES IDX 26 37 19 38 20 40 25 41 21 43 24 44 23 45 22 47
REMARK H PARENT 11 2 11 3 3 10 28 15 7 17 8 18 1 20 1 21 1 22 5 24 5 25 13 30
REMARK H PARENT 27 32 15 34 18 39 19 42 24 46 22 48 22 49
REMARK Flexibility Score: inf
ROOT
ATOM      1  C   UNL     1     -46.686  36.728  26.769  1.00  0.00     0.115 C 
ATOM      2  H   UNL     1     -45.790  37.004  26.200  1.00  0.00     0.076 H 
ATOM      3  H   UNL     1     -47.529  37.142  26.203  1.00  0.00     0.076 H 
ENDROOT
BRANCH   1   4
ATOM      4  O   UNL     1     -46.565  37.345  28.051  1.00  0.00    -0.489 OA
BRANCH   4   5
ATOM      5  C   UNL     1     -45.577  38.270  28.249  1.00  0.00     0.122 A 
ATOM      6  C   UNL     1     -43.011  42.097  27.103  1.00  0.00     0.040 A 
ATOM      7  C   UNL     1     -42.245  42.031  28.258  1.00  0.00    -0.017 A 
ATOM      8  N   UNL     1     -43.964  41.188  26.809  1.00  0.00    -0.253 NA
ATOM      9  C   UNL     1     -42.432  40.968  29.140  1.00  0.00     0.043 A 
ATOM     10  H   UNL     1     -41.505  42.798  28.462  1.00  0.00     0.066 H 
ATOM     11  C   UNL     1     -44.209  40.205  27.690  1.00  0.00     0.076 A 
ATOM     12  C   UNL     1     -43.485  40.054  28.892  1.00  0.00     0.023 A 
ATOM     13  C   UNL     1     -45.232  39.312  27.391  1.00  0.00     0.007 A 
ATOM     14  C   UNL     1     -43.849  39.006  29.767  1.00  0.00    -0.047 A 
ATOM     15  H   UNL     1     -45.758  39.478  26.458  1.00  0.00     0.069 H 
ATOM     16  C   UNL     1     -44.882  38.126  29.445  1.00  0.00    -0.019 A 
ATOM     17  H   UNL     1     -43.340  38.871  30.717  1.00  0.00     0.063 H 
ATOM     18  H   UNL     1     -45.147  37.328  30.134  1.00  0.00     0.066 H 
BRANCH   6  19
ATOM     19  C   UNL     1     -42.805  43.217  26.128  1.00  0.00    -0.022 C 
ATOM     20  H   UNL     1     -43.746  43.742  25.933  1.00  0.00     0.030 H 
ATOM     21  H   UNL     1     -42.088  43.941  26.528  1.00  0.00     0.030 H 
ATOM     22  H   UNL     1     -42.429  42.826  25.176  1.00  0.00     0.030 H 
ENDBRANCH   6  19
BRANCH   9  23
ATOM     23  N   UNL     1     -41.703  40.969  30.349  1.00  0.00    -0.398 N 
ATOM     24  H   UNL     1     -40.922  41.615  30.355  1.00  0.00     0.156 HD
ATOM     25  H   UNL     1     -42.282  41.079  31.176  1.00  0.00     0.156 HD
ENDBRANCH   9  23
ENDBRANCH   4   5
ENDBRANCH   1   4
BRANCH   1  26
ATOM     26  C   UNL     1     -46.721  35.225  26.856  1.00  0.00     0.010 A 
ATOM     27  C   UNL     1     -46.143  34.563  27.930  1.00  0.00     0.034 A 
ATOM     28  C   UNL     1     -47.294  34.443  25.844  1.00  0.00    -0.028 A 
ATOM     29  N   UNL     1     -46.107  33.220  28.052  1.00  0.00    -0.262 NA
ATOM     30  H   UNL     1     -45.678  35.108  28.748  1.00  0.00     0.084 H 
ATOM     31  C   UNL     1     -47.289  33.043  25.937  1.00  0.00     0.066 A 
ATOM     32  H   UNL     1     -47.725  34.955  24.990  1.00  0.00     0.065 H 
ATOM     33  C   UNL     1     -46.681  32.491  27.060  1.00  0.00     0.051 A 
ATOM     34  H   UNL     1     -46.632  31.426  27.251  1.00  0.00     0.086 H 
BRANCH  31  35
ATOM     35  N   UNL     1     -47.888  32.229  24.924  1.00  0.00    -0.300 N 
ATOM     36  C   UNL     1     -49.253  32.022  24.771  1.00  0.00     0.012 A 
ATOM     37  C   UNL     1     -47.250  31.502  23.915  1.00  0.00     0.150 A 
ATOM     38  C   UNL     1     -49.477  31.185  23.702  1.00  0.00    -0.031 A 
ATOM     39  H   UNL     1     -49.974  32.456  25.448  1.00  0.00     0.082 H 
ATOM     40  C   UNL     1     -48.218  30.854  23.151  1.00  0.00     0.061 A 
ATOM     41  N   UNL     1     -45.923  31.436  23.681  1.00  0.00    -0.218 NA
ATOM     42  H   UNL     1     -50.445  30.839  23.365  1.00  0.00     0.065 H 
ATOM     43  C   UNL     1     -47.774  30.068  22.078  1.00  0.00     0.136 A 
ATOM     44  C   UNL     1     -45.617  30.656  22.633  1.00  0.00     0.120 A 
ATOM     45  N   UNL     1     -46.456  29.982  21.830  1.00  0.00    -0.219 NA
ATOM     46  H   UNL     1     -44.560  30.559  22.404  1.00  0.00     0.106 H 
BRANCH  43  47
ATOM     47  N   UNL     1     -48.625  29.376  21.229  1.00  0.00    -0.383 N 
ATOM     48  H   UNL     1     -48.186  28.989  20.406  1.00  0.00     0.158 HD
ATOM     49  H   UNL     1     -49.222  28.750  21.757  1.00  0.00     0.158 HD
ENDBRANCH  43  47
ENDBRANCH  31  35
ENDBRANCH   1  26
TORSDOF 7
ENDMDL
MODEL 2
REMARK VINA RESULT:     -10.0      1.738     10.252
REMARK SMILES Cc1cc(N)c2ccc(OCc3cncc(-n4ccc5c(N)ncnc54)c3)cc2n1
REMARK SMILES IDX 11 1 10 4 9 5 2 6 3 7 30 8 4 9 29 11 6 12 28 13 7 14 8 16
REMARK SMILES IDX 1 19 5 23 12 26 13 27 27 28 14 29 16 31 15 33 17 35 18 36
REMARK SMILES IDX 26 37 19 38 20 40 25 41 21 43 24 44 23 45 22 47
REMARK H PARENT 11 2 11 3 3 10 28 15 7 17 8 18 1 20 1 21 1 22 5 24 5 25 13 30
REMARK H PARENT 27 32 15 34 18 39 19 42 24 46 22 48 22 49
REMARK Flexibility Score: inf
ROOT
ATOM      1  C   UNL     1     -48.262  35.861  27.011  1.00  0.00     0.115 C 
ATOM      2  H   UNL     1     -49.243  36.282  27.266  1.00  0.00     0.076 H 
ATOM      3  H   UNL     1     -48.162  35.995  25.927  1.00  0.00     0.076 H 
ENDROOT
BRANCH   1   4
ATOM      4  O   UNL     1     -48.305  34.478  27.364  1.00  0.00    -0.489 OA
BRANCH   4   5
ATOM      5  C   UNL     1     -47.960  33.545  26.425  1.00  0.00     0.122 A 
ATOM      6  C   UNL     1     -48.768  29.807  23.611  1.00  0.00     0.040 A 
ATOM      7  C   UNL     1     -47.503  29.856  23.045  1.00  0.00    -0.017 A 
ATOM      8  N   UNL     1     -49.163  30.656  24.583  1.00  0.00    -0.253 NA
ATOM      9  C   UNL     1     -46.580  30.789  23.515  1.00  0.00     0.043 A 
ATOM     10  H   UNL     1     -47.238  29.167  22.250  1.00  0.00     0.066 H 
ATOM     11  C   UNL     1     -48.312  31.611  24.989  1.00  0.00     0.076 A 
ATOM     12  C   UNL     1     -47.004  31.742  24.474  1.00  0.00     0.023 A 
ATOM     13  C   UNL     1     -48.760  32.507  25.953  1.00  0.00     0.007 A 
ATOM     14  C   UNL     1     -46.202  32.806  24.943  1.00  0.00    -0.047 A 
ATOM     15  H   UNL     1     -49.773  32.363  26.309  1.00  0.00     0.069 H 
ATOM     16  C   UNL     1     -46.677  33.694  25.908  1.00  0.00    -0.019 A 
ATOM     17  H   UNL     1     -45.201  32.965  24.552  1.00  0.00     0.063 H 
ATOM     18  H   UNL     1     -46.044  34.507  26.253  1.00  0.00     0.066 H 
BRANCH   6  19
ATOM     19  C   UNL     1     -49.765  28.792  23.138  1.00  0.00    -0.022 C 
ATOM     20  H   UNL     1     -49.359  27.779  23.225  1.00  0.00     0.030 H 
ATOM     21  H   UNL     1     -50.676  28.846  23.742  1.00  0.00     0.030 H 
ATOM     22  H   UNL     1     -50.018  28.969  22.088  1.00  0.00     0.030 H 
ENDBRANCH   6  19
BRANCH   9  23
ATOM     23  N   UNL     1     -45.330  30.876  22.866  1.00  0.00    -0.398 N 
ATOM     24  H   UNL     1     -44.922  29.976  22.642  1.00  0.00     0.156 HD
ATOM     25  H   UNL     1     -45.330  31.494  22.060  1.00  0.00     0.156 HD
ENDBRANCH   9  23
ENDBRANCH   4   5
ENDBRANCH   1   4
BRANCH   1  26
ATOM     26  C   UNL     1     -47.225  36.621  27.794  1.00  0.00     0.010 A 
ATOM     27  C   UNL     1     -46.902  36.251  29.091  1.00  0.00     0.034 A 
ATOM     28  C   UNL     1     -46.584  37.749  27.263  1.00  0.00    -0.028 A 
ATOM     29  N   UNL     1     -46.011  36.909  29.860  1.00  0.00    -0.262 NA
ATOM     30  H   UNL     1     -47.365  35.388  29.565  1.00  0.00     0.084 H 
ATOM     31  C   UNL     1     -45.641  38.456  28.024  1.00  0.00     0.066 A 
ATOM     32  H   UNL     1     -46.852  38.059  26.258  1.00  0.00     0.065 H 
ATOM     33  C   UNL     1     -45.399  37.990  29.312  1.00  0.00     0.051 A 
ATOM     34  H   UNL     1     -44.680  38.441  29.986  1.00  0.00     0.086 H 
BRANCH  31  35
ATOM     35  N   UNL     1     -44.962  39.597  27.491  1.00  0.00    -0.300 N 
ATOM     36  C   UNL     1     -45.264  40.213  26.283  1.00  0.00     0.012 A 
ATOM     37  C   UNL     1     -43.894  40.304  28.053  1.00  0.00     0.150 A 
ATOM     38  C   UNL     1     -44.413  41.274  26.079  1.00  0.00    -0.031 A 
ATOM     39  H   UNL     1     -46.042  39.840  25.633  1.00  0.00     0.082 H 
ATOM     40  C   UNL     1     -43.546  41.343  27.193  1.00  0.00     0.061 A 
ATOM     41  N   UNL     1     -43.294  40.058  29.236  1.00  0.00    -0.218 NA
ATOM     42  H   UNL     1     -44.409  41.921  25.211  1.00  0.00     0.065 H 
ATOM     43  C   UNL     1     -42.488  42.176  27.584  1.00  0.00     0.136 A 
ATOM     44  C   UNL     1     -42.298  40.915  29.502  1.00  0.00     0.120 A 
ATOM     45  N   UNL     1     -41.871  41.946  28.755  1.00  0.00    -0.219 NA
ATOM     46  H   UNL     1     -41.773  40.759  30.440  1.00  0.00     0.106 H 
BRANCH  43  47
ATOM     47  N   UNL     1     -42.040  43.254  26.833  1.00  0.00    -0.383 N 
ATOM     48  H   UNL     1     -42.395  44.154  27.123  1.00  0.00     0.158 HD
ATOM     49  H   UNL     1     -41.040  43.191  26.682  1.00  0.00     0.158 HD
ENDBRANCH  43  47
ENDBRANCH  31  35
ENDBRANCH   1  26
TORSDOF 7
ENDMDL
MODEL 3
REMARK VINA RESULT:      -9.4      1.843     10.263
REMARK SMILES Cc1cc(N)c2ccc(OCc3cncc(-n4ccc5c(N)ncnc54)c3)cc2n1
REMARK SMILES IDX 11 1 10 4 9 5 2 6 3 7 30 8 4 9 29 11 6 12 28 13 7 14 8 16
REMARK SMILES IDX 1 19 5 23 12 26 13 27 27 28 14 29 16 31 15 33 17 35 18 36
REMARK SMILES IDX 26 37 19 38 20 40 25 41 21 43 24 44 23 45 22 47
REMARK H PARENT 11 2 11 3 3 10 28 15 7 17 8 18 1 20 1 21 1 22 5 24 5 25 13 30
REMARK H PARENT 27 32 15 34 18 39 19 42 24 46 22 48 22 49
REMARK Flexibility Score: inf
ROOT
ATOM      1  C   UNL     1     -46.716  35.854  28.038  1.00  0.00     0.115 C 
ATOM      2  H   UNL     1     -45.865  35.535  27.424  1.00  0.00     0.076 H 
ATOM      3  H   UNL     1     -46.491  35.503  29.052  1.00  0.00     0.076 H 
ENDROOT
BRANCH   1   4
ATOM      4  O   UNL     1     -47.871  35.204  27.506  1.00  0.00    -0.489 OA
BRANCH   4   5
ATOM      5  C   UNL     1     -47.703  34.190  26.604  1.00  0.00     0.122 A 
ATOM      6  C   UNL     1     -49.184  30.568  23.914  1.00  0.00     0.040 A 
ATOM      7  C   UNL     1     -47.930  30.361  23.358  1.00  0.00    -0.017 A 
ATOM      8  N   UNL     1     -49.416  31.509  24.853  1.00  0.00    -0.253 NA
ATOM      9  C   UNL     1     -46.851  31.124  23.804  1.00  0.00     0.043 A 
ATOM     10  H   UNL     1     -47.795  29.607  22.590  1.00  0.00     0.066 H 
ATOM     11  C   UNL     1     -48.404  32.304  25.232  1.00  0.00     0.076 A 
ATOM     12  C   UNL     1     -47.093  32.172  24.725  1.00  0.00     0.023 A 
ATOM     13  C   UNL     1     -48.680  33.302  26.160  1.00  0.00     0.007 A 
ATOM     14  C   UNL     1     -46.109  33.086  25.164  1.00  0.00    -0.047 A 
ATOM     15  H   UNL     1     -49.704  33.361  26.512  1.00  0.00     0.069 H 
ATOM     16  C   UNL     1     -46.414  34.080  26.093  1.00  0.00    -0.019 A 
ATOM     17  H   UNL     1     -45.095  33.042  24.776  1.00  0.00     0.063 H 
ATOM     18  H   UNL     1     -45.641  34.774  26.415  1.00  0.00     0.066 H 
BRANCH   6  19
ATOM     19  C   UNL     1     -50.350  29.739  23.468  1.00  0.00    -0.022 C 
ATOM     20  H   UNL     1     -50.255  28.708  23.826  1.00  0.00     0.030 H 
ATOM     21  H   UNL     1     -51.282  30.152  23.864  1.00  0.00     0.030 H 
ATOM     22  H   UNL     1     -50.403  29.716  22.374  1.00  0.00     0.030 H 
ENDBRANCH   6  19
BRANCH   9  23
ATOM     23  N   UNL     1     -45.605  30.955  23.164  1.00  0.00    -0.398 N 
ATOM     24  H   UNL     1     -44.892  31.604  23.477  1.00  0.00     0.156 HD
ATOM     25  H   UNL     1     -45.265  29.998  23.176  1.00  0.00     0.156 HD
ENDBRANCH   9  23
ENDBRANCH   4   5
ENDBRANCH   1   4
BRANCH   1  26
ATOM     26  C   UNL     1     -46.807  37.354  27.942  1.00  0.00     0.010 A 
ATOM     27  C   UNL     1     -48.038  37.993  27.955  1.00  0.00     0.034 A 
ATOM     28  C   UNL     1     -45.664  38.151  27.793  1.00  0.00    -0.028 A 
ATOM     29  N   UNL     1     -48.192  39.328  27.836  1.00  0.00    -0.262 NA
ATOM     30  H   UNL     1     -48.965  37.434  28.063  1.00  0.00     0.084 H 
ATOM     31  C   UNL     1     -45.778  39.545  27.679  1.00  0.00     0.066 A 
ATOM     32  H   UNL     1     -44.700  37.654  27.757  1.00  0.00     0.065 H 
ATOM     33  C   UNL     1     -47.064  40.073  27.705  1.00  0.00     0.051 A 
ATOM     34  H   UNL     1     -47.277  41.133  27.644  1.00  0.00     0.086 H 
BRANCH  31  35
ATOM     35  N   UNL     1     -44.621  40.376  27.547  1.00  0.00    -0.300 N 
ATOM     36  C   UNL     1     -43.563  40.419  28.446  1.00  0.00     0.012 A 
ATOM     37  C   UNL     1     -44.324  41.284  26.526  1.00  0.00     0.150 A 
ATOM     38  C   UNL     1     -42.625  41.328  28.015  1.00  0.00    -0.031 A 
ATOM     39  H   UNL     1     -43.558  39.824  29.348  1.00  0.00     0.082 H 
ATOM     40  C   UNL     1     -43.094  41.877  26.800  1.00  0.00     0.061 A 
ATOM     41  N   UNL     1     -45.073  41.547  25.435  1.00  0.00    -0.218 NA
ATOM     42  H   UNL     1     -41.707  41.578  28.529  1.00  0.00     0.065 H 
ATOM     43  C   UNL     1     -42.616  42.824  25.882  1.00  0.00     0.136 A 
ATOM     44  C   UNL     1     -44.518  42.467  24.632  1.00  0.00     0.120 A 
ATOM     45  N   UNL     1     -43.348  43.107  24.791  1.00  0.00    -0.219 NA
ATOM     46  H   UNL     1     -45.082  42.725  23.741  1.00  0.00     0.106 H 
BRANCH  43  47
ATOM     47  N   UNL     1     -41.405  43.486  26.022  1.00  0.00    -0.383 N 
ATOM     48  H   UNL     1     -40.945  43.725  25.155  1.00  0.00     0.158 HD
ATOM     49  H   UNL     1     -41.481  44.225  26.710  1.00  0.00     0.158 HD
ENDBRANCH  43  47
ENDBRANCH  31  35
ENDBRANCH   1  26
TORSDOF 7
ENDMDL
MODEL 4
REMARK VINA RESULT:      -9.3      1.858      2.563
REMARK SMILES Cc1cc(N)c2ccc(OCc3cncc(-n4ccc5c(N)ncnc54)c3)cc2n1
REMARK SMILES IDX 11 1 10 4 9 5 2 6 3 7 30 8 4 9 29 11 6 12 28 13 7 14 8 16
REMARK SMILES IDX 1 19 5 23 12 26 13 27 27 28 14 29 16 31 15 33 17 35 18 36
REMARK SMILES IDX 26 37 19 38 20 40 25 41 21 43 24 44 23 45 22 47
REMARK H PARENT 11 2 11 3 3 10 28 15 7 17 8 18 1 20 1 21 1 22 5 24 5 25 13 30
REMARK H PARENT 27 32 15 34 18 39 19 42 24 46 22 48 22 49
REMARK Flexibility Score: inf
ROOT
ATOM      1  C   UNL     1     -48.784  35.005  26.971  1.00  0.00     0.115 C 
ATOM      2  H   UNL     1     -48.774  35.941  26.398  1.00  0.00     0.076 H 
ATOM      3  H   UNL     1     -49.843  34.737  27.070  1.00  0.00     0.076 H 
ENDROOT
BRANCH   1   4
ATOM      4  O   UNL     1     -48.198  35.295  28.241  1.00  0.00    -0.489 OA
BRANCH   4   5
ATOM      5  C   UNL     1     -47.274  36.298  28.329  1.00  0.00     0.122 A 
ATOM      6  C   UNL     1     -45.105  40.257  26.854  1.00  0.00     0.040 A 
ATOM      7  C   UNL     1     -44.253  40.296  27.948  1.00  0.00    -0.017 A 
ATOM      8  N   UNL     1     -46.003  39.268  26.667  1.00  0.00    -0.253 NA
ATOM      9  C   UNL     1     -44.290  39.259  28.879  1.00  0.00     0.043 A 
ATOM     10  H   UNL     1     -43.561  41.123  28.068  1.00  0.00     0.066 H 
ATOM     11  C   UNL     1     -46.106  38.306  27.598  1.00  0.00     0.076 A 
ATOM     12  C   UNL     1     -45.284  38.258  28.745  1.00  0.00     0.023 A 
ATOM     13  C   UNL     1     -47.076  37.328  27.411  1.00  0.00     0.007 A 
ATOM     14  C   UNL     1     -45.500  37.223  29.682  1.00  0.00    -0.047 A 
ATOM     15  H   UNL     1     -47.681  37.416  26.516  1.00  0.00     0.069 H 
ATOM     16  C   UNL     1     -46.483  36.256  29.472  1.00  0.00    -0.019 A 
ATOM     17  H   UNL     1     -44.913  37.165  30.594  1.00  0.00     0.063 H 
ATOM     18  H   UNL     1     -46.633  35.469  30.207  1.00  0.00     0.066 H 
BRANCH   6  19
ATOM     19  C   UNL     1     -45.059  41.348  25.827  1.00  0.00    -0.022 C 
ATOM     20  H   UNL     1     -44.142  41.937  25.925  1.00  0.00     0.030 H 
ATOM     21  H   UNL     1     -45.084  40.921  24.820  1.00  0.00     0.030 H 
ATOM     22  H   UNL     1     -45.913  42.023  25.953  1.00  0.00     0.030 H 
ENDBRANCH   6  19
BRANCH   9  23
ATOM     23  N   UNL     1     -43.476  39.363  30.027  1.00  0.00    -0.398 N 
ATOM     24  H   UNL     1     -43.265  40.319  30.294  1.00  0.00     0.156 HD
ATOM     25  H   UNL     1     -43.813  38.823  30.819  1.00  0.00     0.156 HD
ENDBRANCH   9  23
ENDBRANCH   4   5
ENDBRANCH   1   4
BRANCH   1  26
ATOM     26  C   UNL     1     -47.993  33.989  26.192  1.00  0.00     0.010 A 
ATOM     27  C   UNL     1     -46.678  34.241  25.827  1.00  0.00     0.034 A 
ATOM     28  C   UNL     1     -48.562  32.780  25.770  1.00  0.00    -0.028 A 
ATOM     29  N   UNL     1     -45.924  33.391  25.099  1.00  0.00    -0.262 NA
ATOM     30  H   UNL     1     -46.176  35.161  26.118  1.00  0.00     0.084 H 
ATOM     31  C   UNL     1     -47.810  31.862  25.021  1.00  0.00     0.066 A 
ATOM     32  H   UNL     1     -49.598  32.589  26.030  1.00  0.00     0.065 H 
ATOM     33  C   UNL     1     -46.502  32.223  24.717  1.00  0.00     0.051 A 
ATOM     34  H   UNL     1     -45.820  31.590  24.162  1.00  0.00     0.086 H 
BRANCH  31  35
ATOM     35  N   UNL     1     -48.368  30.613  24.600  1.00  0.00    -0.300 N 
ATOM     36  C   UNL     1     -48.817  29.613  25.453  1.00  0.00     0.012 A 
ATOM     37  C   UNL     1     -48.571  30.157  23.295  1.00  0.00     0.150 A 
ATOM     38  C   UNL     1     -49.286  28.551  24.714  1.00  0.00    -0.031 A 
ATOM     39  H   UNL     1     -48.747  29.706  26.527  1.00  0.00     0.082 H 
ATOM     40  C   UNL     1     -49.139  28.886  23.349  1.00  0.00     0.061 A 
ATOM     41  N   UNL     1     -48.293  30.821  22.154  1.00  0.00    -0.218 NA
ATOM     42  H   UNL     1     -49.679  27.627  25.118  1.00  0.00     0.065 H 
ATOM     43  C   UNL     1     -49.423  28.254  22.130  1.00  0.00     0.136 A 
ATOM     44  C   UNL     1     -48.604  30.119  21.054  1.00  0.00     0.120 A 
ATOM     45  N   UNL     1     -49.149  28.894  20.980  1.00  0.00    -0.219 NA
ATOM     46  H   UNL     1     -48.394  30.603  20.104  1.00  0.00     0.106 H 
BRANCH  43  47
ATOM     47  N   UNL     1     -49.997  26.995  22.033  1.00  0.00    -0.383 N 
ATOM     48  H   UNL     1     -49.565  26.378  21.360  1.00  0.00     0.158 HD
ATOM     49  H   UNL     1     -50.165  26.609  22.955  1.00  0.00     0.158 HD
ENDBRANCH  43  47
ENDBRANCH  31  35
ENDBRANCH   1  26
TORSDOF 7
ENDMDL
MODEL 5
REMARK VINA RESULT:      -9.3      2.071      3.155
REMARK SMILES Cc1cc(N)c2ccc(OCc3cncc(-n4ccc5c(N)ncnc54)c3)cc2n1
REMARK SMILES IDX 11 1 10 4 9 5 2 6 3 7 30 8 4 9 29 11 6 12 28 13 7 14 8 16
REMARK SMILES IDX 1 19 5 23 12 26 13 27 27 28 14 29 16 31 15 33 17 35 18 36
REMARK SMILES IDX 26 37 19 38 20 40 25 41 21 43 24 44 23 45 22 47
REMARK H PARENT 11 2 11 3 3 10 28 15 7 17 8 18 1 20 1 21 1 22 5 24 5 25 13 30
REMARK H PARENT 27 32 15 34 18 39 19 42 24 46 22 48 22 49
REMARK Flexibility Score: inf
ROOT
ATOM      1  C   UNL     1     -48.238  35.309  27.412  1.00  0.00     0.115 C 
ATOM      2  H   UNL     1     -48.530  36.165  26.792  1.00  0.00     0.076 H 
ATOM      3  H   UNL     1     -49.130  35.057  27.999  1.00  0.00     0.076 H 
ENDROOT
BRANCH   1   4
ATOM      4  O   UNL     1     -47.171  35.754  28.250  1.00  0.00    -0.489 OA
BRANCH   4   5
ATOM      5  C   UNL     1     -46.566  36.949  27.971  1.00  0.00     0.122 A 
ATOM      6  C   UNL     1     -43.409  40.419  28.705  1.00  0.00     0.040 A 
ATOM      7  C   UNL     1     -43.825  41.144  27.598  1.00  0.00    -0.017 A 
ATOM      8  N   UNL     1     -43.994  39.262  29.078  1.00  0.00    -0.253 NA
ATOM      9  C   UNL     1     -44.913  40.689  26.854  1.00  0.00     0.043 A 
ATOM     10  H   UNL     1     -43.310  42.058  27.323  1.00  0.00     0.066 H 
ATOM     11  C   UNL     1     -44.990  38.771  28.325  1.00  0.00     0.076 A 
ATOM     12  C   UNL     1     -45.484  39.434  27.180  1.00  0.00     0.023 A 
ATOM     13  C   UNL     1     -45.542  37.551  28.698  1.00  0.00     0.007 A 
ATOM     14  C   UNL     1     -46.511  38.812  26.435  1.00  0.00    -0.047 A 
ATOM     15  H   UNL     1     -45.121  37.084  29.581  1.00  0.00     0.069 H 
ATOM     16  C   UNL     1     -47.044  37.585  26.830  1.00  0.00    -0.019 A 
ATOM     17  H   UNL     1     -46.899  39.270  25.530  1.00  0.00     0.063 H 
ATOM     18  H   UNL     1     -47.832  37.123  26.241  1.00  0.00     0.066 H 
BRANCH   6  19
ATOM     19  C   UNL     1     -42.259  40.907  29.534  1.00  0.00    -0.022 C 
ATOM     20  H   UNL     1     -41.990  40.170  30.298  1.00  0.00     0.030 H 
ATOM     21  H   UNL     1     -41.382  41.077  28.902  1.00  0.00     0.030 H 
ATOM     22  H   UNL     1     -42.526  41.840  30.039  1.00  0.00     0.030 H 
ENDBRANCH   6  19
BRANCH   9  23
ATOM     23  N   UNL     1     -45.264  41.396  25.684  1.00  0.00    -0.398 N 
ATOM     24  H   UNL     1     -45.451  42.380  25.841  1.00  0.00     0.156 HD
ATOM     25  H   UNL     1     -44.614  41.260  24.914  1.00  0.00     0.156 HD
ENDBRANCH   9  23
ENDBRANCH   4   5
ENDBRANCH   1   4
BRANCH   1  26
ATOM     26  C   UNL     1     -47.816  34.201  26.485  1.00  0.00     0.010 A 
ATOM     27  C   UNL     1     -46.497  34.085  26.071  1.00  0.00     0.034 A 
ATOM     28  C   UNL     1     -48.739  33.278  25.973  1.00  0.00    -0.028 A 
ATOM     29  N   UNL     1     -46.058  33.140  25.214  1.00  0.00    -0.262 NA
ATOM     30  H   UNL     1     -45.730  34.770  26.427  1.00  0.00     0.084 H 
ATOM     31  C   UNL     1     -48.323  32.271  25.088  1.00  0.00     0.066 A 
ATOM     32  H   UNL     1     -49.777  33.380  26.273  1.00  0.00     0.065 H 
ATOM     33  C   UNL     1     -46.975  32.255  24.746  1.00  0.00     0.051 A 
ATOM     34  H   UNL     1     -46.534  31.516  24.088  1.00  0.00     0.086 H 
BRANCH  31  35
ATOM     35  N   UNL     1     -49.248  31.309  24.572  1.00  0.00    -0.300 N 
ATOM     36  C   UNL     1     -50.229  31.573  23.625  1.00  0.00     0.012 A 
ATOM     37  C   UNL     1     -49.353  29.954  24.900  1.00  0.00     0.150 A 
ATOM     38  C   UNL     1     -50.940  30.425  23.362  1.00  0.00    -0.031 A 
ATOM     39  H   UNL     1     -50.379  32.564  23.222  1.00  0.00     0.082 H 
ATOM     40  C   UNL     1     -50.391  29.395  24.159  1.00  0.00     0.061 A 
ATOM     41  N   UNL     1     -48.579  29.269  25.768  1.00  0.00    -0.218 NA
ATOM     42  H   UNL     1     -51.774  30.343  22.678  1.00  0.00     0.065 H 
ATOM     43  C   UNL     1     -50.655  28.030  24.346  1.00  0.00     0.136 A 
ATOM     44  C   UNL     1     -48.925  27.977  25.866  1.00  0.00     0.120 A 
ATOM     45  N   UNL     1     -49.902  27.330  25.211  1.00  0.00    -0.219 NA
ATOM     46  H   UNL     1     -48.340  27.378  26.558  1.00  0.00     0.106 H 
BRANCH  43  47
ATOM     47  N   UNL     1     -51.651  27.340  23.670  1.00  0.00    -0.383 N 
ATOM     48  H   UNL     1     -51.645  26.339  23.804  1.00  0.00     0.158 HD
ATOM     49  H   UNL     1     -52.545  27.805  23.783  1.00  0.00     0.158 HD
ENDBRANCH  43  47
ENDBRANCH  31  35
ENDBRANCH   1  26
TORSDOF 7
ENDMDL
MODEL 6
REMARK VINA RESULT:      -9.3      1.668     10.425
REMARK SMILES Cc1cc(N)c2ccc(OCc3cncc(-n4ccc5c(N)ncnc54)c3)cc2n1
REMARK SMILES IDX 11 1 10 4 9 5 2 6 3 7 30 8 4 9 29 11 6 12 28 13 7 14 8 16
REMARK SMILES IDX 1 19 5 23 12 26 13 27 27 28 14 29 16 31 15 33 17 35 18 36
REMARK SMILES IDX 26 37 19 38 20 40 25 41 21 43 24 44 23 45 22 47
REMARK H PARENT 11 2 11 3 3 10 28 15 7 17 8 18 1 20 1 21 1 22 5 24 5 25 13 30
REMARK H PARENT 27 32 15 34 18 39 19 42 24 46 22 48 22 49
REMARK Flexibility Score: inf
ROOT
ATOM      1  C   UNL     1     -46.084  34.904  26.614  1.00  0.00     0.115 C 
ATOM      2  H   UNL     1     -45.847  35.528  25.744  1.00  0.00     0.076 H 
ATOM      3  H   UNL     1     -45.354  34.085  26.592  1.00  0.00     0.076 H 
ENDROOT
BRANCH   1   4
ATOM      4  O   UNL     1     -47.415  34.423  26.424  1.00  0.00    -0.489 OA
BRANCH   4   5
ATOM      5  C   UNL     1     -47.606  33.272  25.710  1.00  0.00     0.122 A 
ATOM      6  C   UNL     1     -46.234  29.721  22.873  1.00  0.00     0.040 A 
ATOM      7  C   UNL     1     -47.474  29.102  22.911  1.00  0.00    -0.017 A 
ATOM      8  N   UNL     1     -45.984  30.888  23.503  1.00  0.00    -0.253 NA
ATOM      9  C   UNL     1     -48.523  29.717  23.593  1.00  0.00     0.043 A 
ATOM     10  H   UNL     1     -47.622  28.153  22.407  1.00  0.00     0.066 H 
ATOM     11  C   UNL     1     -46.962  31.450  24.230  1.00  0.00     0.076 A 
ATOM     12  C   UNL     1     -48.258  30.897  24.330  1.00  0.00     0.023 A 
ATOM     13  C   UNL     1     -46.666  32.623  24.914  1.00  0.00     0.007 A 
ATOM     14  C   UNL     1     -49.204  31.549  25.152  1.00  0.00    -0.047 A 
ATOM     15  H   UNL     1     -45.655  33.000  24.806  1.00  0.00     0.069 H 
ATOM     16  C   UNL     1     -48.878  32.723  25.831  1.00  0.00    -0.019 A 
ATOM     17  H   UNL     1     -50.202  31.142  25.284  1.00  0.00     0.063 H 
ATOM     18  H   UNL     1     -49.622  33.207  26.460  1.00  0.00     0.066 H 
BRANCH   6  19
ATOM     19  C   UNL     1     -45.101  29.089  22.122  1.00  0.00    -0.022 C 
ATOM     20  H   UNL     1     -44.296  28.796  22.804  1.00  0.00     0.030 H 
ATOM     21  H   UNL     1     -45.447  28.192  21.599  1.00  0.00     0.030 H 
ATOM     22  H   UNL     1     -44.689  29.795  21.393  1.00  0.00     0.030 H 
ENDBRANCH   6  19
BRANCH   9  23
ATOM     23  N   UNL     1     -49.751  29.028  23.689  1.00  0.00    -0.398 N 
ATOM     24  H   UNL     1     -50.496  29.574  24.108  1.00  0.00     0.156 HD
ATOM     25  H   UNL     1     -50.050  28.601  22.817  1.00  0.00     0.156 HD
ENDBRANCH   9  23
ENDBRANCH   4   5
ENDBRANCH   1   4
BRANCH   1  26
ATOM     26  C   UNL     1     -45.956  35.769  27.840  1.00  0.00     0.010 A 
ATOM     27  C   UNL     1     -46.658  35.467  28.998  1.00  0.00     0.034 A 
ATOM     28  C   UNL     1     -45.164  36.925  27.844  1.00  0.00    -0.028 A 
ATOM     29  N   UNL     1     -46.618  36.219  30.118  1.00  0.00    -0.262 NA
ATOM     30  H   UNL     1     -47.294  34.587  29.062  1.00  0.00     0.084 H 
ATOM     31  C   UNL     1     -45.084  37.729  28.992  1.00  0.00     0.066 A 
ATOM     32  H   UNL     1     -44.633  37.180  26.933  1.00  0.00     0.065 H 
ATOM     33  C   UNL     1     -45.832  37.326  30.093  1.00  0.00     0.051 A 
ATOM     34  H   UNL     1     -45.836  37.854  31.039  1.00  0.00     0.086 H 
BRANCH  31  35
ATOM     35  N   UNL     1     -44.264  38.902  29.021  1.00  0.00    -0.300 N 
ATOM     36  C   UNL     1     -43.287  39.168  29.972  1.00  0.00     0.012 A 
ATOM     37  C   UNL     1     -44.275  39.982  28.134  1.00  0.00     0.150 A 
ATOM     38  C   UNL     1     -42.698  40.382  29.703  1.00  0.00    -0.031 A 
ATOM     39  H   UNL     1     -43.095  38.495  30.795  1.00  0.00     0.082 H 
ATOM     40  C   UNL     1     -43.311  40.902  28.540  1.00  0.00     0.061 A 
ATOM     41  N   UNL     1     -45.058  40.127  27.046  1.00  0.00    -0.218 NA
ATOM     42  H   UNL     1     -41.918  40.848  30.290  1.00  0.00     0.065 H 
ATOM     43  C   UNL     1     -43.164  42.064  27.770  1.00  0.00     0.136 A 
ATOM     44  C   UNL     1     -44.831  41.274  26.390  1.00  0.00     0.120 A 
ATOM     45  N   UNL     1     -43.939  42.234  26.685  1.00  0.00    -0.219 NA
ATOM     46  H   UNL     1     -45.442  41.449  25.509  1.00  0.00     0.106 H 
BRANCH  43  47
ATOM     47  N   UNL     1     -42.240  43.061  28.050  1.00  0.00    -0.383 N 
ATOM     48  H   UNL     1     -41.992  43.152  29.025  1.00  0.00     0.158 HD
ATOM     49  H   UNL     1     -41.472  43.028  27.390  1.00  0.00     0.158 HD
ENDBRANCH  43  47
ENDBRANCH  31  35
ENDBRANCH   1  26
TORSDOF 7
ENDMDL
MODEL 7
REMARK VINA RESULT:      -9.2      2.202     10.597
REMARK SMILES Cc1cc(N)c2ccc(OCc3cncc(-n4ccc5c(N)ncnc54)c3)cc2n1
REMARK SMILES IDX 11 1 10 4 9 5 2 6 3 7 30 8 4 9 29 11 6 12 28 13 7 14 8 16
REMARK SMILES IDX 1 19 5 23 12 26 13 27 27 28 14 29 16 31 15 33 17 35 18 36
REMARK SMILES IDX 26 37 19 38 20 40 25 41 21 43 24 44 23 45 22 47
REMARK H PARENT 11 2 11 3 3 10 28 15 7 17 8 18 1 20 1 21 1 22 5 24 5 25 13 30
REMARK H PARENT 27 32 15 34 18 39 19 42 24 46 22 48 22 49
REMARK Flexibility Score: inf
ROOT
ATOM      1  C   UNL     1     -46.930  33.630  26.150  1.00  0.00     0.115 C 
ATOM      2  H   UNL     1     -46.935  33.723  25.057  1.00  0.00     0.076 H 
ATOM      3  H   UNL     1     -45.899  33.363  26.414  1.00  0.00     0.076 H 
ENDROOT
BRANCH   1   4
ATOM      4  O   UNL     1     -47.840  32.579  26.476  1.00  0.00    -0.489 OA
BRANCH   4   5
ATOM      5  C   UNL     1     -48.164  31.663  25.514  1.00  0.00     0.122 A 
ATOM      6  C   UNL     1     -48.885  30.225  21.046  1.00  0.00     0.040 A 
ATOM      7  C   UNL     1     -49.175  28.922  21.425  1.00  0.00    -0.017 A 
ATOM      8  N   UNL     1     -48.614  31.199  21.940  1.00  0.00    -0.253 NA
ATOM      9  C   UNL     1     -49.226  28.602  22.782  1.00  0.00     0.043 A 
ATOM     10  H   UNL     1     -49.366  28.167  20.670  1.00  0.00     0.066 H 
ATOM     11  C   UNL     1     -48.581  30.885  23.245  1.00  0.00     0.076 A 
ATOM     12  C   UNL     1     -48.860  29.588  23.729  1.00  0.00     0.023 A 
ATOM     13  C   UNL     1     -48.245  31.892  24.142  1.00  0.00     0.007 A 
ATOM     14  C   UNL     1     -48.760  29.356  25.119  1.00  0.00    -0.047 A 
ATOM     15  H   UNL     1     -48.036  32.866  23.715  1.00  0.00     0.069 H 
ATOM     16  C   UNL     1     -48.418  30.384  25.998  1.00  0.00    -0.019 A 
ATOM     17  H   UNL     1     -48.935  28.367  25.533  1.00  0.00     0.063 H 
ATOM     18  H   UNL     1     -48.345  30.181  27.063  1.00  0.00     0.066 H 
BRANCH   6  19
ATOM     19  C   UNL     1     -48.854  30.596  19.594  1.00  0.00    -0.022 C 
ATOM     20  H   UNL     1     -48.821  29.701  18.964  1.00  0.00     0.030 H 
ATOM     21  H   UNL     1     -49.750  31.165  19.330  1.00  0.00     0.030 H 
ATOM     22  H   UNL     1     -47.966  31.199  19.377  1.00  0.00     0.030 H 
ENDBRANCH   6  19
BRANCH   9  23
ATOM     23  N   UNL     1     -49.437  27.253  23.140  1.00  0.00    -0.398 N 
ATOM     24  H   UNL     1     -50.019  26.741  22.485  1.00  0.00     0.156 HD
ATOM     25  H   UNL     1     -48.582  26.747  23.350  1.00  0.00     0.156 HD
ENDBRANCH   9  23
ENDBRANCH   4   5
ENDBRANCH   1   4
BRANCH   1  26
ATOM     26  C   UNL     1     -47.356  34.956  26.720  1.00  0.00     0.010 A 
ATOM     27  C   UNL     1     -48.653  35.150  27.172  1.00  0.00     0.034 A 
ATOM     28  C   UNL     1     -46.480  36.049  26.774  1.00  0.00    -0.028 A 
ATOM     29  N   UNL     1     -49.111  36.322  27.659  1.00  0.00    -0.262 NA
ATOM     30  H   UNL     1     -49.385  34.346  27.155  1.00  0.00     0.084 H 
ATOM     31  C   UNL     1     -46.912  37.283  27.285  1.00  0.00     0.066 A 
ATOM     32  H   UNL     1     -45.472  35.910  26.398  1.00  0.00     0.065 H 
ATOM     33  C   UNL     1     -48.234  37.358  27.709  1.00  0.00     0.051 A 
ATOM     34  H   UNL     1     -48.675  38.249  28.139  1.00  0.00     0.086 H 
BRANCH  31  35
ATOM     35  N   UNL     1     -46.025  38.403  27.367  1.00  0.00    -0.300 N 
ATOM     36  C   UNL     1     -45.945  39.427  26.432  1.00  0.00     0.012 A 
ATOM     37  C   UNL     1     -45.091  38.691  28.367  1.00  0.00     0.150 A 
ATOM     38  C   UNL     1     -44.987  40.335  26.820  1.00  0.00    -0.031 A 
ATOM     39  H   UNL     1     -46.551  39.430  25.537  1.00  0.00     0.082 H 
ATOM     40  C   UNL     1     -44.444  39.881  28.043  1.00  0.00     0.061 A 
ATOM     41  N   UNL     1     -44.848  37.967  29.479  1.00  0.00    -0.218 NA
ATOM     42  H   UNL     1     -44.701  41.223  26.271  1.00  0.00     0.065 H 
ATOM     43  C   UNL     1     -43.464  40.344  28.932  1.00  0.00     0.136 A 
ATOM     44  C   UNL     1     -43.892  38.504  30.251  1.00  0.00     0.120 A 
ATOM     45  N   UNL     1     -43.200  39.637  30.044  1.00  0.00    -0.219 NA
ATOM     46  H   UNL     1     -43.649  37.959  31.158  1.00  0.00     0.106 H 
BRANCH  43  47
ATOM     47  N   UNL     1     -42.747  41.517  28.744  1.00  0.00    -0.383 N 
ATOM     48  H   UNL     1     -42.629  42.085  29.571  1.00  0.00     0.158 HD
ATOM     49  H   UNL     1     -41.913  41.340  28.196  1.00  0.00     0.158 HD
ENDBRANCH  43  47
ENDBRANCH  31  35
ENDBRANCH   1  26
TORSDOF 7
ENDMDL
