MODEL 1
REMARK VINA RESULT:     -10.8      0.000      0.000
REMARK SMILES O=C(NCc1ccc2cc(CNC[C@]34C[C@](CF)(C3)C4)[nH]c2c1)c1cc(=O)n2ccccc2n1
REMARK SMILES IDX 11 1 10 4 5 5 6 6 23 7 7 8 22 10 8 12 21 14 9 15 4 18 3 21
REMARK SMILES IDX 1 22 2 23 24 25 25 26 34 27 26 28 33 30 27 31 28 32 32 33
REMARK SMILES IDX 29 34 31 35 30 37 12 41 13 43 14 46 19 47 15 48 20 49 16 50
REMARK SMILES IDX 17 57 18 58
REMARK H PARENT 11 2 11 3 6 9 23 11 7 13 21 16 9 17 4 19 4 20 3 24 25 29 32 36
REMARK H PARENT 29 38 31 39 30 40 12 42 13 44 13 45 19 51 19 52 15 53 15 54
REMARK H PARENT 20 55 20 56 17 59 17 60
REMARK Flexibility Score: inf
ROOT
ATOM      1  C   UNL     1     -48.599  30.036  23.998  1.00  0.00     0.036 C 
ATOM      2  H   UNL     1     -48.915  30.194  22.960  1.00  0.00     0.049 H 
ATOM      3  H   UNL     1     -47.738  29.361  23.988  1.00  0.00     0.049 H 
ENDROOT
BRANCH   1   4
ATOM      4  C   UNL     1     -48.170  31.331  24.592  1.00  0.00     0.030 A 
ATOM      5  C   UNL     1     -47.998  35.312  26.936  1.00  0.00    -0.027 A 
ATOM      6  C   UNL     1     -46.698  35.317  26.412  1.00  0.00    -0.057 A 
ATOM      7  C   UNL     1     -48.872  34.252  26.634  1.00  0.00    -0.033 A 
ATOM      8  C   UNL     1     -46.238  34.273  25.600  1.00  0.00    -0.052 A 
ATOM      9  H   UNL     1     -46.029  36.147  26.633  1.00  0.00     0.063 H 
ATOM     10  C   UNL     1     -48.393  33.216  25.824  1.00  0.00     0.046 A 
ATOM     11  H   UNL     1     -49.887  34.234  27.019  1.00  0.00     0.065 H 
ATOM     12  C   UNL     1     -47.102  33.203  25.300  1.00  0.00    -0.000 A 
ATOM     13  H   UNL     1     -45.228  34.294  25.204  1.00  0.00     0.063 H 
ATOM     14  N   UNL     1     -49.017  32.074  25.382  1.00  0.00    -0.357 N 
ATOM     15  C   UNL     1     -46.973  32.014  24.529  1.00  0.00    -0.032 A 
ATOM     16  H   UNL     1     -49.976  31.814  25.574  1.00  0.00     0.166 HD
ATOM     17  H   UNL     1     -46.092  31.696  23.987  1.00  0.00     0.065 H 
BRANCH   5  18
ATOM     18  C   UNL     1     -48.468  36.465  27.787  1.00  0.00     0.043 C 
ATOM     19  H   UNL     1     -49.398  36.883  27.385  1.00  0.00     0.054 H 
ATOM     20  H   UNL     1     -48.682  36.122  28.806  1.00  0.00     0.054 H 
BRANCH  18  21
ATOM     21  N   UNL     1     -47.492  37.524  27.798  1.00  0.00    -0.347 N 
ATOM     22  O   UNL     1     -46.519  36.987  29.813  1.00  0.00    -0.268 OA
ATOM     23  C   UNL     1     -46.546  37.652  28.785  1.00  0.00     0.270 C 
ATOM     24  H   UNL     1     -47.328  38.057  26.951  1.00  0.00     0.164 HD
BRANCH  23  25
ATOM     25  C   UNL     1     -45.516  38.707  28.458  1.00  0.00     0.136 A 
ATOM     26  C   UNL     1     -45.686  39.369  27.312  1.00  0.00     0.035 A 
ATOM     27  N   UNL     1     -44.485  38.925  29.345  1.00  0.00    -0.225 NA
ATOM     28  C   UNL     1     -44.712  40.407  26.956  1.00  0.00     0.258 A 
ATOM     29  H   UNL     1     -46.502  39.189  26.623  1.00  0.00     0.071 H 
ATOM     30  C   UNL     1     -43.628  39.847  29.028  1.00  0.00     0.140 A 
ATOM     31  O   UNL     1     -44.859  41.020  25.899  1.00  0.00    -0.269 OA
ATOM     32  N   UNL     1     -43.686  40.611  27.867  1.00  0.00    -0.268 N 
ATOM     33  C   UNL     1     -42.497  40.121  29.960  1.00  0.00    -0.019 A 
ATOM     34  C   UNL     1     -42.725  41.581  27.601  1.00  0.00     0.014 A 
ATOM     35  C   UNL     1     -41.598  41.065  29.661  1.00  0.00    -0.057 A 
ATOM     36  H   UNL     1     -42.444  39.533  30.868  1.00  0.00     0.066 H 
ATOM     37  C   UNL     1     -41.713  41.820  28.443  1.00  0.00    -0.045 A 
ATOM     38  H   UNL     1     -42.832  42.139  26.675  1.00  0.00     0.082 H 
ATOM     39  H   UNL     1     -40.768  41.279  30.326  1.00  0.00     0.062 H 
ATOM     40  H   UNL     1     -40.968  42.580  28.224  1.00  0.00     0.064 H 
ENDBRANCH  23  25
ENDBRANCH  18  21
ENDBRANCH   5  18
ENDBRANCH   1   4
BRANCH   1  41
ATOM     41  N   UNL     1     -49.701  29.487  24.788  1.00  0.00    -0.311 NA
ATOM     42  H   UNL     1     -50.509  30.091  24.624  1.00  0.00     0.123 HD
BRANCH  41  43
ATOM     43  C   UNL     1     -50.048  28.126  24.374  1.00  0.00     0.001 C 
ATOM     44  H   UNL     1     -49.935  27.996  23.291  1.00  0.00     0.043 H 
ATOM     45  H   UNL     1     -51.115  27.981  24.585  1.00  0.00     0.043 H 
BRANCH  43  46
ATOM     46  C   UNL     1     -49.274  27.108  25.131  1.00  0.00    -0.015 C 
ATOM     47  C   UNL     1     -48.737  27.276  26.608  1.00  0.00    -0.038 C 
ATOM     48  C   UNL     1     -47.831  26.538  24.829  1.00  0.00    -0.038 C 
ATOM     49  C   UNL     1     -49.610  25.629  25.579  1.00  0.00    -0.038 C 
ATOM     50  C   UNL     1     -48.182  25.857  26.208  1.00  0.00     0.000 C 
ATOM     51  H   UNL     1     -47.998  28.066  26.781  1.00  0.00     0.028 H 
ATOM     52  H   UNL     1     -49.488  27.308  27.406  1.00  0.00     0.028 H 
ATOM     53  H   UNL     1     -47.004  27.256  24.829  1.00  0.00     0.028 H 
ATOM     54  H   UNL     1     -47.733  25.877  23.962  1.00  0.00     0.028 H 
ATOM     55  H   UNL     1     -50.444  25.501  26.278  1.00  0.00     0.028 H 
ATOM     56  H   UNL     1     -49.678  24.870  24.793  1.00  0.00     0.028 H 
BRANCH  50  57
ATOM     57  C   UNL     1     -47.367  24.923  27.011  1.00  0.00     0.095 C 
ATOM     58  F   UNL     1     -46.205  25.546  27.340  1.00  0.00    -0.250 F 
ATOM     59  H   UNL     1     -47.869  24.636  27.939  1.00  0.00     0.063 H 
ATOM     60  H   UNL     1     -47.117  24.017  26.454  1.00  0.00     0.063 H 
ENDBRANCH  50  57
ENDBRANCH  43  46
ENDBRANCH  41  43
ENDBRANCH   1  41
TORSDOF 8
ENDMDL
MODEL 2
REMARK VINA RESULT:      -9.9      1.967      3.092
REMARK SMILES O=C(NCc1ccc2cc(CNC[C@]34C[C@](CF)(C3)C4)[nH]c2c1)c1cc(=O)n2ccccc2n1
REMARK SMILES IDX 11 1 10 4 5 5 6 6 23 7 7 8 22 10 8 12 21 14 9 15 4 18 3 21
REMARK SMILES IDX 1 22 2 23 24 25 25 26 34 27 26 28 33 30 27 31 28 32 32 33
REMARK SMILES IDX 29 34 31 35 30 37 12 41 13 43 14 46 19 47 15 48 20 49 16 50
REMARK SMILES IDX 17 57 18 58
REMARK H PARENT 11 2 11 3 6 9 23 11 7 13 21 16 9 17 4 19 4 20 3 24 25 29 32 36
REMARK H PARENT 29 38 31 39 30 40 12 42 13 44 13 45 19 51 19 52 15 53 15 54
REMARK H PARENT 20 55 20 56 17 59 17 60
REMARK Flexibility Score: inf
ROOT
ATOM      1  C   UNL     1     -46.585  31.366  24.128  1.00  0.00     0.036 C 
ATOM      2  H   UNL     1     -45.570  31.425  23.717  1.00  0.00     0.049 H 
ATOM      3  H   UNL     1     -46.661  30.438  24.704  1.00  0.00     0.049 H 
ENDROOT
BRANCH   1   4
ATOM      4  C   UNL     1     -46.818  32.509  25.052  1.00  0.00     0.030 A 
ATOM      5  C   UNL     1     -46.287  35.979  28.060  1.00  0.00    -0.027 A 
ATOM      6  C   UNL     1     -47.670  36.084  27.855  1.00  0.00    -0.057 A 
ATOM      7  C   UNL     1     -45.553  34.980  27.395  1.00  0.00    -0.033 A 
ATOM      8  C   UNL     1     -48.342  35.219  26.983  1.00  0.00    -0.052 A 
ATOM      9  H   UNL     1     -48.238  36.848  28.384  1.00  0.00     0.063 H 
ATOM     10  C   UNL     1     -46.243  34.127  26.525  1.00  0.00     0.046 A 
ATOM     11  H   UNL     1     -44.484  34.873  27.548  1.00  0.00     0.065 H 
ATOM     12  C   UNL     1     -47.616  34.223  26.306  1.00  0.00    -0.000 A 
ATOM     13  H   UNL     1     -49.413  35.317  26.838  1.00  0.00     0.063 H 
ATOM     14  N   UNL     1     -45.785  33.085  25.755  1.00  0.00    -0.357 N 
ATOM     15  C   UNL     1     -47.965  33.202  25.378  1.00  0.00    -0.032 A 
ATOM     16  H   UNL     1     -44.830  32.752  25.721  1.00  0.00     0.166 HD
ATOM     17  H   UNL     1     -48.956  33.000  24.993  1.00  0.00     0.065 H 
BRANCH   5  18
ATOM     18  C   UNL     1     -45.598  36.912  29.024  1.00  0.00     0.043 C 
ATOM     19  H   UNL     1     -46.325  37.352  29.716  1.00  0.00     0.054 H 
ATOM     20  H   UNL     1     -44.868  36.362  29.628  1.00  0.00     0.054 H 
BRANCH  18  21
ATOM     21  N   UNL     1     -44.965  37.998  28.321  1.00  0.00    -0.347 N 
ATOM     22  O   UNL     1     -46.753  39.446  28.374  1.00  0.00    -0.268 OA
ATOM     23  C   UNL     1     -45.578  39.209  28.117  1.00  0.00     0.270 C 
ATOM     24  H   UNL     1     -43.962  37.976  28.171  1.00  0.00     0.164 HD
BRANCH  23  25
ATOM     25  C   UNL     1     -44.635  40.241  27.547  1.00  0.00     0.136 A 
ATOM     26  C   UNL     1     -43.550  40.519  28.272  1.00  0.00     0.035 A 
ATOM     27  N   UNL     1     -44.938  40.818  26.334  1.00  0.00    -0.225 NA
ATOM     28  C   UNL     1     -42.602  41.512  27.752  1.00  0.00     0.258 A 
ATOM     29  H   UNL     1     -43.321  40.058  29.224  1.00  0.00     0.071 H 
ATOM     30  C   UNL     1     -44.095  41.692  25.877  1.00  0.00     0.140 A 
ATOM     31  O   UNL     1     -41.600  41.778  28.416  1.00  0.00    -0.269 OA
ATOM     32  N   UNL     1     -42.927  42.076  26.528  1.00  0.00    -0.268 N 
ATOM     33  C   UNL     1     -44.380  42.341  24.564  1.00  0.00    -0.019 A 
ATOM     34  C   UNL     1     -42.075  43.023  25.970  1.00  0.00     0.014 A 
ATOM     35  C   UNL     1     -43.529  43.247  24.068  1.00  0.00    -0.057 A 
ATOM     36  H   UNL     1     -45.286  42.048  24.049  1.00  0.00     0.066 H 
ATOM     37  C   UNL     1     -42.338  43.601  24.791  1.00  0.00    -0.045 A 
ATOM     38  H   UNL     1     -41.181  43.276  26.533  1.00  0.00     0.082 H 
ATOM     39  H   UNL     1     -43.719  43.729  23.115  1.00  0.00     0.062 H 
ATOM     40  H   UNL     1     -41.666  44.340  24.365  1.00  0.00     0.064 H 
ENDBRANCH  23  25
ENDBRANCH  18  21
ENDBRANCH   5  18
ENDBRANCH   1   4
BRANCH   1  41
ATOM     41  N   UNL     1     -47.574  31.410  23.051  1.00  0.00    -0.311 NA
ATOM     42  H   UNL     1     -47.119  31.029  22.220  1.00  0.00     0.123 HD
BRANCH  41  43
ATOM     43  C   UNL     1     -48.750  30.591  23.351  1.00  0.00     0.001 C 
ATOM     44  H   UNL     1     -49.382  30.459  22.465  1.00  0.00     0.043 H 
ATOM     45  H   UNL     1     -49.359  31.143  24.077  1.00  0.00     0.043 H 
BRANCH  43  46
ATOM     46  C   UNL     1     -48.370  29.284  23.950  1.00  0.00    -0.015 C 
ATOM     47  C   UNL     1     -49.115  27.912  23.705  1.00  0.00    -0.038 C 
ATOM     48  C   UNL     1     -48.383  28.852  25.470  1.00  0.00    -0.038 C 
ATOM     49  C   UNL     1     -47.052  28.414  23.860  1.00  0.00    -0.038 C 
ATOM     50  C   UNL     1     -47.998  27.508  24.739  1.00  0.00     0.000 C 
ATOM     51  H   UNL     1     -50.154  27.845  24.047  1.00  0.00     0.028 H 
ATOM     52  H   UNL     1     -49.041  27.481  22.700  1.00  0.00     0.028 H 
ATOM     53  H   UNL     1     -49.350  28.874  25.983  1.00  0.00     0.028 H 
ATOM     54  H   UNL     1     -47.622  29.298  26.117  1.00  0.00     0.028 H 
ATOM     55  H   UNL     1     -46.778  28.031  22.871  1.00  0.00     0.028 H 
ATOM     56  H   UNL     1     -46.158  28.805  24.357  1.00  0.00     0.028 H 
BRANCH  50  57
ATOM     57  C   UNL     1     -47.719  26.183  25.328  1.00  0.00     0.095 C 
ATOM     58  F   UNL     1     -46.463  26.205  25.850  1.00  0.00    -0.250 F 
ATOM     59  H   UNL     1     -48.413  25.939  26.137  1.00  0.00     0.063 H 
ATOM     60  H   UNL     1     -47.758  25.386  24.581  1.00  0.00     0.063 H 
ENDBRANCH  50  57
ENDBRANCH  43  46
ENDBRANCH  41  43
ENDBRANCH   1  41
TORSDOF 8
ENDMDL
MODEL 3
REMARK VINA RESULT:      -9.8      1.909      2.665
REMARK SMILES O=C(NCc1ccc2cc(CNC[C@]34C[C@](CF)(C3)C4)[nH]c2c1)c1cc(=O)n2ccccc2n1
REMARK SMILES IDX 11 1 10 4 5 5 6 6 23 7 7 8 22 10 8 12 21 14 9 15 4 18 3 21
REMARK SMILES IDX 1 22 2 23 24 25 25 26 34 27 26 28 33 30 27 31 28 32 32 33
REMARK SMILES IDX 29 34 31 35 30 37 12 41 13 43 14 46 19 47 15 48 20 49 16 50
REMARK SMILES IDX 17 57 18 58
REMARK H PARENT 11 2 11 3 6 9 23 11 7 13 21 16 9 17 4 19 4 20 3 24 25 29 32 36
REMARK H PARENT 29 38 31 39 30 40 12 42 13 44 13 45 19 51 19 52 15 53 15 54
REMARK H PARENT 20 55 20 56 17 59 17 60
REMARK Flexibility Score: inf
ROOT
ATOM      1  C   UNL     1     -46.024  30.649  22.960  1.00  0.00     0.036 C 
ATOM      2  H   UNL     1     -45.901  31.185  22.011  1.00  0.00     0.049 H 
ATOM      3  H   UNL     1     -45.042  30.271  23.262  1.00  0.00     0.049 H 
ENDROOT
BRANCH   1   4
ATOM      4  C   UNL     1     -46.504  31.591  24.007  1.00  0.00     0.030 A 
ATOM      5  C   UNL     1     -46.783  34.480  27.605  1.00  0.00    -0.027 A 
ATOM      6  C   UNL     1     -48.116  34.545  27.176  1.00  0.00    -0.057 A 
ATOM      7  C   UNL     1     -45.865  33.660  26.924  1.00  0.00    -0.033 A 
ATOM      8  C   UNL     1     -48.557  33.817  26.064  1.00  0.00    -0.052 A 
ATOM      9  H   UNL     1     -48.828  35.167  27.715  1.00  0.00     0.063 H 
ATOM     10  C   UNL     1     -46.325  32.943  25.812  1.00  0.00     0.046 A 
ATOM     11  H   UNL     1     -44.832  33.585  27.246  1.00  0.00     0.065 H 
ATOM     12  C   UNL     1     -47.645  33.001  25.370  1.00  0.00    -0.000 A 
ATOM     13  H   UNL     1     -49.593  33.880  25.747  1.00  0.00     0.063 H 
ATOM     14  N   UNL     1     -45.657  32.085  24.971  1.00  0.00    -0.357 N 
ATOM     15  C   UNL     1     -47.745  32.149  24.234  1.00  0.00    -0.032 A 
ATOM     16  H   UNL     1     -44.685  31.816  25.054  1.00  0.00     0.166 HD
ATOM     17  H   UNL     1     -48.637  31.967  23.648  1.00  0.00     0.065 H 
BRANCH   5  18
ATOM     18  C   UNL     1     -46.347  35.258  28.822  1.00  0.00     0.043 C 
ATOM     19  H   UNL     1     -47.217  35.549  29.421  1.00  0.00     0.054 H 
ATOM     20  H   UNL     1     -45.708  34.638  29.459  1.00  0.00     0.054 H 
BRANCH  18  21
ATOM     21  N   UNL     1     -45.668  36.469  28.438  1.00  0.00    -0.347 N 
ATOM     22  O   UNL     1     -47.523  37.830  28.398  1.00  0.00    -0.268 OA
ATOM     23  C   UNL     1     -46.309  37.678  28.328  1.00  0.00     0.270 C 
ATOM     24  H   UNL     1     -44.655  36.503  28.474  1.00  0.00     0.164 HD
BRANCH  23  25
ATOM     25  C   UNL     1     -45.345  38.821  28.120  1.00  0.00     0.136 A 
ATOM     26  C   UNL     1     -44.461  39.038  29.097  1.00  0.00     0.035 A 
ATOM     27  N   UNL     1     -45.426  39.555  26.958  1.00  0.00    -0.225 NA
ATOM     28  C   UNL     1     -43.501  40.136  28.936  1.00  0.00     0.258 A 
ATOM     29  H   UNL     1     -44.407  38.453  30.007  1.00  0.00     0.071 H 
ATOM     30  C   UNL     1     -44.571  40.521  26.818  1.00  0.00     0.140 A 
ATOM     31  O   UNL     1     -42.686  40.346  29.833  1.00  0.00    -0.269 OA
ATOM     32  N   UNL     1     -43.600  40.856  27.755  1.00  0.00    -0.268 N 
ATOM     33  C   UNL     1     -44.618  41.341  25.572  1.00  0.00    -0.019 A 
ATOM     34  C   UNL     1     -42.721  41.911  27.529  1.00  0.00     0.014 A 
ATOM     35  C   UNL     1     -43.751  42.345  25.400  1.00  0.00    -0.057 A 
ATOM     36  H   UNL     1     -45.370  41.087  24.836  1.00  0.00     0.066 H 
ATOM     37  C   UNL     1     -42.770  42.642  26.408  1.00  0.00    -0.045 A 
ATOM     38  H   UNL     1     -41.988  42.117  28.304  1.00  0.00     0.082 H 
ATOM     39  H   UNL     1     -43.769  42.952  24.501  1.00  0.00     0.062 H 
ATOM     40  H   UNL     1     -42.079  43.463  26.243  1.00  0.00     0.064 H 
ENDBRANCH  23  25
ENDBRANCH  18  21
ENDBRANCH   5  18
ENDBRANCH   1   4
BRANCH   1  41
ATOM     41  N   UNL     1     -46.992  29.563  22.810  1.00  0.00    -0.311 NA
ATOM     42  H   UNL     1     -46.919  29.236  21.845  1.00  0.00     0.123 HD
BRANCH  41  43
ATOM     43  C   UNL     1     -46.700  28.439  23.702  1.00  0.00     0.001 C 
ATOM     44  H   UNL     1     -45.984  28.724  24.482  1.00  0.00     0.043 H 
ATOM     45  H   UNL     1     -46.204  27.666  23.104  1.00  0.00     0.043 H 
BRANCH  43  46
ATOM     46  C   UNL     1     -47.941  27.865  24.284  1.00  0.00    -0.015 C 
ATOM     47  C   UNL     1     -48.812  28.529  25.425  1.00  0.00    -0.038 C 
ATOM     48  C   UNL     1     -48.117  26.539  25.125  1.00  0.00    -0.038 C 
ATOM     49  C   UNL     1     -49.338  27.478  23.649  1.00  0.00    -0.038 C 
ATOM     50  C   UNL     1     -49.563  27.166  25.178  1.00  0.00     0.000 C 
ATOM     51  H   UNL     1     -48.332  28.659  26.401  1.00  0.00     0.028 H 
ATOM     52  H   UNL     1     -49.351  29.446  25.164  1.00  0.00     0.028 H 
ATOM     53  H   UNL     1     -47.571  26.477  26.073  1.00  0.00     0.028 H 
ATOM     54  H   UNL     1     -48.007  25.593  24.585  1.00  0.00     0.028 H 
ATOM     55  H   UNL     1     -49.928  28.294  23.217  1.00  0.00     0.028 H 
ATOM     56  H   UNL     1     -49.359  26.619  22.970  1.00  0.00     0.028 H 
BRANCH  50  57
ATOM     57  C   UNL     1     -50.774  26.644  25.844  1.00  0.00     0.095 C 
ATOM     58  F   UNL     1     -50.479  25.422  26.364  1.00  0.00    -0.250 F 
ATOM     59  H   UNL     1     -51.100  27.288  26.665  1.00  0.00     0.063 H 
ATOM     60  H   UNL     1     -51.604  26.520  25.144  1.00  0.00     0.063 H 
ENDBRANCH  50  57
ENDBRANCH  43  46
ENDBRANCH  41  43
ENDBRANCH   1  41
TORSDOF 8
ENDMDL
MODEL 4
REMARK VINA RESULT:      -9.7      1.452      2.077
REMARK SMILES O=C(NCc1ccc2cc(CNC[C@]34C[C@](CF)(C3)C4)[nH]c2c1)c1cc(=O)n2ccccc2n1
REMARK SMILES IDX 11 1 10 4 5 5 6 6 23 7 7 8 22 10 8 12 21 14 9 15 4 18 3 21
REMARK SMILES IDX 1 22 2 23 24 25 25 26 34 27 26 28 33 30 27 31 28 32 32 33
REMARK SMILES IDX 29 34 31 35 30 37 12 41 13 43 14 46 19 47 15 48 20 49 16 50
REMARK SMILES IDX 17 57 18 58
REMARK H PARENT 11 2 11 3 6 9 23 11 7 13 21 16 9 17 4 19 4 20 3 24 25 29 32 36
REMARK H PARENT 29 38 31 39 30 40 12 42 13 44 13 45 19 51 19 52 15 53 15 54
REMARK H PARENT 20 55 20 56 17 59 17 60
REMARK Flexibility Score: inf
ROOT
ATOM      1  C   UNL     1     -47.868  29.317  23.084  1.00  0.00     0.036 C 
ATOM      2  H   UNL     1     -47.890  29.496  22.002  1.00  0.00     0.049 H 
ATOM      3  H   UNL     1     -47.030  28.648  23.297  1.00  0.00     0.049 H 
ENDROOT
BRANCH   1   4
ATOM      4  C   UNL     1     -47.634  30.601  23.798  1.00  0.00     0.030 A 
ATOM      5  C   UNL     1     -48.087  34.386  26.415  1.00  0.00    -0.027 A 
ATOM      6  C   UNL     1     -46.761  34.571  26.000  1.00  0.00    -0.057 A 
ATOM      7  C   UNL     1     -48.811  33.264  25.972  1.00  0.00    -0.033 A 
ATOM      8  C   UNL     1     -46.128  33.648  25.158  1.00  0.00    -0.052 A 
ATOM      9  H   UNL     1     -46.208  35.449  26.331  1.00  0.00     0.063 H 
ATOM     10  C   UNL     1     -48.159  32.351  25.134  1.00  0.00     0.046 A 
ATOM     11  H   UNL     1     -49.842  33.107  26.271  1.00  0.00     0.065 H 
ATOM     12  C   UNL     1     -46.840  32.518  24.717  1.00  0.00    -0.000 A 
ATOM     13  H   UNL     1     -45.100  33.809  24.848  1.00  0.00     0.063 H 
ATOM     14  N   UNL     1     -48.615  31.185  24.565  1.00  0.00    -0.357 N 
ATOM     15  C   UNL     1     -46.521  31.412  23.879  1.00  0.00    -0.032 A 
ATOM     16  H   UNL     1     -49.550  30.810  24.661  1.00  0.00     0.166 HD
ATOM     17  H   UNL     1     -45.572  31.234  23.390  1.00  0.00     0.065 H 
BRANCH   5  18
ATOM     18  C   UNL     1     -48.746  35.412  27.302  1.00  0.00     0.043 C 
ATOM     19  H   UNL     1     -49.622  35.842  26.804  1.00  0.00     0.054 H 
ATOM     20  H   UNL     1     -49.097  34.943  28.228  1.00  0.00     0.054 H 
BRANCH  18  21
ATOM     21  N   UNL     1     -47.841  36.496  27.589  1.00  0.00    -0.347 N 
ATOM     22  O   UNL     1     -46.870  35.563  29.456  1.00  0.00    -0.268 OA
ATOM     23  C   UNL     1     -46.923  36.447  28.608  1.00  0.00     0.270 C 
ATOM     24  H   UNL     1     -47.698  37.220  26.895  1.00  0.00     0.164 HD
BRANCH  23  25
ATOM     25  C   UNL     1     -45.959  37.608  28.567  1.00  0.00     0.136 A 
ATOM     26  C   UNL     1     -45.199  37.789  29.649  1.00  0.00     0.035 A 
ATOM     27  N   UNL     1     -45.916  38.395  27.437  1.00  0.00    -0.225 NA
ATOM     28  C   UNL     1     -44.244  38.903  29.651  1.00  0.00     0.258 A 
ATOM     29  H   UNL     1     -45.241  37.163  30.532  1.00  0.00     0.071 H 
ATOM     30  C   UNL     1     -45.066  39.376  27.442  1.00  0.00     0.140 A 
ATOM     31  O   UNL     1     -43.542  39.079  30.646  1.00  0.00    -0.269 OA
ATOM     32  N   UNL     1     -44.216  39.677  28.501  1.00  0.00    -0.268 N 
ATOM     33  C   UNL     1     -44.981  40.252  26.238  1.00  0.00    -0.019 A 
ATOM     34  C   UNL     1     -43.333  40.749  28.426  1.00  0.00     0.014 A 
ATOM     35  C   UNL     1     -44.115  41.272  26.213  1.00  0.00    -0.057 A 
ATOM     36  H   UNL     1     -45.638  40.024  25.408  1.00  0.00     0.066 H 
ATOM     37  C   UNL     1     -43.263  41.531  27.342  1.00  0.00    -0.045 A 
ATOM     38  H   UNL     1     -42.699  40.927  29.291  1.00  0.00     0.082 H 
ATOM     39  H   UNL     1     -44.038  41.920  25.347  1.00  0.00     0.062 H 
ATOM     40  H   UNL     1     -42.570  42.366  27.296  1.00  0.00     0.064 H 
ENDBRANCH  23  25
ENDBRANCH  18  21
ENDBRANCH   5  18
ENDBRANCH   1   4
BRANCH   1  41
ATOM     41  N   UNL     1     -49.138  28.744  23.531  1.00  0.00    -0.311 NA
ATOM     42  H   UNL     1     -49.145  27.771  23.220  1.00  0.00     0.123 HD
BRANCH  41  43
ATOM     43  C   UNL     1     -49.269  28.766  24.988  1.00  0.00     0.001 C 
ATOM     44  H   UNL     1     -50.316  28.876  25.294  1.00  0.00     0.043 H 
ATOM     45  H   UNL     1     -48.753  29.664  25.351  1.00  0.00     0.043 H 
BRANCH  43  46
ATOM     46  C   UNL     1     -48.640  27.574  25.613  1.00  0.00    -0.015 C 
ATOM     47  C   UNL     1     -49.323  26.157  25.777  1.00  0.00    -0.038 C 
ATOM     48  C   UNL     1     -48.188  27.366  27.113  1.00  0.00    -0.038 C 
ATOM     49  C   UNL     1     -47.343  26.742  25.256  1.00  0.00    -0.038 C 
ATOM     50  C   UNL     1     -47.930  25.943  26.482  1.00  0.00     0.000 C 
ATOM     51  H   UNL     1     -50.212  26.107  26.414  1.00  0.00     0.028 H 
ATOM     52  H   UNL     1     -49.506  25.588  24.859  1.00  0.00     0.028 H 
ATOM     53  H   UNL     1     -48.968  27.432  27.879  1.00  0.00     0.028 H 
ATOM     54  H   UNL     1     -47.309  27.926  27.447  1.00  0.00     0.028 H 
ATOM     55  H   UNL     1     -47.335  26.229  24.288  1.00  0.00     0.028 H 
ATOM     56  H   UNL     1     -46.375  27.229  25.414  1.00  0.00     0.028 H 
BRANCH  50  57
ATOM     57  C   UNL     1     -47.399  24.727  27.131  1.00  0.00     0.095 C 
ATOM     58  F   UNL     1     -47.051  23.844  26.157  1.00  0.00    -0.250 F 
ATOM     59  H   UNL     1     -46.507  24.937  27.727  1.00  0.00     0.063 H 
ATOM     60  H   UNL     1     -48.143  24.246  27.770  1.00  0.00     0.063 H 
ENDBRANCH  50  57
ENDBRANCH  43  46
ENDBRANCH  41  43
ENDBRANCH   1  41
TORSDOF 8
ENDMDL
MODEL 5
REMARK VINA RESULT:      -9.3      2.227      3.210
REMARK SMILES O=C(NCc1ccc2cc(CNC[C@]34C[C@](CF)(C3)C4)[nH]c2c1)c1cc(=O)n2ccccc2n1
REMARK SMILES IDX 11 1 10 4 5 5 6 6 23 7 7 8 22 10 8 12 21 14 9 15 4 18 3 21
REMARK SMILES IDX 1 22 2 23 24 25 25 26 34 27 26 28 33 30 27 31 28 32 32 33
REMARK SMILES IDX 29 34 31 35 30 37 12 41 13 43 14 46 19 47 15 48 20 49 16 50
REMARK SMILES IDX 17 57 18 58
REMARK H PARENT 11 2 11 3 6 9 23 11 7 13 21 16 9 17 4 19 4 20 3 24 25 29 32 36
REMARK H PARENT 29 38 31 39 30 40 12 42 13 44 13 45 19 51 19 52 15 53 15 54
REMARK H PARENT 20 55 20 56 17 59 17 60
REMARK Flexibility Score: inf
ROOT
ATOM      1  C   UNL     1     -46.180  31.129  23.317  1.00  0.00     0.036 C 
ATOM      2  H   UNL     1     -46.760  31.288  22.399  1.00  0.00     0.049 H 
ATOM      3  H   UNL     1     -45.126  31.306  23.082  1.00  0.00     0.049 H 
ENDROOT
BRANCH   1   4
ATOM      4  C   UNL     1     -46.601  32.114  24.350  1.00  0.00     0.030 A 
ATOM      5  C   UNL     1     -46.659  35.327  27.674  1.00  0.00    -0.027 A 
ATOM      6  C   UNL     1     -48.041  35.177  27.498  1.00  0.00    -0.057 A 
ATOM      7  C   UNL     1     -45.766  34.557  26.906  1.00  0.00    -0.033 A 
ATOM      8  C   UNL     1     -48.561  34.282  26.554  1.00  0.00    -0.052 A 
ATOM      9  H   UNL     1     -48.730  35.762  28.105  1.00  0.00     0.063 H 
ATOM     10  C   UNL     1     -46.305  33.670  25.966  1.00  0.00     0.046 A 
ATOM     11  H   UNL     1     -44.692  34.647  27.034  1.00  0.00     0.065 H 
ATOM     12  C   UNL     1     -47.676  33.514  25.775  1.00  0.00    -0.000 A 
ATOM     13  H   UNL     1     -49.634  34.180  26.433  1.00  0.00     0.063 H 
ATOM     14  N   UNL     1     -45.678  32.813  25.092  1.00  0.00    -0.357 N 
ATOM     15  C   UNL     1     -47.850  32.535  24.756  1.00  0.00    -0.032 A 
ATOM     16  H   UNL     1     -44.678  32.679  25.014  1.00  0.00     0.166 HD
ATOM     17  H   UNL     1     -48.795  32.180  24.366  1.00  0.00     0.065 H 
BRANCH   5  18
ATOM     18  C   UNL     1     -46.134  36.283  28.716  1.00  0.00     0.043 C 
ATOM     19  H   UNL     1     -46.735  36.220  29.630  1.00  0.00     0.054 H 
ATOM     20  H   UNL     1     -45.105  36.021  28.986  1.00  0.00     0.054 H 
BRANCH  18  21
ATOM     21  N   UNL     1     -46.210  37.642  28.246  1.00  0.00    -0.347 N 
ATOM     22  O   UNL     1     -44.264  38.385  29.225  1.00  0.00    -0.268 OA
ATOM     23  C   UNL     1     -45.222  38.567  28.484  1.00  0.00     0.270 C 
ATOM     24  H   UNL     1     -46.879  37.882  27.523  1.00  0.00     0.164 HD
BRANCH  23  25
ATOM     25  C   UNL     1     -45.438  39.846  27.712  1.00  0.00     0.136 A 
ATOM     26  C   UNL     1     -44.357  40.389  27.147  1.00  0.00     0.035 A 
ATOM     27  N   UNL     1     -46.711  40.366  27.631  1.00  0.00    -0.225 NA
ATOM     28  C   UNL     1     -44.521  41.631  26.383  1.00  0.00     0.258 A 
ATOM     29  H   UNL     1     -43.361  39.971  27.217  1.00  0.00     0.071 H 
ATOM     30  C   UNL     1     -46.851  41.461  26.949  1.00  0.00     0.140 A 
ATOM     31  O   UNL     1     -43.529  42.141  25.862  1.00  0.00    -0.269 OA
ATOM     32  N   UNL     1     -45.812  42.131  26.312  1.00  0.00    -0.268 N 
ATOM     33  C   UNL     1     -48.212  42.059  26.831  1.00  0.00    -0.019 A 
ATOM     34  C   UNL     1     -46.047  43.304  25.602  1.00  0.00     0.014 A 
ATOM     35  C   UNL     1     -48.388  43.188  26.136  1.00  0.00    -0.057 A 
ATOM     36  H   UNL     1     -49.028  41.544  27.322  1.00  0.00     0.066 H 
ATOM     37  C   UNL     1     -47.272  43.834  25.500  1.00  0.00    -0.045 A 
ATOM     38  H   UNL     1     -45.189  43.775  25.129  1.00  0.00     0.082 H 
ATOM     39  H   UNL     1     -49.371  43.638  26.038  1.00  0.00     0.062 H 
ATOM     40  H   UNL     1     -47.443  44.750  24.943  1.00  0.00     0.064 H 
ENDBRANCH  23  25
ENDBRANCH  18  21
ENDBRANCH   5  18
ENDBRANCH   1   4
BRANCH   1  41
ATOM     41  N   UNL     1     -46.396  29.776  23.828  1.00  0.00    -0.311 NA
ATOM     42  H   UNL     1     -46.706  29.874  24.797  1.00  0.00     0.123 HD
BRANCH  41  43
ATOM     43  C   UNL     1     -47.433  29.064  23.080  1.00  0.00     0.001 C 
ATOM     44  H   UNL     1     -47.006  28.501  22.241  1.00  0.00     0.043 H 
ATOM     45  H   UNL     1     -48.091  29.819  22.632  1.00  0.00     0.043 H 
BRANCH  43  46
ATOM     46  C   UNL     1     -48.247  28.191  23.966  1.00  0.00    -0.015 C 
ATOM     47  C   UNL     1     -49.083  28.678  25.216  1.00  0.00    -0.038 C 
ATOM     48  C   UNL     1     -47.764  27.032  24.925  1.00  0.00    -0.038 C 
ATOM     49  C   UNL     1     -49.489  27.252  23.688  1.00  0.00    -0.038 C 
ATOM     50  C   UNL     1     -49.306  27.119  25.248  1.00  0.00     0.000 C 
ATOM     51  H   UNL     1     -48.520  29.115  26.049  1.00  0.00     0.028 H 
ATOM     52  H   UNL     1     -49.961  29.301  25.011  1.00  0.00     0.028 H 
ATOM     53  H   UNL     1     -47.075  27.309  25.729  1.00  0.00     0.028 H 
ATOM     54  H   UNL     1     -47.410  26.112  24.449  1.00  0.00     0.028 H 
ATOM     55  H   UNL     1     -50.407  27.737  23.336  1.00  0.00     0.028 H 
ATOM     56  H   UNL     1     -49.311  26.346  23.100  1.00  0.00     0.028 H 
BRANCH  50  57
ATOM     57  C   UNL     1     -50.097  26.318  26.205  1.00  0.00     0.095 C 
ATOM     58  F   UNL     1     -49.869  25.002  25.947  1.00  0.00    -0.250 F 
ATOM     59  H   UNL     1     -49.806  26.512  27.240  1.00  0.00     0.063 H 
ATOM     60  H   UNL     1     -51.169  26.499  26.102  1.00  0.00     0.063 H 
ENDBRANCH  50  57
ENDBRANCH  43  46
ENDBRANCH  41  43
ENDBRANCH   1  41
TORSDOF 8
ENDMDL
MODEL 6
REMARK VINA RESULT:      -9.1      2.676      4.235
REMARK SMILES O=C(NCc1ccc2cc(CNC[C@]34C[C@](CF)(C3)C4)[nH]c2c1)c1cc(=O)n2ccccc2n1
REMARK SMILES IDX 11 1 10 4 5 5 6 6 23 7 7 8 22 10 8 12 21 14 9 15 4 18 3 21
REMARK SMILES IDX 1 22 2 23 24 25 25 26 34 27 26 28 33 30 27 31 28 32 32 33
REMARK SMILES IDX 29 34 31 35 30 37 12 41 13 43 14 46 19 47 15 48 20 49 16 50
REMARK SMILES IDX 17 57 18 58
REMARK H PARENT 11 2 11 3 6 9 23 11 7 13 21 16 9 17 4 19 4 20 3 24 25 29 32 36
REMARK H PARENT 29 38 31 39 30 40 12 42 13 44 13 45 19 51 19 52 15 53 15 54
REMARK H PARENT 20 55 20 56 17 59 17 60
REMARK Flexibility Score: inf
ROOT
ATOM      1  C   UNL     1     -46.730  32.458  24.935  1.00  0.00     0.036 C 
ATOM      2  H   UNL     1     -47.272  32.634  23.998  1.00  0.00     0.049 H 
ATOM      3  H   UNL     1     -45.668  32.345  24.693  1.00  0.00     0.049 H 
ENDROOT
BRANCH   1   4
ATOM      4  C   UNL     1     -46.882  33.637  25.829  1.00  0.00     0.030 A 
ATOM      5  C   UNL     1     -46.097  37.225  28.638  1.00  0.00    -0.027 A 
ATOM      6  C   UNL     1     -47.493  37.323  28.552  1.00  0.00    -0.057 A 
ATOM      7  C   UNL     1     -45.422  36.199  27.951  1.00  0.00    -0.033 A 
ATOM      8  C   UNL     1     -48.238  36.424  27.778  1.00  0.00    -0.052 A 
ATOM      9  H   UNL     1     -48.015  38.107  29.098  1.00  0.00     0.063 H 
ATOM     10  C   UNL     1     -46.184  35.313  27.180  1.00  0.00     0.046 A 
ATOM     11  H   UNL     1     -44.343  36.098  28.013  1.00  0.00     0.065 H 
ATOM     12  C   UNL     1     -47.571  35.400  27.080  1.00  0.00    -0.000 A 
ATOM     13  H   UNL     1     -49.318  36.516  27.724  1.00  0.00     0.063 H 
ATOM     14  N   UNL     1     -45.793  34.240  26.415  1.00  0.00    -0.357 N 
ATOM     15  C   UNL     1     -47.999  34.343  26.228  1.00  0.00    -0.032 A 
ATOM     16  H   UNL     1     -44.844  33.906  26.310  1.00  0.00     0.166 HD
ATOM     17  H   UNL     1     -49.019  34.127  25.940  1.00  0.00     0.065 H 
BRANCH   5  18
ATOM     18  C   UNL     1     -45.329  38.195  29.500  1.00  0.00     0.043 C 
ATOM     19  H   UNL     1     -45.961  38.568  30.313  1.00  0.00     0.054 H 
ATOM     20  H   UNL     1     -44.470  37.694  29.960  1.00  0.00     0.054 H 
BRANCH  18  21
ATOM     21  N   UNL     1     -44.904  39.336  28.730  1.00  0.00    -0.347 N 
ATOM     22  O   UNL     1     -43.006  39.803  29.946  1.00  0.00    -0.268 OA
ATOM     23  C   UNL     1     -43.730  40.005  28.978  1.00  0.00     0.270 C 
ATOM     24  H   UNL     1     -45.342  39.523  27.835  1.00  0.00     0.164 HD
BRANCH  23  25
ATOM     25  C   UNL     1     -43.413  41.022  27.909  1.00  0.00     0.136 A 
ATOM     26  C   UNL     1     -42.127  41.158  27.581  1.00  0.00     0.035 A 
ATOM     27  N   UNL     1     -44.448  41.731  27.340  1.00  0.00    -0.225 NA
ATOM     28  C   UNL     1     -41.773  42.132  26.542  1.00  0.00     0.258 A 
ATOM     29  H   UNL     1     -41.322  40.594  28.034  1.00  0.00     0.071 H 
ATOM     30  C   UNL     1     -44.130  42.588  26.418  1.00  0.00     0.140 A 
ATOM     31  O   UNL     1     -40.589  42.268  26.236  1.00  0.00    -0.269 OA
ATOM     32  N   UNL     1     -42.832  42.830  25.981  1.00  0.00    -0.268 N 
ATOM     33  C   UNL     1     -45.218  43.376  25.771  1.00  0.00    -0.019 A 
ATOM     34  C   UNL     1     -42.576  43.769  24.987  1.00  0.00     0.014 A 
ATOM     35  C   UNL     1     -44.922  44.267  24.818  1.00  0.00    -0.057 A 
ATOM     36  H   UNL     1     -46.232  43.193  26.103  1.00  0.00     0.066 H 
ATOM     37  C   UNL     1     -43.558  44.472  24.411  1.00  0.00    -0.045 A 
ATOM     38  H   UNL     1     -41.538  43.907  24.695  1.00  0.00     0.082 H 
ATOM     39  H   UNL     1     -45.699  44.850  24.335  1.00  0.00     0.062 H 
ATOM     40  H   UNL     1     -43.346  45.202  23.636  1.00  0.00     0.064 H 
ENDBRANCH  23  25
ENDBRANCH  18  21
ENDBRANCH   5  18
ENDBRANCH   1   4
BRANCH   1  41
ATOM     41  N   UNL     1     -47.253  31.271  25.612  1.00  0.00    -0.311 NA
ATOM     42  H   UNL     1     -47.181  31.451  26.615  1.00  0.00     0.123 HD
BRANCH  41  43
ATOM     43  C   UNL     1     -48.659  31.028  25.285  1.00  0.00     0.001 C 
ATOM     44  H   UNL     1     -49.224  31.966  25.227  1.00  0.00     0.043 H 
ATOM     45  H   UNL     1     -49.097  30.462  26.116  1.00  0.00     0.043 H 
BRANCH  43  46
ATOM     46  C   UNL     1     -48.802  30.228  24.040  1.00  0.00    -0.015 C 
ATOM     47  C   UNL     1     -49.156  30.808  22.613  1.00  0.00    -0.038 C 
ATOM     48  C   UNL     1     -49.874  29.120  23.695  1.00  0.00    -0.038 C 
ATOM     49  C   UNL     1     -47.795  29.299  23.249  1.00  0.00    -0.038 C 
ATOM     50  C   UNL     1     -49.082  29.258  22.338  1.00  0.00     0.000 C 
ATOM     51  H   UNL     1     -50.137  31.283  22.502  1.00  0.00     0.028 H 
ATOM     52  H   UNL     1     -48.397  31.434  22.131  1.00  0.00     0.028 H 
ATOM     53  H   UNL     1     -50.924  29.432  23.687  1.00  0.00     0.028 H 
ATOM     54  H   UNL     1     -49.787  28.166  24.224  1.00  0.00     0.028 H 
ATOM     55  H   UNL     1     -46.905  29.779  22.828  1.00  0.00     0.028 H 
ATOM     56  H   UNL     1     -47.506  28.355  23.722  1.00  0.00     0.028 H 
BRANCH  50  57
ATOM     57  C   UNL     1     -49.290  28.534  21.068  1.00  0.00     0.095 C 
ATOM     58  F   UNL     1     -49.438  27.212  21.352  1.00  0.00    -0.250 F 
ATOM     59  H   UNL     1     -50.192  28.868  20.549  1.00  0.00     0.063 H 
ATOM     60  H   UNL     1     -48.438  28.639  20.392  1.00  0.00     0.063 H 
ENDBRANCH  50  57
ENDBRANCH  43  46
ENDBRANCH  41  43
ENDBRANCH   1  41
TORSDOF 8
ENDMDL
MODEL 7
REMARK VINA RESULT:      -9.1      4.868     12.238
REMARK SMILES O=C(NCc1ccc2cc(CNC[C@]34C[C@](CF)(C3)C4)[nH]c2c1)c1cc(=O)n2ccccc2n1
REMARK SMILES IDX 11 1 10 4 5 5 6 6 23 7 7 8 22 10 8 12 21 14 9 15 4 18 3 21
REMARK SMILES IDX 1 22 2 23 24 25 25 26 34 27 26 28 33 30 27 31 28 32 32 33
REMARK SMILES IDX 29 34 31 35 30 37 12 41 13 43 14 46 19 47 15 48 20 49 16 50
REMARK SMILES IDX 17 57 18 58
REMARK H PARENT 11 2 11 3 6 9 23 11 7 13 21 16 9 17 4 19 4 20 3 24 25 29 32 36
REMARK H PARENT 29 38 31 39 30 40 12 42 13 44 13 45 19 51 19 52 15 53 15 54
REMARK H PARENT 20 55 20 56 17 59 17 60
REMARK Flexibility Score: inf
ROOT
ATOM      1  C   UNL     1     -43.154  41.946  27.673  1.00  0.00     0.036 C 
ATOM      2  H   UNL     1     -43.696  42.861  27.942  1.00  0.00     0.049 H 
ATOM      3  H   UNL     1     -42.485  41.697  28.503  1.00  0.00     0.049 H 
ENDROOT
BRANCH   1   4
ATOM      4  C   UNL     1     -44.119  40.827  27.498  1.00  0.00     0.030 A 
ATOM      5  C   UNL     1     -46.384  36.811  27.830  1.00  0.00    -0.027 A 
ATOM      6  C   UNL     1     -47.212  37.445  26.894  1.00  0.00    -0.057 A 
ATOM      7  C   UNL     1     -45.248  37.476  28.327  1.00  0.00    -0.033 A 
ATOM      8  C   UNL     1     -46.942  38.746  26.450  1.00  0.00    -0.052 A 
ATOM      9  H   UNL     1     -48.081  36.922  26.498  1.00  0.00     0.063 H 
ATOM     10  C   UNL     1     -44.997  38.776  27.874  1.00  0.00     0.046 A 
ATOM     11  H   UNL     1     -44.587  36.998  29.043  1.00  0.00     0.065 H 
ATOM     12  C   UNL     1     -45.814  39.423  26.948  1.00  0.00    -0.000 A 
ATOM     13  H   UNL     1     -47.595  39.221  25.725  1.00  0.00     0.063 H 
ATOM     14  N   UNL     1     -43.981  39.646  28.190  1.00  0.00    -0.357 N 
ATOM     15  C   UNL     1     -45.253  40.711  26.721  1.00  0.00    -0.032 A 
ATOM     16  H   UNL     1     -43.212  39.451  28.818  1.00  0.00     0.166 HD
ATOM     17  H   UNL     1     -45.644  41.471  26.056  1.00  0.00     0.065 H 
BRANCH   5  18
ATOM     18  C   UNL     1     -46.691  35.400  28.269  1.00  0.00     0.043 C 
ATOM     19  H   UNL     1     -45.841  34.978  28.818  1.00  0.00     0.054 H 
ATOM     20  H   UNL     1     -47.551  35.393  28.947  1.00  0.00     0.054 H 
BRANCH  18  21
ATOM     21  N   UNL     1     -46.930  34.552  27.130  1.00  0.00    -0.347 N 
ATOM     22  O   UNL     1     -46.103  32.610  28.049  1.00  0.00    -0.268 OA
ATOM     23  C   UNL     1     -46.679  33.202  27.144  1.00  0.00     0.270 C 
ATOM     24  H   UNL     1     -47.515  34.888  26.373  1.00  0.00     0.164 HD
BRANCH  23  25
ATOM     25  C   UNL     1     -47.209  32.508  25.912  1.00  0.00     0.136 A 
ATOM     26  C   UNL     1     -48.536  32.397  25.816  1.00  0.00     0.035 A 
ATOM     27  N   UNL     1     -46.313  32.044  24.975  1.00  0.00    -0.225 NA
ATOM     28  C   UNL     1     -49.095  31.735  24.632  1.00  0.00     0.258 A 
ATOM     29  H   UNL     1     -49.231  32.767  26.559  1.00  0.00     0.071 H 
ATOM     30  C   UNL     1     -46.813  31.463  23.927  1.00  0.00     0.140 A 
ATOM     31  O   UNL     1     -50.317  31.625  24.537  1.00  0.00    -0.269 OA
ATOM     32  N   UNL     1     -48.173  31.281  23.701  1.00  0.00    -0.268 N 
ATOM     33  C   UNL     1     -45.880  30.949  22.883  1.00  0.00    -0.019 A 
ATOM     34  C   UNL     1     -48.627  30.645  22.550  1.00  0.00     0.014 A 
ATOM     35  C   UNL     1     -46.365  30.345  21.793  1.00  0.00    -0.057 A 
ATOM     36  H   UNL     1     -44.819  31.087  23.049  1.00  0.00     0.066 H 
ATOM     37  C   UNL     1     -47.784  30.186  21.618  1.00  0.00    -0.045 A 
ATOM     38  H   UNL     1     -49.703  30.536  22.439  1.00  0.00     0.082 H 
ATOM     39  H   UNL     1     -45.703  29.964  21.022  1.00  0.00     0.062 H 
ATOM     40  H   UNL     1     -48.150  29.691  20.724  1.00  0.00     0.064 H 
ENDBRANCH  23  25
ENDBRANCH  18  21
ENDBRANCH   5  18
ENDBRANCH   1   4
BRANCH   1  41
ATOM     41  N   UNL     1     -42.413  42.141  26.427  1.00  0.00    -0.311 NA
ATOM     42  H   UNL     1     -42.929  41.643  25.699  1.00  0.00     0.123 HD
BRANCH  41  43
ATOM     43  C   UNL     1     -42.330  43.553  26.052  1.00  0.00     0.001 C 
ATOM     44  H   UNL     1     -41.288  43.879  25.947  1.00  0.00     0.043 H 
ATOM     45  H   UNL     1     -42.747  44.138  26.881  1.00  0.00     0.043 H 
BRANCH  43  46
ATOM     46  C   UNL     1     -43.118  43.842  24.826  1.00  0.00    -0.015 C 
ATOM     47  C   UNL     1     -44.245  42.913  24.220  1.00  0.00    -0.038 C 
ATOM     48  C   UNL     1     -42.616  43.957  23.332  1.00  0.00    -0.038 C 
ATOM     49  C   UNL     1     -44.094  45.025  24.439  1.00  0.00    -0.038 C 
ATOM     50  C   UNL     1     -44.180  44.089  23.173  1.00  0.00     0.000 C 
ATOM     51  H   UNL     1     -43.935  41.922  23.870  1.00  0.00     0.028 H 
ATOM     52  H   UNL     1     -45.170  42.816  24.799  1.00  0.00     0.028 H 
ATOM     53  H   UNL     1     -42.149  43.067  22.896  1.00  0.00     0.028 H 
ATOM     54  H   UNL     1     -42.017  44.837  23.078  1.00  0.00     0.028 H 
ATOM     55  H   UNL     1     -45.004  45.132  25.039  1.00  0.00     0.028 H 
ATOM     56  H   UNL     1     -43.648  46.013  24.282  1.00  0.00     0.028 H 
BRANCH  50  57
ATOM     57  C   UNL     1     -44.972  44.275  21.941  1.00  0.00     0.095 C 
ATOM     58  F   UNL     1     -44.435  45.311  21.243  1.00  0.00    -0.250 F 
ATOM     59  H   UNL     1     -44.945  43.390  21.299  1.00  0.00     0.063 H 
ATOM     60  H   UNL     1     -46.014  44.519  22.157  1.00  0.00     0.063 H 
ENDBRANCH  50  57
ENDBRANCH  43  46
ENDBRANCH  41  43
ENDBRANCH   1  41
TORSDOF 8
ENDMDL
