MODEL 1
REMARK VINA RESULT:     -10.6      0.000      0.000
REMARK SMILES Cn1ccc(-c2cn(-c3cncc(COc4ccc(C(=O)NC5CCOCC5)c(N)c4)c3)c3ncnc(N)c23)n1
REMARK SMILES IDX 14 1 13 4 9 5 10 6 32 7 11 8 12 11 8 13 6 14 7 15 39 16
REMARK SMILES IDX 33 18 37 19 34 20 36 21 35 22 5 24 2 25 3 26 40 27 4 28 1 31
REMARK SMILES IDX 38 35 15 38 16 39 17 40 31 41 18 42 29 44 19 46 30 48 20 51
REMARK SMILES IDX 21 52 22 53 23 55 24 56 28 57 25 59 27 62 26 65
REMARK H PARENT 14 2 14 3 10 9 32 10 12 12 7 17 35 23 3 29 4 30 1 32 1 33 1 34
REMARK H PARENT 38 36 38 37 17 43 31 45 18 47 30 49 30 50 22 54 23 58 24 60
REMARK H PARENT 24 61 28 63 28 64 25 66 25 67 27 68 27 69
REMARK Flexibility Score: inf
ROOT
ATOM      1  C   UNL     1     -47.887  35.202  27.332  1.00  0.00     0.115 C 
ATOM      2  H   UNL     1     -47.713  34.284  27.907  1.00  0.00     0.076 H 
ATOM      3  H   UNL     1     -48.948  35.474  27.377  1.00  0.00     0.076 H 
ENDROOT
BRANCH   1   4
ATOM      4  C   UNL     1     -47.088  36.331  27.927  1.00  0.00     0.010 A 
ATOM      5  C   UNL     1     -46.148  38.573  27.797  1.00  0.00     0.066 A 
ATOM      6  C   UNL     1     -45.563  38.314  29.035  1.00  0.00     0.051 A 
ATOM      7  C   UNL     1     -46.921  37.545  27.243  1.00  0.00    -0.028 A 
ATOM      8  N   UNL     1     -45.693  37.152  29.720  1.00  0.00    -0.262 NA
ATOM      9  H   UNL     1     -44.926  39.025  29.551  1.00  0.00     0.086 H 
ATOM     10  H   UNL     1     -47.427  37.662  26.291  1.00  0.00     0.065 H 
ATOM     11  C   UNL     1     -46.450  36.190  29.151  1.00  0.00     0.034 A 
ATOM     12  H   UNL     1     -46.531  35.272  29.728  1.00  0.00     0.084 H 
BRANCH   5  13
ATOM     13  N   UNL     1     -45.955  39.832  27.140  1.00  0.00    -0.299 N 
ATOM     14  C   UNL     1     -44.916  41.530  26.070  1.00  0.00     0.033 A 
ATOM     15  C   UNL     1     -44.752  40.273  26.613  1.00  0.00     0.021 A 
ATOM     16  C   UNL     1     -46.283  41.888  26.227  1.00  0.00     0.071 A 
ATOM     17  H   UNL     1     -43.848  39.690  26.698  1.00  0.00     0.083 H 
ATOM     18  C   UNL     1     -46.899  40.834  26.906  1.00  0.00     0.150 A 
ATOM     19  C   UNL     1     -47.103  42.978  25.879  1.00  0.00     0.137 A 
ATOM     20  N   UNL     1     -48.204  40.797  27.248  1.00  0.00    -0.218 NA
ATOM     21  N   UNL     1     -48.399  42.971  26.239  1.00  0.00    -0.219 NA
ATOM     22  C   UNL     1     -48.871  41.899  26.886  1.00  0.00     0.120 A 
ATOM     23  H   UNL     1     -49.925  41.927  27.146  1.00  0.00     0.106 H 
BRANCH  14  24
ATOM     24  C   UNL     1     -43.860  42.346  25.461  1.00  0.00     0.095 A 
ATOM     25  N   UNL     1     -42.750  43.487  24.067  1.00  0.00    -0.275 N 
ATOM     26  C   UNL     1     -42.010  43.537  25.211  1.00  0.00     0.025 A 
ATOM     27  N   UNL     1     -43.886  42.774  24.192  1.00  0.00    -0.173 NA
ATOM     28  C   UNL     1     -42.709  42.805  26.143  1.00  0.00    -0.016 A 
ATOM     29  H   UNL     1     -41.074  44.073  25.269  1.00  0.00     0.084 H 
ATOM     30  H   UNL     1     -42.418  42.624  27.168  1.00  0.00     0.066 H 
BRANCH  25  31
ATOM     31  C   UNL     1     -42.433  44.103  22.801  1.00  0.00     0.030 C 
ATOM     32  H   UNL     1     -42.418  45.187  22.942  1.00  0.00     0.048 H 
ATOM     33  H   UNL     1     -41.453  43.742  22.479  1.00  0.00     0.048 H 
ATOM     34  H   UNL     1     -43.192  43.832  22.064  1.00  0.00     0.048 H 
ENDBRANCH  25  31
ENDBRANCH  14  24
BRANCH  19  35
ATOM     35  N   UNL     1     -46.665  44.088  25.171  1.00  0.00    -0.383 N 
ATOM     36  H   UNL     1     -47.379  44.438  24.549  1.00  0.00     0.158 HD
ATOM     37  H   UNL     1     -46.195  44.775  25.769  1.00  0.00     0.158 HD
ENDBRANCH  19  35
ENDBRANCH   5  13
ENDBRANCH   1   4
BRANCH   1  38
ATOM     38  O   UNL     1     -47.475  35.000  25.980  1.00  0.00    -0.489 OA
BRANCH  38  39
ATOM     39  C   UNL     1     -47.440  33.712  25.521  1.00  0.00     0.121 A 
ATOM     40  C   UNL     1     -48.541  32.939  25.890  1.00  0.00    -0.019 A 
ATOM     41  C   UNL     1     -46.430  33.141  24.743  1.00  0.00     0.004 A 
ATOM     42  C   UNL     1     -48.652  31.614  25.466  1.00  0.00    -0.044 A 
ATOM     43  H   UNL     1     -49.324  33.376  26.507  1.00  0.00     0.066 H 
ATOM     44  C   UNL     1     -46.493  31.792  24.352  1.00  0.00     0.048 A 
ATOM     45  H   UNL     1     -45.574  33.723  24.420  1.00  0.00     0.068 H 
ATOM     46  C   UNL     1     -47.647  31.048  24.669  1.00  0.00     0.063 A 
ATOM     47  H   UNL     1     -49.513  31.033  25.782  1.00  0.00     0.063 H 
BRANCH  44  48
ATOM     48  N   UNL     1     -45.506  31.305  23.468  1.00  0.00    -0.398 N 
ATOM     49  H   UNL     1     -44.840  32.006  23.162  1.00  0.00     0.156 HD
ATOM     50  H   UNL     1     -45.028  30.486  23.865  1.00  0.00     0.156 HD
ENDBRANCH  44  48
BRANCH  46  51
ATOM     51  C   UNL     1     -47.775  29.634  24.214  1.00  0.00     0.253 C 
ATOM     52  O   UNL     1     -47.841  29.373  23.016  1.00  0.00    -0.269 OA
ATOM     53  N   UNL     1     -47.831  28.676  25.207  1.00  0.00    -0.349 N 
ATOM     54  H   UNL     1     -47.828  28.964  26.176  1.00  0.00     0.164 HD
BRANCH  53  55
ATOM     55  C   UNL     1     -47.899  27.252  24.893  1.00  0.00     0.033 C 
ATOM     56  C   UNL     1     -46.776  26.494  25.612  1.00  0.00    -0.009 C 
ATOM     57  C   UNL     1     -49.280  26.672  25.228  1.00  0.00    -0.009 C 
ATOM     58  H   UNL     1     -47.752  27.158  23.810  1.00  0.00     0.053 H 
ATOM     59  C   UNL     1     -47.171  25.042  25.817  1.00  0.00     0.049 C 
ATOM     60  H   UNL     1     -45.845  26.563  25.038  1.00  0.00     0.031 H 
ATOM     61  H   UNL     1     -46.582  26.952  26.591  1.00  0.00     0.031 H 
ATOM     62  C   UNL     1     -49.259  25.982  26.582  1.00  0.00     0.049 C 
ATOM     63  H   UNL     1     -50.059  27.441  25.197  1.00  0.00     0.031 H 
ATOM     64  H   UNL     1     -49.533  25.924  24.466  1.00  0.00     0.031 H 
ATOM     65  O   UNL     1     -48.334  24.897  26.635  1.00  0.00    -0.381 OA
ATOM     66  H   UNL     1     -47.365  24.552  24.857  1.00  0.00     0.057 H 
ATOM     67  H   UNL     1     -46.359  24.492  26.302  1.00  0.00     0.057 H 
ATOM     68  H   UNL     1     -50.249  25.579  26.816  1.00  0.00     0.057 H 
ATOM     69  H   UNL     1     -49.004  26.691  27.378  1.00  0.00     0.057 H 
ENDBRANCH  53  55
ENDBRANCH  46  51
ENDBRANCH  38  39
ENDBRANCH   1  38
TORSDOF 10
ENDMDL
MODEL 2
REMARK VINA RESULT:     -10.4      1.736      2.734
REMARK SMILES Cn1ccc(-c2cn(-c3cncc(COc4ccc(C(=O)NC5CCOCC5)c(N)c4)c3)c3ncnc(N)c23)n1
REMARK SMILES IDX 14 1 13 4 9 5 10 6 32 7 11 8 12 11 8 13 6 14 7 15 39 16
REMARK SMILES IDX 33 18 37 19 34 20 36 21 35 22 5 24 2 25 3 26 40 27 4 28 1 31
REMARK SMILES IDX 38 35 15 38 16 39 17 40 31 41 18 42 29 44 19 46 30 48 20 51
REMARK SMILES IDX 21 52 22 53 23 55 24 56 28 57 25 59 27 62 26 65
REMARK H PARENT 14 2 14 3 10 9 32 10 12 12 7 17 35 23 3 29 4 30 1 32 1 33 1 34
REMARK H PARENT 38 36 38 37 17 43 31 45 18 47 30 49 30 50 22 54 23 58 24 60
REMARK H PARENT 24 61 28 63 28 64 25 66 25 67 27 68 27 69
REMARK Flexibility Score: inf
ROOT
ATOM      1  C   UNL     1     -47.585  35.129  27.237  1.00  0.00     0.115 C 
ATOM      2  H   UNL     1     -46.766  34.734  27.851  1.00  0.00     0.076 H 
ATOM      3  H   UNL     1     -48.526  34.640  27.515  1.00  0.00     0.076 H 
ENDROOT
BRANCH   1   4
ATOM      4  C   UNL     1     -47.734  36.607  27.482  1.00  0.00     0.010 A 
ATOM      5  C   UNL     1     -46.775  38.830  27.731  1.00  0.00     0.066 A 
ATOM      6  C   UNL     1     -48.067  39.271  28.007  1.00  0.00     0.051 A 
ATOM      7  C   UNL     1     -46.622  37.464  27.469  1.00  0.00    -0.028 A 
ATOM      8  N   UNL     1     -49.162  38.473  28.039  1.00  0.00    -0.262 NA
ATOM      9  H   UNL     1     -48.305  40.302  28.246  1.00  0.00     0.086 H 
ATOM     10  H   UNL     1     -45.657  37.033  27.229  1.00  0.00     0.065 H 
ATOM     11  C   UNL     1     -48.970  37.164  27.776  1.00  0.00     0.034 A 
ATOM     12  H   UNL     1     -49.870  36.554  27.812  1.00  0.00     0.084 H 
BRANCH   5  13
ATOM     13  N   UNL     1     -45.671  39.745  27.722  1.00  0.00    -0.299 N 
ATOM     14  C   UNL     1     -44.356  41.478  27.107  1.00  0.00     0.033 A 
ATOM     15  C   UNL     1     -45.541  40.818  26.856  1.00  0.00     0.021 A 
ATOM     16  C   UNL     1     -43.725  40.819  28.198  1.00  0.00     0.071 A 
ATOM     17  H   UNL     1     -46.272  41.019  26.087  1.00  0.00     0.083 H 
ATOM     18  C   UNL     1     -44.544  39.743  28.546  1.00  0.00     0.150 A 
ATOM     19  C   UNL     1     -42.551  40.989  28.957  1.00  0.00     0.137 A 
ATOM     20  N   UNL     1     -44.285  38.868  29.541  1.00  0.00    -0.218 NA
ATOM     21  N   UNL     1     -42.262  40.108  29.932  1.00  0.00    -0.219 NA
ATOM     22  C   UNL     1     -43.131  39.119  30.171  1.00  0.00     0.120 A 
ATOM     23  H   UNL     1     -42.866  38.439  30.975  1.00  0.00     0.106 H 
BRANCH  14  24
ATOM     24  C   UNL     1     -43.845  42.635  26.366  1.00  0.00     0.095 A 
ATOM     25  N   UNL     1     -43.539  44.617  25.690  1.00  0.00    -0.275 N 
ATOM     26  C   UNL     1     -42.643  43.875  24.980  1.00  0.00     0.025 A 
ATOM     27  N   UNL     1     -44.279  43.889  26.548  1.00  0.00    -0.173 NA
ATOM     28  C   UNL     1     -42.814  42.576  25.400  1.00  0.00    -0.016 A 
ATOM     29  H   UNL     1     -41.976  44.316  24.253  1.00  0.00     0.084 H 
ATOM     30  H   UNL     1     -42.273  41.709  25.048  1.00  0.00     0.066 H 
BRANCH  25  31
ATOM     31  C   UNL     1     -43.747  46.042  25.603  1.00  0.00     0.030 C 
ATOM     32  H   UNL     1     -42.771  46.526  25.508  1.00  0.00     0.048 H 
ATOM     33  H   UNL     1     -44.367  46.247  24.727  1.00  0.00     0.048 H 
ATOM     34  H   UNL     1     -44.251  46.393  26.507  1.00  0.00     0.048 H 
ENDBRANCH  25  31
ENDBRANCH  14  24
BRANCH  19  35
ATOM     35  N   UNL     1     -41.647  42.024  28.771  1.00  0.00    -0.383 N 
ATOM     36  H   UNL     1     -41.718  42.716  29.504  1.00  0.00     0.158 HD
ATOM     37  H   UNL     1     -40.706  41.688  28.542  1.00  0.00     0.158 HD
ENDBRANCH  19  35
ENDBRANCH   5  13
ENDBRANCH   1   4
BRANCH   1  38
ATOM     38  O   UNL     1     -47.291  34.910  25.857  1.00  0.00    -0.489 OA
BRANCH  38  39
ATOM     39  C   UNL     1     -47.296  33.617  25.413  1.00  0.00     0.121 A 
ATOM     40  C   UNL     1     -48.399  32.870  25.827  1.00  0.00    -0.019 A 
ATOM     41  C   UNL     1     -46.325  33.018  24.607  1.00  0.00     0.004 A 
ATOM     42  C   UNL     1     -48.549  31.543  25.423  1.00  0.00    -0.044 A 
ATOM     43  H   UNL     1     -49.152  33.329  26.466  1.00  0.00     0.066 H 
ATOM     44  C   UNL     1     -46.427  31.666  24.233  1.00  0.00     0.048 A 
ATOM     45  H   UNL     1     -45.470  33.579  24.247  1.00  0.00     0.068 H 
ATOM     46  C   UNL     1     -47.584  30.948  24.599  1.00  0.00     0.063 A 
ATOM     47  H   UNL     1     -49.411  30.982  25.775  1.00  0.00     0.063 H 
BRANCH  44  48
ATOM     48  N   UNL     1     -45.481  31.150  23.323  1.00  0.00    -0.398 N 
ATOM     49  H   UNL     1     -45.641  31.424  22.359  1.00  0.00     0.156 HD
ATOM     50  H   UNL     1     -44.523  31.376  23.619  1.00  0.00     0.156 HD
ENDBRANCH  44  48
BRANCH  46  51
ATOM     51  C   UNL     1     -47.755  29.533  24.164  1.00  0.00     0.253 C 
ATOM     52  O   UNL     1     -47.902  29.263  22.976  1.00  0.00    -0.269 OA
ATOM     53  N   UNL     1     -47.753  28.582  25.167  1.00  0.00    -0.349 N 
ATOM     54  H   UNL     1     -47.683  28.878  26.131  1.00  0.00     0.164 HD
BRANCH  53  55
ATOM     55  C   UNL     1     -47.855  27.157  24.870  1.00  0.00     0.033 C 
ATOM     56  C   UNL     1     -46.935  26.353  25.797  1.00  0.00    -0.009 C 
ATOM     57  C   UNL     1     -49.308  26.671  24.953  1.00  0.00    -0.009 C 
ATOM     58  H   UNL     1     -47.518  27.023  23.834  1.00  0.00     0.053 H 
ATOM     59  C   UNL     1     -47.453  24.934  25.950  1.00  0.00     0.049 C 
ATOM     60  H   UNL     1     -45.911  26.349  25.403  1.00  0.00     0.031 H 
ATOM     61  H   UNL     1     -46.894  26.826  26.786  1.00  0.00     0.031 H 
ATOM     62  C   UNL     1     -49.581  26.020  26.299  1.00  0.00     0.049 C 
ATOM     63  H   UNL     1     -50.017  27.485  24.766  1.00  0.00     0.031 H 
ATOM     64  H   UNL     1     -49.465  25.918  24.170  1.00  0.00     0.031 H 
ATOM     65  O   UNL     1     -48.753  24.883  26.541  1.00  0.00    -0.381 OA
ATOM     66  H   UNL     1     -47.500  24.429  24.978  1.00  0.00     0.057 H 
ATOM     67  H   UNL     1     -46.781  24.350  26.585  1.00  0.00     0.057 H 
ATOM     68  H   UNL     1     -50.621  25.685  26.353  1.00  0.00     0.057 H 
ATOM     69  H   UNL     1     -49.431  26.735  27.117  1.00  0.00     0.057 H 
ENDBRANCH  53  55
ENDBRANCH  46  51
ENDBRANCH  38  39
ENDBRANCH   1  38
TORSDOF 10
ENDMDL
MODEL 3
REMARK VINA RESULT:      -9.8      3.074     12.887
REMARK SMILES Cn1ccc(-c2cn(-c3cncc(COc4ccc(C(=O)NC5CCOCC5)c(N)c4)c3)c3ncnc(N)c23)n1
REMARK SMILES IDX 14 1 13 4 9 5 10 6 32 7 11 8 12 11 8 13 6 14 7 15 39 16
REMARK SMILES IDX 33 18 37 19 34 20 36 21 35 22 5 24 2 25 3 26 40 27 4 28 1 31
REMARK SMILES IDX 38 35 15 38 16 39 17 40 31 41 18 42 29 44 19 46 30 48 20 51
REMARK SMILES IDX 21 52 22 53 23 55 24 56 28 57 25 59 27 62 26 65
REMARK H PARENT 14 2 14 3 10 9 32 10 12 12 7 17 35 23 3 29 4 30 1 32 1 33 1 34
REMARK H PARENT 38 36 38 37 17 43 31 45 18 47 30 49 30 50 22 54 23 58 24 60
REMARK H PARENT 24 61 28 63 28 64 25 66 25 67 27 68 27 69
REMARK Flexibility Score: inf
ROOT
ATOM      1  C   UNL     1     -48.695  35.329  26.936  1.00  0.00     0.115 C 
ATOM      2  H   UNL     1     -48.648  36.263  26.364  1.00  0.00     0.076 H 
ATOM      3  H   UNL     1     -49.732  34.975  26.986  1.00  0.00     0.076 H 
ENDROOT
BRANCH   1   4
ATOM      4  C   UNL     1     -47.872  34.272  26.250  1.00  0.00     0.010 A 
ATOM      5  C   UNL     1     -47.653  32.069  25.236  1.00  0.00     0.066 A 
ATOM      6  C   UNL     1     -46.301  32.365  25.074  1.00  0.00     0.051 A 
ATOM      7  C   UNL     1     -48.440  33.054  25.843  1.00  0.00    -0.028 A 
ATOM      8  N   UNL     1     -45.714  33.523  25.462  1.00  0.00    -0.262 NA
ATOM      9  H   UNL     1     -45.590  31.672  24.637  1.00  0.00     0.086 H 
ATOM     10  H   UNL     1     -49.505  32.919  25.997  1.00  0.00     0.065 H 
ATOM     11  C   UNL     1     -46.511  34.446  26.040  1.00  0.00     0.034 A 
ATOM     12  H   UNL     1     -46.007  35.362  26.340  1.00  0.00     0.084 H 
BRANCH   5  13
ATOM     13  N   UNL     1     -48.190  30.815  24.798  1.00  0.00    -0.299 N 
ATOM     14  C   UNL     1     -49.123  28.758  24.888  1.00  0.00     0.033 A 
ATOM     15  C   UNL     1     -48.711  29.842  25.635  1.00  0.00     0.021 A 
ATOM     16  C   UNL     1     -48.886  29.068  23.520  1.00  0.00     0.071 A 
ATOM     17  H   UNL     1     -48.715  29.959  26.708  1.00  0.00     0.083 H 
ATOM     18  C   UNL     1     -48.293  30.331  23.491  1.00  0.00     0.150 A 
ATOM     19  C   UNL     1     -49.099  28.443  22.277  1.00  0.00     0.137 A 
ATOM     20  N   UNL     1     -47.912  30.978  22.369  1.00  0.00    -0.218 NA
ATOM     21  N   UNL     1     -48.697  29.060  21.151  1.00  0.00    -0.219 NA
ATOM     22  C   UNL     1     -48.143  30.273  21.256  1.00  0.00     0.120 A 
ATOM     23  H   UNL     1     -47.845  30.741  20.322  1.00  0.00     0.106 H 
BRANCH  14  24
ATOM     24  C   UNL     1     -49.685  27.513  25.421  1.00  0.00     0.095 A 
ATOM     25  N   UNL     1     -51.032  26.102  26.241  1.00  0.00    -0.275 N 
ATOM     26  C   UNL     1     -49.885  25.394  26.033  1.00  0.00     0.025 A 
ATOM     27  N   UNL     1     -50.942  27.393  25.871  1.00  0.00    -0.173 NA
ATOM     28  C   UNL     1     -48.987  26.285  25.494  1.00  0.00    -0.016 A 
ATOM     29  H   UNL     1     -49.803  24.345  26.278  1.00  0.00     0.084 H 
ATOM     30  H   UNL     1     -47.967  26.075  25.205  1.00  0.00     0.066 H 
BRANCH  25  31
ATOM     31  C   UNL     1     -52.269  25.606  26.796  1.00  0.00     0.030 C 
ATOM     32  H   UNL     1     -52.684  26.376  27.450  1.00  0.00     0.048 H 
ATOM     33  H   UNL     1     -52.953  25.390  25.971  1.00  0.00     0.048 H 
ATOM     34  H   UNL     1     -52.072  24.695  27.367  1.00  0.00     0.048 H 
ENDBRANCH  25  31
ENDBRANCH  14  24
BRANCH  19  35
ATOM     35  N   UNL     1     -49.709  27.207  22.120  1.00  0.00    -0.383 N 
ATOM     36  H   UNL     1     -49.983  26.812  23.009  1.00  0.00     0.158 HD
ATOM     37  H   UNL     1     -50.416  27.209  21.378  1.00  0.00     0.158 HD
ENDBRANCH  19  35
ENDBRANCH   5  13
ENDBRANCH   1   4
BRANCH   1  38
ATOM     38  O   UNL     1     -48.174  35.549  28.247  1.00  0.00    -0.489 OA
BRANCH  38  39
ATOM     39  C   UNL     1     -47.219  36.518  28.387  1.00  0.00     0.121 A 
ATOM     40  C   UNL     1     -47.166  37.430  27.332  1.00  0.00    -0.019 A 
ATOM     41  C   UNL     1     -46.337  36.659  29.461  1.00  0.00     0.004 A 
ATOM     42  C   UNL     1     -46.259  38.491  27.357  1.00  0.00    -0.044 A 
ATOM     43  H   UNL     1     -47.842  37.318  26.487  1.00  0.00     0.066 H 
ATOM     44  C   UNL     1     -45.377  37.686  29.481  1.00  0.00     0.048 A 
ATOM     45  H   UNL     1     -46.371  35.981  30.307  1.00  0.00     0.068 H 
ATOM     46  C   UNL     1     -45.387  38.642  28.444  1.00  0.00     0.063 A 
ATOM     47  H   UNL     1     -46.229  39.176  26.514  1.00  0.00     0.063 H 
BRANCH  44  48
ATOM     48  N   UNL     1     -44.596  37.849  30.644  1.00  0.00    -0.398 N 
ATOM     49  H   UNL     1     -44.648  38.776  31.053  1.00  0.00     0.156 HD
ATOM     50  H   UNL     1     -44.814  37.124  31.339  1.00  0.00     0.156 HD
ENDBRANCH  44  48
BRANCH  46  51
ATOM     51  C   UNL     1     -44.425  39.780  28.468  1.00  0.00     0.253 C 
ATOM     52  O   UNL     1     -43.559  39.841  29.335  1.00  0.00    -0.269 OA
ATOM     53  N   UNL     1     -44.589  40.738  27.486  1.00  0.00    -0.349 N 
ATOM     54  H   UNL     1     -45.358  40.655  26.835  1.00  0.00     0.164 HD
BRANCH  53  55
ATOM     55  C   UNL     1     -43.679  41.873  27.365  1.00  0.00     0.033 C 
ATOM     56  C   UNL     1     -42.396  41.451  26.638  1.00  0.00    -0.009 C 
ATOM     57  C   UNL     1     -44.358  43.061  26.672  1.00  0.00    -0.009 C 
ATOM     58  H   UNL     1     -43.422  42.184  28.385  1.00  0.00     0.053 H 
ATOM     59  C   UNL     1     -41.753  42.653  25.969  1.00  0.00     0.049 C 
ATOM     60  H   UNL     1     -41.698  40.983  27.343  1.00  0.00     0.031 H 
ATOM     61  H   UNL     1     -42.629  40.699  25.873  1.00  0.00     0.031 H 
ATOM     62  C   UNL     1     -43.996  43.103  25.197  1.00  0.00     0.049 C 
ATOM     63  H   UNL     1     -45.446  43.037  26.803  1.00  0.00     0.031 H 
ATOM     64  H   UNL     1     -43.997  43.986  27.140  1.00  0.00     0.031 H 
ATOM     65  O   UNL     1     -42.593  43.246  24.977  1.00  0.00    -0.381 OA
ATOM     66  H   UNL     1     -41.501  43.422  26.707  1.00  0.00     0.057 H 
ATOM     67  H   UNL     1     -40.821  42.360  25.477  1.00  0.00     0.057 H 
ATOM     68  H   UNL     1     -44.491  43.948  24.709  1.00  0.00     0.057 H 
ATOM     69  H   UNL     1     -44.334  42.194  24.685  1.00  0.00     0.057 H 
ENDBRANCH  53  55
ENDBRANCH  46  51
ENDBRANCH  38  39
ENDBRANCH   1  38
TORSDOF 10
ENDMDL
MODEL 4
REMARK VINA RESULT:      -9.6      2.942     13.060
REMARK SMILES Cn1ccc(-c2cn(-c3cncc(COc4ccc(C(=O)NC5CCOCC5)c(N)c4)c3)c3ncnc(N)c23)n1
REMARK SMILES IDX 14 1 13 4 9 5 10 6 32 7 11 8 12 11 8 13 6 14 7 15 39 16
REMARK SMILES IDX 33 18 37 19 34 20 36 21 35 22 5 24 2 25 3 26 40 27 4 28 1 31
REMARK SMILES IDX 38 35 15 38 16 39 17 40 31 41 18 42 29 44 19 46 30 48 20 51
REMARK SMILES IDX 21 52 22 53 23 55 24 56 28 57 25 59 27 62 26 65
REMARK H PARENT 14 2 14 3 10 9 32 10 12 12 7 17 35 23 3 29 4 30 1 32 1 33 1 34
REMARK H PARENT 38 36 38 37 17 43 31 45 18 47 30 49 30 50 22 54 23 58 24 60
REMARK H PARENT 24 61 28 63 28 64 25 66 25 67 27 68 27 69
REMARK Flexibility Score: inf
ROOT
ATOM      1  C   UNL     1     -45.867  34.859  26.879  1.00  0.00     0.115 C 
ATOM      2  H   UNL     1     -45.122  34.102  27.154  1.00  0.00     0.076 H 
ATOM      3  H   UNL     1     -45.554  35.373  25.962  1.00  0.00     0.076 H 
ENDROOT
BRANCH   1   4
ATOM      4  C   UNL     1     -47.191  34.194  26.614  1.00  0.00     0.010 A 
ATOM      5  C   UNL     1     -48.503  32.316  25.789  1.00  0.00     0.066 A 
ATOM      6  C   UNL     1     -49.632  33.074  26.091  1.00  0.00     0.051 A 
ATOM      7  C   UNL     1     -47.263  32.907  26.059  1.00  0.00    -0.028 A 
ATOM      8  N   UNL     1     -49.603  34.323  26.618  1.00  0.00    -0.262 NA
ATOM      9  H   UNL     1     -50.645  32.731  25.906  1.00  0.00     0.086 H 
ATOM     10  H   UNL     1     -46.330  32.386  25.871  1.00  0.00     0.065 H 
ATOM     11  C   UNL     1     -48.387  34.852  26.866  1.00  0.00     0.034 A 
ATOM     12  H   UNL     1     -48.402  35.854  27.286  1.00  0.00     0.084 H 
BRANCH   5  13
ATOM     13  N   UNL     1     -48.626  31.002  25.230  1.00  0.00    -0.299 N 
ATOM     14  C   UNL     1     -48.775  28.750  25.117  1.00  0.00     0.033 A 
ATOM     15  C   UNL     1     -48.672  29.830  25.967  1.00  0.00     0.021 A 
ATOM     16  C   UNL     1     -48.832  29.256  23.789  1.00  0.00     0.071 A 
ATOM     17  H   UNL     1     -48.582  29.833  27.043  1.00  0.00     0.083 H 
ATOM     18  C   UNL     1     -48.718  30.644  23.883  1.00  0.00     0.150 A 
ATOM     19  C   UNL     1     -48.969  28.721  22.494  1.00  0.00     0.137 A 
ATOM     20  N   UNL     1     -48.726  31.491  22.831  1.00  0.00    -0.218 NA
ATOM     21  N   UNL     1     -48.948  29.548  21.433  1.00  0.00    -0.219 NA
ATOM     22  C   UNL     1     -48.837  30.862  21.655  1.00  0.00     0.120 A 
ATOM     23  H   UNL     1     -48.837  31.495  20.772  1.00  0.00     0.106 H 
BRANCH  14  24
ATOM     24  C   UNL     1     -48.803  27.340  25.520  1.00  0.00     0.095 A 
ATOM     25  N   UNL     1     -48.203  25.432  26.210  1.00  0.00    -0.275 N 
ATOM     26  C   UNL     1     -49.545  25.311  26.006  1.00  0.00     0.025 A 
ATOM     27  N   UNL     1     -47.725  26.659  25.929  1.00  0.00    -0.173 NA
ATOM     28  C   UNL     1     -49.969  26.541  25.559  1.00  0.00    -0.016 A 
ATOM     29  H   UNL     1     -50.076  24.388  26.189  1.00  0.00     0.084 H 
ATOM     30  H   UNL     1     -50.980  26.815  25.291  1.00  0.00     0.066 H 
BRANCH  25  31
ATOM     31  C   UNL     1     -47.301  24.407  26.678  1.00  0.00     0.030 C 
ATOM     32  H   UNL     1     -46.516  24.273  25.930  1.00  0.00     0.048 H 
ATOM     33  H   UNL     1     -46.875  24.733  27.630  1.00  0.00     0.048 H 
ATOM     34  H   UNL     1     -47.851  23.473  26.815  1.00  0.00     0.048 H 
ENDBRANCH  25  31
ENDBRANCH  14  24
BRANCH  19  35
ATOM     35  N   UNL     1     -49.132  27.371  22.222  1.00  0.00    -0.383 N 
ATOM     36  H   UNL     1     -50.006  27.189  21.749  1.00  0.00     0.158 HD
ATOM     37  H   UNL     1     -48.291  26.947  21.818  1.00  0.00     0.158 HD
ENDBRANCH  19  35
ENDBRANCH   5  13
ENDBRANCH   1   4
BRANCH   1  38
ATOM     38  O   UNL     1     -46.017  35.789  27.952  1.00  0.00    -0.489 OA
BRANCH  38  39
ATOM     39  C   UNL     1     -45.887  37.117  27.652  1.00  0.00     0.121 A 
ATOM     40  C   UNL     1     -46.774  37.577  26.678  1.00  0.00    -0.019 A 
ATOM     41  C   UNL     1     -44.978  38.007  28.228  1.00  0.00     0.004 A 
ATOM     42  C   UNL     1     -46.773  38.919  26.296  1.00  0.00    -0.044 A 
ATOM     43  H   UNL     1     -47.475  36.884  26.218  1.00  0.00     0.066 H 
ATOM     44  C   UNL     1     -44.921  39.351  27.818  1.00  0.00     0.048 A 
ATOM     45  H   UNL     1     -44.293  37.686  29.005  1.00  0.00     0.068 H 
ATOM     46  C   UNL     1     -45.873  39.815  26.887  1.00  0.00     0.063 A 
ATOM     47  H   UNL     1     -47.465  39.244  25.523  1.00  0.00     0.063 H 
BRANCH  44  48
ATOM     48  N   UNL     1     -44.066  40.228  28.517  1.00  0.00    -0.398 N 
ATOM     49  H   UNL     1     -43.080  40.092  28.321  1.00  0.00     0.156 HD
ATOM     50  H   UNL     1     -44.342  41.208  28.369  1.00  0.00     0.156 HD
ENDBRANCH  44  48
BRANCH  46  51
ATOM     51  C   UNL     1     -45.883  41.249  26.479  1.00  0.00     0.253 C 
ATOM     52  O   UNL     1     -46.691  42.028  26.976  1.00  0.00    -0.269 OA
ATOM     53  N   UNL     1     -44.960  41.617  25.520  1.00  0.00    -0.349 N 
ATOM     54  H   UNL     1     -44.360  40.913  25.112  1.00  0.00     0.164 HD
BRANCH  53  55
ATOM     55  C   UNL     1     -44.829  43.001  25.076  1.00  0.00     0.033 C 
ATOM     56  C   UNL     1     -44.141  43.845  26.157  1.00  0.00    -0.009 C 
ATOM     57  C   UNL     1     -44.091  43.090  23.733  1.00  0.00    -0.009 C 
ATOM     58  H   UNL     1     -45.846  43.383  24.922  1.00  0.00     0.053 H 
ATOM     59  C   UNL     1     -43.455  45.045  25.529  1.00  0.00     0.049 C 
ATOM     60  H   UNL     1     -44.873  44.168  26.907  1.00  0.00     0.031 H 
ATOM     61  H   UNL     1     -43.391  43.240  26.683  1.00  0.00     0.031 H 
ATOM     62  C   UNL     1     -42.623  43.421  23.947  1.00  0.00     0.049 C 
ATOM     63  H   UNL     1     -44.199  42.167  23.152  1.00  0.00     0.031 H 
ATOM     64  H   UNL     1     -44.542  43.898  23.144  1.00  0.00     0.031 H 
ATOM     65  O   UNL     1     -42.430  44.673  24.605  1.00  0.00    -0.381 OA
ATOM     66  H   UNL     1     -44.178  45.675  25.000  1.00  0.00     0.057 H 
ATOM     67  H   UNL     1     -42.991  45.665  26.301  1.00  0.00     0.057 H 
ATOM     68  H   UNL     1     -42.103  43.473  22.986  1.00  0.00     0.057 H 
ATOM     69  H   UNL     1     -42.128  42.641  24.538  1.00  0.00     0.057 H 
ENDBRANCH  53  55
ENDBRANCH  46  51
ENDBRANCH  38  39
ENDBRANCH   1  38
TORSDOF 10
ENDMDL
MODEL 5
REMARK VINA RESULT:      -9.5      2.161      2.534
REMARK SMILES Cn1ccc(-c2cn(-c3cncc(COc4ccc(C(=O)NC5CCOCC5)c(N)c4)c3)c3ncnc(N)c23)n1
REMARK SMILES IDX 14 1 13 4 9 5 10 6 32 7 11 8 12 11 8 13 6 14 7 15 39 16
REMARK SMILES IDX 33 18 37 19 34 20 36 21 35 22 5 24 2 25 3 26 40 27 4 28 1 31
REMARK SMILES IDX 38 35 15 38 16 39 17 40 31 41 18 42 29 44 19 46 30 48 20 51
REMARK SMILES IDX 21 52 22 53 23 55 24 56 28 57 25 59 27 62 26 65
REMARK H PARENT 14 2 14 3 10 9 32 10 12 12 7 17 35 23 3 29 4 30 1 32 1 33 1 34
REMARK H PARENT 38 36 38 37 17 43 31 45 18 47 30 49 30 50 22 54 23 58 24 60
REMARK H PARENT 24 61 28 63 28 64 25 66 25 67 27 68 27 69
REMARK Flexibility Score: inf
ROOT
ATOM      1  C   UNL     1     -48.125  35.130  26.884  1.00  0.00     0.115 C 
ATOM      2  H   UNL     1     -49.077  35.248  27.417  1.00  0.00     0.076 H 
ATOM      3  H   UNL     1     -48.271  35.329  25.815  1.00  0.00     0.076 H 
ENDROOT
BRANCH   1   4
ATOM      4  C   UNL     1     -47.121  36.119  27.412  1.00  0.00     0.010 A 
ATOM      5  C   UNL     1     -46.046  38.302  27.344  1.00  0.00     0.066 A 
ATOM      6  C   UNL     1     -45.224  37.842  28.370  1.00  0.00     0.051 A 
ATOM      7  C   UNL     1     -47.008  37.406  26.863  1.00  0.00    -0.028 A 
ATOM      8  N   UNL     1     -45.296  36.604  28.918  1.00  0.00    -0.262 NA
ATOM      9  H   UNL     1     -44.430  38.437  28.808  1.00  0.00     0.086 H 
ATOM     10  H   UNL     1     -47.702  37.682  26.077  1.00  0.00     0.065 H 
ATOM     11  C   UNL     1     -46.240  35.774  28.427  1.00  0.00     0.034 A 
ATOM     12  H   UNL     1     -46.269  34.790  28.889  1.00  0.00     0.084 H 
BRANCH   5  13
ATOM     13  N   UNL     1     -45.898  39.628  26.821  1.00  0.00    -0.299 N 
ATOM     14  C   UNL     1     -44.931  41.447  25.890  1.00  0.00     0.033 A 
ATOM     15  C   UNL     1     -44.729  40.140  26.281  1.00  0.00     0.021 A 
ATOM     16  C   UNL     1     -46.289  41.769  26.161  1.00  0.00     0.071 A 
ATOM     17  H   UNL     1     -43.818  39.561  26.250  1.00  0.00     0.083 H 
ATOM     18  C   UNL     1     -46.859  40.639  26.752  1.00  0.00     0.150 A 
ATOM     19  C   UNL     1     -47.134  42.880  25.981  1.00  0.00     0.137 A 
ATOM     20  N   UNL     1     -48.143  40.549  27.160  1.00  0.00    -0.218 NA
ATOM     21  N   UNL     1     -48.408  42.818  26.410  1.00  0.00    -0.219 NA
ATOM     22  C   UNL     1     -48.836  41.675  26.959  1.00  0.00     0.120 A 
ATOM     23  H   UNL     1     -49.874  41.662  27.279  1.00  0.00     0.106 H 
BRANCH  14  24
ATOM     24  C   UNL     1     -43.916  42.337  25.318  1.00  0.00     0.095 A 
ATOM     25  N   UNL     1     -42.868  43.595  23.978  1.00  0.00    -0.275 N 
ATOM     26  C   UNL     1     -42.121  43.618  25.118  1.00  0.00     0.025 A 
ATOM     27  N   UNL     1     -43.971  42.829  24.073  1.00  0.00    -0.173 NA
ATOM     28  C   UNL     1     -42.779  42.810  26.014  1.00  0.00    -0.016 A 
ATOM     29  H   UNL     1     -41.207  44.190  25.197  1.00  0.00     0.084 H 
ATOM     30  H   UNL     1     -42.473  42.588  27.027  1.00  0.00     0.066 H 
BRANCH  25  31
ATOM     31  C   UNL     1     -42.588  44.289  22.743  1.00  0.00     0.030 C 
ATOM     32  H   UNL     1     -41.578  44.702  22.803  1.00  0.00     0.048 H 
ATOM     33  H   UNL     1     -42.664  43.573  21.921  1.00  0.00     0.048 H 
ATOM     34  H   UNL     1     -43.314  45.094  22.606  1.00  0.00     0.048 H 
ENDBRANCH  25  31
ENDBRANCH  14  24
BRANCH  19  35
ATOM     35  N   UNL     1     -46.743  44.066  25.378  1.00  0.00    -0.383 N 
ATOM     36  H   UNL     1     -46.495  43.926  24.409  1.00  0.00     0.158 HD
ATOM     37  H   UNL     1     -47.381  44.842  25.585  1.00  0.00     0.158 HD
ENDBRANCH  19  35
ENDBRANCH   5  13
ENDBRANCH   1   4
BRANCH   1  38
ATOM     38  O   UNL     1     -47.630  33.806  27.087  1.00  0.00    -0.489 OA
BRANCH  38  39
ATOM     39  C   UNL     1     -47.634  32.963  26.011  1.00  0.00     0.121 A 
ATOM     40  C   UNL     1     -48.905  32.564  25.598  1.00  0.00    -0.019 A 
ATOM     41  C   UNL     1     -46.511  32.497  25.323  1.00  0.00     0.004 A 
ATOM     42  C   UNL     1     -49.061  31.726  24.492  1.00  0.00    -0.044 A 
ATOM     43  H   UNL     1     -49.783  32.913  26.138  1.00  0.00     0.066 H 
ATOM     44  C   UNL     1     -46.641  31.608  24.242  1.00  0.00     0.048 A 
ATOM     45  H   UNL     1     -45.511  32.810  25.605  1.00  0.00     0.068 H 
ATOM     46  C   UNL     1     -47.935  31.274  23.791  1.00  0.00     0.063 A 
ATOM     47  H   UNL     1     -50.063  31.419  24.204  1.00  0.00     0.063 H 
BRANCH  44  48
ATOM     48  N   UNL     1     -45.482  31.267  23.513  1.00  0.00    -0.398 N 
ATOM     49  H   UNL     1     -45.666  30.760  22.654  1.00  0.00     0.156 HD
ATOM     50  H   UNL     1     -44.900  32.096  23.337  1.00  0.00     0.156 HD
ENDBRANCH  44  48
BRANCH  46  51
ATOM     51  C   UNL     1     -48.108  30.386  22.607  1.00  0.00     0.253 C 
ATOM     52  O   UNL     1     -47.280  30.394  21.701  1.00  0.00    -0.269 OA
ATOM     53  N   UNL     1     -49.241  29.596  22.597  1.00  0.00    -0.349 N 
ATOM     54  H   UNL     1     -49.911  29.680  23.350  1.00  0.00     0.164 HD
BRANCH  53  55
ATOM     55  C   UNL     1     -49.500  28.643  21.523  1.00  0.00     0.033 C 
ATOM     56  C   UNL     1     -50.283  27.437  22.059  1.00  0.00    -0.009 C 
ATOM     57  C   UNL     1     -50.223  29.310  20.346  1.00  0.00    -0.009 C 
ATOM     58  H   UNL     1     -48.523  28.298  21.162  1.00  0.00     0.053 H 
ATOM     59  C   UNL     1     -51.074  26.785  20.938  1.00  0.00     0.049 C 
ATOM     60  H   UNL     1     -49.597  26.715  22.518  1.00  0.00     0.031 H 
ATOM     61  H   UNL     1     -50.978  27.761  22.844  1.00  0.00     0.031 H 
ATOM     62  C   UNL     1     -51.719  29.053  20.417  1.00  0.00     0.049 C 
ATOM     63  H   UNL     1     -50.016  30.386  20.303  1.00  0.00     0.031 H 
ATOM     64  H   UNL     1     -49.844  28.870  19.415  1.00  0.00     0.031 H 
ATOM     65  O   UNL     1     -52.043  27.664  20.364  1.00  0.00    -0.381 OA
ATOM     66  H   UNL     1     -50.407  26.443  20.139  1.00  0.00     0.057 H 
ATOM     67  H   UNL     1     -51.608  25.906  21.311  1.00  0.00     0.057 H 
ATOM     68  H   UNL     1     -52.227  29.539  19.580  1.00  0.00     0.057 H 
ATOM     69  H   UNL     1     -52.144  29.471  21.337  1.00  0.00     0.057 H 
ENDBRANCH  53  55
ENDBRANCH  46  51
ENDBRANCH  38  39
ENDBRANCH   1  38
TORSDOF 10
ENDMDL
MODEL 6
REMARK VINA RESULT:      -9.5      2.474      3.718
REMARK SMILES Cn1ccc(-c2cn(-c3cncc(COc4ccc(C(=O)NC5CCOCC5)c(N)c4)c3)c3ncnc(N)c23)n1
REMARK SMILES IDX 14 1 13 4 9 5 10 6 32 7 11 8 12 11 8 13 6 14 7 15 39 16
REMARK SMILES IDX 33 18 37 19 34 20 36 21 35 22 5 24 2 25 3 26 40 27 4 28 1 31
REMARK SMILES IDX 38 35 15 38 16 39 17 40 31 41 18 42 29 44 19 46 30 48 20 51
REMARK SMILES IDX 21 52 22 53 23 55 24 56 28 57 25 59 27 62 26 65
REMARK H PARENT 14 2 14 3 10 9 32 10 12 12 7 17 35 23 3 29 4 30 1 32 1 33 1 34
REMARK H PARENT 38 36 38 37 17 43 31 45 18 47 30 49 30 50 22 54 23 58 24 60
REMARK H PARENT 24 61 28 63 28 64 25 66 25 67 27 68 27 69
REMARK Flexibility Score: inf
ROOT
ATOM      1  C   UNL     1     -47.469  35.184  26.663  1.00  0.00     0.115 C 
ATOM      2  H   UNL     1     -48.556  35.325  26.621  1.00  0.00     0.076 H 
ATOM      3  H   UNL     1     -47.029  35.389  25.680  1.00  0.00     0.076 H 
ENDROOT
BRANCH   1   4
ATOM      4  C   UNL     1     -46.871  36.148  27.654  1.00  0.00     0.010 A 
ATOM      5  C   UNL     1     -45.703  38.221  28.167  1.00  0.00     0.066 A 
ATOM      6  C   UNL     1     -45.736  37.817  29.500  1.00  0.00     0.051 A 
ATOM      7  C   UNL     1     -46.285  37.352  27.236  1.00  0.00    -0.028 A 
ATOM      8  N   UNL     1     -46.284  36.658  29.940  1.00  0.00    -0.262 NA
ATOM      9  H   UNL     1     -45.300  38.396  30.307  1.00  0.00     0.086 H 
ATOM     10  H   UNL     1     -46.320  37.590  26.179  1.00  0.00     0.065 H 
ATOM     11  C   UNL     1     -46.836  35.852  29.009  1.00  0.00     0.034 A 
ATOM     12  H   UNL     1     -47.264  34.931  29.398  1.00  0.00     0.084 H 
BRANCH   5  13
ATOM     13  N   UNL     1     -45.100  39.465  27.789  1.00  0.00    -0.299 N 
ATOM     14  C   UNL     1     -44.711  41.372  26.640  1.00  0.00     0.033 A 
ATOM     15  C   UNL     1     -45.520  40.259  26.735  1.00  0.00     0.021 A 
ATOM     16  C   UNL     1     -43.762  41.300  27.697  1.00  0.00     0.071 A 
ATOM     17  H   UNL     1     -46.334  39.963  26.090  1.00  0.00     0.083 H 
ATOM     18  C   UNL     1     -44.009  40.108  28.379  1.00  0.00     0.150 A 
ATOM     19  C   UNL     1     -42.708  42.098  28.183  1.00  0.00     0.137 A 
ATOM     20  N   UNL     1     -43.312  39.674  29.451  1.00  0.00    -0.218 NA
ATOM     21  N   UNL     1     -41.984  41.666  29.231  1.00  0.00    -0.219 NA
ATOM     22  C   UNL     1     -42.323  40.504  29.801  1.00  0.00     0.120 A 
ATOM     23  H   UNL     1     -41.721  40.199  30.653  1.00  0.00     0.106 H 
BRANCH  14  24
ATOM     24  C   UNL     1     -44.812  42.421  25.621  1.00  0.00     0.095 A 
ATOM     25  N   UNL     1     -44.368  43.684  23.982  1.00  0.00    -0.275 N 
ATOM     26  C   UNL     1     -45.609  44.076  24.385  1.00  0.00     0.025 A 
ATOM     27  N   UNL     1     -43.860  42.673  24.712  1.00  0.00    -0.173 NA
ATOM     28  C   UNL     1     -45.931  43.269  25.451  1.00  0.00    -0.016 A 
ATOM     29  H   UNL     1     -46.149  44.875  23.896  1.00  0.00     0.084 H 
ATOM     30  H   UNL     1     -46.844  43.298  26.028  1.00  0.00     0.066 H 
BRANCH  25  31
ATOM     31  C   UNL     1     -43.594  44.234  22.895  1.00  0.00     0.030 C 
ATOM     32  H   UNL     1     -43.040  45.098  23.270  1.00  0.00     0.048 H 
ATOM     33  H   UNL     1     -42.909  43.462  22.535  1.00  0.00     0.048 H 
ATOM     34  H   UNL     1     -44.266  44.542  22.090  1.00  0.00     0.048 H 
ENDBRANCH  25  31
ENDBRANCH  14  24
BRANCH  19  35
ATOM     35  N   UNL     1     -42.352  43.327  27.650  1.00  0.00    -0.383 N 
ATOM     36  H   UNL     1     -43.163  43.861  27.372  1.00  0.00     0.158 HD
ATOM     37  H   UNL     1     -41.651  43.814  28.218  1.00  0.00     0.158 HD
ENDBRANCH  19  35
ENDBRANCH   5  13
ENDBRANCH   1   4
BRANCH   1  38
ATOM     38  O   UNL     1     -47.180  33.849  27.077  1.00  0.00    -0.489 OA
BRANCH  38  39
ATOM     39  C   UNL     1     -47.341  32.857  26.149  1.00  0.00     0.121 A 
ATOM     40  C   UNL     1     -46.586  33.026  24.988  1.00  0.00    -0.019 A 
ATOM     41  C   UNL     1     -48.165  31.736  26.275  1.00  0.00     0.004 A 
ATOM     42  C   UNL     1     -46.631  32.074  23.969  1.00  0.00    -0.044 A 
ATOM     43  H   UNL     1     -45.953  33.904  24.880  1.00  0.00     0.066 H 
ATOM     44  C   UNL     1     -48.268  30.793  25.238  1.00  0.00     0.048 A 
ATOM     45  H   UNL     1     -48.745  31.564  27.176  1.00  0.00     0.068 H 
ATOM     46  C   UNL     1     -47.443  30.940  24.104  1.00  0.00     0.063 A 
ATOM     47  H   UNL     1     -46.044  32.240  23.070  1.00  0.00     0.063 H 
BRANCH  44  48
ATOM     48  N   UNL     1     -49.022  29.623  25.470  1.00  0.00    -0.398 N 
ATOM     49  H   UNL     1     -50.024  29.746  25.365  1.00  0.00     0.156 HD
ATOM     50  H   UNL     1     -48.682  28.844  24.892  1.00  0.00     0.156 HD
ENDBRANCH  44  48
BRANCH  46  51
ATOM     51  C   UNL     1     -47.480  29.923  23.015  1.00  0.00     0.253 C 
ATOM     52  O   UNL     1     -46.561  29.119  22.887  1.00  0.00    -0.269 OA
ATOM     53  N   UNL     1     -48.578  29.965  22.178  1.00  0.00    -0.349 N 
ATOM     54  H   UNL     1     -49.272  30.689  22.305  1.00  0.00     0.164 HD
BRANCH  53  55
ATOM     55  C   UNL     1     -48.762  28.989  21.108  1.00  0.00     0.033 C 
ATOM     56  C   UNL     1     -49.605  27.807  21.604  1.00  0.00    -0.009 C 
ATOM     57  C   UNL     1     -49.375  29.638  19.860  1.00  0.00    -0.009 C 
ATOM     58  H   UNL     1     -47.764  28.623  20.837  1.00  0.00     0.053 H 
ATOM     59  C   UNL     1     -50.310  27.139  20.437  1.00  0.00     0.049 C 
ATOM     60  H   UNL     1     -48.970  27.087  22.134  1.00  0.00     0.031 H 
ATOM     61  H   UNL     1     -50.357  28.159  22.321  1.00  0.00     0.031 H 
ATOM     62  C   UNL     1     -50.875  29.403  19.813  1.00  0.00     0.049 C 
ATOM     63  H   UNL     1     -49.149  30.709  19.810  1.00  0.00     0.031 H 
ATOM     64  H   UNL     1     -48.927  29.171  18.974  1.00  0.00     0.031 H 
ATOM     65  O   UNL     1     -51.216  28.017  19.765  1.00  0.00    -0.381 OA
ATOM     66  H   UNL     1     -49.585  26.770  19.703  1.00  0.00     0.057 H 
ATOM     67  H   UNL     1     -50.886  26.277  20.784  1.00  0.00     0.057 H 
ATOM     68  H   UNL     1     -51.305  29.876  18.925  1.00  0.00     0.057 H 
ATOM     69  H   UNL     1     -51.369  29.848  20.685  1.00  0.00     0.057 H 
ENDBRANCH  53  55
ENDBRANCH  46  51
ENDBRANCH  38  39
ENDBRANCH   1  38
TORSDOF 10
ENDMDL
MODEL 7
REMARK VINA RESULT:      -9.3      1.881      3.161
REMARK SMILES Cn1ccc(-c2cn(-c3cncc(COc4ccc(C(=O)NC5CCOCC5)c(N)c4)c3)c3ncnc(N)c23)n1
REMARK SMILES IDX 14 1 13 4 9 5 10 6 32 7 11 8 12 11 8 13 6 14 7 15 39 16
REMARK SMILES IDX 33 18 37 19 34 20 36 21 35 22 5 24 2 25 3 26 40 27 4 28 1 31
REMARK SMILES IDX 38 35 15 38 16 39 17 40 31 41 18 42 29 44 19 46 30 48 20 51
REMARK SMILES IDX 21 52 22 53 23 55 24 56 28 57 25 59 27 62 26 65
REMARK H PARENT 14 2 14 3 10 9 32 10 12 12 7 17 35 23 3 29 4 30 1 32 1 33 1 34
REMARK H PARENT 38 36 38 37 17 43 31 45 18 47 30 49 30 50 22 54 23 58 24 60
REMARK H PARENT 24 61 28 63 28 64 25 66 25 67 27 68 27 69
REMARK Flexibility Score: inf
ROOT
ATOM      1  C   UNL     1     -47.352  36.602  28.035  1.00  0.00     0.115 C 
ATOM      2  H   UNL     1     -46.830  36.449  28.988  1.00  0.00     0.076 H 
ATOM      3  H   UNL     1     -48.334  36.114  28.067  1.00  0.00     0.076 H 
ENDROOT
BRANCH   1   4
ATOM      4  C   UNL     1     -47.567  38.074  27.807  1.00  0.00     0.010 A 
ATOM      5  C   UNL     1     -46.751  40.264  27.125  1.00  0.00     0.066 A 
ATOM      6  C   UNL     1     -48.004  40.756  27.485  1.00  0.00     0.051 A 
ATOM      7  C   UNL     1     -46.544  38.891  27.300  1.00  0.00    -0.028 A 
ATOM      8  N   UNL     1     -49.012  40.002  27.987  1.00  0.00    -0.262 NA
ATOM      9  H   UNL     1     -48.273  41.805  27.414  1.00  0.00     0.086 H 
ATOM     10  H   UNL     1     -45.607  38.417  27.033  1.00  0.00     0.065 H 
ATOM     11  C   UNL     1     -48.771  38.683  28.135  1.00  0.00     0.034 A 
ATOM     12  H   UNL     1     -49.601  38.109  28.541  1.00  0.00     0.084 H 
BRANCH   5  13
ATOM     13  N   UNL     1     -45.740  41.136  26.605  1.00  0.00    -0.299 N 
ATOM     14  C   UNL     1     -44.728  42.654  25.270  1.00  0.00     0.033 A 
ATOM     15  C   UNL     1     -45.901  41.968  25.509  1.00  0.00     0.021 A 
ATOM     16  C   UNL     1     -43.797  42.269  26.273  1.00  0.00     0.071 A 
ATOM     17  H   UNL     1     -46.819  41.987  24.941  1.00  0.00     0.083 H 
ATOM     18  C   UNL     1     -44.436  41.319  27.072  1.00  0.00     0.150 A 
ATOM     19  C   UNL     1     -42.475  42.602  26.626  1.00  0.00     0.137 A 
ATOM     20  N   UNL     1     -43.877  40.706  28.136  1.00  0.00    -0.218 NA
ATOM     21  N   UNL     1     -41.893  41.979  27.666  1.00  0.00    -0.219 NA
ATOM     22  C   UNL     1     -42.613  41.087  28.355  1.00  0.00     0.120 A 
ATOM     23  H   UNL     1     -42.110  40.616  29.195  1.00  0.00     0.106 H 
BRANCH  14  24
ATOM     24  C   UNL     1     -44.493  43.594  24.169  1.00  0.00     0.095 A 
ATOM     25  N   UNL     1     -43.596  44.596  22.536  1.00  0.00    -0.275 N 
ATOM     26  C   UNL     1     -44.803  45.209  22.687  1.00  0.00     0.025 A 
ATOM     27  N   UNL     1     -43.382  43.603  23.420  1.00  0.00    -0.173 NA
ATOM     28  C   UNL     1     -45.417  44.576  23.742  1.00  0.00    -0.016 A 
ATOM     29  H   UNL     1     -45.120  46.023  22.050  1.00  0.00     0.084 H 
ATOM     30  H   UNL     1     -46.392  44.802  24.150  1.00  0.00     0.066 H 
BRANCH  25  31
ATOM     31  C   UNL     1     -42.581  44.907  21.557  1.00  0.00     0.030 C 
ATOM     32  H   UNL     1     -42.094  43.974  21.260  1.00  0.00     0.048 H 
ATOM     33  H   UNL     1     -43.065  45.379  20.698  1.00  0.00     0.048 H 
ATOM     34  H   UNL     1     -41.849  45.588  21.995  1.00  0.00     0.048 H 
ENDBRANCH  25  31
ENDBRANCH  14  24
BRANCH  19  35
ATOM     35  N   UNL     1     -41.709  43.551  25.967  1.00  0.00    -0.383 N 
ATOM     36  H   UNL     1     -40.740  43.509  26.250  1.00  0.00     0.158 HD
ATOM     37  H   UNL     1     -41.895  43.578  24.959  1.00  0.00     0.158 HD
ENDBRANCH  19  35
ENDBRANCH   5  13
ENDBRANCH   1   4
BRANCH   1  38
ATOM     38  O   UNL     1     -46.560  36.074  26.971  1.00  0.00    -0.489 OA
BRANCH  38  39
ATOM     39  C   UNL     1     -46.919  34.854  26.469  1.00  0.00     0.121 A 
ATOM     40  C   UNL     1     -48.264  34.531  26.647  1.00  0.00    -0.019 A 
ATOM     41  C   UNL     1     -46.076  33.950  25.817  1.00  0.00     0.004 A 
ATOM     42  C   UNL     1     -48.775  33.328  26.158  1.00  0.00    -0.044 A 
ATOM     43  H   UNL     1     -48.921  35.226  27.166  1.00  0.00     0.066 H 
ATOM     44  C   UNL     1     -46.556  32.708  25.366  1.00  0.00     0.048 A 
ATOM     45  H   UNL     1     -45.031  34.184  25.642  1.00  0.00     0.068 H 
ATOM     46  C   UNL     1     -47.933  32.430  25.487  1.00  0.00     0.063 A 
ATOM     47  H   UNL     1     -49.823  33.096  26.325  1.00  0.00     0.063 H 
BRANCH  44  48
ATOM     48  N   UNL     1     -45.690  31.891  24.610  1.00  0.00    -0.398 N 
ATOM     49  H   UNL     1     -45.595  30.945  24.966  1.00  0.00     0.156 HD
ATOM     50  H   UNL     1     -45.956  31.888  23.618  1.00  0.00     0.156 HD
ENDBRANCH  44  48
BRANCH  46  51
ATOM     51  C   UNL     1     -48.487  31.150  24.960  1.00  0.00     0.253 C 
ATOM     52  O   UNL     1     -48.897  31.082  23.805  1.00  0.00    -0.269 OA
ATOM     53  N   UNL     1     -48.520  30.090  25.845  1.00  0.00    -0.349 N 
ATOM     54  H   UNL     1     -48.218  30.230  26.799  1.00  0.00     0.164 HD
BRANCH  53  55
ATOM     55  C   UNL     1     -48.986  28.768  25.437  1.00  0.00     0.033 C 
ATOM     56  C   UNL     1     -50.173  28.896  24.473  1.00  0.00    -0.009 C 
ATOM     57  C   UNL     1     -47.849  27.937  24.829  1.00  0.00    -0.009 C 
ATOM     58  H   UNL     1     -49.323  28.256  26.347  1.00  0.00     0.053 H 
ATOM     59  C   UNL     1     -50.265  27.665  23.589  1.00  0.00     0.049 C 
ATOM     60  H   UNL     1     -51.103  29.037  25.036  1.00  0.00     0.031 H 
ATOM     61  H   UNL     1     -50.045  29.782  23.839  1.00  0.00     0.031 H 
ATOM     62  C   UNL     1     -47.889  27.999  23.311  1.00  0.00     0.049 C 
ATOM     63  H   UNL     1     -46.870  28.258  25.204  1.00  0.00     0.031 H 
ATOM     64  H   UNL     1     -47.985  26.892  25.134  1.00  0.00     0.031 H 
ATOM     65  O   UNL     1     -49.107  27.487  22.771  1.00  0.00    -0.381 OA
ATOM     66  H   UNL     1     -50.399  26.760  24.192  1.00  0.00     0.057 H 
ATOM     67  H   UNL     1     -51.129  27.740  22.922  1.00  0.00     0.057 H 
ATOM     68  H   UNL     1     -47.070  27.412  22.887  1.00  0.00     0.057 H 
ATOM     69  H   UNL     1     -47.762  29.029  22.958  1.00  0.00     0.057 H 
ENDBRANCH  53  55
ENDBRANCH  46  51
ENDBRANCH  38  39
ENDBRANCH   1  38
TORSDOF 10
ENDMDL
