MODEL 1
REMARK VINA RESULT:     -10.8      0.000      0.000
REMARK SMILES COc1ccccc1-c1cn(-c2cncc(COc3ccc4ccc(N5CCC5)nc4c3)c2)c2ncnc(N)c12
REMARK SMILES IDX 12 1 13 2 14 3 15 4 16 5 33 6 11 10 9 11 10 12 40 13 34 15
REMARK SMILES IDX 38 16 35 17 37 18 36 19 8 21 3 22 4 23 5 24 7 26 6 27 2 31
REMARK SMILES IDX 1 32 39 36 17 39 18 42 19 43 20 44 32 45 21 46 31 48 22 50
REMARK SMILES IDX 30 52 23 53 25 54 24 55 26 58 27 59 29 60 28 61
REMARK H PARENT 13 7 15 8 33 9 10 14 36 20 4 25 5 28 7 29 6 30 1 33 1 34 1 35
REMARK H PARENT 39 37 39 38 17 40 17 41 20 47 32 49 21 51 23 56 24 57 27 62
REMARK H PARENT 27 63 29 64 29 65 28 66 28 67
REMARK Flexibility Score: inf
ROOT
ATOM      1  C   UNL     1     -47.194  32.775  26.089  1.00  0.00     0.066 A 
ATOM      2  C   UNL     1     -46.542  32.346  27.243  1.00  0.00     0.051 A 
ATOM      3  N   UNL     1     -46.024  33.173  28.185  1.00  0.00    -0.262 NA
ATOM      4  C   UNL     1     -46.168  34.497  27.980  1.00  0.00     0.034 A 
ATOM      5  C   UNL     1     -46.812  35.045  26.879  1.00  0.00     0.010 A 
ATOM      6  C   UNL     1     -47.317  34.157  25.916  1.00  0.00    -0.028 A 
ATOM      7  H   UNL     1     -46.374  31.300  27.475  1.00  0.00     0.086 H 
ATOM      8  H   UNL     1     -45.736  35.124  28.756  1.00  0.00     0.084 H 
ATOM      9  H   UNL     1     -47.824  34.584  25.057  1.00  0.00     0.065 H 
ENDROOT
BRANCH   1  10
ATOM     10  N   UNL     1     -47.709  31.831  25.142  1.00  0.00    -0.299 N 
ATOM     11  C   UNL     1     -49.058  30.265  24.221  1.00  0.00     0.017 A 
ATOM     12  C   UNL     1     -48.830  31.040  25.341  1.00  0.00     0.020 A 
ATOM     13  C   UNL     1     -48.031  30.564  23.285  1.00  0.00     0.069 A 
ATOM     14  H   UNL     1     -49.417  31.100  26.246  1.00  0.00     0.083 H 
ATOM     15  C   UNL     1     -47.207  31.522  23.876  1.00  0.00     0.150 A 
ATOM     16  C   UNL     1     -47.676  30.127  21.996  1.00  0.00     0.136 A 
ATOM     17  N   UNL     1     -46.095  32.033  23.308  1.00  0.00    -0.218 NA
ATOM     18  N   UNL     1     -46.580  30.637  21.407  1.00  0.00    -0.219 NA
ATOM     19  C   UNL     1     -45.858  31.541  22.086  1.00  0.00     0.120 A 
ATOM     20  H   UNL     1     -44.975  31.921  21.581  1.00  0.00     0.106 H 
BRANCH  11  21
ATOM     21  C   UNL     1     -50.182  29.342  24.146  1.00  0.00     0.026 A 
ATOM     22  C   UNL     1     -50.134  28.064  24.740  1.00  0.00     0.126 A 
ATOM     23  C   UNL     1     -51.241  27.215  24.626  1.00  0.00    -0.019 A 
ATOM     24  C   UNL     1     -52.378  27.622  23.922  1.00  0.00    -0.059 A 
ATOM     25  H   UNL     1     -51.256  26.230  25.081  1.00  0.00     0.066 H 
ATOM     26  C   UNL     1     -51.330  29.739  23.442  1.00  0.00    -0.051 A 
ATOM     27  C   UNL     1     -52.424  28.881  23.332  1.00  0.00    -0.061 A 
ATOM     28  H   UNL     1     -53.233  26.955  23.839  1.00  0.00     0.062 H 
ATOM     29  H   UNL     1     -51.380  30.724  22.986  1.00  0.00     0.063 H 
ATOM     30  H   UNL     1     -53.311  29.199  22.789  1.00  0.00     0.062 H 
BRANCH  22  31
ATOM     31  O   UNL     1     -48.992  27.749  25.433  1.00  0.00    -0.496 OA
BRANCH  31  32
ATOM     32  C   UNL     1     -48.515  26.413  25.330  1.00  0.00     0.078 C 
ATOM     33  H   UNL     1     -48.096  26.133  26.302  1.00  0.00     0.067 H 
ATOM     34  H   UNL     1     -47.715  26.331  24.586  1.00  0.00     0.067 H 
ATOM     35  H   UNL     1     -49.335  25.722  25.110  1.00  0.00     0.067 H 
ENDBRANCH  31  32
ENDBRANCH  22  31
ENDBRANCH  11  21
BRANCH  16  36
ATOM     36  N   UNL     1     -48.395  29.193  21.260  1.00  0.00    -0.383 N 
ATOM     37  H   UNL     1     -49.263  28.976  21.735  1.00  0.00     0.158 HD
ATOM     38  H   UNL     1     -47.834  28.396  20.985  1.00  0.00     0.158 HD
ENDBRANCH  16  36
ENDBRANCH   1  10
BRANCH   5  39
ATOM     39  C   UNL     1     -46.900  36.540  26.714  1.00  0.00     0.115 C 
ATOM     40  H   UNL     1     -46.119  36.938  26.056  1.00  0.00     0.076 H 
ATOM     41  H   UNL     1     -47.852  36.757  26.214  1.00  0.00     0.076 H 
BRANCH  39  42
ATOM     42  O   UNL     1     -46.928  37.242  27.960  1.00  0.00    -0.489 OA
BRANCH  42  43
ATOM     43  C   UNL     1     -45.910  38.107  28.252  1.00  0.00     0.122 A 
ATOM     44  C   UNL     1     -45.162  37.756  29.375  1.00  0.00    -0.019 A 
ATOM     45  C   UNL     1     -45.569  39.258  27.540  1.00  0.00     0.007 A 
ATOM     46  C   UNL     1     -44.093  38.551  29.785  1.00  0.00    -0.049 A 
ATOM     47  H   UNL     1     -45.414  36.858  29.934  1.00  0.00     0.066 H 
ATOM     48  C   UNL     1     -44.508  40.070  27.926  1.00  0.00     0.076 A 
ATOM     49  H   UNL     1     -46.112  39.560  26.651  1.00  0.00     0.069 H 
ATOM     50  C   UNL     1     -43.765  39.707  29.064  1.00  0.00     0.001 A 
ATOM     51  H   UNL     1     -43.522  38.261  30.664  1.00  0.00     0.063 H 
ATOM     52  N   UNL     1     -44.230  41.169  27.205  1.00  0.00    -0.231 NA
ATOM     53  C   UNL     1     -42.703  40.534  29.440  1.00  0.00    -0.049 A 
ATOM     54  C   UNL     1     -43.195  41.961  27.570  1.00  0.00     0.129 A 
ATOM     55  C   UNL     1     -42.420  41.670  28.688  1.00  0.00    -0.019 A 
ATOM     56  H   UNL     1     -42.098  40.306  30.313  1.00  0.00     0.063 H 
ATOM     57  H   UNL     1     -41.606  42.323  28.982  1.00  0.00     0.066 H 
BRANCH  54  58
ATOM     58  N   UNL     1     -42.925  43.112  26.808  1.00  0.00    -0.356 N 
ATOM     59  C   UNL     1     -43.934  43.901  26.156  1.00  0.00     0.021 C 
ATOM     60  C   UNL     1     -42.037  43.200  25.684  1.00  0.00     0.021 C 
ATOM     61  C   UNL     1     -42.802  44.469  25.291  1.00  0.00    -0.018 C 
ATOM     62  H   UNL     1     -44.428  44.611  26.821  1.00  0.00     0.049 H 
ATOM     63  H   UNL     1     -44.669  43.297  25.614  1.00  0.00     0.049 H 
ATOM     64  H   UNL     1     -40.991  43.345  25.963  1.00  0.00     0.049 H 
ATOM     65  H   UNL     1     -42.144  42.361  24.988  1.00  0.00     0.049 H 
ATOM     66  H   UNL     1     -43.026  44.580  24.228  1.00  0.00     0.030 H 
ATOM     67  H   UNL     1     -42.364  45.398  25.674  1.00  0.00     0.030 H 
ENDBRANCH  54  58
ENDBRANCH  42  43
ENDBRANCH  39  42
ENDBRANCH   5  39
TORSDOF 9
ENDMDL
MODEL 2
REMARK VINA RESULT:     -10.7      1.712      2.651
REMARK SMILES COc1ccccc1-c1cn(-c2cncc(COc3ccc4ccc(N5CCC5)nc4c3)c2)c2ncnc(N)c12
REMARK SMILES IDX 12 1 13 2 14 3 15 4 16 5 33 6 11 10 9 11 10 12 40 13 34 15
REMARK SMILES IDX 38 16 35 17 37 18 36 19 8 21 3 22 4 23 5 24 7 26 6 27 2 31
REMARK SMILES IDX 1 32 39 36 17 39 18 42 19 43 20 44 32 45 21 46 31 48 22 50
REMARK SMILES IDX 30 52 23 53 25 54 24 55 26 58 27 59 29 60 28 61
REMARK H PARENT 13 7 15 8 33 9 10 14 36 20 4 25 5 28 7 29 6 30 1 33 1 34 1 35
REMARK H PARENT 39 37 39 38 17 40 17 41 20 47 32 49 21 51 23 56 24 57 27 62
REMARK H PARENT 27 63 29 64 29 65 28 66 28 67
REMARK Flexibility Score: inf
ROOT
ATOM      1  C   UNL     1     -48.783  32.462  25.736  1.00  0.00     0.066 A 
ATOM      2  C   UNL     1     -49.994  33.077  26.048  1.00  0.00     0.051 A 
ATOM      3  N   UNL     1     -50.110  34.309  26.602  1.00  0.00    -0.262 NA
ATOM      4  C   UNL     1     -48.965  34.975  26.852  1.00  0.00     0.034 A 
ATOM      5  C   UNL     1     -47.701  34.475  26.571  1.00  0.00     0.010 A 
ATOM      6  C   UNL     1     -47.622  33.189  26.016  1.00  0.00    -0.028 A 
ATOM      7  H   UNL     1     -50.957  32.603  25.890  1.00  0.00     0.086 H 
ATOM      8  H   UNL     1     -49.102  35.957  27.298  1.00  0.00     0.084 H 
ATOM      9  H   UNL     1     -46.634  32.798  25.792  1.00  0.00     0.065 H 
ENDROOT
BRANCH   1  10
ATOM     10  N   UNL     1     -48.752  31.153  25.154  1.00  0.00    -0.299 N 
ATOM     11  C   UNL     1     -48.493  28.913  24.976  1.00  0.00     0.017 A 
ATOM     12  C   UNL     1     -48.388  29.996  25.825  1.00  0.00     0.020 A 
ATOM     13  C   UNL     1     -48.922  29.405  23.714  1.00  0.00     0.069 A 
ATOM     14  H   UNL     1     -48.114  30.006  26.870  1.00  0.00     0.083 H 
ATOM     15  C   UNL     1     -49.065  30.787  23.843  1.00  0.00     0.150 A 
ATOM     16  C   UNL     1     -49.195  28.853  22.450  1.00  0.00     0.136 A 
ATOM     17  N   UNL     1     -49.423  31.618  22.842  1.00  0.00    -0.218 NA
ATOM     18  N   UNL     1     -49.570  29.664  21.444  1.00  0.00    -0.219 NA
ATOM     19  C   UNL     1     -49.654  30.979  21.689  1.00  0.00     0.120 A 
ATOM     20  H   UNL     1     -49.949  31.601  20.850  1.00  0.00     0.106 H 
BRANCH  11  21
ATOM     21  C   UNL     1     -48.182  27.561  25.420  1.00  0.00     0.026 A 
ATOM     22  C   UNL     1     -49.145  26.746  26.050  1.00  0.00     0.126 A 
ATOM     23  C   UNL     1     -48.786  25.458  26.465  1.00  0.00    -0.019 A 
ATOM     24  C   UNL     1     -47.486  24.986  26.268  1.00  0.00    -0.059 A 
ATOM     25  H   UNL     1     -49.498  24.791  26.939  1.00  0.00     0.066 H 
ATOM     26  C   UNL     1     -46.879  27.074  25.227  1.00  0.00    -0.051 A 
ATOM     27  C   UNL     1     -46.533  25.791  25.649  1.00  0.00    -0.061 A 
ATOM     28  H   UNL     1     -47.216  23.984  26.593  1.00  0.00     0.062 H 
ATOM     29  H   UNL     1     -46.131  27.691  24.736  1.00  0.00     0.063 H 
ATOM     30  H   UNL     1     -45.523  25.421  25.491  1.00  0.00     0.062 H 
BRANCH  22  31
ATOM     31  O   UNL     1     -50.405  27.273  26.186  1.00  0.00    -0.496 OA
BRANCH  31  32
ATOM     32  C   UNL     1     -51.377  26.899  25.219  1.00  0.00     0.078 C 
ATOM     33  H   UNL     1     -52.258  26.533  25.755  1.00  0.00     0.067 H 
ATOM     34  H   UNL     1     -51.013  26.085  24.581  1.00  0.00     0.067 H 
ATOM     35  H   UNL     1     -51.686  27.763  24.622  1.00  0.00     0.067 H 
ENDBRANCH  31  32
ENDBRANCH  22  31
ENDBRANCH  11  21
BRANCH  16  36
ATOM     36  N   UNL     1     -49.118  27.497  22.155  1.00  0.00    -0.383 N 
ATOM     37  H   UNL     1     -49.250  26.954  22.999  1.00  0.00     0.158 HD
ATOM     38  H   UNL     1     -48.300  27.262  21.605  1.00  0.00     0.158 HD
ENDBRANCH  16  36
ENDBRANCH   1  10
BRANCH   5  39
ATOM     39  C   UNL     1     -46.471  35.277  26.912  1.00  0.00     0.115 C 
ATOM     40  H   UNL     1     -45.554  34.678  26.872  1.00  0.00     0.076 H 
ATOM     41  H   UNL     1     -46.360  36.048  26.139  1.00  0.00     0.076 H 
BRANCH  39  42
ATOM     42  O   UNL     1     -46.579  35.967  28.160  1.00  0.00    -0.489 OA
BRANCH  42  43
ATOM     43  C   UNL     1     -45.772  37.047  28.389  1.00  0.00     0.122 A 
ATOM     44  C   UNL     1     -45.222  37.092  29.669  1.00  0.00    -0.019 A 
ATOM     45  C   UNL     1     -45.460  38.058  27.478  1.00  0.00     0.007 A 
ATOM     46  C   UNL     1     -44.378  38.139  30.036  1.00  0.00    -0.049 A 
ATOM     47  H   UNL     1     -45.452  36.307  30.385  1.00  0.00     0.066 H 
ATOM     48  C   UNL     1     -44.622  39.115  27.817  1.00  0.00     0.076 A 
ATOM     49  H   UNL     1     -45.851  38.055  26.466  1.00  0.00     0.069 H 
ATOM     50  C   UNL     1     -44.078  39.152  29.114  1.00  0.00     0.001 A 
ATOM     51  H   UNL     1     -43.959  38.157  31.039  1.00  0.00     0.063 H 
ATOM     52  N   UNL     1     -44.363  40.063  26.900  1.00  0.00    -0.231 NA
ATOM     53  C   UNL     1     -43.240  40.221  29.439  1.00  0.00    -0.049 A 
ATOM     54  C   UNL     1     -43.543  41.091  27.220  1.00  0.00     0.129 A 
ATOM     55  C   UNL     1     -42.974  41.198  28.485  1.00  0.00    -0.019 A 
ATOM     56  H   UNL     1     -42.796  40.303  30.427  1.00  0.00     0.063 H 
ATOM     57  H   UNL     1     -42.335  42.037  28.734  1.00  0.00     0.066 H 
BRANCH  54  58
ATOM     58  N   UNL     1     -43.291  42.079  26.250  1.00  0.00    -0.356 N 
ATOM     59  C   UNL     1     -42.013  42.706  26.053  1.00  0.00     0.021 C 
ATOM     60  C   UNL     1     -43.996  43.318  26.093  1.00  0.00     0.021 C 
ATOM     61  C   UNL     1     -42.773  43.814  25.315  1.00  0.00    -0.018 C 
ATOM     62  H   UNL     1     -41.327  42.113  25.446  1.00  0.00     0.049 H 
ATOM     63  H   UNL     1     -41.538  43.017  26.989  1.00  0.00     0.049 H 
ATOM     64  H   UNL     1     -44.919  43.226  25.516  1.00  0.00     0.049 H 
ATOM     65  H   UNL     1     -44.180  43.830  27.044  1.00  0.00     0.049 H 
ATOM     66  H   UNL     1     -42.452  44.836  25.533  1.00  0.00     0.030 H 
ATOM     67  H   UNL     1     -42.838  43.673  24.231  1.00  0.00     0.030 H 
ENDBRANCH  54  58
ENDBRANCH  42  43
ENDBRANCH  39  42
ENDBRANCH   5  39
TORSDOF 9
ENDMDL
MODEL 3
REMARK VINA RESULT:     -10.7      2.188     12.379
REMARK SMILES COc1ccccc1-c1cn(-c2cncc(COc3ccc4ccc(N5CCC5)nc4c3)c2)c2ncnc(N)c12
REMARK SMILES IDX 12 1 13 2 14 3 15 4 16 5 33 6 11 10 9 11 10 12 40 13 34 15
REMARK SMILES IDX 38 16 35 17 37 18 36 19 8 21 3 22 4 23 5 24 7 26 6 27 2 31
REMARK SMILES IDX 1 32 39 36 17 39 18 42 19 43 20 44 32 45 21 46 31 48 22 50
REMARK SMILES IDX 30 52 23 53 25 54 24 55 26 58 27 59 29 60 28 61
REMARK H PARENT 13 7 15 8 33 9 10 14 36 20 4 25 5 28 7 29 6 30 1 33 1 34 1 35
REMARK H PARENT 39 37 39 38 17 40 17 41 20 47 32 49 21 51 23 56 24 57 27 62
REMARK H PARENT 27 63 29 64 29 65 28 66 28 67
REMARK Flexibility Score: inf
ROOT
ATOM      1  C   UNL     1     -45.723  38.354  28.121  1.00  0.00     0.066 A 
ATOM      2  C   UNL     1     -45.425  37.764  29.347  1.00  0.00     0.051 A 
ATOM      3  N   UNL     1     -45.978  36.612  29.801  1.00  0.00    -0.262 NA
ATOM      4  C   UNL     1     -46.868  36.003  28.992  1.00  0.00     0.034 A 
ATOM      5  C   UNL     1     -47.234  36.484  27.742  1.00  0.00     0.010 A 
ATOM      6  C   UNL     1     -46.654  37.689  27.317  1.00  0.00    -0.028 A 
ATOM      7  H   UNL     1     -44.732  38.197  30.060  1.00  0.00     0.086 H 
ATOM      8  H   UNL     1     -47.290  35.085  29.393  1.00  0.00     0.084 H 
ATOM      9  H   UNL     1     -46.936  38.064  26.338  1.00  0.00     0.065 H 
ENDROOT
BRANCH   1  10
ATOM     10  N   UNL     1     -45.093  39.577  27.721  1.00  0.00    -0.299 N 
ATOM     11  C   UNL     1     -44.673  41.467  26.551  1.00  0.00     0.017 A 
ATOM     12  C   UNL     1     -45.474  40.346  26.633  1.00  0.00     0.020 A 
ATOM     13  C   UNL     1     -43.736  41.395  27.618  1.00  0.00     0.069 A 
ATOM     14  H   UNL     1     -46.310  40.072  26.007  1.00  0.00     0.083 H 
ATOM     15  C   UNL     1     -44.006  40.220  28.319  1.00  0.00     0.150 A 
ATOM     16  C   UNL     1     -42.664  42.178  28.080  1.00  0.00     0.136 A 
ATOM     17  N   UNL     1     -43.301  39.781  29.383  1.00  0.00    -0.218 NA
ATOM     18  N   UNL     1     -41.960  41.766  29.149  1.00  0.00    -0.219 NA
ATOM     19  C   UNL     1     -42.306  40.607  29.727  1.00  0.00     0.120 A 
ATOM     20  H   UNL     1     -41.707  40.303  30.580  1.00  0.00     0.106 H 
BRANCH  11  21
ATOM     21  C   UNL     1     -44.856  42.463  25.505  1.00  0.00     0.026 A 
ATOM     22  C   UNL     1     -45.864  43.446  25.583  1.00  0.00     0.126 A 
ATOM     23  C   UNL     1     -45.999  44.371  24.541  1.00  0.00    -0.019 A 
ATOM     24  C   UNL     1     -45.153  44.318  23.430  1.00  0.00    -0.059 A 
ATOM     25  H   UNL     1     -46.750  45.154  24.566  1.00  0.00     0.066 H 
ATOM     26  C   UNL     1     -44.012  42.421  24.383  1.00  0.00    -0.051 A 
ATOM     27  C   UNL     1     -44.160  43.345  23.350  1.00  0.00    -0.061 A 
ATOM     28  H   UNL     1     -45.266  45.041  22.626  1.00  0.00     0.062 H 
ATOM     29  H   UNL     1     -43.227  41.672  24.315  1.00  0.00     0.063 H 
ATOM     30  H   UNL     1     -43.499  43.308  22.488  1.00  0.00     0.062 H 
BRANCH  22  31
ATOM     31  O   UNL     1     -46.638  43.446  26.716  1.00  0.00    -0.496 OA
BRANCH  31  32
ATOM     32  C   UNL     1     -48.041  43.288  26.547  1.00  0.00     0.078 C 
ATOM     33  H   UNL     1     -48.256  43.331  25.475  1.00  0.00     0.067 H 
ATOM     34  H   UNL     1     -48.595  44.102  27.030  1.00  0.00     0.067 H 
ATOM     35  H   UNL     1     -48.371  42.311  26.914  1.00  0.00     0.067 H 
ENDBRANCH  31  32
ENDBRANCH  22  31
ENDBRANCH  11  21
BRANCH  16  36
ATOM     36  N   UNL     1     -42.272  43.383  27.509  1.00  0.00    -0.383 N 
ATOM     37  H   UNL     1     -43.071  44.000  27.425  1.00  0.00     0.158 HD
ATOM     38  H   UNL     1     -41.725  43.258  26.665  1.00  0.00     0.158 HD
ENDBRANCH  16  36
ENDBRANCH   1  10
BRANCH   5  39
ATOM     39  C   UNL     1     -48.261  35.754  26.916  1.00  0.00     0.115 C 
ATOM     40  H   UNL     1     -49.243  36.242  26.938  1.00  0.00     0.076 H 
ATOM     41  H   UNL     1     -47.929  35.796  25.871  1.00  0.00     0.076 H 
BRANCH  39  42
ATOM     42  O   UNL     1     -48.370  34.368  27.251  1.00  0.00    -0.489 OA
BRANCH  42  43
ATOM     43  C   UNL     1     -47.987  33.434  26.329  1.00  0.00     0.122 A 
ATOM     44  C   UNL     1     -46.817  33.752  25.642  1.00  0.00    -0.019 A 
ATOM     45  C   UNL     1     -48.641  32.234  26.042  1.00  0.00     0.007 A 
ATOM     46  C   UNL     1     -46.312  32.886  24.674  1.00  0.00    -0.049 A 
ATOM     47  H   UNL     1     -46.295  34.680  25.862  1.00  0.00     0.066 H 
ATOM     48  C   UNL     1     -48.160  31.351  25.081  1.00  0.00     0.076 A 
ATOM     49  H   UNL     1     -49.544  31.937  26.564  1.00  0.00     0.069 H 
ATOM     50  C   UNL     1     -46.981  31.687  24.390  1.00  0.00     0.001 A 
ATOM     51  H   UNL     1     -45.398  33.152  24.148  1.00  0.00     0.063 H 
ATOM     52  N   UNL     1     -48.834  30.214  24.843  1.00  0.00    -0.231 NA
ATOM     53  C   UNL     1     -46.512  30.791  23.427  1.00  0.00    -0.049 A 
ATOM     54  C   UNL     1     -48.370  29.347  23.914  1.00  0.00     0.129 A 
ATOM     55  C   UNL     1     -47.215  29.614  23.186  1.00  0.00    -0.019 A 
ATOM     56  H   UNL     1     -45.610  31.000  22.859  1.00  0.00     0.063 H 
ATOM     57  H   UNL     1     -46.864  28.920  22.431  1.00  0.00     0.066 H 
BRANCH  54  58
ATOM     58  N   UNL     1     -49.095  28.165  23.672  1.00  0.00    -0.356 N 
ATOM     59  C   UNL     1     -49.839  27.908  22.470  1.00  0.00     0.021 C 
ATOM     60  C   UNL     1     -50.124  27.613  24.505  1.00  0.00     0.021 C 
ATOM     61  C   UNL     1     -50.583  26.832  23.269  1.00  0.00    -0.018 C 
ATOM     62  H   UNL     1     -49.222  27.548  21.645  1.00  0.00     0.049 H 
ATOM     63  H   UNL     1     -50.454  28.757  22.155  1.00  0.00     0.049 H 
ATOM     64  H   UNL     1     -49.743  27.009  25.331  1.00  0.00     0.049 H 
ATOM     65  H   UNL     1     -50.833  28.366  24.866  1.00  0.00     0.049 H 
ATOM     66  H   UNL     1     -51.663  26.784  23.109  1.00  0.00     0.030 H 
ATOM     67  H   UNL     1     -50.154  25.827  23.183  1.00  0.00     0.030 H 
ENDBRANCH  54  58
ENDBRANCH  42  43
ENDBRANCH  39  42
ENDBRANCH   5  39
TORSDOF 9
ENDMDL
MODEL 4
REMARK VINA RESULT:     -10.2      1.976      3.014
REMARK SMILES COc1ccccc1-c1cn(-c2cncc(COc3ccc4ccc(N5CCC5)nc4c3)c2)c2ncnc(N)c12
REMARK SMILES IDX 12 1 13 2 14 3 15 4 16 5 33 6 11 10 9 11 10 12 40 13 34 15
REMARK SMILES IDX 38 16 35 17 37 18 36 19 8 21 3 22 4 23 5 24 7 26 6 27 2 31
REMARK SMILES IDX 1 32 39 36 17 39 18 42 19 43 20 44 32 45 21 46 31 48 22 50
REMARK SMILES IDX 30 52 23 53 25 54 24 55 26 58 27 59 29 60 28 61
REMARK H PARENT 13 7 15 8 33 9 10 14 36 20 4 25 5 28 7 29 6 30 1 33 1 34 1 35
REMARK H PARENT 39 37 39 38 17 40 17 41 20 47 32 49 21 51 23 56 24 57 27 62
REMARK H PARENT 27 63 29 64 29 65 28 66 28 67
REMARK Flexibility Score: inf
ROOT
ATOM      1  C   UNL     1     -48.022  32.579  25.587  1.00  0.00     0.066 A 
ATOM      2  C   UNL     1     -46.746  32.986  25.207  1.00  0.00     0.051 A 
ATOM      3  N   UNL     1     -46.218  34.207  25.470  1.00  0.00    -0.262 NA
ATOM      4  C   UNL     1     -46.993  35.071  26.156  1.00  0.00     0.034 A 
ATOM      5  C   UNL     1     -48.274  34.777  26.602  1.00  0.00     0.010 A 
ATOM      6  C   UNL     1     -48.792  33.509  26.293  1.00  0.00    -0.028 A 
ATOM      7  H   UNL     1     -46.066  32.357  24.642  1.00  0.00     0.086 H 
ATOM      8  H   UNL     1     -46.534  36.039  26.343  1.00  0.00     0.084 H 
ATOM      9  H   UNL     1     -49.791  33.276  26.645  1.00  0.00     0.065 H 
ENDROOT
BRANCH   1  10
ATOM     10  N   UNL     1     -48.502  31.269  25.264  1.00  0.00    -0.299 N 
ATOM     11  C   UNL     1     -48.669  29.012  25.242  1.00  0.00     0.017 A 
ATOM     12  C   UNL     1     -47.947  30.085  25.725  1.00  0.00     0.020 A 
ATOM     13  C   UNL     1     -49.710  29.536  24.427  1.00  0.00     0.069 A 
ATOM     14  H   UNL     1     -47.100  30.076  26.395  1.00  0.00     0.083 H 
ATOM     15  C   UNL     1     -49.583  30.925  24.447  1.00  0.00     0.150 A 
ATOM     16  C   UNL     1     -50.753  29.005  23.648  1.00  0.00     0.136 A 
ATOM     17  N   UNL     1     -50.370  31.778  23.759  1.00  0.00    -0.218 NA
ATOM     18  N   UNL     1     -51.559  29.839  22.969  1.00  0.00    -0.219 NA
ATOM     19  C   UNL     1     -51.323  31.156  23.054  1.00  0.00     0.120 A 
ATOM     20  H   UNL     1     -51.988  31.797  22.482  1.00  0.00     0.106 H 
BRANCH  11  21
ATOM     21  C   UNL     1     -48.316  27.640  25.576  1.00  0.00     0.026 A 
ATOM     22  C   UNL     1     -47.254  26.969  24.937  1.00  0.00     0.126 A 
ATOM     23  C   UNL     1     -46.967  25.645  25.292  1.00  0.00    -0.019 A 
ATOM     24  C   UNL     1     -47.731  24.990  26.262  1.00  0.00    -0.059 A 
ATOM     25  H   UNL     1     -46.149  25.096  24.838  1.00  0.00     0.066 H 
ATOM     26  C   UNL     1     -49.075  26.970  26.550  1.00  0.00    -0.051 A 
ATOM     27  C   UNL     1     -48.782  25.650  26.891  1.00  0.00    -0.061 A 
ATOM     28  H   UNL     1     -47.500  23.962  26.532  1.00  0.00     0.062 H 
ATOM     29  H   UNL     1     -49.893  27.479  27.054  1.00  0.00     0.063 H 
ATOM     30  H   UNL     1     -49.372  25.141  27.649  1.00  0.00     0.062 H 
BRANCH  22  31
ATOM     31  O   UNL     1     -46.538  27.688  24.013  1.00  0.00    -0.496 OA
BRANCH  31  32
ATOM     32  C   UNL     1     -45.349  27.097  23.505  1.00  0.00     0.078 C 
ATOM     33  H   UNL     1     -45.169  27.512  22.508  1.00  0.00     0.067 H 
ATOM     34  H   UNL     1     -45.455  26.012  23.400  1.00  0.00     0.067 H 
ATOM     35  H   UNL     1     -44.488  27.353  24.131  1.00  0.00     0.067 H 
ENDBRANCH  31  32
ENDBRANCH  22  31
ENDBRANCH  11  21
BRANCH  16  36
ATOM     36  N   UNL     1     -51.030  27.647  23.532  1.00  0.00    -0.383 N 
ATOM     37  H   UNL     1     -51.722  27.378  24.221  1.00  0.00     0.158 HD
ATOM     38  H   UNL     1     -50.192  27.078  23.505  1.00  0.00     0.158 HD
ENDBRANCH  16  36
ENDBRANCH   1  10
BRANCH   5  39
ATOM     39  C   UNL     1     -49.082  35.815  27.337  1.00  0.00     0.115 C 
ATOM     40  H   UNL     1     -49.291  36.697  26.721  1.00  0.00     0.076 H 
ATOM     41  H   UNL     1     -50.059  35.368  27.562  1.00  0.00     0.076 H 
BRANCH  39  42
ATOM     42  O   UNL     1     -48.508  36.189  28.592  1.00  0.00    -0.489 OA
BRANCH  42  43
ATOM     43  C   UNL     1     -47.426  37.025  28.599  1.00  0.00     0.122 A 
ATOM     44  C   UNL     1     -46.412  36.644  29.477  1.00  0.00    -0.019 A 
ATOM     45  C   UNL     1     -47.259  38.173  27.823  1.00  0.00     0.007 A 
ATOM     46  C   UNL     1     -45.250  37.406  29.583  1.00  0.00    -0.049 A 
ATOM     47  H   UNL     1     -46.528  35.748  30.082  1.00  0.00     0.066 H 
ATOM     48  C   UNL     1     -46.111  38.953  27.909  1.00  0.00     0.076 A 
ATOM     49  H   UNL     1     -48.013  38.498  27.115  1.00  0.00     0.069 H 
ATOM     50  C   UNL     1     -45.097  38.561  28.803  1.00  0.00     0.001 A 
ATOM     51  H   UNL     1     -44.471  37.093  30.274  1.00  0.00     0.063 H 
ATOM     52  N   UNL     1     -46.008  40.051  27.142  1.00  0.00    -0.231 NA
ATOM     53  C   UNL     1     -43.951  39.356  28.879  1.00  0.00    -0.049 A 
ATOM     54  C   UNL     1     -44.891  40.812  27.215  1.00  0.00     0.129 A 
ATOM     55  C   UNL     1     -43.851  40.491  28.081  1.00  0.00    -0.019 A 
ATOM     56  H   UNL     1     -43.139  39.104  29.555  1.00  0.00     0.063 H 
ATOM     57  H   UNL     1     -42.970  41.120  28.144  1.00  0.00     0.066 H 
BRANCH  54  58
ATOM     58  N   UNL     1     -44.806  41.963  26.410  1.00  0.00    -0.356 N 
ATOM     59  C   UNL     1     -44.402  41.954  25.031  1.00  0.00     0.021 C 
ATOM     60  C   UNL     1     -44.044  43.145  26.693  1.00  0.00     0.021 C 
ATOM     61  C   UNL     1     -44.131  43.454  25.194  1.00  0.00    -0.018 C 
ATOM     62  H   UNL     1     -45.207  41.687  24.344  1.00  0.00     0.049 H 
ATOM     63  H   UNL     1     -43.513  41.342  24.848  1.00  0.00     0.049 H 
ATOM     64  H   UNL     1     -44.555  43.849  27.352  1.00  0.00     0.049 H 
ATOM     65  H   UNL     1     -43.036  42.926  27.063  1.00  0.00     0.049 H 
ATOM     66  H   UNL     1     -43.214  43.824  24.730  1.00  0.00     0.030 H 
ATOM     67  H   UNL     1     -44.971  44.098  24.914  1.00  0.00     0.030 H 
ENDBRANCH  54  58
ENDBRANCH  42  43
ENDBRANCH  39  42
ENDBRANCH   5  39
TORSDOF 9
ENDMDL
MODEL 5
REMARK VINA RESULT:      -9.9      2.538     12.462
REMARK SMILES COc1ccccc1-c1cn(-c2cncc(COc3ccc4ccc(N5CCC5)nc4c3)c2)c2ncnc(N)c12
REMARK SMILES IDX 12 1 13 2 14 3 15 4 16 5 33 6 11 10 9 11 10 12 40 13 34 15
REMARK SMILES IDX 38 16 35 17 37 18 36 19 8 21 3 22 4 23 5 24 7 26 6 27 2 31
REMARK SMILES IDX 1 32 39 36 17 39 18 42 19 43 20 44 32 45 21 46 31 48 22 50
REMARK SMILES IDX 30 52 23 53 25 54 24 55 26 58 27 59 29 60 28 61
REMARK H PARENT 13 7 15 8 33 9 10 14 36 20 4 25 5 28 7 29 6 30 1 33 1 34 1 35
REMARK H PARENT 39 37 39 38 17 40 17 41 20 47 32 49 21 51 23 56 24 57 27 62
REMARK H PARENT 27 63 29 64 29 65 28 66 28 67
REMARK Flexibility Score: inf
ROOT
ATOM      1  C   UNL     1     -46.036  38.230  28.186  1.00  0.00     0.066 A 
ATOM      2  C   UNL     1     -46.099  38.166  29.576  1.00  0.00     0.051 A 
ATOM      3  N   UNL     1     -46.136  37.014  30.292  1.00  0.00    -0.262 NA
ATOM      4  C   UNL     1     -46.100  35.862  29.594  1.00  0.00     0.034 A 
ATOM      5  C   UNL     1     -46.021  35.796  28.210  1.00  0.00     0.010 A 
ATOM      6  C   UNL     1     -46.004  37.009  27.504  1.00  0.00    -0.028 A 
ATOM      7  H   UNL     1     -46.145  39.045  30.209  1.00  0.00     0.086 H 
ATOM      8  H   UNL     1     -46.135  34.963  30.205  1.00  0.00     0.084 H 
ATOM      9  H   UNL     1     -45.938  36.960  26.422  1.00  0.00     0.065 H 
ENDROOT
BRANCH   1  10
ATOM     10  N   UNL     1     -46.004  39.492  27.509  1.00  0.00    -0.299 N 
ATOM     11  C   UNL     1     -45.193  41.278  26.382  1.00  0.00     0.017 A 
ATOM     12  C   UNL     1     -44.864  40.082  26.986  1.00  0.00     0.020 A 
ATOM     13  C   UNL     1     -46.594  41.463  26.546  1.00  0.00     0.069 A 
ATOM     14  H   UNL     1     -43.898  39.602  27.041  1.00  0.00     0.083 H 
ATOM     15  C   UNL     1     -47.070  40.357  27.250  1.00  0.00     0.150 A 
ATOM     16  C   UNL     1     -47.534  42.448  26.197  1.00  0.00     0.136 A 
ATOM     17  N   UNL     1     -48.353  40.185  27.633  1.00  0.00    -0.218 NA
ATOM     18  N   UNL     1     -48.820  42.286  26.555  1.00  0.00    -0.219 NA
ATOM     19  C   UNL     1     -49.152  41.187  27.247  1.00  0.00     0.120 A 
ATOM     20  H   UNL     1     -50.197  41.098  27.527  1.00  0.00     0.106 H 
BRANCH  11  21
ATOM     21  C   UNL     1     -44.189  42.111  25.735  1.00  0.00     0.026 A 
ATOM     22  C   UNL     1     -43.145  42.717  26.464  1.00  0.00     0.126 A 
ATOM     23  C   UNL     1     -42.214  43.516  25.790  1.00  0.00    -0.019 A 
ATOM     24  C   UNL     1     -42.321  43.722  24.413  1.00  0.00    -0.059 A 
ATOM     25  H   UNL     1     -41.385  43.988  26.308  1.00  0.00     0.066 H 
ATOM     26  C   UNL     1     -44.285  42.326  24.351  1.00  0.00    -0.051 A 
ATOM     27  C   UNL     1     -43.354  43.128  23.693  1.00  0.00    -0.061 A 
ATOM     28  H   UNL     1     -41.593  44.344  23.898  1.00  0.00     0.062 H 
ATOM     29  H   UNL     1     -45.082  41.859  23.778  1.00  0.00     0.063 H 
ATOM     30  H   UNL     1     -43.434  43.284  22.620  1.00  0.00     0.062 H 
BRANCH  22  31
ATOM     31  O   UNL     1     -43.095  42.447  27.809  1.00  0.00    -0.496 OA
BRANCH  31  32
ATOM     32  C   UNL     1     -41.878  41.922  28.325  1.00  0.00     0.078 C 
ATOM     33  H   UNL     1     -42.064  41.596  29.352  1.00  0.00     0.067 H 
ATOM     34  H   UNL     1     -41.094  42.687  28.355  1.00  0.00     0.067 H 
ATOM     35  H   UNL     1     -41.557  41.047  27.751  1.00  0.00     0.067 H 
ENDBRANCH  31  32
ENDBRANCH  22  31
ENDBRANCH  11  21
BRANCH  16  36
ATOM     36  N   UNL     1     -47.232  43.601  25.482  1.00  0.00    -0.383 N 
ATOM     37  H   UNL     1     -46.534  43.395  24.778  1.00  0.00     0.158 HD
ATOM     38  H   UNL     1     -47.029  44.392  26.083  1.00  0.00     0.158 HD
ENDBRANCH  16  36
ENDBRANCH   1  10
BRANCH   5  39
ATOM     39  C   UNL     1     -46.015  34.462  27.509  1.00  0.00     0.115 C 
ATOM     40  H   UNL     1     -45.048  34.235  27.046  1.00  0.00     0.076 H 
ATOM     41  H   UNL     1     -46.169  33.691  28.274  1.00  0.00     0.076 H 
BRANCH  39  42
ATOM     42  O   UNL     1     -47.082  34.317  26.567  1.00  0.00    -0.489 OA
BRANCH  42  43
ATOM     43  C   UNL     1     -47.177  33.155  25.853  1.00  0.00     0.122 A 
ATOM     44  C   UNL     1     -46.381  33.117  24.709  1.00  0.00    -0.019 A 
ATOM     45  C   UNL     1     -47.966  32.048  26.171  1.00  0.00     0.007 A 
ATOM     46  C   UNL     1     -46.381  31.991  23.889  1.00  0.00    -0.049 A 
ATOM     47  H   UNL     1     -45.758  33.971  24.455  1.00  0.00     0.066 H 
ATOM     48  C   UNL     1     -47.986  30.911  25.370  1.00  0.00     0.076 A 
ATOM     49  H   UNL     1     -48.587  32.026  27.059  1.00  0.00     0.069 H 
ATOM     50  C   UNL     1     -47.182  30.888  24.216  1.00  0.00     0.001 A 
ATOM     51  H   UNL     1     -45.754  31.980  23.000  1.00  0.00     0.063 H 
ATOM     52  N   UNL     1     -48.769  29.877  25.723  1.00  0.00    -0.231 NA
ATOM     53  C   UNL     1     -47.215  29.739  23.421  1.00  0.00    -0.049 A 
ATOM     54  C   UNL     1     -48.790  28.765  24.953  1.00  0.00     0.129 A 
ATOM     55  C   UNL     1     -48.028  28.672  23.793  1.00  0.00    -0.019 A 
ATOM     56  H   UNL     1     -46.620  29.667  22.516  1.00  0.00     0.063 H 
ATOM     57  H   UNL     1     -48.068  27.783  23.175  1.00  0.00     0.066 H 
BRANCH  54  58
ATOM     58  N   UNL     1     -49.623  27.697  25.334  1.00  0.00    -0.356 N 
ATOM     59  C   UNL     1     -49.313  26.768  26.385  1.00  0.00     0.021 C 
ATOM     60  C   UNL     1     -50.124  26.660  24.477  1.00  0.00     0.021 C 
ATOM     61  C   UNL     1     -50.356  25.841  25.752  1.00  0.00    -0.018 C 
ATOM     62  H   UNL     1     -49.551  27.144  27.382  1.00  0.00     0.049 H 
ATOM     63  H   UNL     1     -48.283  26.399  26.343  1.00  0.00     0.049 H 
ATOM     64  H   UNL     1     -51.022  26.944  23.926  1.00  0.00     0.049 H 
ATOM     65  H   UNL     1     -49.361  26.258  23.801  1.00  0.00     0.049 H 
ATOM     66  H   UNL     1     -50.083  24.785  25.696  1.00  0.00     0.030 H 
ATOM     67  H   UNL     1     -51.363  25.938  26.174  1.00  0.00     0.030 H 
ENDBRANCH  54  58
ENDBRANCH  42  43
ENDBRANCH  39  42
ENDBRANCH   5  39
TORSDOF 9
ENDMDL
MODEL 6
REMARK VINA RESULT:      -9.9      2.233      3.102
REMARK SMILES COc1ccccc1-c1cn(-c2cncc(COc3ccc4ccc(N5CCC5)nc4c3)c2)c2ncnc(N)c12
REMARK SMILES IDX 12 1 13 2 14 3 15 4 16 5 33 6 11 10 9 11 10 12 40 13 34 15
REMARK SMILES IDX 38 16 35 17 37 18 36 19 8 21 3 22 4 23 5 24 7 26 6 27 2 31
REMARK SMILES IDX 1 32 39 36 17 39 18 42 19 43 20 44 32 45 21 46 31 48 22 50
REMARK SMILES IDX 30 52 23 53 25 54 24 55 26 58 27 59 29 60 28 61
REMARK H PARENT 13 7 15 8 33 9 10 14 36 20 4 25 5 28 7 29 6 30 1 33 1 34 1 35
REMARK H PARENT 39 37 39 38 17 40 17 41 20 47 32 49 21 51 23 56 24 57 27 62
REMARK H PARENT 27 63 29 64 29 65 28 66 28 67
REMARK Flexibility Score: inf
ROOT
ATOM      1  C   UNL     1     -48.709  32.487  25.765  1.00  0.00     0.066 A 
ATOM      2  C   UNL     1     -49.907  33.102  26.123  1.00  0.00     0.051 A 
ATOM      3  N   UNL     1     -50.002  34.338  26.675  1.00  0.00    -0.262 NA
ATOM      4  C   UNL     1     -48.848  35.006  26.874  1.00  0.00     0.034 A 
ATOM      5  C   UNL     1     -47.596  34.507  26.544  1.00  0.00     0.010 A 
ATOM      6  C   UNL     1     -47.538  33.217  25.993  1.00  0.00    -0.028 A 
ATOM      7  H   UNL     1     -50.875  32.627  26.008  1.00  0.00     0.086 H 
ATOM      8  H   UNL     1     -48.968  35.991  27.320  1.00  0.00     0.084 H 
ATOM      9  H   UNL     1     -46.560  32.827  25.731  1.00  0.00     0.065 H 
ENDROOT
BRANCH   1  10
ATOM     10  N   UNL     1     -48.700  31.176  25.190  1.00  0.00    -0.299 N 
ATOM     11  C   UNL     1     -48.470  28.931  25.021  1.00  0.00     0.017 A 
ATOM     12  C   UNL     1     -48.343  30.017  25.863  1.00  0.00     0.020 A 
ATOM     13  C   UNL     1     -48.906  29.423  23.760  1.00  0.00     0.069 A 
ATOM     14  H   UNL     1     -48.057  30.029  26.904  1.00  0.00     0.083 H 
ATOM     15  C   UNL     1     -49.031  30.806  23.884  1.00  0.00     0.150 A 
ATOM     16  C   UNL     1     -49.200  28.868  22.502  1.00  0.00     0.136 A 
ATOM     17  N   UNL     1     -49.391  31.637  22.883  1.00  0.00    -0.218 NA
ATOM     18  N   UNL     1     -49.576  29.678  21.496  1.00  0.00    -0.219 NA
ATOM     19  C   UNL     1     -49.642  30.995  21.736  1.00  0.00     0.120 A 
ATOM     20  H   UNL     1     -49.938  31.617  20.896  1.00  0.00     0.106 H 
BRANCH  11  21
ATOM     21  C   UNL     1     -48.171  27.578  25.467  1.00  0.00     0.026 A 
ATOM     22  C   UNL     1     -47.054  26.865  24.983  1.00  0.00     0.126 A 
ATOM     23  C   UNL     1     -46.823  25.563  25.441  1.00  0.00    -0.019 A 
ATOM     24  C   UNL     1     -47.693  24.968  26.359  1.00  0.00    -0.059 A 
ATOM     25  H   UNL     1     -45.968  24.984  25.109  1.00  0.00     0.066 H 
ATOM     26  C   UNL     1     -49.037  26.969  26.390  1.00  0.00    -0.051 A 
ATOM     27  C   UNL     1     -48.798  25.669  26.834  1.00  0.00    -0.061 A 
ATOM     28  H   UNL     1     -47.504  23.956  26.709  1.00  0.00     0.062 H 
ATOM     29  H   UNL     1     -49.897  27.511  26.775  1.00  0.00     0.063 H 
ATOM     30  H   UNL     1     -49.471  25.207  27.552  1.00  0.00     0.062 H 
BRANCH  22  31
ATOM     31  O   UNL     1     -46.236  27.527  24.103  1.00  0.00    -0.496 OA
BRANCH  31  32
ATOM     32  C   UNL     1     -45.163  26.790  23.529  1.00  0.00     0.078 C 
ATOM     33  H   UNL     1     -44.609  26.317  24.346  1.00  0.00     0.067 H 
ATOM     34  H   UNL     1     -44.470  27.447  22.993  1.00  0.00     0.067 H 
ATOM     35  H   UNL     1     -45.540  25.995  22.878  1.00  0.00     0.067 H 
ENDBRANCH  31  32
ENDBRANCH  22  31
ENDBRANCH  11  21
BRANCH  16  36
ATOM     36  N   UNL     1     -49.143  27.510  22.213  1.00  0.00    -0.383 N 
ATOM     37  H   UNL     1     -48.204  27.164  22.370  1.00  0.00     0.158 HD
ATOM     38  H   UNL     1     -49.548  27.284  21.312  1.00  0.00     0.158 HD
ENDBRANCH  16  36
ENDBRANCH   1  10
BRANCH   5  39
ATOM     39  C   UNL     1     -46.355  35.312  26.830  1.00  0.00     0.115 C 
ATOM     40  H   UNL     1     -45.484  34.680  27.041  1.00  0.00     0.076 H 
ATOM     41  H   UNL     1     -46.108  35.867  25.917  1.00  0.00     0.076 H 
BRANCH  39  42
ATOM     42  O   UNL     1     -46.543  36.287  27.859  1.00  0.00    -0.489 OA
BRANCH  42  43
ATOM     43  C   UNL     1     -46.595  37.609  27.514  1.00  0.00     0.122 A 
ATOM     44  C   UNL     1     -47.836  38.208  27.722  1.00  0.00    -0.019 A 
ATOM     45  C   UNL     1     -45.546  38.375  27.002  1.00  0.00     0.007 A 
ATOM     46  C   UNL     1     -48.029  39.554  27.414  1.00  0.00    -0.049 A 
ATOM     47  H   UNL     1     -48.659  37.624  28.127  1.00  0.00     0.066 H 
ATOM     48  C   UNL     1     -45.710  39.719  26.685  1.00  0.00     0.076 A 
ATOM     49  H   UNL     1     -44.560  37.956  26.840  1.00  0.00     0.069 H 
ATOM     50  C   UNL     1     -46.970  40.311  26.894  1.00  0.00     0.001 A 
ATOM     51  H   UNL     1     -49.005  40.003  27.582  1.00  0.00     0.063 H 
ATOM     52  N   UNL     1     -44.666  40.406  26.189  1.00  0.00    -0.231 NA
ATOM     53  C   UNL     1     -47.118  41.661  26.569  1.00  0.00    -0.049 A 
ATOM     54  C   UNL     1     -44.816  41.715  25.884  1.00  0.00     0.129 A 
ATOM     55  C   UNL     1     -46.033  42.366  26.057  1.00  0.00    -0.019 A 
ATOM     56  H   UNL     1     -48.069  42.168  26.705  1.00  0.00     0.063 H 
ATOM     57  H   UNL     1     -46.144  43.410  25.790  1.00  0.00     0.066 H 
BRANCH  54  58
ATOM     58  N   UNL     1     -43.713  42.415  25.358  1.00  0.00    -0.356 N 
ATOM     59  C   UNL     1     -42.582  42.837  26.135  1.00  0.00     0.021 C 
ATOM     60  C   UNL     1     -43.758  43.651  24.631  1.00  0.00     0.021 C 
ATOM     61  C   UNL     1     -42.279  43.817  24.996  1.00  0.00    -0.018 C 
ATOM     62  H   UNL     1     -41.844  42.048  26.294  1.00  0.00     0.049 H 
ATOM     63  H   UNL     1     -42.862  43.306  27.084  1.00  0.00     0.049 H 
ATOM     64  H   UNL     1     -43.972  43.527  23.568  1.00  0.00     0.049 H 
ATOM     65  H   UNL     1     -44.432  44.388  25.082  1.00  0.00     0.049 H 
ATOM     66  H   UNL     1     -41.973  44.821  25.301  1.00  0.00     0.030 H 
ATOM     67  H   UNL     1     -41.582  43.433  24.243  1.00  0.00     0.030 H 
ENDBRANCH  54  58
ENDBRANCH  42  43
ENDBRANCH  39  42
ENDBRANCH   5  39
TORSDOF 9
ENDMDL
MODEL 7
REMARK VINA RESULT:      -9.5      2.296      3.475
REMARK SMILES COc1ccccc1-c1cn(-c2cncc(COc3ccc4ccc(N5CCC5)nc4c3)c2)c2ncnc(N)c12
REMARK SMILES IDX 12 1 13 2 14 3 15 4 16 5 33 6 11 10 9 11 10 12 40 13 34 15
REMARK SMILES IDX 38 16 35 17 37 18 36 19 8 21 3 22 4 23 5 24 7 26 6 27 2 31
REMARK SMILES IDX 1 32 39 36 17 39 18 42 19 43 20 44 32 45 21 46 31 48 22 50
REMARK SMILES IDX 30 52 23 53 25 54 24 55 26 58 27 59 29 60 28 61
REMARK H PARENT 13 7 15 8 33 9 10 14 36 20 4 25 5 28 7 29 6 30 1 33 1 34 1 35
REMARK H PARENT 39 37 39 38 17 40 17 41 20 47 32 49 21 51 23 56 24 57 27 62
REMARK H PARENT 27 63 29 64 29 65 28 66 28 67
REMARK Flexibility Score: inf
ROOT
ATOM      1  C   UNL     1     -47.929  32.403  25.406  1.00  0.00     0.066 A 
ATOM      2  C   UNL     1     -46.685  32.856  24.976  1.00  0.00     0.051 A 
ATOM      3  N   UNL     1     -46.169  34.077  25.264  1.00  0.00    -0.262 NA
ATOM      4  C   UNL     1     -46.923  34.891  26.030  1.00  0.00     0.034 A 
ATOM      5  C   UNL     1     -48.171  34.547  26.532  1.00  0.00     0.010 A 
ATOM      6  C   UNL     1     -48.677  33.282  26.195  1.00  0.00    -0.028 A 
ATOM      7  H   UNL     1     -46.025  32.269  24.347  1.00  0.00     0.086 H 
ATOM      8  H   UNL     1     -46.476  35.861  26.235  1.00  0.00     0.084 H 
ATOM      9  H   UNL     1     -49.651  33.010  26.590  1.00  0.00     0.065 H 
ENDROOT
BRANCH   1  10
ATOM     10  N   UNL     1     -48.398  31.096  25.052  1.00  0.00    -0.299 N 
ATOM     11  C   UNL     1     -48.626  28.845  25.060  1.00  0.00     0.017 A 
ATOM     12  C   UNL     1     -47.946  29.912  25.613  1.00  0.00     0.020 A 
ATOM     13  C   UNL     1     -49.530  29.373  24.099  1.00  0.00     0.069 A 
ATOM     14  H   UNL     1     -47.199  29.900  26.392  1.00  0.00     0.083 H 
ATOM     15  C   UNL     1     -49.366  30.758  24.103  1.00  0.00     0.150 A 
ATOM     16  C   UNL     1     -50.472  28.847  23.197  1.00  0.00     0.136 A 
ATOM     17  N   UNL     1     -50.028  31.612  23.293  1.00  0.00    -0.218 NA
ATOM     18  N   UNL     1     -51.153  29.683  22.393  1.00  0.00    -0.219 NA
ATOM     19  C   UNL     1     -50.893  30.995  22.479  1.00  0.00     0.120 A 
ATOM     20  H   UNL     1     -51.455  31.636  21.807  1.00  0.00     0.106 H 
BRANCH  11  21
ATOM     21  C   UNL     1     -48.361  27.474  25.472  1.00  0.00     0.026 A 
ATOM     22  C   UNL     1     -49.360  26.668  26.058  1.00  0.00     0.126 A 
ATOM     23  C   UNL     1     -49.045  25.360  26.444  1.00  0.00    -0.019 A 
ATOM     24  C   UNL     1     -47.753  24.859  26.263  1.00  0.00    -0.059 A 
ATOM     25  H   UNL     1     -49.785  24.700  26.883  1.00  0.00     0.066 H 
ATOM     26  C   UNL     1     -47.068  26.957  25.295  1.00  0.00    -0.051 A 
ATOM     27  C   UNL     1     -46.766  25.655  25.689  1.00  0.00    -0.061 A 
ATOM     28  H   UNL     1     -47.518  23.841  26.566  1.00  0.00     0.062 H 
ATOM     29  H   UNL     1     -46.292  27.567  24.839  1.00  0.00     0.063 H 
ATOM     30  H   UNL     1     -45.762  25.261  25.544  1.00  0.00     0.062 H 
BRANCH  22  31
ATOM     31  O   UNL     1     -50.608  27.226  26.180  1.00  0.00    -0.496 OA
BRANCH  31  32
ATOM     32  C   UNL     1     -51.709  26.337  26.318  1.00  0.00     0.078 C 
ATOM     33  H   UNL     1     -51.391  25.508  26.957  1.00  0.00     0.067 H 
ATOM     34  H   UNL     1     -52.007  25.917  25.351  1.00  0.00     0.067 H 
ATOM     35  H   UNL     1     -52.551  26.833  26.812  1.00  0.00     0.067 H 
ENDBRANCH  31  32
ENDBRANCH  22  31
ENDBRANCH  11  21
BRANCH  16  36
ATOM     36  N   UNL     1     -50.769  27.495  23.076  1.00  0.00    -0.383 N 
ATOM     37  H   UNL     1     -49.919  26.969  22.913  1.00  0.00     0.158 HD
ATOM     38  H   UNL     1     -51.527  27.317  22.426  1.00  0.00     0.158 HD
ENDBRANCH  16  36
ENDBRANCH   1  10
BRANCH   5  39
ATOM     39  C   UNL     1     -48.959  35.532  27.355  1.00  0.00     0.115 C 
ATOM     40  H   UNL     1     -49.678  36.102  26.755  1.00  0.00     0.076 H 
ATOM     41  H   UNL     1     -49.556  34.955  28.071  1.00  0.00     0.076 H 
BRANCH  39  42
ATOM     42  O   UNL     1     -48.132  36.406  28.130  1.00  0.00    -0.489 OA
BRANCH  42  43
ATOM     43  C   UNL     1     -48.096  37.735  27.810  1.00  0.00     0.122 A 
ATOM     44  C   UNL     1     -49.244  38.442  28.168  1.00  0.00    -0.019 A 
ATOM     45  C   UNL     1     -47.044  38.413  27.193  1.00  0.00     0.007 A 
ATOM     46  C   UNL     1     -49.340  39.807  27.902  1.00  0.00    -0.049 A 
ATOM     47  H   UNL     1     -50.067  37.926  28.656  1.00  0.00     0.066 H 
ATOM     48  C   UNL     1     -47.113  39.773  26.915  1.00  0.00     0.076 A 
ATOM     49  H   UNL     1     -46.126  37.907  26.913  1.00  0.00     0.069 H 
ATOM     50  C   UNL     1     -48.279  40.474  27.276  1.00  0.00     0.001 A 
ATOM     51  H   UNL     1     -50.244  40.341  28.187  1.00  0.00     0.063 H 
ATOM     52  N   UNL     1     -46.071  40.372  26.313  1.00  0.00    -0.231 NA
ATOM     53  C   UNL     1     -48.334  41.840  26.988  1.00  0.00    -0.049 A 
ATOM     54  C   UNL     1     -46.128  41.697  26.045  1.00  0.00     0.129 A 
ATOM     55  C   UNL     1     -47.251  42.453  26.366  1.00  0.00    -0.019 A 
ATOM     56  H   UNL     1     -49.210  42.430  27.239  1.00  0.00     0.063 H 
ATOM     57  H   UNL     1     -47.291  43.510  26.128  1.00  0.00     0.066 H 
BRANCH  54  58
ATOM     58  N   UNL     1     -45.031  42.303  25.406  1.00  0.00    -0.356 N 
ATOM     59  C   UNL     1     -43.701  42.336  25.948  1.00  0.00     0.021 C 
ATOM     60  C   UNL     1     -44.952  43.664  24.958  1.00  0.00     0.021 C 
ATOM     61  C   UNL     1     -43.430  43.488  24.974  1.00  0.00    -0.018 C 
ATOM     62  H   UNL     1     -43.136  41.419  25.771  1.00  0.00     0.049 H 
ATOM     63  H   UNL     1     -43.674  42.612  27.008  1.00  0.00     0.049 H 
ATOM     64  H   UNL     1     -45.399  43.828  23.976  1.00  0.00     0.049 H 
ATOM     65  H   UNL     1     -45.343  44.379  25.690  1.00  0.00     0.049 H 
ATOM     66  H   UNL     1     -42.857  44.327  25.378  1.00  0.00     0.030 H 
ATOM     67  H   UNL     1     -43.000  43.178  24.015  1.00  0.00     0.030 H 
ENDBRANCH  54  58
ENDBRANCH  42  43
ENDBRANCH  39  42
ENDBRANCH   5  39
TORSDOF 9
ENDMDL
