MODEL 1
REMARK VINA RESULT:      -9.6      0.000      0.000
REMARK SMILES CC(C)(C)C1(NCc2cc3ccc(CNC(=O)c4cc(=O)n5ccccc5n4)cc3[nH]2)CC1
REMARK SMILES IDX 7 1 6 4 5 6 32 7 33 8 2 13 1 14 3 18 4 22 8 26 9 27 31 28
REMARK SMILES IDX 10 29 30 31 11 33 29 34 12 35 13 37 14 40 15 43 16 44 17 46
REMARK SMILES IDX 18 47 19 48 28 49 20 50 27 52 21 53 22 54 26 55 23 56 25 57
REMARK SMILES IDX 24 59
REMARK H PARENT 7 2 7 3 6 5 32 9 32 10 33 11 33 12 1 15 1 16 1 17 3 19 3 20
REMARK H PARENT 3 21 4 23 4 24 4 25 9 30 31 32 11 36 29 38 12 39 14 41 14 42
REMARK H PARENT 15 45 19 51 26 58 23 60 25 61 24 62
REMARK Flexibility Score: inf
ROOT
ATOM      1  C   UNL     1     -46.389  31.642  24.063  1.00  0.00     0.036 C 
ATOM      2  H   UNL     1     -45.409  31.822  23.608  1.00  0.00     0.049 H 
ATOM      3  H   UNL     1     -46.336  30.688  24.599  1.00  0.00     0.049 H 
ENDROOT
BRANCH   1   4
ATOM      4  N   UNL     1     -47.446  31.602  23.056  1.00  0.00    -0.305 NA
ATOM      5  H   UNL     1     -48.087  32.375  23.233  1.00  0.00     0.123 HD
BRANCH   4   6
ATOM      6  C   UNL     1     -48.171  30.305  22.943  1.00  0.00     0.023 C 
ATOM      7  C   UNL     1     -48.767  29.798  24.252  1.00  0.00    -0.033 C 
ATOM      8  C   UNL     1     -47.600  29.084  23.650  1.00  0.00    -0.033 C 
ATOM      9  H   UNL     1     -48.595  30.360  25.164  1.00  0.00     0.029 H 
ATOM     10  H   UNL     1     -49.730  29.302  24.250  1.00  0.00     0.029 H 
ATOM     11  H   UNL     1     -46.655  29.156  24.177  1.00  0.00     0.029 H 
ATOM     12  H   UNL     1     -47.764  28.093  23.247  1.00  0.00     0.029 H 
BRANCH   6  13
ATOM     13  C   UNL     1     -49.022  30.148  21.639  1.00  0.00    -0.020 C 
BRANCH  13  14
ATOM     14  C   UNL     1     -50.440  30.754  21.735  1.00  0.00    -0.058 C 
ATOM     15  H   UNL     1     -50.421  31.822  21.974  1.00  0.00     0.024 H 
ATOM     16  H   UNL     1     -50.975  30.653  20.783  1.00  0.00     0.024 H 
ATOM     17  H   UNL     1     -51.047  30.249  22.493  1.00  0.00     0.024 H 
ENDBRANCH  13  14
BRANCH  13  18
ATOM     18  C   UNL     1     -48.292  30.844  20.471  1.00  0.00    -0.058 C 
ATOM     19  H   UNL     1     -48.978  31.041  19.639  1.00  0.00     0.024 H 
ATOM     20  H   UNL     1     -47.865  31.806  20.777  1.00  0.00     0.024 H 
ATOM     21  H   UNL     1     -47.471  30.227  20.090  1.00  0.00     0.024 H 
ENDBRANCH  13  18
BRANCH  13  22
ATOM     22  C   UNL     1     -49.201  28.655  21.291  1.00  0.00    -0.058 C 
ATOM     23  H   UNL     1     -50.122  28.258  21.732  1.00  0.00     0.024 H 
ATOM     24  H   UNL     1     -48.366  28.048  21.655  1.00  0.00     0.024 H 
ATOM     25  H   UNL     1     -49.256  28.504  20.207  1.00  0.00     0.024 H 
ENDBRANCH  13  22
ENDBRANCH   6  13
ENDBRANCH   4   6
ENDBRANCH   1   4
BRANCH   1  26
ATOM     26  C   UNL     1     -46.675  32.737  25.032  1.00  0.00     0.030 A 
ATOM     27  C   UNL     1     -47.863  33.312  25.437  1.00  0.00    -0.032 A 
ATOM     28  N   UNL     1     -45.667  33.360  25.728  1.00  0.00    -0.357 N 
ATOM     29  C   UNL     1     -47.562  34.313  26.402  1.00  0.00    -0.000 A 
ATOM     30  H   UNL     1     -48.848  33.044  25.079  1.00  0.00     0.065 H 
ATOM     31  C   UNL     1     -46.178  34.322  26.566  1.00  0.00     0.046 A 
ATOM     32  H   UNL     1     -44.684  33.152  25.607  1.00  0.00     0.166 HD
ATOM     33  C   UNL     1     -48.338  35.216  27.150  1.00  0.00    -0.052 A 
ATOM     34  C   UNL     1     -45.526  35.194  27.445  1.00  0.00    -0.033 A 
ATOM     35  C   UNL     1     -47.703  36.098  28.037  1.00  0.00    -0.057 A 
ATOM     36  H   UNL     1     -49.418  35.235  27.042  1.00  0.00     0.063 H 
ATOM     37  C   UNL     1     -46.310  36.087  28.195  1.00  0.00    -0.027 A 
ATOM     38  H   UNL     1     -44.443  35.184  27.544  1.00  0.00     0.065 H 
ATOM     39  H   UNL     1     -48.314  36.796  28.606  1.00  0.00     0.063 H 
BRANCH  37  40
ATOM     40  C   UNL     1     -45.641  37.058  29.136  1.00  0.00     0.043 C 
ATOM     41  H   UNL     1     -44.928  36.530  29.780  1.00  0.00     0.054 H 
ATOM     42  H   UNL     1     -46.382  37.531  29.789  1.00  0.00     0.054 H 
BRANCH  40  43
ATOM     43  N   UNL     1     -44.982  38.109  28.403  1.00  0.00    -0.347 N 
ATOM     44  C   UNL     1     -45.581  39.315  28.133  1.00  0.00     0.270 C 
ATOM     45  H   UNL     1     -43.974  38.077  28.287  1.00  0.00     0.164 HD
ATOM     46  O   UNL     1     -46.761  39.568  28.346  1.00  0.00    -0.268 OA
BRANCH  44  47
ATOM     47  C   UNL     1     -44.613  40.318  27.551  1.00  0.00     0.136 A 
ATOM     48  C   UNL     1     -43.511  40.562  28.264  1.00  0.00     0.035 A 
ATOM     49  N   UNL     1     -44.913  40.904  26.342  1.00  0.00    -0.225 NA
ATOM     50  C   UNL     1     -42.539  41.525  27.733  1.00  0.00     0.258 A 
ATOM     51  H   UNL     1     -43.285  40.093  29.212  1.00  0.00     0.071 H 
ATOM     52  C   UNL     1     -44.049  41.752  25.875  1.00  0.00     0.140 A 
ATOM     53  O   UNL     1     -41.522  41.759  28.384  1.00  0.00    -0.269 OA
ATOM     54  N   UNL     1     -42.863  42.099  26.512  1.00  0.00    -0.268 N 
ATOM     55  C   UNL     1     -44.330  42.410  24.567  1.00  0.00    -0.019 A 
ATOM     56  C   UNL     1     -41.988  43.019  25.944  1.00  0.00     0.014 A 
ATOM     57  C   UNL     1     -43.458  43.289  24.060  1.00  0.00    -0.057 A 
ATOM     58  H   UNL     1     -45.250  42.145  24.063  1.00  0.00     0.066 H 
ATOM     59  C   UNL     1     -42.248  43.606  24.769  1.00  0.00    -0.045 A 
ATOM     60  H   UNL     1     -41.079  43.244  26.497  1.00  0.00     0.082 H 
ATOM     61  H   UNL     1     -43.644  43.777  23.109  1.00  0.00     0.062 H 
ATOM     62  H   UNL     1     -41.557  44.323  24.335  1.00  0.00     0.064 H 
ENDBRANCH  44  47
ENDBRANCH  40  43
ENDBRANCH  37  40
ENDBRANCH   1  26
TORSDOF 10
ENDMDL
MODEL 2
REMARK VINA RESULT:      -9.5      2.374      3.902
REMARK SMILES CC(C)(C)C1(NCc2cc3ccc(CNC(=O)c4cc(=O)n5ccccc5n4)cc3[nH]2)CC1
REMARK SMILES IDX 7 1 6 4 5 6 32 7 33 8 2 13 1 14 3 18 4 22 8 26 9 27 31 28
REMARK SMILES IDX 10 29 30 31 11 33 29 34 12 35 13 37 14 40 15 43 16 44 17 46
REMARK SMILES IDX 18 47 19 48 28 49 20 50 27 52 21 53 22 54 26 55 23 56 25 57
REMARK SMILES IDX 24 59
REMARK H PARENT 7 2 7 3 6 5 32 9 32 10 33 11 33 12 1 15 1 16 1 17 3 19 3 20
REMARK H PARENT 3 21 4 23 4 24 4 25 9 30 31 32 11 36 29 38 12 39 14 41 14 42
REMARK H PARENT 15 45 19 51 26 58 23 60 25 61 24 62
REMARK Flexibility Score: inf
ROOT
ATOM      1  C   UNL     1     -48.485  29.476  24.806  1.00  0.00     0.036 C 
ATOM      2  H   UNL     1     -49.464  29.507  24.315  1.00  0.00     0.049 H 
ATOM      3  H   UNL     1     -47.774  29.029  24.102  1.00  0.00     0.049 H 
ENDROOT
BRANCH   1   4
ATOM      4  N   UNL     1     -48.533  28.702  26.043  1.00  0.00    -0.305 NA
ATOM      5  H   UNL     1     -47.696  28.913  26.586  1.00  0.00     0.123 HD
BRANCH   4   6
ATOM      6  C   UNL     1     -48.717  27.233  25.870  1.00  0.00     0.023 C 
ATOM      7  C   UNL     1     -49.642  26.844  24.720  1.00  0.00    -0.033 C 
ATOM      8  C   UNL     1     -50.091  26.633  26.130  1.00  0.00    -0.033 C 
ATOM      9  H   UNL     1     -50.133  27.625  24.149  1.00  0.00     0.029 H 
ATOM     10  H   UNL     1     -49.416  25.974  24.117  1.00  0.00     0.029 H 
ATOM     11  H   UNL     1     -50.898  27.263  26.489  1.00  0.00     0.029 H 
ATOM     12  H   UNL     1     -50.183  25.615  26.486  1.00  0.00     0.029 H 
BRANCH   6  13
ATOM     13  C   UNL     1     -47.420  26.385  26.087  1.00  0.00    -0.020 C 
BRANCH  13  14
ATOM     14  C   UNL     1     -46.588  26.807  27.318  1.00  0.00    -0.058 C 
ATOM     15  H   UNL     1     -46.772  26.164  28.185  1.00  0.00     0.024 H 
ATOM     16  H   UNL     1     -45.514  26.749  27.104  1.00  0.00     0.024 H 
ATOM     17  H   UNL     1     -46.796  27.841  27.613  1.00  0.00     0.024 H 
ENDBRANCH  13  14
BRANCH  13  18
ATOM     18  C   UNL     1     -47.809  24.902  26.269  1.00  0.00    -0.058 C 
ATOM     19  H   UNL     1     -48.872  24.744  26.052  1.00  0.00     0.024 H 
ATOM     20  H   UNL     1     -47.239  24.249  25.598  1.00  0.00     0.024 H 
ATOM     21  H   UNL     1     -47.622  24.564  27.294  1.00  0.00     0.024 H 
ENDBRANCH  13  18
BRANCH  13  22
ATOM     22  C   UNL     1     -46.490  26.504  24.861  1.00  0.00    -0.058 C 
ATOM     23  H   UNL     1     -45.441  26.373  25.151  1.00  0.00     0.024 H 
ATOM     24  H   UNL     1     -46.583  27.479  24.370  1.00  0.00     0.024 H 
ATOM     25  H   UNL     1     -46.726  25.744  24.107  1.00  0.00     0.024 H 
ENDBRANCH  13  22
ENDBRANCH   6  13
ENDBRANCH   4   6
ENDBRANCH   1   4
BRANCH   1  26
ATOM     26  C   UNL     1     -48.062  30.870  25.115  1.00  0.00     0.030 A 
ATOM     27  C   UNL     1     -46.924  31.576  24.781  1.00  0.00    -0.032 A 
ATOM     28  N   UNL     1     -48.864  31.718  25.841  1.00  0.00    -0.357 N 
ATOM     29  C   UNL     1     -47.041  32.885  25.324  1.00  0.00    -0.000 A 
ATOM     30  H   UNL     1     -46.091  31.193  24.206  1.00  0.00     0.065 H 
ATOM     31  C   UNL     1     -48.267  32.948  25.983  1.00  0.00     0.046 A 
ATOM     32  H   UNL     1     -49.756  31.452  26.238  1.00  0.00     0.166 HD
ATOM     33  C   UNL     1     -46.216  34.025  25.319  1.00  0.00    -0.052 A 
ATOM     34  C   UNL     1     -48.713  34.099  26.642  1.00  0.00    -0.033 A 
ATOM     35  C   UNL     1     -46.646  35.188  25.975  1.00  0.00    -0.057 A 
ATOM     36  H   UNL     1     -45.254  34.005  24.816  1.00  0.00     0.063 H 
ATOM     37  C   UNL     1     -47.886  35.235  26.625  1.00  0.00    -0.027 A 
ATOM     38  H   UNL     1     -49.671  34.114  27.157  1.00  0.00     0.065 H 
ATOM     39  H   UNL     1     -45.996  36.060  25.968  1.00  0.00     0.063 H 
BRANCH  37  40
ATOM     40  C   UNL     1     -48.324  36.487  27.346  1.00  0.00     0.043 C 
ATOM     41  H   UNL     1     -48.526  36.265  28.400  1.00  0.00     0.054 H 
ATOM     42  H   UNL     1     -49.252  36.873  26.911  1.00  0.00     0.054 H 
BRANCH  40  43
ATOM     43  N   UNL     1     -47.329  37.521  27.224  1.00  0.00    -0.347 N 
ATOM     44  C   UNL     1     -46.922  38.289  28.287  1.00  0.00     0.270 C 
ATOM     45  H   UNL     1     -46.727  37.538  26.408  1.00  0.00     0.164 HD
ATOM     46  O   UNL     1     -47.453  38.284  29.392  1.00  0.00    -0.268 OA
BRANCH  44  47
ATOM     47  C   UNL     1     -45.723  39.143  27.952  1.00  0.00     0.136 A 
ATOM     48  C   UNL     1     -45.693  39.669  26.725  1.00  0.00     0.035 A 
ATOM     49  N   UNL     1     -44.753  39.332  28.911  1.00  0.00    -0.225 NA
ATOM     50  C   UNL     1     -44.549  40.511  26.357  1.00  0.00     0.258 A 
ATOM     51  H   UNL     1     -46.463  39.515  25.980  1.00  0.00     0.071 H 
ATOM     52  C   UNL     1     -43.746  40.081  28.582  1.00  0.00     0.140 A 
ATOM     53  O   UNL     1     -44.512  40.998  25.227  1.00  0.00    -0.269 OA
ATOM     54  N   UNL     1     -43.588  40.689  27.342  1.00  0.00    -0.268 N 
ATOM     55  C   UNL     1     -42.673  40.317  29.591  1.00  0.00    -0.019 A 
ATOM     56  C   UNL     1     -42.476  41.478  27.068  1.00  0.00     0.014 A 
ATOM     57  C   UNL     1     -41.621  41.084  29.280  1.00  0.00    -0.057 A 
ATOM     58  H   UNL     1     -42.787  39.848  30.559  1.00  0.00     0.066 H 
ATOM     59  C   UNL     1     -41.516  41.685  27.978  1.00  0.00    -0.045 A 
ATOM     60  H   UNL     1     -42.418  41.923  26.077  1.00  0.00     0.082 H 
ATOM     61  H   UNL     1     -40.831  41.267  30.000  1.00  0.00     0.062 H 
ATOM     62  H   UNL     1     -40.653  42.303  27.753  1.00  0.00     0.064 H 
ENDBRANCH  44  47
ENDBRANCH  40  43
ENDBRANCH  37  40
ENDBRANCH   1  26
TORSDOF 10
ENDMDL
MODEL 3
REMARK VINA RESULT:      -9.4      1.957      3.240
REMARK SMILES CC(C)(C)C1(NCc2cc3ccc(CNC(=O)c4cc(=O)n5ccccc5n4)cc3[nH]2)CC1
REMARK SMILES IDX 7 1 6 4 5 6 32 7 33 8 2 13 1 14 3 18 4 22 8 26 9 27 31 28
REMARK SMILES IDX 10 29 30 31 11 33 29 34 12 35 13 37 14 40 15 43 16 44 17 46
REMARK SMILES IDX 18 47 19 48 28 49 20 50 27 52 21 53 22 54 26 55 23 56 25 57
REMARK SMILES IDX 24 59
REMARK H PARENT 7 2 7 3 6 5 32 9 32 10 33 11 33 12 1 15 1 16 1 17 3 19 3 20
REMARK H PARENT 3 21 4 23 4 24 4 25 9 30 31 32 11 36 29 38 12 39 14 41 14 42
REMARK H PARENT 15 45 19 51 26 58 23 60 25 61 24 62
REMARK Flexibility Score: inf
ROOT
ATOM      1  C   UNL     1     -48.509  29.885  23.907  1.00  0.00     0.036 C 
ATOM      2  H   UNL     1     -47.778  29.112  24.165  1.00  0.00     0.049 H 
ATOM      3  H   UNL     1     -49.476  29.580  24.323  1.00  0.00     0.049 H 
ENDROOT
BRANCH   1   4
ATOM      4  N   UNL     1     -48.610  30.062  22.461  1.00  0.00    -0.305 NA
ATOM      5  H   UNL     1     -48.012  30.843  22.191  1.00  0.00     0.123 HD
BRANCH   4   6
ATOM      6  C   UNL     1     -49.995  30.224  21.933  1.00  0.00     0.023 C 
ATOM      7  C   UNL     1     -50.167  31.386  20.959  1.00  0.00    -0.033 C 
ATOM      8  C   UNL     1     -50.784  31.467  22.318  1.00  0.00    -0.033 C 
ATOM      9  H   UNL     1     -49.321  32.033  20.753  1.00  0.00     0.029 H 
ATOM     10  H   UNL     1     -50.822  31.280  20.103  1.00  0.00     0.029 H 
ATOM     11  H   UNL     1     -50.358  32.186  23.009  1.00  0.00     0.029 H 
ATOM     12  H   UNL     1     -51.863  31.427  22.389  1.00  0.00     0.029 H 
BRANCH   6  13
ATOM     13  C   UNL     1     -50.728  28.880  21.608  1.00  0.00    -0.020 C 
BRANCH  13  14
ATOM     14  C   UNL     1     -51.535  28.903  20.291  1.00  0.00    -0.058 C 
ATOM     15  H   UNL     1     -51.644  27.906  19.853  1.00  0.00     0.024 H 
ATOM     16  H   UNL     1     -52.549  29.287  20.460  1.00  0.00     0.024 H 
ATOM     17  H   UNL     1     -51.071  29.554  19.543  1.00  0.00     0.024 H 
ENDBRANCH  13  14
BRANCH  13  18
ATOM     18  C   UNL     1     -49.684  27.748  21.500  1.00  0.00    -0.058 C 
ATOM     19  H   UNL     1     -50.043  26.942  20.850  1.00  0.00     0.024 H 
ATOM     20  H   UNL     1     -48.738  28.109  21.080  1.00  0.00     0.024 H 
ATOM     21  H   UNL     1     -49.462  27.315  22.481  1.00  0.00     0.024 H 
ENDBRANCH  13  18
BRANCH  13  22
ATOM     22  C   UNL     1     -51.724  28.527  22.733  1.00  0.00    -0.058 C 
ATOM     23  H   UNL     1     -52.560  27.935  22.344  1.00  0.00     0.024 H 
ATOM     24  H   UNL     1     -52.139  29.422  23.208  1.00  0.00     0.024 H 
ATOM     25  H   UNL     1     -51.239  27.942  23.523  1.00  0.00     0.024 H 
ENDBRANCH  13  22
ENDBRANCH   6  13
ENDBRANCH   4   6
ENDBRANCH   1   4
BRANCH   1  26
ATOM     26  C   UNL     1     -48.086  31.170  24.530  1.00  0.00     0.030 A 
ATOM     27  C   UNL     1     -46.894  31.863  24.475  1.00  0.00    -0.032 A 
ATOM     28  N   UNL     1     -48.946  31.906  25.310  1.00  0.00    -0.357 N 
ATOM     29  C   UNL     1     -47.038  33.049  25.247  1.00  0.00    -0.000 A 
ATOM     30  H   UNL     1     -46.007  31.553  23.938  1.00  0.00     0.065 H 
ATOM     31  C   UNL     1     -48.333  33.052  25.759  1.00  0.00     0.046 A 
ATOM     32  H   UNL     1     -49.888  31.617  25.541  1.00  0.00     0.166 HD
ATOM     33  C   UNL     1     -46.184  34.122  25.562  1.00  0.00    -0.052 A 
ATOM     34  C   UNL     1     -48.823  34.078  26.574  1.00  0.00    -0.033 A 
ATOM     35  C   UNL     1     -46.657  35.160  26.378  1.00  0.00    -0.057 A 
ATOM     36  H   UNL     1     -45.168  34.147  25.181  1.00  0.00     0.063 H 
ATOM     37  C   UNL     1     -47.966  35.150  26.877  1.00  0.00    -0.027 A 
ATOM     38  H   UNL     1     -49.837  34.047  26.967  1.00  0.00     0.065 H 
ATOM     39  H   UNL     1     -45.985  35.982  26.618  1.00  0.00     0.063 H 
BRANCH  37  40
ATOM     40  C   UNL     1     -48.452  36.263  27.772  1.00  0.00     0.043 C 
ATOM     41  H   UNL     1     -48.625  35.885  28.786  1.00  0.00     0.054 H 
ATOM     42  H   UNL     1     -49.405  36.660  27.406  1.00  0.00     0.054 H 
BRANCH  40  43
ATOM     43  N   UNL     1     -47.511  37.353  27.790  1.00  0.00    -0.347 N 
ATOM     44  C   UNL     1     -46.562  37.501  28.772  1.00  0.00     0.270 C 
ATOM     45  H   UNL     1     -47.364  37.896  26.945  1.00  0.00     0.164 HD
ATOM     46  O   UNL     1     -46.511  36.828  29.795  1.00  0.00    -0.268 OA
BRANCH  44  47
ATOM     47  C   UNL     1     -45.565  38.587  28.447  1.00  0.00     0.136 A 
ATOM     48  C   UNL     1     -45.765  39.256  27.309  1.00  0.00     0.035 A 
ATOM     49  N   UNL     1     -44.533  38.825  29.327  1.00  0.00    -0.225 NA
ATOM     50  C   UNL     1     -44.824  40.325  26.956  1.00  0.00     0.258 A 
ATOM     51  H   UNL     1     -46.582  39.061  26.626  1.00  0.00     0.071 H 
ATOM     52  C   UNL     1     -43.706  39.774  29.012  1.00  0.00     0.140 A 
ATOM     53  O   UNL     1     -44.999  40.945  25.907  1.00  0.00    -0.269 OA
ATOM     54  N   UNL     1     -43.795  40.548  27.860  1.00  0.00    -0.268 N 
ATOM     55  C   UNL     1     -42.575  40.070  29.938  1.00  0.00    -0.019 A 
ATOM     56  C   UNL     1     -42.866  41.547  27.596  1.00  0.00     0.014 A 
ATOM     57  C   UNL     1     -41.705  41.042  29.640  1.00  0.00    -0.057 A 
ATOM     58  H   UNL     1     -42.497  39.474  30.838  1.00  0.00     0.066 H 
ATOM     59  C   UNL     1     -41.852  41.807  28.431  1.00  0.00    -0.045 A 
ATOM     60  H   UNL     1     -42.997  42.113  26.676  1.00  0.00     0.082 H 
ATOM     61  H   UNL     1     -40.876  41.273  30.300  1.00  0.00     0.062 H 
ATOM     62  H   UNL     1     -41.132  42.590  28.214  1.00  0.00     0.064 H 
ENDBRANCH  44  47
ENDBRANCH  40  43
ENDBRANCH  37  40
ENDBRANCH   1  26
TORSDOF 10
ENDMDL
MODEL 4
REMARK VINA RESULT:      -9.2      1.390      2.058
REMARK SMILES CC(C)(C)C1(NCc2cc3ccc(CNC(=O)c4cc(=O)n5ccccc5n4)cc3[nH]2)CC1
REMARK SMILES IDX 7 1 6 4 5 6 32 7 33 8 2 13 1 14 3 18 4 22 8 26 9 27 31 28
REMARK SMILES IDX 10 29 30 31 11 33 29 34 12 35 13 37 14 40 15 43 16 44 17 46
REMARK SMILES IDX 18 47 19 48 28 49 20 50 27 52 21 53 22 54 26 55 23 56 25 57
REMARK SMILES IDX 24 59
REMARK H PARENT 7 2 7 3 6 5 32 9 32 10 33 11 33 12 1 15 1 16 1 17 3 19 3 20
REMARK H PARENT 3 21 4 23 4 24 4 25 9 30 31 32 11 36 29 38 12 39 14 41 14 42
REMARK H PARENT 15 45 19 51 26 58 23 60 25 61 24 62
REMARK Flexibility Score: inf
ROOT
ATOM      1  C   UNL     1     -46.060  32.034  24.613  1.00  0.00     0.036 C 
ATOM      2  H   UNL     1     -45.754  32.443  23.644  1.00  0.00     0.049 H 
ATOM      3  H   UNL     1     -45.175  31.587  25.078  1.00  0.00     0.049 H 
ENDROOT
BRANCH   1   4
ATOM      4  N   UNL     1     -47.115  31.036  24.462  1.00  0.00    -0.305 NA
ATOM      5  H   UNL     1     -47.015  30.349  25.208  1.00  0.00     0.123 HD
BRANCH   4   6
ATOM      6  C   UNL     1     -47.191  30.385  23.123  1.00  0.00     0.023 C 
ATOM      7  C   UNL     1     -46.232  29.213  22.936  1.00  0.00    -0.033 C 
ATOM      8  C   UNL     1     -45.992  30.487  22.192  1.00  0.00    -0.033 C 
ATOM      9  H   UNL     1     -45.542  28.961  23.735  1.00  0.00     0.029 H 
ATOM     10  H   UNL     1     -46.547  28.342  22.376  1.00  0.00     0.029 H 
ATOM     11  H   UNL     1     -45.126  31.072  22.484  1.00  0.00     0.029 H 
ATOM     12  H   UNL     1     -46.132  30.481  21.118  1.00  0.00     0.029 H 
BRANCH   6  13
ATOM     13  C   UNL     1     -48.640  30.246  22.549  1.00  0.00    -0.020 C 
BRANCH  13  14
ATOM     14  C   UNL     1     -49.163  28.793  22.503  1.00  0.00    -0.058 C 
ATOM     15  H   UNL     1     -49.483  28.498  21.499  1.00  0.00     0.024 H 
ATOM     16  H   UNL     1     -48.382  28.085  22.807  1.00  0.00     0.024 H 
ATOM     17  H   UNL     1     -50.007  28.644  23.184  1.00  0.00     0.024 H 
ENDBRANCH  13  14
BRANCH  13  18
ATOM     18  C   UNL     1     -49.611  31.068  23.423  1.00  0.00    -0.058 C 
ATOM     19  H   UNL     1     -49.769  32.067  23.003  1.00  0.00     0.024 H 
ATOM     20  H   UNL     1     -50.593  30.586  23.499  1.00  0.00     0.024 H 
ATOM     21  H   UNL     1     -49.225  31.189  24.441  1.00  0.00     0.024 H 
ENDBRANCH  13  18
BRANCH  13  22
ATOM     22  C   UNL     1     -48.699  30.785  21.104  1.00  0.00    -0.058 C 
ATOM     23  H   UNL     1     -47.805  31.373  20.869  1.00  0.00     0.024 H 
ATOM     24  H   UNL     1     -49.573  31.424  20.942  1.00  0.00     0.024 H 
ATOM     25  H   UNL     1     -48.763  29.967  20.377  1.00  0.00     0.024 H 
ENDBRANCH  13  22
ENDBRANCH   6  13
ENDBRANCH   4   6
ENDBRANCH   1   4
BRANCH   1  26
ATOM     26  C   UNL     1     -46.557  33.148  25.466  1.00  0.00     0.030 A 
ATOM     27  C   UNL     1     -47.833  33.617  25.706  1.00  0.00    -0.032 A 
ATOM     28  N   UNL     1     -45.697  33.916  26.215  1.00  0.00    -0.357 N 
ATOM     29  C   UNL     1     -47.740  34.700  26.623  1.00  0.00    -0.000 A 
ATOM     30  H   UNL     1     -48.742  33.224  25.269  1.00  0.00     0.065 H 
ATOM     31  C   UNL     1     -46.390  34.867  26.926  1.00  0.00     0.046 A 
ATOM     32  H   UNL     1     -44.691  33.807  26.210  1.00  0.00     0.166 HD
ATOM     33  C   UNL     1     -48.679  35.560  27.223  1.00  0.00    -0.052 A 
ATOM     34  C   UNL     1     -45.928  35.854  27.803  1.00  0.00    -0.033 A 
ATOM     35  C   UNL     1     -48.235  36.556  28.104  1.00  0.00    -0.057 A 
ATOM     36  H   UNL     1     -49.737  35.456  27.003  1.00  0.00     0.063 H 
ATOM     37  C   UNL     1     -46.874  36.703  28.404  1.00  0.00    -0.027 A 
ATOM     38  H   UNL     1     -44.867  35.966  28.013  1.00  0.00     0.065 H 
ATOM     39  H   UNL     1     -48.971  37.217  28.557  1.00  0.00     0.063 H 
BRANCH  37  40
ATOM     40  C   UNL     1     -46.411  37.795  29.337  1.00  0.00     0.043 C 
ATOM     41  H   UNL     1     -45.578  37.437  29.953  1.00  0.00     0.054 H 
ATOM     42  H   UNL     1     -47.219  38.085  30.017  1.00  0.00     0.054 H 
BRANCH  40  43
ATOM     43  N   UNL     1     -46.029  38.970  28.598  1.00  0.00    -0.347 N 
ATOM     44  C   UNL     1     -44.739  39.442  28.566  1.00  0.00     0.270 C 
ATOM     45  H   UNL     1     -46.652  39.333  27.884  1.00  0.00     0.164 HD
ATOM     46  O   UNL     1     -43.827  39.016  29.265  1.00  0.00    -0.268 OA
BRANCH  44  47
ATOM     47  C   UNL     1     -44.558  40.547  27.554  1.00  0.00     0.136 A 
ATOM     48  C   UNL     1     -45.668  41.008  26.972  1.00  0.00     0.035 A 
ATOM     49  N   UNL     1     -43.287  41.011  27.299  1.00  0.00    -0.225 NA
ATOM     50  C   UNL     1     -45.540  42.087  25.986  1.00  0.00     0.258 A 
ATOM     51  H   UNL     1     -46.662  40.636  27.183  1.00  0.00     0.071 H 
ATOM     52  C   UNL     1     -43.179  41.969  26.429  1.00  0.00     0.140 A 
ATOM     53  O   UNL     1     -46.557  42.516  25.443  1.00  0.00    -0.269 OA
ATOM     54  N   UNL     1     -44.250  42.540  25.749  1.00  0.00    -0.268 N 
ATOM     55  C   UNL     1     -41.822  42.505  26.123  1.00  0.00    -0.019 A 
ATOM     56  C   UNL     1     -44.049  43.563  24.830  1.00  0.00     0.014 A 
ATOM     57  C   UNL     1     -41.679  43.492  25.231  1.00  0.00    -0.057 A 
ATOM     58  H   UNL     1     -40.983  42.068  26.648  1.00  0.00     0.066 H 
ATOM     59  C   UNL     1     -42.828  44.040  24.560  1.00  0.00    -0.045 A 
ATOM     60  H   UNL     1     -44.932  43.963  24.335  1.00  0.00     0.082 H 
ATOM     61  H   UNL     1     -40.701  43.896  24.995  1.00  0.00     0.062 H 
ATOM     62  H   UNL     1     -42.683  44.839  23.840  1.00  0.00     0.064 H 
ENDBRANCH  44  47
ENDBRANCH  40  43
ENDBRANCH  37  40
ENDBRANCH   1  26
TORSDOF 10
ENDMDL
MODEL 5
REMARK VINA RESULT:      -9.2      2.190      3.630
REMARK SMILES CC(C)(C)C1(NCc2cc3ccc(CNC(=O)c4cc(=O)n5ccccc5n4)cc3[nH]2)CC1
REMARK SMILES IDX 7 1 6 4 5 6 32 7 33 8 2 13 1 14 3 18 4 22 8 26 9 27 31 28
REMARK SMILES IDX 10 29 30 31 11 33 29 34 12 35 13 37 14 40 15 43 16 44 17 46
REMARK SMILES IDX 18 47 19 48 28 49 20 50 27 52 21 53 22 54 26 55 23 56 25 57
REMARK SMILES IDX 24 59
REMARK H PARENT 7 2 7 3 6 5 32 9 32 10 33 11 33 12 1 15 1 16 1 17 3 19 3 20
REMARK H PARENT 3 21 4 23 4 24 4 25 9 30 31 32 11 36 29 38 12 39 14 41 14 42
REMARK H PARENT 15 45 19 51 26 58 23 60 25 61 24 62
REMARK Flexibility Score: inf
ROOT
ATOM      1  C   UNL     1     -48.957  29.715  23.740  1.00  0.00     0.036 C 
ATOM      2  H   UNL     1     -49.419  29.980  22.782  1.00  0.00     0.049 H 
ATOM      3  H   UNL     1     -48.151  29.003  23.533  1.00  0.00     0.049 H 
ENDROOT
BRANCH   1   4
ATOM      4  N   UNL     1     -49.930  29.131  24.658  1.00  0.00    -0.305 NA
ATOM      5  H   UNL     1     -49.784  29.537  25.582  1.00  0.00     0.123 HD
BRANCH   4   6
ATOM      6  C   UNL     1     -49.944  27.641  24.711  1.00  0.00     0.023 C 
ATOM      7  C   UNL     1     -50.345  26.968  23.401  1.00  0.00    -0.033 C 
ATOM      8  C   UNL     1     -51.275  26.917  24.571  1.00  0.00    -0.033 C 
ATOM      9  H   UNL     1     -50.634  27.583  22.557  1.00  0.00     0.029 H 
ATOM     10  H   UNL     1     -49.856  26.052  23.095  1.00  0.00     0.029 H 
ATOM     11  H   UNL     1     -52.196  27.486  24.491  1.00  0.00     0.029 H 
ATOM     12  H   UNL     1     -51.430  25.962  25.055  1.00  0.00     0.029 H 
BRANCH   6  13
ATOM     13  C   UNL     1     -48.772  27.009  25.532  1.00  0.00    -0.020 C 
BRANCH  13  14
ATOM     14  C   UNL     1     -48.995  25.529  25.913  1.00  0.00    -0.058 C 
ATOM     15  H   UNL     1     -48.596  25.289  26.904  1.00  0.00     0.024 H 
ATOM     16  H   UNL     1     -50.065  25.287  25.937  1.00  0.00     0.024 H 
ATOM     17  H   UNL     1     -48.535  24.849  25.189  1.00  0.00     0.024 H 
ENDBRANCH  13  14
BRANCH  13  18
ATOM     18  C   UNL     1     -47.472  27.090  24.704  1.00  0.00    -0.058 C 
ATOM     19  H   UNL     1     -47.141  26.093  24.392  1.00  0.00     0.024 H 
ATOM     20  H   UNL     1     -47.609  27.687  23.795  1.00  0.00     0.024 H 
ATOM     21  H   UNL     1     -46.661  27.549  25.279  1.00  0.00     0.024 H 
ENDBRANCH  13  18
BRANCH  13  22
ATOM     22  C   UNL     1     -48.565  27.781  26.853  1.00  0.00    -0.058 C 
ATOM     23  H   UNL     1     -49.333  27.513  27.587  1.00  0.00     0.024 H 
ATOM     24  H   UNL     1     -48.607  28.865  26.703  1.00  0.00     0.024 H 
ATOM     25  H   UNL     1     -47.587  27.557  27.294  1.00  0.00     0.024 H 
ENDBRANCH  13  22
ENDBRANCH   6  13
ENDBRANCH   4   6
ENDBRANCH   1   4
BRANCH   1  26
ATOM     26  C   UNL     1     -48.384  30.947  24.350  1.00  0.00     0.030 A 
ATOM     27  C   UNL     1     -47.123  31.503  24.273  1.00  0.00    -0.032 A 
ATOM     28  N   UNL     1     -49.144  31.777  25.139  1.00  0.00    -0.357 N 
ATOM     29  C   UNL     1     -47.122  32.700  25.040  1.00  0.00    -0.000 A 
ATOM     30  H   UNL     1     -46.285  31.094  23.723  1.00  0.00     0.065 H 
ATOM     31  C   UNL     1     -48.401  32.849  25.572  1.00  0.00     0.046 A 
ATOM     32  H   UNL     1     -50.108  31.595  25.385  1.00  0.00     0.166 HD
ATOM     33  C   UNL     1     -46.149  33.673  25.337  1.00  0.00    -0.052 A 
ATOM     34  C   UNL     1     -48.760  33.926  26.389  1.00  0.00    -0.033 A 
ATOM     35  C   UNL     1     -46.490  34.760  26.154  1.00  0.00    -0.057 A 
ATOM     36  H   UNL     1     -45.142  33.583  24.940  1.00  0.00     0.063 H 
ATOM     37  C   UNL     1     -47.784  34.897  26.673  1.00  0.00    -0.027 A 
ATOM     38  H   UNL     1     -49.765  34.010  26.798  1.00  0.00     0.065 H 
ATOM     39  H   UNL     1     -45.727  35.502  26.380  1.00  0.00     0.063 H 
BRANCH  37  40
ATOM     40  C   UNL     1     -48.129  36.061  27.570  1.00  0.00     0.043 C 
ATOM     41  H   UNL     1     -48.540  35.698  28.519  1.00  0.00     0.054 H 
ATOM     42  H   UNL     1     -48.894  36.690  27.103  1.00  0.00     0.054 H 
BRANCH  40  43
ATOM     43  N   UNL     1     -46.973  36.889  27.800  1.00  0.00    -0.347 N 
ATOM     44  C   UNL     1     -47.027  38.261  27.785  1.00  0.00     0.270 C 
ATOM     45  H   UNL     1     -46.147  36.481  28.225  1.00  0.00     0.164 HD
ATOM     46  O   UNL     1     -48.003  38.914  27.434  1.00  0.00    -0.268 OA
BRANCH  44  47
ATOM     47  C   UNL     1     -45.743  38.890  28.269  1.00  0.00     0.136 A 
ATOM     48  C   UNL     1     -45.201  38.364  29.369  1.00  0.00     0.035 A 
ATOM     49  N   UNL     1     -45.212  39.944  27.558  1.00  0.00    -0.225 NA
ATOM     50  C   UNL     1     -43.949  38.940  29.872  1.00  0.00     0.258 A 
ATOM     51  H   UNL     1     -45.627  37.534  29.918  1.00  0.00     0.071 H 
ATOM     52  C   UNL     1     -44.102  40.447  28.005  1.00  0.00     0.140 A 
ATOM     53  O   UNL     1     -43.444  38.463  30.887  1.00  0.00    -0.269 OA
ATOM     54  N   UNL     1     -43.432  39.998  29.137  1.00  0.00    -0.268 N 
ATOM     55  C   UNL     1     -43.488  41.588  27.266  1.00  0.00    -0.019 A 
ATOM     56  C   UNL     1     -42.246  40.593  29.550  1.00  0.00     0.014 A 
ATOM     57  C   UNL     1     -42.345  42.128  27.702  1.00  0.00    -0.057 A 
ATOM     58  H   UNL     1     -44.002  41.944  26.382  1.00  0.00     0.066 H 
ATOM     59  C   UNL     1     -41.700  41.617  28.881  1.00  0.00    -0.045 A 
ATOM     60  H   UNL     1     -41.776  40.191  30.444  1.00  0.00     0.082 H 
ATOM     61  H   UNL     1     -41.883  42.958  27.178  1.00  0.00     0.062 H 
ATOM     62  H   UNL     1     -40.774  42.075  29.213  1.00  0.00     0.064 H 
ENDBRANCH  44  47
ENDBRANCH  40  43
ENDBRANCH  37  40
ENDBRANCH   1  26
TORSDOF 10
ENDMDL
MODEL 6
REMARK VINA RESULT:      -9.1      1.701      2.563
REMARK SMILES CC(C)(C)C1(NCc2cc3ccc(CNC(=O)c4cc(=O)n5ccccc5n4)cc3[nH]2)CC1
REMARK SMILES IDX 7 1 6 4 5 6 32 7 33 8 2 13 1 14 3 18 4 22 8 26 9 27 31 28
REMARK SMILES IDX 10 29 30 31 11 33 29 34 12 35 13 37 14 40 15 43 16 44 17 46
REMARK SMILES IDX 18 47 19 48 28 49 20 50 27 52 21 53 22 54 26 55 23 56 25 57
REMARK SMILES IDX 24 59
REMARK H PARENT 7 2 7 3 6 5 32 9 32 10 33 11 33 12 1 15 1 16 1 17 3 19 3 20
REMARK H PARENT 3 21 4 23 4 24 4 25 9 30 31 32 11 36 29 38 12 39 14 41 14 42
REMARK H PARENT 15 45 19 51 26 58 23 60 25 61 24 62
REMARK Flexibility Score: inf
ROOT
ATOM      1  C   UNL     1     -46.226  31.977  24.618  1.00  0.00     0.036 C 
ATOM      2  H   UNL     1     -45.848  32.404  23.683  1.00  0.00     0.049 H 
ATOM      3  H   UNL     1     -45.362  31.724  25.241  1.00  0.00     0.049 H 
ENDROOT
BRANCH   1   4
ATOM      4  N   UNL     1     -47.042  30.791  24.372  1.00  0.00    -0.305 NA
ATOM      5  H   UNL     1     -46.732  30.053  25.003  1.00  0.00     0.123 HD
BRANCH   4   6
ATOM      6  C   UNL     1     -47.078  30.324  22.957  1.00  0.00     0.023 C 
ATOM      7  C   UNL     1     -45.969  29.344  22.588  1.00  0.00    -0.033 C 
ATOM      8  C   UNL     1     -45.946  30.728  22.024  1.00  0.00    -0.033 C 
ATOM      9  H   UNL     1     -45.218  29.091  23.328  1.00  0.00     0.029 H 
ATOM     10  H   UNL     1     -46.179  28.520  21.917  1.00  0.00     0.029 H 
ATOM     11  H   UNL     1     -45.163  31.390  22.378  1.00  0.00     0.029 H 
ATOM     12  H   UNL     1     -46.129  30.848  20.964  1.00  0.00     0.029 H 
BRANCH   6  13
ATOM     13  C   UNL     1     -48.515  30.050  22.400  1.00  0.00    -0.020 C 
BRANCH  13  14
ATOM     14  C   UNL     1     -49.653  30.561  23.311  1.00  0.00    -0.058 C 
ATOM     15  H   UNL     1     -50.115  29.756  23.890  1.00  0.00     0.024 H 
ATOM     16  H   UNL     1     -49.276  31.294  24.034  1.00  0.00     0.024 H 
ATOM     17  H   UNL     1     -50.439  31.060  22.736  1.00  0.00     0.024 H 
ENDBRANCH  13  14
BRANCH  13  18
ATOM     18  C   UNL     1     -48.665  30.741  21.027  1.00  0.00    -0.058 C 
ATOM     19  H   UNL     1     -49.708  30.728  20.692  1.00  0.00     0.024 H 
ATOM     20  H   UNL     1     -48.348  31.790  21.066  1.00  0.00     0.024 H 
ATOM     21  H   UNL     1     -48.060  30.243  20.262  1.00  0.00     0.024 H 
ENDBRANCH  13  18
BRANCH  13  22
ATOM     22  C   UNL     1     -48.739  28.535  22.216  1.00  0.00    -0.058 C 
ATOM     23  H   UNL     1     -48.914  28.289  21.163  1.00  0.00     0.024 H 
ATOM     24  H   UNL     1     -49.600  28.176  22.791  1.00  0.00     0.024 H 
ATOM     25  H   UNL     1     -47.869  27.960  22.554  1.00  0.00     0.024 H 
ENDBRANCH  13  22
ENDBRANCH   6  13
ENDBRANCH   4   6
ENDBRANCH   1   4
BRANCH   1  26
ATOM     26  C   UNL     1     -47.051  33.005  25.312  1.00  0.00     0.030 A 
ATOM     27  C   UNL     1     -48.354  32.976  25.767  1.00  0.00    -0.032 A 
ATOM     28  N   UNL     1     -46.539  34.239  25.633  1.00  0.00    -0.357 N 
ATOM     29  C   UNL     1     -48.636  34.230  26.376  1.00  0.00    -0.000 A 
ATOM     30  H   UNL     1     -49.037  32.141  25.674  1.00  0.00     0.065 H 
ATOM     31  C   UNL     1     -47.482  35.003  26.278  1.00  0.00     0.046 A 
ATOM     32  H   UNL     1     -45.604  34.543  25.392  1.00  0.00     0.166 HD
ATOM     33  C   UNL     1     -49.770  34.783  26.999  1.00  0.00    -0.052 A 
ATOM     34  C   UNL     1     -47.401  36.309  26.774  1.00  0.00    -0.033 A 
ATOM     35  C   UNL     1     -49.708  36.091  27.503  1.00  0.00    -0.057 A 
ATOM     36  H   UNL     1     -50.686  34.206  27.088  1.00  0.00     0.063 H 
ATOM     37  C   UNL     1     -48.535  36.850  27.403  1.00  0.00    -0.027 A 
ATOM     38  H   UNL     1     -46.488  36.892  26.675  1.00  0.00     0.065 H 
ATOM     39  H   UNL     1     -50.594  36.509  27.977  1.00  0.00     0.063 H 
BRANCH  37  40
ATOM     40  C   UNL     1     -48.493  38.264  27.929  1.00  0.00     0.043 C 
ATOM     41  H   UNL     1     -48.806  38.286  28.980  1.00  0.00     0.054 H 
ATOM     42  H   UNL     1     -49.187  38.901  27.370  1.00  0.00     0.054 H 
BRANCH  40  43
ATOM     43  N   UNL     1     -47.176  38.827  27.779  1.00  0.00    -0.347 N 
ATOM     44  C   UNL     1     -46.906  39.869  26.926  1.00  0.00     0.270 C 
ATOM     45  H   UNL     1     -46.470  38.633  28.481  1.00  0.00     0.164 HD
ATOM     46  O   UNL     1     -47.700  40.322  26.110  1.00  0.00    -0.268 OA
BRANCH  44  47
ATOM     47  C   UNL     1     -45.511  40.416  27.113  1.00  0.00     0.136 A 
ATOM     48  C   UNL     1     -45.057  41.223  26.153  1.00  0.00     0.035 A 
ATOM     49  N   UNL     1     -44.806  40.064  28.243  1.00  0.00    -0.225 NA
ATOM     50  C   UNL     1     -43.708  41.784  26.296  1.00  0.00     0.258 A 
ATOM     51  H   UNL     1     -45.621  41.495  25.270  1.00  0.00     0.071 H 
ATOM     52  C   UNL     1     -43.616  40.565  28.367  1.00  0.00     0.140 A 
ATOM     53  O   UNL     1     -43.279  42.527  25.414  1.00  0.00    -0.269 OA
ATOM     54  N   UNL     1     -43.020  41.417  27.444  1.00  0.00    -0.268 N 
ATOM     55  C   UNL     1     -42.817  40.214  29.576  1.00  0.00    -0.019 A 
ATOM     56  C   UNL     1     -41.737  41.911  27.650  1.00  0.00     0.014 A 
ATOM     57  C   UNL     1     -41.586  40.715  29.731  1.00  0.00    -0.057 A 
ATOM     58  H   UNL     1     -43.272  39.553  30.301  1.00  0.00     0.066 H 
ATOM     59  C   UNL     1     -41.024  41.592  28.739  1.00  0.00    -0.045 A 
ATOM     60  H   UNL     1     -41.332  42.572  26.887  1.00  0.00     0.082 H 
ATOM     61  H   UNL     1     -40.989  40.472  30.603  1.00  0.00     0.062 H 
ATOM     62  H   UNL     1     -40.024  41.984  28.889  1.00  0.00     0.064 H 
ENDBRANCH  44  47
ENDBRANCH  40  43
ENDBRANCH  37  40
ENDBRANCH   1  26
TORSDOF 10
ENDMDL
MODEL 7
REMARK VINA RESULT:      -8.7      2.450      2.995
REMARK SMILES CC(C)(C)C1(NCc2cc3ccc(CNC(=O)c4cc(=O)n5ccccc5n4)cc3[nH]2)CC1
REMARK SMILES IDX 7 1 6 4 5 6 32 7 33 8 2 13 1 14 3 18 4 22 8 26 9 27 31 28
REMARK SMILES IDX 10 29 30 31 11 33 29 34 12 35 13 37 14 40 15 43 16 44 17 46
REMARK SMILES IDX 18 47 19 48 28 49 20 50 27 52 21 53 22 54 26 55 23 56 25 57
REMARK SMILES IDX 24 59
REMARK H PARENT 7 2 7 3 6 5 32 9 32 10 33 11 33 12 1 15 1 16 1 17 3 19 3 20
REMARK H PARENT 3 21 4 23 4 24 4 25 9 30 31 32 11 36 29 38 12 39 14 41 14 42
REMARK H PARENT 15 45 19 51 26 58 23 60 25 61 24 62
REMARK Flexibility Score: inf
ROOT
ATOM      1  C   UNL     1     -46.238  32.062  24.676  1.00  0.00     0.036 C 
ATOM      2  H   UNL     1     -46.113  32.405  23.644  1.00  0.00     0.049 H 
ATOM      3  H   UNL     1     -45.266  31.697  25.025  1.00  0.00     0.049 H 
ENDROOT
BRANCH   1   4
ATOM      4  N   UNL     1     -47.242  31.006  24.770  1.00  0.00    -0.305 NA
ATOM      5  H   UNL     1     -47.014  30.417  25.571  1.00  0.00     0.123 HD
BRANCH   4   6
ATOM      6  C   UNL     1     -47.437  30.198  23.533  1.00  0.00     0.023 C 
ATOM      7  C   UNL     1     -46.764  28.829  23.561  1.00  0.00    -0.033 C 
ATOM      8  C   UNL     1     -46.228  29.895  22.660  1.00  0.00    -0.033 C 
ATOM      9  H   UNL     1     -46.164  28.552  24.421  1.00  0.00     0.029 H 
ATOM     10  H   UNL     1     -47.256  27.977  23.111  1.00  0.00     0.029 H 
ATOM     11  H   UNL     1     -45.258  30.311  22.914  1.00  0.00     0.029 H 
ATOM     12  H   UNL     1     -46.345  29.763  21.592  1.00  0.00     0.029 H 
BRANCH   6  13
ATOM     13  C   UNL     1     -48.868  30.299  22.909  1.00  0.00    -0.020 C 
BRANCH  13  14
ATOM     14  C   UNL     1     -49.668  28.978  22.947  1.00  0.00    -0.058 C 
ATOM     15  H   UNL     1     -50.680  29.115  23.340  1.00  0.00     0.024 H 
ATOM     16  H   UNL     1     -49.774  28.556  21.940  1.00  0.00     0.024 H 
ATOM     17  H   UNL     1     -49.168  28.218  23.556  1.00  0.00     0.024 H 
ENDBRANCH  13  14
BRANCH  13  18
ATOM     18  C   UNL     1     -49.681  31.363  23.678  1.00  0.00    -0.058 C 
ATOM     19  H   UNL     1     -50.333  31.926  23.001  1.00  0.00     0.024 H 
ATOM     20  H   UNL     1     -50.320  30.907  24.444  1.00  0.00     0.024 H 
ATOM     21  H   UNL     1     -49.023  32.078  24.184  1.00  0.00     0.024 H 
ENDBRANCH  13  18
BRANCH  13  22
ATOM     22  C   UNL     1     -48.779  30.722  21.427  1.00  0.00    -0.058 C 
ATOM     23  H   UNL     1     -48.445  29.888  20.801  1.00  0.00     0.024 H 
ATOM     24  H   UNL     1     -48.081  31.553  21.280  1.00  0.00     0.024 H 
ATOM     25  H   UNL     1     -49.753  31.055  21.050  1.00  0.00     0.024 H 
ENDBRANCH  13  22
ENDBRANCH   6  13
ENDBRANCH   4   6
ENDBRANCH   1   4
BRANCH   1  26
ATOM     26  C   UNL     1     -46.661  33.218  25.515  1.00  0.00     0.030 A 
ATOM     27  C   UNL     1     -47.912  33.722  25.812  1.00  0.00    -0.032 A 
ATOM     28  N   UNL     1     -45.744  33.994  26.183  1.00  0.00    -0.357 N 
ATOM     29  C   UNL     1     -47.743  34.836  26.680  1.00  0.00    -0.000 A 
ATOM     30  H   UNL     1     -48.852  33.333  25.445  1.00  0.00     0.065 H 
ATOM     31  C   UNL     1     -46.375  34.984  26.897  1.00  0.00     0.046 A 
ATOM     32  H   UNL     1     -44.743  33.863  26.122  1.00  0.00     0.166 HD
ATOM     33  C   UNL     1     -48.627  35.737  27.301  1.00  0.00    -0.052 A 
ATOM     34  C   UNL     1     -45.842  35.993  27.707  1.00  0.00    -0.033 A 
ATOM     35  C   UNL     1     -48.112  36.755  28.117  1.00  0.00    -0.057 A 
ATOM     36  H   UNL     1     -49.699  35.649  27.149  1.00  0.00     0.063 H 
ATOM     37  C   UNL     1     -46.733  36.883  28.330  1.00  0.00    -0.027 A 
ATOM     38  H   UNL     1     -44.768  36.090  27.849  1.00  0.00     0.065 H 
ATOM     39  H   UNL     1     -48.806  37.448  28.587  1.00  0.00     0.063 H 
BRANCH  37  40
ATOM     40  C   UNL     1     -46.194  37.998  29.192  1.00  0.00     0.043 C 
ATOM     41  H   UNL     1     -45.133  37.829  29.408  1.00  0.00     0.054 H 
ATOM     42  H   UNL     1     -46.721  38.029  30.151  1.00  0.00     0.054 H 
BRANCH  40  43
ATOM     43  N   UNL     1     -46.385  39.276  28.555  1.00  0.00    -0.347 N 
ATOM     44  C   UNL     1     -45.491  39.799  27.654  1.00  0.00     0.270 C 
ATOM     45  H   UNL     1     -47.306  39.703  28.567  1.00  0.00     0.164 HD
ATOM     46  O   UNL     1     -44.388  39.322  27.414  1.00  0.00    -0.268 OA
BRANCH  44  47
ATOM     47  C   UNL     1     -46.024  41.035  26.969  1.00  0.00     0.136 A 
ATOM     48  C   UNL     1     -45.149  41.735  26.243  1.00  0.00     0.035 A 
ATOM     49  N   UNL     1     -47.354  41.357  27.123  1.00  0.00    -0.225 NA
ATOM     50  C   UNL     1     -45.625  42.940  25.554  1.00  0.00     0.258 A 
ATOM     51  H   UNL     1     -44.107  41.470  26.128  1.00  0.00     0.071 H 
ATOM     52  C   UNL     1     -47.770  42.422  26.508  1.00  0.00     0.140 A 
ATOM     53  O   UNL     1     -44.825  43.594  24.885  1.00  0.00    -0.269 OA
ATOM     54  N   UNL     1     -46.969  43.242  25.722  1.00  0.00    -0.268 N 
ATOM     55  C   UNL     1     -49.204  42.808  26.643  1.00  0.00    -0.019 A 
ATOM     56  C   UNL     1     -47.493  44.367  25.097  1.00  0.00     0.014 A 
ATOM     57  C   UNL     1     -49.663  43.901  26.022  1.00  0.00    -0.057 A 
ATOM     58  H   UNL     1     -49.836  42.175  27.253  1.00  0.00     0.066 H 
ATOM     59  C   UNL     1     -48.782  44.709  25.223  1.00  0.00    -0.045 A 
ATOM     60  H   UNL     1     -46.809  44.963  24.497  1.00  0.00     0.082 H 
ATOM     61  H   UNL     1     -50.702  44.199  26.108  1.00  0.00     0.062 H 
ATOM     62  H   UNL     1     -49.180  45.590  24.730  1.00  0.00     0.064 H 
ENDBRANCH  44  47
ENDBRANCH  40  43
ENDBRANCH  37  40
ENDBRANCH   1  26
TORSDOF 10
ENDMDL
