MODEL 1
REMARK VINA RESULT:     -11.3      0.000      0.000
REMARK SMILES Cn1ccc(-c2cn([C@H]3C[C@H](O)[C@@H](COc4ccc5ccc(N6CC(N)C6)nc5c4)O3)c3ncnc(N)c23)n1
REMARK SMILES IDX 14 1 13 4 9 5 10 6 31 7 11 9 8 14 6 15 7 16 38 17 32 19
REMARK SMILES IDX 36 20 33 21 35 22 34 23 5 25 2 26 3 27 39 28 4 29 1 32 37 36
REMARK SMILES IDX 12 39 15 41 16 42 17 43 30 44 18 45 29 47 19 49 28 51 20 52
REMARK SMILES IDX 22 53 21 54 23 57 24 58 27 59 25 60 26 66
REMARK H PARENT 14 2 14 3 9 8 10 10 10 11 11 12 13 13 7 18 34 24 3 30 4 31
REMARK H PARENT 1 33 1 34 1 35 37 37 37 38 12 40 17 46 30 48 18 50 20 55 21 56
REMARK H PARENT 24 61 24 62 27 63 27 64 25 65 26 67 26 68
REMARK Flexibility Score: inf
ROOT
ATOM      1  C   UNL     1     -46.807  35.904  26.707  1.00  0.00     0.117 C 
ATOM      2  H   UNL     1     -46.198  35.870  25.797  1.00  0.00     0.073 H 
ATOM      3  H   UNL     1     -47.337  36.863  26.689  1.00  0.00     0.073 H 
ENDROOT
BRANCH   1   4
ATOM      4  C   UNL     1     -45.970  35.823  27.998  1.00  0.00     0.120 C 
ATOM      5  C   UNL     1     -45.046  37.753  28.974  1.00  0.00     0.138 C 
ATOM      6  C   UNL     1     -46.488  37.652  29.452  1.00  0.00     0.022 C 
ATOM      7  O   UNL     1     -44.899  36.791  27.917  1.00  0.00    -0.348 OA
ATOM      8  H   UNL     1     -44.351  37.472  29.773  1.00  0.00     0.085 H 
ATOM      9  C   UNL     1     -46.774  36.185  29.253  1.00  0.00     0.088 C 
ATOM     10  H   UNL     1     -46.592  37.994  30.487  1.00  0.00     0.034 H 
ATOM     11  H   UNL     1     -47.168  38.241  28.827  1.00  0.00     0.034 H 
ATOM     12  H   UNL     1     -47.840  35.953  29.170  1.00  0.00     0.063 H 
ATOM     13  H   UNL     1     -45.508  34.833  28.088  1.00  0.00     0.067 H 
BRANCH   5  14
ATOM     14  N   UNL     1     -44.679  39.064  28.464  1.00  0.00    -0.305 N 
ATOM     15  C   UNL     1     -44.626  40.915  27.214  1.00  0.00     0.033 A 
ATOM     16  C   UNL     1     -45.291  39.721  27.421  1.00  0.00     0.019 A 
ATOM     17  C   UNL     1     -43.552  40.979  28.153  1.00  0.00     0.071 A 
ATOM     18  H   UNL     1     -46.136  39.286  26.907  1.00  0.00     0.083 H 
ATOM     19  C   UNL     1     -43.649  39.836  28.944  1.00  0.00     0.148 A 
ATOM     20  C   UNL     1     -42.487  41.850  28.450  1.00  0.00     0.137 A 
ATOM     21  N   UNL     1     -42.864  39.519  29.988  1.00  0.00    -0.218 NA
ATOM     22  N   UNL     1     -41.682  41.569  29.495  1.00  0.00    -0.219 NA
ATOM     23  C   UNL     1     -41.909  40.440  30.189  1.00  0.00     0.120 A 
ATOM     24  H   UNL     1     -41.230  40.248  31.015  1.00  0.00     0.106 H 
BRANCH  15  25
ATOM     25  C   UNL     1     -44.960  41.924  26.204  1.00  0.00     0.095 A 
ATOM     26  N   UNL     1     -45.901  43.526  25.194  1.00  0.00    -0.275 N 
ATOM     27  C   UNL     1     -44.904  43.133  24.352  1.00  0.00     0.025 A 
ATOM     28  N   UNL     1     -45.963  42.805  26.330  1.00  0.00    -0.173 NA
ATOM     29  C   UNL     1     -44.271  42.087  24.982  1.00  0.00    -0.016 A 
ATOM     30  H   UNL     1     -44.725  43.620  23.403  1.00  0.00     0.084 H 
ATOM     31  H   UNL     1     -43.416  41.536  24.618  1.00  0.00     0.066 H 
BRANCH  26  32
ATOM     32  C   UNL     1     -46.840  44.601  24.984  1.00  0.00     0.030 C 
ATOM     33  H   UNL     1     -46.312  45.557  25.012  1.00  0.00     0.048 H 
ATOM     34  H   UNL     1     -47.589  44.564  25.780  1.00  0.00     0.048 H 
ATOM     35  H   UNL     1     -47.310  44.462  24.006  1.00  0.00     0.048 H 
ENDBRANCH  26  32
ENDBRANCH  15  25
BRANCH  20  36
ATOM     36  N   UNL     1     -42.194  43.005  27.729  1.00  0.00    -0.383 N 
ATOM     37  H   UNL     1     -41.947  42.778  26.759  1.00  0.00     0.158 HD
ATOM     38  H   UNL     1     -42.932  43.685  27.850  1.00  0.00     0.158 HD
ENDBRANCH  20  36
ENDBRANCH   5  14
BRANCH   9  39
ATOM     39  O   UNL     1     -46.268  35.464  30.379  1.00  0.00    -0.390 OA
ATOM     40  H   UNL     1     -46.967  35.423  31.053  1.00  0.00     0.211 HD
ENDBRANCH   9  39
ENDBRANCH   1   4
BRANCH   1  41
ATOM     41  O   UNL     1     -47.852  34.918  26.666  1.00  0.00    -0.491 OA
BRANCH  41  42
ATOM     42  C   UNL     1     -47.623  33.730  26.031  1.00  0.00     0.121 A 
ATOM     43  C   UNL     1     -46.653  33.772  25.032  1.00  0.00    -0.019 A 
ATOM     44  C   UNL     1     -48.260  32.521  26.305  1.00  0.00     0.007 A 
ATOM     45  C   UNL     1     -46.368  32.634  24.279  1.00  0.00    -0.049 A 
ATOM     46  H   UNL     1     -46.133  34.703  24.823  1.00  0.00     0.066 H 
ATOM     47  C   UNL     1     -48.016  31.377  25.555  1.00  0.00     0.076 A 
ATOM     48  H   UNL     1     -48.997  32.436  27.092  1.00  0.00     0.069 H 
ATOM     49  C   UNL     1     -47.062  31.439  24.524  1.00  0.00     0.001 A 
ATOM     50  H   UNL     1     -45.624  32.691  23.488  1.00  0.00     0.063 H 
ATOM     51  N   UNL     1     -48.714  30.263  25.824  1.00  0.00    -0.231 NA
ATOM     52  C   UNL     1     -46.859  30.285  23.759  1.00  0.00    -0.049 A 
ATOM     53  C   UNL     1     -48.547  29.167  25.051  1.00  0.00     0.129 A 
ATOM     54  C   UNL     1     -47.618  29.145  24.018  1.00  0.00    -0.019 A 
ATOM     55  H   UNL     1     -46.140  30.275  22.946  1.00  0.00     0.063 H 
ATOM     56  H   UNL     1     -47.496  28.263  23.401  1.00  0.00     0.066 H 
BRANCH  53  57
ATOM     57  N   UNL     1     -49.382  28.072  25.285  1.00  0.00    -0.353 N 
ATOM     58  C   UNL     1     -50.322  27.403  24.442  1.00  0.00     0.036 C 
ATOM     59  C   UNL     1     -49.028  26.877  25.991  1.00  0.00     0.036 C 
ATOM     60  C   UNL     1     -50.369  26.287  25.514  1.00  0.00     0.040 C 
ATOM     61  H   UNL     1     -49.880  27.100  23.487  1.00  0.00     0.051 H 
ATOM     62  H   UNL     1     -51.242  27.969  24.268  1.00  0.00     0.051 H 
ATOM     63  H   UNL     1     -48.139  26.393  25.573  1.00  0.00     0.051 H 
ATOM     64  H   UNL     1     -48.910  27.034  27.063  1.00  0.00     0.051 H 
ATOM     65  H   UNL     1     -50.348  25.256  25.153  1.00  0.00     0.050 H 
BRANCH  60  66
ATOM     66  N   UNL     1     -51.419  26.575  26.512  1.00  0.00    -0.325 NA
ATOM     67  H   UNL     1     -52.351  26.281  26.189  1.00  0.00     0.119 HD
ATOM     68  H   UNL     1     -51.298  26.006  27.355  1.00  0.00     0.119 HD
ENDBRANCH  60  66
ENDBRANCH  53  57
ENDBRANCH  41  42
ENDBRANCH   1  41
TORSDOF 10
ENDMDL
MODEL 2
REMARK VINA RESULT:      -9.9      1.839      2.808
REMARK SMILES Cn1ccc(-c2cn([C@H]3C[C@H](O)[C@@H](COc4ccc5ccc(N6CC(N)C6)nc5c4)O3)c3ncnc(N)c23)n1
REMARK SMILES IDX 14 1 13 4 9 5 10 6 31 7 11 9 8 14 6 15 7 16 38 17 32 19
REMARK SMILES IDX 36 20 33 21 35 22 34 23 5 25 2 26 3 27 39 28 4 29 1 32 37 36
REMARK SMILES IDX 12 39 15 41 16 42 17 43 30 44 18 45 29 47 19 49 28 51 20 52
REMARK SMILES IDX 22 53 21 54 23 57 24 58 27 59 25 60 26 66
REMARK H PARENT 14 2 14 3 9 8 10 10 10 11 11 12 13 13 7 18 34 24 3 30 4 31
REMARK H PARENT 1 33 1 34 1 35 37 37 37 38 12 40 17 46 30 48 18 50 20 55 21 56
REMARK H PARENT 24 61 24 62 27 63 27 64 25 65 26 67 26 68
REMARK Flexibility Score: inf
ROOT
ATOM      1  C   UNL     1     -47.716  36.014  27.296  1.00  0.00     0.117 C 
ATOM      2  H   UNL     1     -47.562  36.314  26.254  1.00  0.00     0.073 H 
ATOM      3  H   UNL     1     -48.487  36.679  27.700  1.00  0.00     0.073 H 
ENDROOT
BRANCH   1   4
ATOM      4  C   UNL     1     -46.446  36.145  28.157  1.00  0.00     0.120 C 
ATOM      5  C   UNL     1     -45.360  38.214  28.419  1.00  0.00     0.138 C 
ATOM      6  C   UNL     1     -46.498  38.170  29.430  1.00  0.00     0.022 C 
ATOM      7  O   UNL     1     -45.560  37.102  27.532  1.00  0.00    -0.348 OA
ATOM      8  H   UNL     1     -44.394  38.070  28.915  1.00  0.00     0.085 H 
ATOM      9  C   UNL     1     -46.731  36.687  29.563  1.00  0.00     0.088 C 
ATOM     10  H   UNL     1     -46.222  38.668  30.366  1.00  0.00     0.034 H 
ATOM     11  H   UNL     1     -47.406  38.647  29.044  1.00  0.00     0.034 H 
ATOM     12  H   UNL     1     -47.728  36.431  29.934  1.00  0.00     0.063 H 
ATOM     13  H   UNL     1     -45.915  35.187  28.196  1.00  0.00     0.067 H 
BRANCH   5  14
ATOM     14  N   UNL     1     -45.312  39.435  27.631  1.00  0.00    -0.305 N 
ATOM     15  C   UNL     1     -44.541  41.191  26.487  1.00  0.00     0.033 A 
ATOM     16  C   UNL     1     -44.173  40.033  27.143  1.00  0.00     0.019 A 
ATOM     17  C   UNL     1     -45.960  41.318  26.596  1.00  0.00     0.071 A 
ATOM     18  H   UNL     1     -43.200  39.596  27.310  1.00  0.00     0.083 H 
ATOM     19  C   UNL     1     -46.407  40.183  27.270  1.00  0.00     0.148 A 
ATOM     20  C   UNL     1     -46.948  42.248  26.225  1.00  0.00     0.137 A 
ATOM     21  N   UNL     1     -47.685  39.870  27.544  1.00  0.00    -0.218 NA
ATOM     22  N   UNL     1     -48.242  41.965  26.477  1.00  0.00    -0.219 NA
ATOM     23  C   UNL     1     -48.532  40.818  27.114  1.00  0.00     0.120 A 
ATOM     24  H   UNL     1     -49.585  40.636  27.306  1.00  0.00     0.106 H 
BRANCH  15  25
ATOM     25  C   UNL     1     -43.635  42.125  25.810  1.00  0.00     0.095 A 
ATOM     26  N   UNL     1     -42.782  43.410  24.363  1.00  0.00    -0.275 N 
ATOM     27  C   UNL     1     -41.914  43.457  25.412  1.00  0.00     0.025 A 
ATOM     28  N   UNL     1     -43.841  42.603  24.574  1.00  0.00    -0.173 NA
ATOM     29  C   UNL     1     -42.441  42.627  26.374  1.00  0.00    -0.016 A 
ATOM     30  H   UNL     1     -41.021  44.066  25.394  1.00  0.00     0.084 H 
ATOM     31  H   UNL     1     -42.031  42.431  27.353  1.00  0.00     0.066 H 
BRANCH  26  32
ATOM     32  C   UNL     1     -42.674  44.125  23.114  1.00  0.00     0.030 C 
ATOM     33  H   UNL     1     -43.665  44.459  22.799  1.00  0.00     0.048 H 
ATOM     34  H   UNL     1     -42.251  43.449  22.366  1.00  0.00     0.048 H 
ATOM     35  H   UNL     1     -42.019  44.987  23.267  1.00  0.00     0.048 H 
ENDBRANCH  26  32
ENDBRANCH  15  25
BRANCH  20  36
ATOM     36  N   UNL     1     -46.685  43.466  25.603  1.00  0.00    -0.383 N 
ATOM     37  H   UNL     1     -46.584  43.345  24.589  1.00  0.00     0.158 HD
ATOM     38  H   UNL     1     -47.356  44.160  25.902  1.00  0.00     0.158 HD
ENDBRANCH  20  36
ENDBRANCH   5  14
BRANCH   9  39
ATOM     39  O   UNL     1     -45.782  36.156  30.490  1.00  0.00    -0.390 OA
ATOM     40  H   UNL     1     -46.182  36.171  31.377  1.00  0.00     0.211 HD
ENDBRANCH   9  39
ENDBRANCH   1   4
BRANCH   1  41
ATOM     41  O   UNL     1     -48.301  34.703  27.375  1.00  0.00    -0.491 OA
BRANCH  41  42
ATOM     42  C   UNL     1     -47.923  33.749  26.472  1.00  0.00     0.121 A 
ATOM     43  C   UNL     1     -46.761  34.038  25.760  1.00  0.00    -0.019 A 
ATOM     44  C   UNL     1     -48.586  32.548  26.225  1.00  0.00     0.007 A 
ATOM     45  C   UNL     1     -46.303  33.164  24.774  1.00  0.00    -0.049 A 
ATOM     46  H   UNL     1     -46.222  34.961  25.956  1.00  0.00     0.066 H 
ATOM     47  C   UNL     1     -48.169  31.670  25.233  1.00  0.00     0.076 A 
ATOM     48  H   UNL     1     -49.474  32.270  26.777  1.00  0.00     0.069 H 
ATOM     49  C   UNL     1     -47.016  31.988  24.493  1.00  0.00     0.001 A 
ATOM     50  H   UNL     1     -45.408  33.417  24.212  1.00  0.00     0.063 H 
ATOM     51  N   UNL     1     -48.892  30.564  24.999  1.00  0.00    -0.231 NA
ATOM     52  C   UNL     1     -46.636  31.107  23.475  1.00  0.00    -0.049 A 
ATOM     53  C   UNL     1     -48.546  29.743  23.982  1.00  0.00     0.129 A 
ATOM     54  C   UNL     1     -47.416  29.983  23.211  1.00  0.00    -0.019 A 
ATOM     55  H   UNL     1     -45.758  31.304  22.867  1.00  0.00     0.063 H 
ATOM     56  H   UNL     1     -47.151  29.322  22.395  1.00  0.00     0.066 H 
BRANCH  53  57
ATOM     57  N   UNL     1     -49.396  28.673  23.693  1.00  0.00    -0.353 N 
ATOM     58  C   UNL     1     -50.822  28.578  23.671  1.00  0.00     0.036 C 
ATOM     59  C   UNL     1     -49.227  27.724  22.633  1.00  0.00     0.036 C 
ATOM     60  C   UNL     1     -50.641  27.211  22.967  1.00  0.00     0.040 C 
ATOM     61  H   UNL     1     -51.280  29.354  23.050  1.00  0.00     0.051 H 
ATOM     62  H   UNL     1     -51.280  28.572  24.664  1.00  0.00     0.051 H 
ATOM     63  H   UNL     1     -49.133  28.205  21.653  1.00  0.00     0.051 H 
ATOM     64  H   UNL     1     -48.398  27.038  22.804  1.00  0.00     0.051 H 
ATOM     65  H   UNL     1     -51.297  27.003  22.119  1.00  0.00     0.050 H 
BRANCH  60  66
ATOM     66  N   UNL     1     -50.550  26.126  23.964  1.00  0.00    -0.325 NA
ATOM     67  H   UNL     1     -49.923  26.367  24.743  1.00  0.00     0.119 HD
ATOM     68  H   UNL     1     -51.444  25.987  24.447  1.00  0.00     0.119 HD
ENDBRANCH  60  66
ENDBRANCH  53  57
ENDBRANCH  41  42
ENDBRANCH   1  41
TORSDOF 10
ENDMDL
MODEL 3
REMARK VINA RESULT:      -9.8      1.885      2.606
REMARK SMILES Cn1ccc(-c2cn([C@H]3C[C@H](O)[C@@H](COc4ccc5ccc(N6CC(N)C6)nc5c4)O3)c3ncnc(N)c23)n1
REMARK SMILES IDX 14 1 13 4 9 5 10 6 31 7 11 9 8 14 6 15 7 16 38 17 32 19
REMARK SMILES IDX 36 20 33 21 35 22 34 23 5 25 2 26 3 27 39 28 4 29 1 32 37 36
REMARK SMILES IDX 12 39 15 41 16 42 17 43 30 44 18 45 29 47 19 49 28 51 20 52
REMARK SMILES IDX 22 53 21 54 23 57 24 58 27 59 25 60 26 66
REMARK H PARENT 14 2 14 3 9 8 10 10 10 11 11 12 13 13 7 18 34 24 3 30 4 31
REMARK H PARENT 1 33 1 34 1 35 37 37 37 38 12 40 17 46 30 48 18 50 20 55 21 56
REMARK H PARENT 24 61 24 62 27 63 27 64 25 65 26 67 26 68
REMARK Flexibility Score: inf
ROOT
ATOM      1  C   UNL     1     -46.783  36.142  27.109  1.00  0.00     0.117 C 
ATOM      2  H   UNL     1     -46.289  35.765  26.207  1.00  0.00     0.073 H 
ATOM      3  H   UNL     1     -47.065  37.180  26.898  1.00  0.00     0.073 H 
ENDROOT
BRANCH   1   4
ATOM      4  C   UNL     1     -45.874  36.117  28.353  1.00  0.00     0.120 C 
ATOM      5  C   UNL     1     -44.877  38.083  29.172  1.00  0.00     0.138 C 
ATOM      6  C   UNL     1     -46.290  38.025  29.736  1.00  0.00     0.022 C 
ATOM      7  O   UNL     1     -44.800  37.066  28.160  1.00  0.00    -0.348 OA
ATOM      8  H   UNL     1     -44.140  37.835  29.944  1.00  0.00     0.085 H 
ATOM      9  C   UNL     1     -46.600  36.553  29.631  1.00  0.00     0.088 C 
ATOM     10  H   UNL     1     -46.330  38.422  30.756  1.00  0.00     0.034 H 
ATOM     11  H   UNL     1     -46.999  38.590  29.121  1.00  0.00     0.034 H 
ATOM     12  H   UNL     1     -47.672  36.331  29.621  1.00  0.00     0.063 H 
ATOM     13  H   UNL     1     -45.418  35.128  28.468  1.00  0.00     0.067 H 
BRANCH   5  14
ATOM     14  N   UNL     1     -44.528  39.362  28.574  1.00  0.00    -0.305 N 
ATOM     15  C   UNL     1     -44.532  41.146  27.230  1.00  0.00     0.033 A 
ATOM     16  C   UNL     1     -45.196  39.975  27.540  1.00  0.00     0.019 A 
ATOM     17  C   UNL     1     -43.400  41.242  28.096  1.00  0.00     0.071 A 
ATOM     18  H   UNL     1     -46.077  39.527  27.102  1.00  0.00     0.083 H 
ATOM     19  C   UNL     1     -43.460  40.141  28.948  1.00  0.00     0.148 A 
ATOM     20  C   UNL     1     -42.308  42.110  28.282  1.00  0.00     0.137 A 
ATOM     21  N   UNL     1     -42.615  39.866  29.957  1.00  0.00    -0.218 NA
ATOM     22  N   UNL     1     -41.443  41.870  29.287  1.00  0.00    -0.219 NA
ATOM     23  C   UNL     1     -41.638  40.780  30.050  1.00  0.00     0.120 A 
ATOM     24  H   UNL     1     -40.911  40.620  30.841  1.00  0.00     0.106 H 
BRANCH  15  25
ATOM     25  C   UNL     1     -44.917  42.109  26.194  1.00  0.00     0.095 A 
ATOM     26  N   UNL     1     -45.925  43.647  25.149  1.00  0.00    -0.275 N 
ATOM     27  C   UNL     1     -44.938  43.250  24.298  1.00  0.00     0.025 A 
ATOM     28  N   UNL     1     -45.940  42.967  26.313  1.00  0.00    -0.173 NA
ATOM     29  C   UNL     1     -44.262  42.245  24.949  1.00  0.00    -0.016 A 
ATOM     30  H   UNL     1     -44.795  43.706  23.329  1.00  0.00     0.084 H 
ATOM     31  H   UNL     1     -43.401  41.703  24.585  1.00  0.00     0.066 H 
BRANCH  26  32
ATOM     32  C   UNL     1     -46.898  44.689  24.924  1.00  0.00     0.030 C 
ATOM     33  H   UNL     1     -47.781  44.264  24.441  1.00  0.00     0.048 H 
ATOM     34  H   UNL     1     -46.447  45.448  24.280  1.00  0.00     0.048 H 
ATOM     35  H   UNL     1     -47.172  45.118  25.892  1.00  0.00     0.048 H 
ENDBRANCH  26  32
ENDBRANCH  15  25
BRANCH  20  36
ATOM     36  N   UNL     1     -42.048  43.223  27.486  1.00  0.00    -0.383 N 
ATOM     37  H   UNL     1     -41.486  42.964  26.667  1.00  0.00     0.158 HD
ATOM     38  H   UNL     1     -42.907  43.721  27.294  1.00  0.00     0.158 HD
ENDBRANCH  20  36
ENDBRANCH   5  14
BRANCH   9  39
ATOM     39  O   UNL     1     -46.037  35.885  30.762  1.00  0.00    -0.390 OA
ATOM     40  H   UNL     1     -46.232  34.935  30.682  1.00  0.00     0.211 HD
ENDBRANCH   9  39
ENDBRANCH   1   4
BRANCH   1  41
ATOM     41  O   UNL     1     -48.035  35.472  27.330  1.00  0.00    -0.491 OA
BRANCH  41  42
ATOM     42  C   UNL     1     -48.360  34.393  26.557  1.00  0.00     0.121 A 
ATOM     43  C   UNL     1     -49.709  34.048  26.562  1.00  0.00    -0.019 A 
ATOM     44  C   UNL     1     -47.473  33.644  25.785  1.00  0.00     0.007 A 
ATOM     45  C   UNL     1     -50.154  32.934  25.851  1.00  0.00    -0.049 A 
ATOM     46  H   UNL     1     -50.415  34.636  27.143  1.00  0.00     0.066 H 
ATOM     47  C   UNL     1     -47.882  32.514  25.087  1.00  0.00     0.076 A 
ATOM     48  H   UNL     1     -46.423  33.895  25.728  1.00  0.00     0.069 H 
ATOM     49  C   UNL     1     -49.240  32.151  25.129  1.00  0.00     0.001 A 
ATOM     50  H   UNL     1     -51.207  32.666  25.886  1.00  0.00     0.063 H 
ATOM     51  N   UNL     1     -46.965  31.796  24.420  1.00  0.00    -0.231 NA
ATOM     52  C   UNL     1     -49.621  30.990  24.448  1.00  0.00    -0.049 A 
ATOM     53  C   UNL     1     -47.333  30.650  23.805  1.00  0.00     0.129 A 
ATOM     54  C   UNL     1     -48.656  30.228  23.793  1.00  0.00    -0.019 A 
ATOM     55  H   UNL     1     -50.655  30.658  24.450  1.00  0.00     0.063 H 
ATOM     56  H   UNL     1     -48.939  29.305  23.302  1.00  0.00     0.066 H 
BRANCH  53  57
ATOM     57  N   UNL     1     -46.327  29.869  23.230  1.00  0.00    -0.353 N 
ATOM     58  C   UNL     1     -46.186  28.453  23.106  1.00  0.00     0.036 C 
ATOM     59  C   UNL     1     -45.656  30.136  21.993  1.00  0.00     0.036 C 
ATOM     60  C   UNL     1     -45.026  28.735  22.119  1.00  0.00     0.040 C 
ATOM     61  H   UNL     1     -47.067  27.986  22.653  1.00  0.00     0.051 H 
ATOM     62  H   UNL     1     -45.933  27.949  24.043  1.00  0.00     0.051 H 
ATOM     63  H   UNL     1     -46.354  30.252  21.156  1.00  0.00     0.051 H 
ATOM     64  H   UNL     1     -44.981  30.989  22.050  1.00  0.00     0.051 H 
ATOM     65  H   UNL     1     -44.995  28.131  21.209  1.00  0.00     0.050 H 
BRANCH  60  66
ATOM     66  N   UNL     1     -43.744  28.833  22.845  1.00  0.00    -0.325 NA
ATOM     67  H   UNL     1     -43.388  27.910  23.127  1.00  0.00     0.119 HD
ATOM     68  H   UNL     1     -42.994  29.171  22.234  1.00  0.00     0.119 HD
ENDBRANCH  60  66
ENDBRANCH  53  57
ENDBRANCH  41  42
ENDBRANCH   1  41
TORSDOF 10
ENDMDL
MODEL 4
REMARK VINA RESULT:      -9.5      5.230      8.259
REMARK SMILES Cn1ccc(-c2cn([C@H]3C[C@H](O)[C@@H](COc4ccc5ccc(N6CC(N)C6)nc5c4)O3)c3ncnc(N)c23)n1
REMARK SMILES IDX 14 1 13 4 9 5 10 6 31 7 11 9 8 14 6 15 7 16 38 17 32 19
REMARK SMILES IDX 36 20 33 21 35 22 34 23 5 25 2 26 3 27 39 28 4 29 1 32 37 36
REMARK SMILES IDX 12 39 15 41 16 42 17 43 30 44 18 45 29 47 19 49 28 51 20 52
REMARK SMILES IDX 22 53 21 54 23 57 24 58 27 59 25 60 26 66
REMARK H PARENT 14 2 14 3 9 8 10 10 10 11 11 12 13 13 7 18 34 24 3 30 4 31
REMARK H PARENT 1 33 1 34 1 35 37 37 37 38 12 40 17 46 30 48 18 50 20 55 21 56
REMARK H PARENT 24 61 24 62 27 63 27 64 25 65 26 67 26 68
REMARK Flexibility Score: inf
ROOT
ATOM      1  C   UNL     1     -47.633  36.364  27.177  1.00  0.00     0.117 C 
ATOM      2  H   UNL     1     -47.604  35.743  26.275  1.00  0.00     0.073 H 
ATOM      3  H   UNL     1     -47.554  37.404  26.840  1.00  0.00     0.073 H 
ENDROOT
BRANCH   1   4
ATOM      4  C   UNL     1     -46.478  36.068  28.152  1.00  0.00     0.120 C 
ATOM      5  C   UNL     1     -45.059  37.781  28.915  1.00  0.00     0.138 C 
ATOM      6  C   UNL     1     -46.301  37.798  29.796  1.00  0.00     0.022 C 
ATOM      7  O   UNL     1     -45.355  36.912  27.810  1.00  0.00    -0.348 OA
ATOM      8  H   UNL     1     -44.207  37.349  29.453  1.00  0.00     0.085 H 
ATOM      9  C   UNL     1     -46.827  36.398  29.609  1.00  0.00     0.088 C 
ATOM     10  H   UNL     1     -46.053  38.051  30.833  1.00  0.00     0.034 H 
ATOM     11  H   UNL     1     -47.045  38.516  29.437  1.00  0.00     0.034 H 
ATOM     12  H   UNL     1     -47.893  36.297  29.835  1.00  0.00     0.063 H 
ATOM     13  H   UNL     1     -46.148  35.029  28.044  1.00  0.00     0.067 H 
BRANCH   5  14
ATOM     14  N   UNL     1     -44.681  39.085  28.394  1.00  0.00    -0.305 N 
ATOM     15  C   UNL     1     -44.602  40.918  27.120  1.00  0.00     0.033 A 
ATOM     16  C   UNL     1     -45.272  39.728  27.331  1.00  0.00     0.019 A 
ATOM     17  C   UNL     1     -43.546  40.995  28.079  1.00  0.00     0.071 A 
ATOM     18  H   UNL     1     -46.106  39.286  26.807  1.00  0.00     0.083 H 
ATOM     19  C   UNL     1     -43.660  39.863  28.884  1.00  0.00     0.148 A 
ATOM     20  C   UNL     1     -42.487  41.869  28.385  1.00  0.00     0.137 A 
ATOM     21  N   UNL     1     -42.896  39.560  29.948  1.00  0.00    -0.218 NA
ATOM     22  N   UNL     1     -41.703  41.602  29.450  1.00  0.00    -0.219 NA
ATOM     23  C   UNL     1     -41.944  40.483  30.154  1.00  0.00     0.120 A 
ATOM     24  H   UNL     1     -41.281  40.303  30.996  1.00  0.00     0.106 H 
BRANCH  15  25
ATOM     25  C   UNL     1     -44.915  41.913  26.090  1.00  0.00     0.095 A 
ATOM     26  N   UNL     1     -44.773  43.165  24.392  1.00  0.00    -0.275 N 
ATOM     27  C   UNL     1     -45.990  43.460  24.929  1.00  0.00     0.025 A 
ATOM     28  N   UNL     1     -44.092  42.227  25.079  1.00  0.00    -0.173 NA
ATOM     29  C   UNL     1     -46.113  42.660  26.041  1.00  0.00    -0.016 A 
ATOM     30  H   UNL     1     -46.655  44.188  24.486  1.00  0.00     0.084 H 
ATOM     31  H   UNL     1     -46.960  42.609  26.710  1.00  0.00     0.066 H 
BRANCH  26  32
ATOM     32  C   UNL     1     -44.189  43.735  23.202  1.00  0.00     0.030 C 
ATOM     33  H   UNL     1     -43.247  43.229  22.980  1.00  0.00     0.048 H 
ATOM     34  H   UNL     1     -44.008  44.799  23.383  1.00  0.00     0.048 H 
ATOM     35  H   UNL     1     -44.891  43.599  22.375  1.00  0.00     0.048 H 
ENDBRANCH  26  32
ENDBRANCH  15  25
BRANCH  20  36
ATOM     36  N   UNL     1     -42.179  43.014  27.654  1.00  0.00    -0.383 N 
ATOM     37  H   UNL     1     -42.918  43.221  26.972  1.00  0.00     0.158 HD
ATOM     38  H   UNL     1     -41.931  43.768  28.280  1.00  0.00     0.158 HD
ENDBRANCH  20  36
ENDBRANCH   5  14
BRANCH   9  39
ATOM     39  O   UNL     1     -46.120  35.521  30.488  1.00  0.00    -0.390 OA
ATOM     40  H   UNL     1     -46.295  35.802  31.403  1.00  0.00     0.211 HD
ENDBRANCH   9  39
ENDBRANCH   1   4
BRANCH   1  41
ATOM     41  O   UNL     1     -48.920  36.293  27.813  1.00  0.00    -0.491 OA
BRANCH  41  42
ATOM     42  C   UNL     1     -49.633  37.444  28.007  1.00  0.00     0.121 A 
ATOM     43  C   UNL     1     -51.008  37.269  28.146  1.00  0.00    -0.019 A 
ATOM     44  C   UNL     1     -49.103  38.731  28.080  1.00  0.00     0.007 A 
ATOM     45  C   UNL     1     -51.846  38.373  28.298  1.00  0.00    -0.049 A 
ATOM     46  H   UNL     1     -51.432  36.269  28.112  1.00  0.00     0.066 H 
ATOM     47  C   UNL     1     -49.915  39.851  28.205  1.00  0.00     0.076 A 
ATOM     48  H   UNL     1     -48.039  38.908  28.008  1.00  0.00     0.069 H 
ATOM     49  C   UNL     1     -51.305  39.669  28.307  1.00  0.00     0.001 A 
ATOM     50  H   UNL     1     -52.919  38.220  28.382  1.00  0.00     0.063 H 
ATOM     51  N   UNL     1     -49.347  41.067  28.199  1.00  0.00    -0.231 NA
ATOM     52  C   UNL     1     -52.104  40.813  28.396  1.00  0.00    -0.049 A 
ATOM     53  C   UNL     1     -50.129  42.170  28.237  1.00  0.00     0.129 A 
ATOM     54  C   UNL     1     -51.510  42.073  28.347  1.00  0.00    -0.019 A 
ATOM     55  H   UNL     1     -53.185  40.734  28.471  1.00  0.00     0.063 H 
ATOM     56  H   UNL     1     -52.129  42.962  28.371  1.00  0.00     0.066 H 
BRANCH  53  57
ATOM     57  N   UNL     1     -49.507  43.414  28.102  1.00  0.00    -0.353 N 
ATOM     58  C   UNL     1     -49.303  44.248  26.961  1.00  0.00     0.036 C 
ATOM     59  C   UNL     1     -49.631  44.520  29.003  1.00  0.00     0.036 C 
ATOM     60  C   UNL     1     -48.885  45.363  27.951  1.00  0.00     0.040 C 
ATOM     61  H   UNL     1     -50.234  44.445  26.419  1.00  0.00     0.051 H 
ATOM     62  H   UNL     1     -48.538  43.879  26.273  1.00  0.00     0.051 H 
ATOM     63  H   UNL     1     -50.675  44.810  29.168  1.00  0.00     0.051 H 
ATOM     64  H   UNL     1     -49.125  44.354  29.954  1.00  0.00     0.051 H 
ATOM     65  H   UNL     1     -49.279  46.364  27.760  1.00  0.00     0.050 H 
BRANCH  60  66
ATOM     66  N   UNL     1     -47.433  45.305  28.210  1.00  0.00    -0.325 NA
ATOM     67  H   UNL     1     -47.111  44.345  28.397  1.00  0.00     0.119 HD
ATOM     68  H   UNL     1     -46.894  45.549  27.372  1.00  0.00     0.119 HD
ENDBRANCH  60  66
ENDBRANCH  53  57
ENDBRANCH  41  42
ENDBRANCH   1  41
TORSDOF 10
ENDMDL
MODEL 5
REMARK VINA RESULT:      -9.1      4.481      9.753
REMARK SMILES Cn1ccc(-c2cn([C@H]3C[C@H](O)[C@@H](COc4ccc5ccc(N6CC(N)C6)nc5c4)O3)c3ncnc(N)c23)n1
REMARK SMILES IDX 14 1 13 4 9 5 10 6 31 7 11 9 8 14 6 15 7 16 38 17 32 19
REMARK SMILES IDX 36 20 33 21 35 22 34 23 5 25 2 26 3 27 39 28 4 29 1 32 37 36
REMARK SMILES IDX 12 39 15 41 16 42 17 43 30 44 18 45 29 47 19 49 28 51 20 52
REMARK SMILES IDX 22 53 21 54 23 57 24 58 27 59 25 60 26 66
REMARK H PARENT 14 2 14 3 9 8 10 10 10 11 11 12 13 13 7 18 34 24 3 30 4 31
REMARK H PARENT 1 33 1 34 1 35 37 37 37 38 12 40 17 46 30 48 18 50 20 55 21 56
REMARK H PARENT 24 61 24 62 27 63 27 64 25 65 26 67 26 68
REMARK Flexibility Score: inf
ROOT
ATOM      1  C   UNL     1     -45.232  36.182  28.926  1.00  0.00     0.117 C 
ATOM      2  H   UNL     1     -44.612  36.262  28.026  1.00  0.00     0.073 H 
ATOM      3  H   UNL     1     -44.603  35.722  29.696  1.00  0.00     0.073 H 
ENDROOT
BRANCH   1   4
ATOM      4  C   UNL     1     -46.486  35.310  28.722  1.00  0.00     0.120 C 
ATOM      5  C   UNL     1     -48.479  36.224  27.872  1.00  0.00     0.138 C 
ATOM      6  C   UNL     1     -47.591  35.893  26.681  1.00  0.00     0.022 C 
ATOM      7  O   UNL     1     -47.654  36.098  29.043  1.00  0.00    -0.348 OA
ATOM      8  H   UNL     1     -49.293  35.496  27.965  1.00  0.00     0.085 H 
ATOM      9  C   UNL     1     -46.666  34.857  27.268  1.00  0.00     0.088 C 
ATOM     10  H   UNL     1     -48.180  35.538  25.829  1.00  0.00     0.034 H 
ATOM     11  H   UNL     1     -47.005  36.759  26.356  1.00  0.00     0.034 H 
ATOM     12  H   UNL     1     -45.723  34.753  26.724  1.00  0.00     0.063 H 
ATOM     13  H   UNL     1     -46.469  34.457  29.410  1.00  0.00     0.067 H 
BRANCH   5  14
ATOM     14  N   UNL     1     -49.041  37.565  27.841  1.00  0.00    -0.305 N 
ATOM     15  C   UNL     1     -49.279  39.756  27.480  1.00  0.00     0.033 A 
ATOM     16  C   UNL     1     -48.458  38.667  27.259  1.00  0.00     0.019 A 
ATOM     17  C   UNL     1     -50.397  39.306  28.246  1.00  0.00     0.071 A 
ATOM     18  H   UNL     1     -47.509  38.591  26.749  1.00  0.00     0.083 H 
ATOM     19  C   UNL     1     -50.238  37.931  28.407  1.00  0.00     0.148 A 
ATOM     20  C   UNL     1     -51.538  39.871  28.845  1.00  0.00     0.137 A 
ATOM     21  N   UNL     1     -51.091  37.095  29.024  1.00  0.00    -0.218 NA
ATOM     22  N   UNL     1     -52.420  39.064  29.468  1.00  0.00    -0.219 NA
ATOM     23  C   UNL     1     -52.151  37.749  29.525  1.00  0.00     0.120 A 
ATOM     24  H   UNL     1     -52.883  37.138  30.046  1.00  0.00     0.106 H 
BRANCH  15  25
ATOM     25  C   UNL     1     -49.037  41.127  27.019  1.00  0.00     0.095 A 
ATOM     26  N   UNL     1     -49.334  43.068  26.235  1.00  0.00    -0.275 N 
ATOM     27  C   UNL     1     -48.004  43.021  26.529  1.00  0.00     0.025 A 
ATOM     28  N   UNL     1     -49.990  41.927  26.519  1.00  0.00    -0.173 NA
ATOM     29  C   UNL     1     -47.777  41.765  27.041  1.00  0.00    -0.016 A 
ATOM     30  H   UNL     1     -47.346  43.863  26.362  1.00  0.00     0.084 H 
ATOM     31  H   UNL     1     -46.837  41.374  27.402  1.00  0.00     0.066 H 
BRANCH  26  32
ATOM     32  C   UNL     1     -50.061  44.186  25.683  1.00  0.00     0.030 C 
ATOM     33  H   UNL     1     -50.315  43.977  24.642  1.00  0.00     0.048 H 
ATOM     34  H   UNL     1     -49.425  45.074  25.743  1.00  0.00     0.048 H 
ATOM     35  H   UNL     1     -50.973  44.326  26.270  1.00  0.00     0.048 H 
ENDBRANCH  26  32
ENDBRANCH  15  25
BRANCH  20  36
ATOM     36  N   UNL     1     -51.829  41.233  28.844  1.00  0.00    -0.383 N 
ATOM     37  H   UNL     1     -52.397  41.487  29.661  1.00  0.00     0.158 HD
ATOM     38  H   UNL     1     -50.983  41.769  28.711  1.00  0.00     0.158 HD
ENDBRANCH  20  36
ENDBRANCH   5  14
BRANCH   9  39
ATOM     39  O   UNL     1     -47.321  33.587  27.233  1.00  0.00    -0.390 OA
ATOM     40  H   UNL     1     -46.663  32.900  27.439  1.00  0.00     0.211 HD
ENDBRANCH   9  39
ENDBRANCH   1   4
BRANCH   1  41
ATOM     41  O   UNL     1     -45.547  37.482  29.453  1.00  0.00    -0.491 OA
BRANCH  41  42
ATOM     42  C   UNL     1     -44.727  38.536  29.163  1.00  0.00     0.121 A 
ATOM     43  C   UNL     1     -43.726  38.781  30.101  1.00  0.00    -0.019 A 
ATOM     44  C   UNL     1     -44.810  39.350  28.035  1.00  0.00     0.007 A 
ATOM     45  C   UNL     1     -42.859  39.861  29.940  1.00  0.00    -0.049 A 
ATOM     46  H   UNL     1     -43.636  38.141  30.975  1.00  0.00     0.066 H 
ATOM     47  C   UNL     1     -43.978  40.448  27.860  1.00  0.00     0.076 A 
ATOM     48  H   UNL     1     -45.552  39.177  27.268  1.00  0.00     0.069 H 
ATOM     49  C   UNL     1     -42.995  40.710  28.830  1.00  0.00     0.001 A 
ATOM     50  H   UNL     1     -42.099  40.050  30.693  1.00  0.00     0.063 H 
ATOM     51  N   UNL     1     -44.157  41.233  26.786  1.00  0.00    -0.231 NA
ATOM     52  C   UNL     1     -42.192  41.842  28.650  1.00  0.00    -0.049 A 
ATOM     53  C   UNL     1     -43.409  42.351  26.644  1.00  0.00     0.129 A 
ATOM     54  C   UNL     1     -42.412  42.674  27.555  1.00  0.00    -0.019 A 
ATOM     55  H   UNL     1     -41.421  42.097  29.370  1.00  0.00     0.063 H 
ATOM     56  H   UNL     1     -41.822  43.576  27.435  1.00  0.00     0.066 H 
BRANCH  53  57
ATOM     57  N   UNL     1     -43.712  43.206  25.581  1.00  0.00    -0.353 N 
ATOM     58  C   UNL     1     -44.519  43.015  24.417  1.00  0.00     0.036 C 
ATOM     59  C   UNL     1     -44.026  44.599  25.682  1.00  0.00     0.036 C 
ATOM     60  C   UNL     1     -44.413  44.543  24.192  1.00  0.00     0.040 C 
ATOM     61  H   UNL     1     -45.525  42.659  24.663  1.00  0.00     0.051 H 
ATOM     62  H   UNL     1     -44.064  42.366  23.664  1.00  0.00     0.051 H 
ATOM     63  H   UNL     1     -44.860  44.790  26.366  1.00  0.00     0.051 H 
ATOM     64  H   UNL     1     -43.165  45.212  25.948  1.00  0.00     0.051 H 
ATOM     65  H   UNL     1     -45.330  45.064  23.906  1.00  0.00     0.050 H 
BRANCH  60  66
ATOM     66  N   UNL     1     -43.233  44.862  23.363  1.00  0.00    -0.325 NA
ATOM     67  H   UNL     1     -43.268  45.821  22.993  1.00  0.00     0.119 HD
ATOM     68  H   UNL     1     -42.377  44.883  23.925  1.00  0.00     0.119 HD
ENDBRANCH  60  66
ENDBRANCH  53  57
ENDBRANCH  41  42
ENDBRANCH   1  41
TORSDOF 10
ENDMDL
MODEL 6
REMARK VINA RESULT:      -8.9      2.521      3.741
REMARK SMILES Cn1ccc(-c2cn([C@H]3C[C@H](O)[C@@H](COc4ccc5ccc(N6CC(N)C6)nc5c4)O3)c3ncnc(N)c23)n1
REMARK SMILES IDX 14 1 13 4 9 5 10 6 31 7 11 9 8 14 6 15 7 16 38 17 32 19
REMARK SMILES IDX 36 20 33 21 35 22 34 23 5 25 2 26 3 27 39 28 4 29 1 32 37 36
REMARK SMILES IDX 12 39 15 41 16 42 17 43 30 44 18 45 29 47 19 49 28 51 20 52
REMARK SMILES IDX 22 53 21 54 23 57 24 58 27 59 25 60 26 66
REMARK H PARENT 14 2 14 3 9 8 10 10 10 11 11 12 13 13 7 18 34 24 3 30 4 31
REMARK H PARENT 1 33 1 34 1 35 37 37 37 38 12 40 17 46 30 48 18 50 20 55 21 56
REMARK H PARENT 24 61 24 62 27 63 27 64 25 65 26 67 26 68
REMARK Flexibility Score: inf
ROOT
ATOM      1  C   UNL     1     -45.722  37.557  27.353  1.00  0.00     0.117 C 
ATOM      2  H   UNL     1     -44.662  37.811  27.243  1.00  0.00     0.073 H 
ATOM      3  H   UNL     1     -46.135  37.500  26.339  1.00  0.00     0.073 H 
ENDROOT
BRANCH   1   4
ATOM      4  C   UNL     1     -46.516  38.607  28.154  1.00  0.00     0.120 C 
ATOM      5  C   UNL     1     -46.531  40.870  27.514  1.00  0.00     0.138 C 
ATOM      6  C   UNL     1     -47.586  40.158  26.678  1.00  0.00     0.022 C 
ATOM      7  O   UNL     1     -45.766  39.843  28.166  1.00  0.00    -0.348 OA
ATOM      8  H   UNL     1     -47.000  41.477  28.297  1.00  0.00     0.085 H 
ATOM      9  C   UNL     1     -47.872  38.940  27.521  1.00  0.00     0.088 C 
ATOM     10  H   UNL     1     -48.457  40.798  26.502  1.00  0.00     0.034 H 
ATOM     11  H   UNL     1     -47.192  39.841  25.707  1.00  0.00     0.034 H 
ATOM     12  H   UNL     1     -48.306  38.109  26.957  1.00  0.00     0.063 H 
ATOM     13  H   UNL     1     -46.627  38.284  29.195  1.00  0.00     0.067 H 
BRANCH   5  14
ATOM     14  N   UNL     1     -45.626  41.706  26.742  1.00  0.00    -0.305 N 
ATOM     15  C   UNL     1     -44.835  43.104  25.190  1.00  0.00     0.033 A 
ATOM     16  C   UNL     1     -45.980  42.508  25.682  1.00  0.00     0.019 A 
ATOM     17  C   UNL     1     -43.734  42.631  25.968  1.00  0.00     0.071 A 
ATOM     18  H   UNL     1     -47.008  42.581  25.357  1.00  0.00     0.083 H 
ATOM     19  C   UNL     1     -44.272  41.804  26.952  1.00  0.00     0.148 A 
ATOM     20  C   UNL     1     -42.334  42.777  25.979  1.00  0.00     0.137 A 
ATOM     21  N   UNL     1     -43.593  41.187  27.934  1.00  0.00    -0.218 NA
ATOM     22  N   UNL     1     -41.620  42.178  26.952  1.00  0.00    -0.219 NA
ATOM     23  C   UNL     1     -42.276  41.428  27.855  1.00  0.00     0.120 A 
ATOM     24  H   UNL     1     -41.659  40.955  28.614  1.00  0.00     0.106 H 
BRANCH  15  25
ATOM     25  C   UNL     1     -44.764  44.044  24.067  1.00  0.00     0.095 A 
ATOM     26  N   UNL     1     -44.751  44.843  22.109  1.00  0.00    -0.275 N 
ATOM     27  C   UNL     1     -44.576  45.925  22.917  1.00  0.00     0.025 A 
ATOM     28  N   UNL     1     -44.866  43.680  22.780  1.00  0.00    -0.173 NA
ATOM     29  C   UNL     1     -44.579  45.438  24.204  1.00  0.00    -0.016 A 
ATOM     30  H   UNL     1     -44.475  46.928  22.525  1.00  0.00     0.084 H 
ATOM     31  H   UNL     1     -44.482  46.012  25.113  1.00  0.00     0.066 H 
BRANCH  26  32
ATOM     32  C   UNL     1     -44.831  44.840  20.668  1.00  0.00     0.030 C 
ATOM     33  H   UNL     1     -44.264  43.994  20.273  1.00  0.00     0.048 H 
ATOM     34  H   UNL     1     -44.410  45.779  20.298  1.00  0.00     0.048 H 
ATOM     35  H   UNL     1     -45.883  44.751  20.382  1.00  0.00     0.048 H 
ENDBRANCH  26  32
ENDBRANCH  15  25
BRANCH  20  36
ATOM     36  N   UNL     1     -41.616  43.509  25.037  1.00  0.00    -0.383 N 
ATOM     37  H   UNL     1     -41.797  44.514  25.139  1.00  0.00     0.158 HD
ATOM     38  H   UNL     1     -40.644  43.231  25.049  1.00  0.00     0.158 HD
ENDBRANCH  20  36
ENDBRANCH   5  14
BRANCH   9  39
ATOM     39  O   UNL     1     -48.808  39.299  28.540  1.00  0.00    -0.390 OA
ATOM     40  H   UNL     1     -48.580  40.187  28.864  1.00  0.00     0.211 HD
ENDBRANCH   9  39
ENDBRANCH   1   4
BRANCH   1  41
ATOM     41  O   UNL     1     -45.884  36.229  27.878  1.00  0.00    -0.491 OA
BRANCH  41  42
ATOM     42  C   UNL     1     -46.587  35.307  27.154  1.00  0.00     0.121 A 
ATOM     43  C   UNL     1     -47.960  35.293  27.392  1.00  0.00    -0.019 A 
ATOM     44  C   UNL     1     -46.053  34.416  26.225  1.00  0.00     0.007 A 
ATOM     45  C   UNL     1     -48.776  34.362  26.751  1.00  0.00    -0.049 A 
ATOM     46  H   UNL     1     -48.393  35.996  28.098  1.00  0.00     0.066 H 
ATOM     47  C   UNL     1     -46.836  33.461  25.590  1.00  0.00     0.076 A 
ATOM     48  H   UNL     1     -44.998  34.414  25.988  1.00  0.00     0.069 H 
ATOM     49  C   UNL     1     -48.215  33.430  25.864  1.00  0.00     0.001 A 
ATOM     50  H   UNL     1     -49.842  34.351  26.966  1.00  0.00     0.063 H 
ATOM     51  N   UNL     1     -46.247  32.587  24.759  1.00  0.00    -0.231 NA
ATOM     52  C   UNL     1     -48.977  32.436  25.241  1.00  0.00    -0.049 A 
ATOM     53  C   UNL     1     -46.982  31.600  24.197  1.00  0.00     0.129 A 
ATOM     54  C   UNL     1     -48.351  31.507  24.412  1.00  0.00    -0.019 A 
ATOM     55  H   UNL     1     -50.045  32.359  25.419  1.00  0.00     0.063 H 
ATOM     56  H   UNL     1     -48.930  30.709  23.962  1.00  0.00     0.066 H 
BRANCH  53  57
ATOM     57  N   UNL     1     -46.309  30.639  23.440  1.00  0.00    -0.353 N 
ATOM     58  C   UNL     1     -46.575  29.252  23.223  1.00  0.00     0.036 C 
ATOM     59  C   UNL     1     -45.756  30.831  22.133  1.00  0.00     0.036 C 
ATOM     60  C   UNL     1     -45.519  29.309  22.092  1.00  0.00     0.040 C 
ATOM     61  H   UNL     1     -47.600  29.073  22.882  1.00  0.00     0.051 H 
ATOM     62  H   UNL     1     -46.349  28.617  24.085  1.00  0.00     0.051 H 
ATOM     63  H   UNL     1     -46.498  31.200  21.416  1.00  0.00     0.051 H 
ATOM     64  H   UNL     1     -44.873  31.469  22.133  1.00  0.00     0.051 H 
ATOM     65  H   UNL     1     -45.771  28.801  21.157  1.00  0.00     0.050 H 
BRANCH  60  66
ATOM     66  N   UNL     1     -44.176  29.003  22.623  1.00  0.00    -0.325 NA
ATOM     67  H   UNL     1     -43.513  28.752  21.878  1.00  0.00     0.119 HD
ATOM     68  H   UNL     1     -43.736  29.836  23.026  1.00  0.00     0.119 HD
ENDBRANCH  60  66
ENDBRANCH  53  57
ENDBRANCH  41  42
ENDBRANCH   1  41
TORSDOF 10
ENDMDL
MODEL 7
REMARK VINA RESULT:      -8.9      3.227      6.253
REMARK SMILES Cn1ccc(-c2cn([C@H]3C[C@H](O)[C@@H](COc4ccc5ccc(N6CC(N)C6)nc5c4)O3)c3ncnc(N)c23)n1
REMARK SMILES IDX 14 1 13 4 9 5 10 6 31 7 11 9 8 14 6 15 7 16 38 17 32 19
REMARK SMILES IDX 36 20 33 21 35 22 34 23 5 25 2 26 3 27 39 28 4 29 1 32 37 36
REMARK SMILES IDX 12 39 15 41 16 42 17 43 30 44 18 45 29 47 19 49 28 51 20 52
REMARK SMILES IDX 22 53 21 54 23 57 24 58 27 59 25 60 26 66
REMARK H PARENT 14 2 14 3 9 8 10 10 10 11 11 12 13 13 7 18 34 24 3 30 4 31
REMARK H PARENT 1 33 1 34 1 35 37 37 37 38 12 40 17 46 30 48 18 50 20 55 21 56
REMARK H PARENT 24 61 24 62 27 63 27 64 25 65 26 67 26 68
REMARK Flexibility Score: inf
ROOT
ATOM      1  C   UNL     1     -44.096  40.007  28.472  1.00  0.00     0.117 C 
ATOM      2  H   UNL     1     -44.228  40.187  29.544  1.00  0.00     0.073 H 
ATOM      3  H   UNL     1     -44.035  38.920  28.344  1.00  0.00     0.073 H 
ENDROOT
BRANCH   1   4
ATOM      4  C   UNL     1     -42.813  40.646  27.905  1.00  0.00     0.120 C 
ATOM      5  C   UNL     1     -42.897  42.621  26.632  1.00  0.00     0.138 C 
ATOM      6  C   UNL     1     -42.905  43.029  28.099  1.00  0.00     0.022 C 
ATOM      7  O   UNL     1     -43.109  41.200  26.603  1.00  0.00    -0.348 OA
ATOM      8  H   UNL     1     -41.918  42.816  26.180  1.00  0.00     0.085 H 
ATOM      9  C   UNL     1     -42.302  41.814  28.757  1.00  0.00     0.088 C 
ATOM     10  H   UNL     1     -42.342  43.954  28.261  1.00  0.00     0.034 H 
ATOM     11  H   UNL     1     -43.923  43.177  28.476  1.00  0.00     0.034 H 
ATOM     12  H   UNL     1     -42.552  41.721  29.819  1.00  0.00     0.063 H 
ATOM     13  H   UNL     1     -42.040  39.882  27.766  1.00  0.00     0.067 H 
BRANCH   5  14
ATOM     14  N   UNL     1     -43.927  43.262  25.831  1.00  0.00    -0.305 N 
ATOM     15  C   UNL     1     -45.907  44.043  25.154  1.00  0.00     0.033 A 
ATOM     16  C   UNL     1     -45.241  43.435  26.201  1.00  0.00     0.019 A 
ATOM     17  C   UNL     1     -44.968  44.229  24.094  1.00  0.00     0.071 A 
ATOM     18  H   UNL     1     -45.597  43.105  27.166  1.00  0.00     0.083 H 
ATOM     19  C   UNL     1     -43.739  43.777  24.571  1.00  0.00     0.148 A 
ATOM     20  C   UNL     1     -44.978  44.714  22.773  1.00  0.00     0.137 A 
ATOM     21  N   UNL     1     -42.566  43.815  23.917  1.00  0.00    -0.218 NA
ATOM     22  N   UNL     1     -43.819  44.773  22.087  1.00  0.00    -0.219 NA
ATOM     23  C   UNL     1     -42.701  44.325  22.683  1.00  0.00     0.120 A 
ATOM     24  H   UNL     1     -41.794  44.381  22.089  1.00  0.00     0.106 H 
BRANCH  15  25
ATOM     25  C   UNL     1     -47.324  44.418  25.134  1.00  0.00     0.095 A 
ATOM     26  N   UNL     1     -49.128  45.451  24.744  1.00  0.00    -0.275 N 
ATOM     27  C   UNL     1     -49.506  44.384  25.500  1.00  0.00     0.025 A 
ATOM     28  N   UNL     1     -47.802  45.502  24.506  1.00  0.00    -0.173 NA
ATOM     29  C   UNL     1     -48.351  43.689  25.774  1.00  0.00    -0.016 A 
ATOM     30  H   UNL     1     -50.538  44.204  25.769  1.00  0.00     0.084 H 
ATOM     31  H   UNL     1     -48.267  42.771  26.337  1.00  0.00     0.066 H 
BRANCH  26  32
ATOM     32  C   UNL     1     -49.986  46.474  24.195  1.00  0.00     0.030 C 
ATOM     33  H   UNL     1     -49.728  46.643  23.147  1.00  0.00     0.048 H 
ATOM     34  H   UNL     1     -49.838  47.393  24.770  1.00  0.00     0.048 H 
ATOM     35  H   UNL     1     -51.021  46.133  24.275  1.00  0.00     0.048 H 
ENDBRANCH  26  32
ENDBRANCH  15  25
BRANCH  20  36
ATOM     36  N   UNL     1     -46.122  45.147  22.107  1.00  0.00    -0.383 N 
ATOM     37  H   UNL     1     -46.788  44.376  21.985  1.00  0.00     0.158 HD
ATOM     38  H   UNL     1     -46.486  45.980  22.548  1.00  0.00     0.158 HD
ENDBRANCH  20  36
ENDBRANCH   5  14
BRANCH   9  39
ATOM     39  O   UNL     1     -40.879  41.899  28.661  1.00  0.00    -0.390 OA
ATOM     40  H   UNL     1     -40.496  41.538  29.479  1.00  0.00     0.211 HD
ENDBRANCH   9  39
ENDBRANCH   1   4
BRANCH   1  41
ATOM     41  O   UNL     1     -45.270  40.387  27.735  1.00  0.00    -0.491 OA
BRANCH  41  42
ATOM     42  C   UNL     1     -46.328  39.523  27.675  1.00  0.00     0.121 A 
ATOM     43  C   UNL     1     -47.534  40.034  28.151  1.00  0.00    -0.019 A 
ATOM     44  C   UNL     1     -46.292  38.220  27.184  1.00  0.00     0.007 A 
ATOM     45  C   UNL     1     -48.673  39.231  28.188  1.00  0.00    -0.049 A 
ATOM     46  H   UNL     1     -47.581  41.056  28.517  1.00  0.00     0.066 H 
ATOM     47  C   UNL     1     -47.404  37.388  27.231  1.00  0.00     0.076 A 
ATOM     48  H   UNL     1     -45.385  37.794  26.777  1.00  0.00     0.069 H 
ATOM     49  C   UNL     1     -48.607  37.899  27.748  1.00  0.00     0.001 A 
ATOM     50  H   UNL     1     -49.599  39.639  28.584  1.00  0.00     0.063 H 
ATOM     51  N   UNL     1     -47.284  36.120  26.806  1.00  0.00    -0.231 NA
ATOM     52  C   UNL     1     -49.702  37.032  27.818  1.00  0.00    -0.049 A 
ATOM     53  C   UNL     1     -48.333  35.275  26.922  1.00  0.00     0.129 A 
ATOM     54  C   UNL     1     -49.558  35.707  27.414  1.00  0.00    -0.019 A 
ATOM     55  H   UNL     1     -50.656  37.370  28.214  1.00  0.00     0.063 H 
ATOM     56  H   UNL     1     -50.391  35.020  27.508  1.00  0.00     0.066 H 
BRANCH  53  57
ATOM     57  N   UNL     1     -48.129  33.935  26.586  1.00  0.00    -0.353 N 
ATOM     58  C   UNL     1     -48.959  32.997  25.898  1.00  0.00     0.036 C 
ATOM     59  C   UNL     1     -46.914  33.368  26.081  1.00  0.00     0.036 C 
ATOM     60  C   UNL     1     -47.715  32.078  25.815  1.00  0.00     0.040 C 
ATOM     61  H   UNL     1     -49.308  33.380  24.934  1.00  0.00     0.051 H 
ATOM     62  H   UNL     1     -49.806  32.638  26.489  1.00  0.00     0.051 H 
ATOM     63  H   UNL     1     -46.556  33.880  25.182  1.00  0.00     0.051 H 
ATOM     64  H   UNL     1     -46.125  33.315  26.831  1.00  0.00     0.051 H 
ATOM     65  H   UNL     1     -47.533  31.580  24.860  1.00  0.00     0.050 H 
BRANCH  60  66
ATOM     66  N   UNL     1     -47.643  31.198  26.999  1.00  0.00    -0.325 NA
ATOM     67  H   UNL     1     -47.951  30.240  26.787  1.00  0.00     0.119 HD
ATOM     68  H   UNL     1     -46.673  31.049  27.294  1.00  0.00     0.119 HD
ENDBRANCH  60  66
ENDBRANCH  53  57
ENDBRANCH  41  42
ENDBRANCH   1  41
TORSDOF 10
ENDMDL
