MODEL 1
REMARK VINA RESULT:      -9.9      0.000      0.000
REMARK SMILES Cc1cn2cc(CC[C@H]3C[C@@H](n4ccc5c(N)ncnc54)[C@H](O)[C@@H]3O)ccc2n1
REMARK SMILES IDX 8 1 7 4 6 7 2 8 3 9 29 10 4 11 28 13 5 14 27 15 26 17 1 20
REMARK SMILES IDX 9 24 10 25 24 26 11 28 22 31 25 35 12 37 13 38 21 39 14 40
REMARK SMILES IDX 15 42 20 43 16 45 19 46 18 47 17 49 23 52
REMARK H PARENT 8 2 8 3 7 5 7 6 3 12 5 16 27 18 26 19 1 21 1 22 1 23 9 27
REMARK H PARENT 10 29 10 30 24 32 11 33 22 34 25 36 13 41 14 44 19 48 17 50
REMARK H PARENT 17 51 23 53
REMARK Flexibility Score: inf
ROOT
ATOM      1  C   UNL     1     -46.457  35.492  28.149  1.00  0.00    -0.044 C 
ATOM      2  H   UNL     1     -45.617  35.018  28.673  1.00  0.00     0.027 H 
ATOM      3  H   UNL     1     -47.354  34.946  28.468  1.00  0.00     0.027 H 
ENDROOT
BRANCH   1   4
ATOM      4  C   UNL     1     -46.214  35.291  26.644  1.00  0.00    -0.026 C 
ATOM      5  H   UNL     1     -46.472  36.219  26.118  1.00  0.00     0.032 H 
ATOM      6  H   UNL     1     -45.135  35.157  26.487  1.00  0.00     0.032 H 
BRANCH   4   7
ATOM      7  C   UNL     1     -46.912  34.109  26.023  1.00  0.00    -0.031 A 
ATOM      8  C   UNL     1     -47.748  30.408  23.577  1.00  0.00     0.056 A 
ATOM      9  C   UNL     1     -46.656  31.237  23.731  1.00  0.00     0.032 A 
ATOM     10  N   UNL     1     -48.799  30.843  24.350  1.00  0.00    -0.234 NA
ATOM     11  N   UNL     1     -47.048  32.204  24.622  1.00  0.00    -0.307 N 
ATOM     12  H   UNL     1     -45.667  31.220  23.299  1.00  0.00     0.084 H 
ATOM     13  C   UNL     1     -48.363  31.922  24.965  1.00  0.00     0.136 A 
ATOM     14  C   UNL     1     -46.327  33.279  25.135  1.00  0.00     0.014 A 
ATOM     15  C   UNL     1     -48.993  32.805  25.884  1.00  0.00    -0.018 A 
ATOM     16  H   UNL     1     -45.308  33.393  24.789  1.00  0.00     0.083 H 
ATOM     17  C   UNL     1     -48.308  33.851  26.387  1.00  0.00    -0.054 A 
ATOM     18  H   UNL     1     -50.024  32.614  26.158  1.00  0.00     0.066 H 
ATOM     19  H   UNL     1     -48.795  34.525  27.086  1.00  0.00     0.063 H 
BRANCH   8  20
ATOM     20  C   UNL     1     -47.890  29.200  22.735  1.00  0.00    -0.021 C 
ATOM     21  H   UNL     1     -48.644  28.529  23.157  1.00  0.00     0.030 H 
ATOM     22  H   UNL     1     -46.939  28.660  22.681  1.00  0.00     0.030 H 
ATOM     23  H   UNL     1     -48.194  29.458  21.715  1.00  0.00     0.030 H 
ENDBRANCH   8  20
ENDBRANCH   4   7
ENDBRANCH   1   4
BRANCH   1  24
ATOM     24  C   UNL     1     -46.539  36.957  28.603  1.00  0.00    -0.010 C 
ATOM     25  C   UNL     1     -45.226  37.740  28.528  1.00  0.00    -0.024 C 
ATOM     26  C   UNL     1     -47.426  37.799  27.684  1.00  0.00     0.085 C 
ATOM     27  H   UNL     1     -46.936  36.981  29.627  1.00  0.00     0.033 H 
ATOM     28  C   UNL     1     -45.619  39.242  28.501  1.00  0.00     0.064 C 
ATOM     29  H   UNL     1     -44.696  37.441  27.618  1.00  0.00     0.029 H 
ATOM     30  H   UNL     1     -44.575  37.538  29.382  1.00  0.00     0.029 H 
ATOM     31  C   UNL     1     -47.120  39.238  28.125  1.00  0.00     0.101 C 
ATOM     32  H   UNL     1     -47.156  37.662  26.629  1.00  0.00     0.063 H 
ATOM     33  H   UNL     1     -45.493  39.648  29.514  1.00  0.00     0.056 H 
ATOM     34  H   UNL     1     -47.415  39.945  27.347  1.00  0.00     0.065 H 
BRANCH  26  35
ATOM     35  O   UNL     1     -48.810  37.518  27.856  1.00  0.00    -0.390 OA
ATOM     36  H   UNL     1     -49.227  37.534  26.978  1.00  0.00     0.211 HD
ENDBRANCH  26  35
BRANCH  28  37
ATOM     37  N   UNL     1     -44.776  40.089  27.660  1.00  0.00    -0.327 N 
ATOM     38  C   UNL     1     -44.986  40.410  26.337  1.00  0.00     0.007 A 
ATOM     39  C   UNL     1     -43.550  40.593  28.044  1.00  0.00     0.145 A 
ATOM     40  C   UNL     1     -43.937  41.197  25.909  1.00  0.00    -0.031 A 
ATOM     41  H   UNL     1     -45.848  40.061  25.786  1.00  0.00     0.082 H 
ATOM     42  C   UNL     1     -43.016  41.307  26.981  1.00  0.00     0.061 A 
ATOM     43  N   UNL     1     -42.972  40.423  29.246  1.00  0.00    -0.218 NA
ATOM     44  H   UNL     1     -43.831  41.620  24.919  1.00  0.00     0.065 H 
ATOM     45  C   UNL     1     -41.771  41.918  27.189  1.00  0.00     0.136 A 
ATOM     46  C   UNL     1     -41.788  41.046  29.326  1.00  0.00     0.120 A 
ATOM     47  N   UNL     1     -41.164  41.774  28.382  1.00  0.00    -0.219 NA
ATOM     48  H   UNL     1     -41.265  40.951  30.275  1.00  0.00     0.106 H 
BRANCH  45  49
ATOM     49  N   UNL     1     -41.102  42.652  26.218  1.00  0.00    -0.383 N 
ATOM     50  H   UNL     1     -40.563  43.426  26.579  1.00  0.00     0.158 HD
ATOM     51  H   UNL     1     -41.727  42.863  25.449  1.00  0.00     0.158 HD
ENDBRANCH  45  49
ENDBRANCH  28  37
BRANCH  31  52
ATOM     52  O   UNL     1     -47.907  39.527  29.295  1.00  0.00    -0.388 OA
ATOM     53  H   UNL     1     -48.833  39.521  28.975  1.00  0.00     0.211 HD
ENDBRANCH  31  52
ENDBRANCH   1  24
TORSDOF 8
ENDMDL
MODEL 2
REMARK VINA RESULT:      -9.6      2.171      9.914
REMARK SMILES Cc1cn2cc(CC[C@H]3C[C@@H](n4ccc5c(N)ncnc54)[C@H](O)[C@@H]3O)ccc2n1
REMARK SMILES IDX 8 1 7 4 6 7 2 8 3 9 29 10 4 11 28 13 5 14 27 15 26 17 1 20
REMARK SMILES IDX 9 24 10 25 24 26 11 28 22 31 25 35 12 37 13 38 21 39 14 40
REMARK SMILES IDX 15 42 20 43 16 45 19 46 18 47 17 49 23 52
REMARK H PARENT 8 2 8 3 7 5 7 6 3 12 5 16 27 18 26 19 1 21 1 22 1 23 9 27
REMARK H PARENT 10 29 10 30 24 32 11 33 22 34 25 36 13 41 14 44 19 48 17 50
REMARK H PARENT 17 51 23 53
REMARK Flexibility Score: inf
ROOT
ATOM      1  C   UNL     1     -47.654  36.208  26.906  1.00  0.00    -0.044 C 
ATOM      2  H   UNL     1     -46.773  36.609  26.391  1.00  0.00     0.027 H 
ATOM      3  H   UNL     1     -48.505  36.407  26.242  1.00  0.00     0.027 H 
ENDROOT
BRANCH   1   4
ATOM      4  C   UNL     1     -47.801  36.999  28.217  1.00  0.00    -0.026 C 
ATOM      5  H   UNL     1     -48.621  37.721  28.104  1.00  0.00     0.032 H 
ATOM      6  H   UNL     1     -48.130  36.304  29.001  1.00  0.00     0.032 H 
BRANCH   4   7
ATOM      7  C   UNL     1     -46.550  37.679  28.711  1.00  0.00    -0.031 A 
ATOM      8  C   UNL     1     -43.009  40.463  29.028  1.00  0.00     0.056 A 
ATOM      9  C   UNL     1     -44.011  40.276  28.097  1.00  0.00     0.032 A 
ATOM     10  N   UNL     1     -43.151  39.580  30.074  1.00  0.00    -0.234 NA
ATOM     11  N   UNL     1     -44.785  39.254  28.585  1.00  0.00    -0.307 N 
ATOM     12  H   UNL     1     -44.230  40.768  27.162  1.00  0.00     0.084 H 
ATOM     13  C   UNL     1     -44.217  38.862  29.790  1.00  0.00     0.136 A 
ATOM     14  C   UNL     1     -45.931  38.676  28.046  1.00  0.00     0.014 A 
ATOM     15  C   UNL     1     -44.851  37.797  30.486  1.00  0.00    -0.018 A 
ATOM     16  H   UNL     1     -46.276  39.070  27.098  1.00  0.00     0.083 H 
ATOM     17  C   UNL     1     -45.960  37.228  29.973  1.00  0.00    -0.054 A 
ATOM     18  H   UNL     1     -44.419  37.463  31.422  1.00  0.00     0.066 H 
ATOM     19  H   UNL     1     -46.439  36.412  30.507  1.00  0.00     0.063 H 
BRANCH   8  20
ATOM     20  C   UNL     1     -41.895  41.435  29.017  1.00  0.00    -0.021 C 
ATOM     21  H   UNL     1     -41.913  42.044  29.925  1.00  0.00     0.030 H 
ATOM     22  H   UNL     1     -41.979  42.100  28.152  1.00  0.00     0.030 H 
ATOM     23  H   UNL     1     -40.925  40.928  28.964  1.00  0.00     0.030 H 
ENDBRANCH   8  20
ENDBRANCH   4   7
ENDBRANCH   1   4
BRANCH   1  24
ATOM     24  C   UNL     1     -47.461  34.694  27.081  1.00  0.00    -0.010 C 
ATOM     25  C   UNL     1     -48.186  33.819  26.056  1.00  0.00    -0.024 C 
ATOM     26  C   UNL     1     -46.012  34.264  26.848  1.00  0.00     0.085 C 
ATOM     27  H   UNL     1     -47.771  34.420  28.099  1.00  0.00     0.033 H 
ATOM     28  C   UNL     1     -47.461  32.447  26.069  1.00  0.00     0.064 C 
ATOM     29  H   UNL     1     -48.120  34.306  25.076  1.00  0.00     0.029 H 
ATOM     30  H   UNL     1     -49.243  33.687  26.299  1.00  0.00     0.029 H 
ATOM     31  C   UNL     1     -46.109  32.735  26.765  1.00  0.00     0.101 C 
ATOM     32  H   UNL     1     -45.618  34.670  25.907  1.00  0.00     0.063 H 
ATOM     33  H   UNL     1     -48.051  31.752  26.682  1.00  0.00     0.056 H 
ATOM     34  H   UNL     1     -45.225  32.323  26.272  1.00  0.00     0.065 H 
BRANCH  26  35
ATOM     35  O   UNL     1     -45.153  34.644  27.918  1.00  0.00    -0.390 OA
ATOM     36  H   UNL     1     -44.269  34.805  27.545  1.00  0.00     0.211 HD
ENDBRANCH  26  35
BRANCH  28  37
ATOM     37  N   UNL     1     -47.355  31.788  24.768  1.00  0.00    -0.327 N 
ATOM     38  C   UNL     1     -46.251  31.754  23.946  1.00  0.00     0.007 A 
ATOM     39  C   UNL     1     -48.414  31.203  24.103  1.00  0.00     0.145 A 
ATOM     40  C   UNL     1     -46.584  31.066  22.798  1.00  0.00    -0.031 A 
ATOM     41  H   UNL     1     -45.313  32.219  24.217  1.00  0.00     0.082 H 
ATOM     42  C   UNL     1     -47.957  30.724  22.884  1.00  0.00     0.061 A 
ATOM     43  N   UNL     1     -49.674  31.112  24.561  1.00  0.00    -0.218 NA
ATOM     44  H   UNL     1     -45.916  30.860  21.972  1.00  0.00     0.065 H 
ATOM     45  C   UNL     1     -48.892  30.073  22.068  1.00  0.00     0.136 A 
ATOM     46  C   UNL     1     -50.478  30.475  23.697  1.00  0.00     0.120 A 
ATOM     47  N   UNL     1     -50.164  29.956  22.495  1.00  0.00    -0.219 NA
ATOM     48  H   UNL     1     -51.514  30.363  24.005  1.00  0.00     0.106 H 
BRANCH  45  49
ATOM     49  N   UNL     1     -48.591  29.554  20.816  1.00  0.00    -0.383 N 
ATOM     50  H   UNL     1     -47.646  29.207  20.724  1.00  0.00     0.158 HD
ATOM     51  H   UNL     1     -48.907  30.187  20.091  1.00  0.00     0.158 HD
ENDBRANCH  45  49
ENDBRANCH  28  37
BRANCH  31  52
ATOM     52  O   UNL     1     -46.140  32.212  28.105  1.00  0.00    -0.388 OA
ATOM     53  H   UNL     1     -45.208  31.989  28.303  1.00  0.00     0.211 HD
ENDBRANCH  31  52
ENDBRANCH   1  24
TORSDOF 8
ENDMDL
MODEL 3
REMARK VINA RESULT:      -9.4      2.092      9.834
REMARK SMILES Cc1cn2cc(CC[C@H]3C[C@@H](n4ccc5c(N)ncnc54)[C@H](O)[C@@H]3O)ccc2n1
REMARK SMILES IDX 8 1 7 4 6 7 2 8 3 9 29 10 4 11 28 13 5 14 27 15 26 17 1 20
REMARK SMILES IDX 9 24 10 25 24 26 11 28 22 31 25 35 12 37 13 38 21 39 14 40
REMARK SMILES IDX 15 42 20 43 16 45 19 46 18 47 17 49 23 52
REMARK H PARENT 8 2 8 3 7 5 7 6 3 12 5 16 27 18 26 19 1 21 1 22 1 23 9 27
REMARK H PARENT 10 29 10 30 24 32 11 33 22 34 25 36 13 41 14 44 19 48 17 50
REMARK H PARENT 17 51 23 53
REMARK Flexibility Score: inf
ROOT
ATOM      1  C   UNL     1     -47.859  36.185  26.942  1.00  0.00    -0.044 C 
ATOM      2  H   UNL     1     -47.215  36.564  26.138  1.00  0.00     0.027 H 
ATOM      3  H   UNL     1     -48.884  36.454  26.655  1.00  0.00     0.027 H 
ENDROOT
BRANCH   1   4
ATOM      4  C   UNL     1     -47.449  36.925  28.226  1.00  0.00    -0.026 C 
ATOM      5  H   UNL     1     -48.353  37.314  28.713  1.00  0.00     0.032 H 
ATOM      6  H   UNL     1     -47.035  36.188  28.928  1.00  0.00     0.032 H 
BRANCH   4   7
ATOM      7  C   UNL     1     -46.421  38.012  28.052  1.00  0.00    -0.031 A 
ATOM      8  C   UNL     1     -42.909  40.762  28.755  1.00  0.00     0.056 A 
ATOM      9  C   UNL     1     -43.499  39.744  29.476  1.00  0.00     0.032 A 
ATOM     10  N   UNL     1     -43.574  40.959  27.566  1.00  0.00    -0.234 NA
ATOM     11  N   UNL     1     -44.549  39.306  28.710  1.00  0.00    -0.307 N 
ATOM     12  H   UNL     1     -43.266  39.308  30.436  1.00  0.00     0.084 H 
ATOM     13  C   UNL     1     -44.555  40.081  27.559  1.00  0.00     0.136 A 
ATOM     14  C   UNL     1     -45.465  38.288  28.962  1.00  0.00     0.014 A 
ATOM     15  C   UNL     1     -45.573  39.812  26.604  1.00  0.00    -0.018 A 
ATOM     16  H   UNL     1     -45.356  37.755  29.898  1.00  0.00     0.083 H 
ATOM     17  C   UNL     1     -46.467  38.831  26.837  1.00  0.00    -0.054 A 
ATOM     18  H   UNL     1     -45.607  40.412  25.703  1.00  0.00     0.066 H 
ATOM     19  H   UNL     1     -47.246  38.631  26.106  1.00  0.00     0.063 H 
BRANCH   8  20
ATOM     20  C   UNL     1     -41.735  41.591  29.101  1.00  0.00    -0.021 C 
ATOM     21  H   UNL     1     -40.813  41.098  28.779  1.00  0.00     0.030 H 
ATOM     22  H   UNL     1     -41.685  41.747  30.183  1.00  0.00     0.030 H 
ATOM     23  H   UNL     1     -41.784  42.573  28.617  1.00  0.00     0.030 H 
ENDBRANCH   8  20
ENDBRANCH   4   7
ENDBRANCH   1   4
BRANCH   1  24
ATOM     24  C   UNL     1     -47.708  34.657  26.997  1.00  0.00    -0.010 C 
ATOM     25  C   UNL     1     -48.815  33.864  26.298  1.00  0.00    -0.024 C 
ATOM     26  C   UNL     1     -46.479  34.169  26.228  1.00  0.00     0.085 C 
ATOM     27  H   UNL     1     -47.632  34.354  28.050  1.00  0.00     0.033 H 
ATOM     28  C   UNL     1     -48.222  32.459  26.007  1.00  0.00     0.064 C 
ATOM     29  H   UNL     1     -49.089  34.390  25.377  1.00  0.00     0.029 H 
ATOM     30  H   UNL     1     -49.711  33.773  26.917  1.00  0.00     0.029 H 
ATOM     31  C   UNL     1     -46.694  32.651  26.152  1.00  0.00     0.101 C 
ATOM     32  H   UNL     1     -46.441  34.596  25.217  1.00  0.00     0.063 H 
ATOM     33  H   UNL     1     -48.583  31.767  26.781  1.00  0.00     0.056 H 
ATOM     34  H   UNL     1     -46.084  32.219  25.355  1.00  0.00     0.065 H 
BRANCH  26  35
ATOM     35  O   UNL     1     -45.262  34.459  26.906  1.00  0.00    -0.390 OA
ATOM     36  H   UNL     1     -44.529  34.141  26.350  1.00  0.00     0.211 HD
ENDBRANCH  26  35
BRANCH  28  37
ATOM     37  N   UNL     1     -48.650  31.854  24.748  1.00  0.00    -0.327 N 
ATOM     38  C   UNL     1     -49.945  31.642  24.330  1.00  0.00     0.007 A 
ATOM     39  C   UNL     1     -47.794  31.274  23.832  1.00  0.00     0.145 A 
ATOM     40  C   UNL     1     -49.909  31.011  23.104  1.00  0.00    -0.031 A 
ATOM     41  H   UNL     1     -50.800  31.939  24.921  1.00  0.00     0.082 H 
ATOM     42  C   UNL     1     -48.550  30.763  22.787  1.00  0.00     0.061 A 
ATOM     43  N   UNL     1     -46.455  31.219  23.935  1.00  0.00    -0.218 NA
ATOM     44  H   UNL     1     -50.773  30.729  22.516  1.00  0.00     0.065 H 
ATOM     45  C   UNL     1     -47.849  30.148  21.740  1.00  0.00     0.136 A 
ATOM     46  C   UNL     1     -45.896  30.607  22.881  1.00  0.00     0.120 A 
ATOM     47  N   UNL     1     -46.507  30.078  21.804  1.00  0.00    -0.219 NA
ATOM     48  H   UNL     1     -44.812  30.528  22.898  1.00  0.00     0.106 H 
BRANCH  45  49
ATOM     49  N   UNL     1     -48.465  29.576  20.634  1.00  0.00    -0.383 N 
ATOM     50  H   UNL     1     -49.474  29.599  20.660  1.00  0.00     0.158 HD
ATOM     51  H   UNL     1     -48.044  28.677  20.428  1.00  0.00     0.158 HD
ENDBRANCH  45  49
ENDBRANCH  28  37
BRANCH  31  52
ATOM     52  O   UNL     1     -46.255  32.072  27.395  1.00  0.00    -0.388 OA
ATOM     53  H   UNL     1     -46.924  32.360  28.049  1.00  0.00     0.211 HD
ENDBRANCH  31  52
ENDBRANCH   1  24
TORSDOF 8
ENDMDL
MODEL 4
REMARK VINA RESULT:      -9.1      1.578      2.622
REMARK SMILES Cc1cn2cc(CC[C@H]3C[C@@H](n4ccc5c(N)ncnc54)[C@H](O)[C@@H]3O)ccc2n1
REMARK SMILES IDX 8 1 7 4 6 7 2 8 3 9 29 10 4 11 28 13 5 14 27 15 26 17 1 20
REMARK SMILES IDX 9 24 10 25 24 26 11 28 22 31 25 35 12 37 13 38 21 39 14 40
REMARK SMILES IDX 15 42 20 43 16 45 19 46 18 47 17 49 23 52
REMARK H PARENT 8 2 8 3 7 5 7 6 3 12 5 16 27 18 26 19 1 21 1 22 1 23 9 27
REMARK H PARENT 10 29 10 30 24 32 11 33 22 34 25 36 13 41 14 44 19 48 17 50
REMARK H PARENT 17 51 23 53
REMARK Flexibility Score: inf
ROOT
ATOM      1  C   UNL     1     -46.348  33.468  27.003  1.00  0.00    -0.044 C 
ATOM      2  H   UNL     1     -45.268  33.386  27.178  1.00  0.00     0.027 H 
ATOM      3  H   UNL     1     -46.788  32.549  27.413  1.00  0.00     0.027 H 
ENDROOT
BRANCH   1   4
ATOM      4  C   UNL     1     -46.549  33.524  25.479  1.00  0.00    -0.026 C 
ATOM      5  H   UNL     1     -47.275  34.314  25.248  1.00  0.00     0.032 H 
ATOM      6  H   UNL     1     -45.605  33.853  25.022  1.00  0.00     0.032 H 
BRANCH   4   7
ATOM      7  C   UNL     1     -46.940  32.224  24.825  1.00  0.00    -0.031 A 
ATOM      8  C   UNL     1     -49.111  28.390  23.839  1.00  0.00     0.056 A 
ATOM      9  C   UNL     1     -49.258  29.362  24.808  1.00  0.00     0.032 A 
ATOM     10  N   UNL     1     -48.051  28.686  23.014  1.00  0.00    -0.234 NA
ATOM     11  N   UNL     1     -48.265  30.276  24.570  1.00  0.00    -0.307 N 
ATOM     12  H   UNL     1     -49.964  29.476  25.617  1.00  0.00     0.084 H 
ATOM     13  C   UNL     1     -47.554  29.817  23.470  1.00  0.00     0.136 A 
ATOM     14  C   UNL     1     -47.968  31.458  25.245  1.00  0.00     0.014 A 
ATOM     15  C   UNL     1     -46.455  30.608  23.035  1.00  0.00    -0.018 A 
ATOM     16  H   UNL     1     -48.597  31.708  26.090  1.00  0.00     0.083 H 
ATOM     17  C   UNL     1     -46.156  31.753  23.680  1.00  0.00    -0.054 A 
ATOM     18  H   UNL     1     -45.876  30.265  22.186  1.00  0.00     0.066 H 
ATOM     19  H   UNL     1     -45.314  32.352  23.347  1.00  0.00     0.063 H 
BRANCH   8  20
ATOM     20  C   UNL     1     -49.911  27.166  23.617  1.00  0.00    -0.021 C 
ATOM     21  H   UNL     1     -50.041  26.621  24.557  1.00  0.00     0.030 H 
ATOM     22  H   UNL     1     -49.408  26.508  22.903  1.00  0.00     0.030 H 
ATOM     23  H   UNL     1     -50.904  27.405  23.222  1.00  0.00     0.030 H 
ENDBRANCH   8  20
ENDBRANCH   4   7
ENDBRANCH   1   4
BRANCH   1  24
ATOM     24  C   UNL     1     -46.867  34.693  27.771  1.00  0.00    -0.010 C 
ATOM     25  C   UNL     1     -45.828  35.783  28.042  1.00  0.00    -0.024 C 
ATOM     26  C   UNL     1     -47.905  35.481  26.970  1.00  0.00     0.085 C 
ATOM     27  H   UNL     1     -47.310  34.348  28.716  1.00  0.00     0.033 H 
ATOM     28  C   UNL     1     -46.629  37.085  28.317  1.00  0.00     0.064 C 
ATOM     29  H   UNL     1     -45.186  35.878  27.160  1.00  0.00     0.029 H 
ATOM     30  H   UNL     1     -45.193  35.546  28.900  1.00  0.00     0.029 H 
ATOM     31  C   UNL     1     -48.044  36.786  27.767  1.00  0.00     0.101 C 
ATOM     32  H   UNL     1     -47.551  35.695  25.954  1.00  0.00     0.063 H 
ATOM     33  H   UNL     1     -46.678  37.235  29.404  1.00  0.00     0.056 H 
ATOM     34  H   UNL     1     -48.485  37.567  27.145  1.00  0.00     0.065 H 
BRANCH  26  35
ATOM     35  O   UNL     1     -49.160  34.813  26.900  1.00  0.00    -0.390 OA
ATOM     36  H   UNL     1     -48.986  33.876  26.707  1.00  0.00     0.211 HD
ENDBRANCH  26  35
BRANCH  28  37
ATOM     37  N   UNL     1     -46.017  38.309  27.806  1.00  0.00    -0.327 N 
ATOM     38  C   UNL     1     -46.298  38.940  26.614  1.00  0.00     0.007 A 
ATOM     39  C   UNL     1     -44.949  38.953  28.400  1.00  0.00     0.145 A 
ATOM     40  C   UNL     1     -45.471  40.037  26.496  1.00  0.00    -0.031 A 
ATOM     41  H   UNL     1     -47.050  38.572  25.928  1.00  0.00     0.082 H 
ATOM     42  C   UNL     1     -44.604  40.046  27.618  1.00  0.00     0.061 A 
ATOM     43  N   UNL     1     -44.348  38.584  29.544  1.00  0.00    -0.218 NA
ATOM     44  H   UNL     1     -45.471  40.739  25.672  1.00  0.00     0.065 H 
ATOM     45  C   UNL     1     -43.545  40.843  28.074  1.00  0.00     0.136 A 
ATOM     46  C   UNL     1     -43.350  39.415  29.877  1.00  0.00     0.120 A 
ATOM     47  N   UNL     1     -42.921  40.508  29.219  1.00  0.00    -0.219 NA
ATOM     48  H   UNL     1     -42.820  39.176  30.796  1.00  0.00     0.106 H 
BRANCH  45  49
ATOM     49  N   UNL     1     -43.074  41.959  27.395  1.00  0.00    -0.383 N 
ATOM     50  H   UNL     1     -43.167  41.906  26.390  1.00  0.00     0.158 HD
ATOM     51  H   UNL     1     -42.160  42.220  27.745  1.00  0.00     0.158 HD
ENDBRANCH  45  49
ENDBRANCH  28  37
BRANCH  31  52
ATOM     52  O   UNL     1     -48.943  36.548  28.866  1.00  0.00    -0.388 OA
ATOM     53  H   UNL     1     -48.446  35.953  29.465  1.00  0.00     0.211 HD
ENDBRANCH  31  52
ENDBRANCH   1  24
TORSDOF 8
ENDMDL
MODEL 5
REMARK VINA RESULT:      -8.7      1.745      2.141
REMARK SMILES Cc1cn2cc(CC[C@H]3C[C@@H](n4ccc5c(N)ncnc54)[C@H](O)[C@@H]3O)ccc2n1
REMARK SMILES IDX 8 1 7 4 6 7 2 8 3 9 29 10 4 11 28 13 5 14 27 15 26 17 1 20
REMARK SMILES IDX 9 24 10 25 24 26 11 28 22 31 25 35 12 37 13 38 21 39 14 40
REMARK SMILES IDX 15 42 20 43 16 45 19 46 18 47 17 49 23 52
REMARK H PARENT 8 2 8 3 7 5 7 6 3 12 5 16 27 18 26 19 1 21 1 22 1 23 9 27
REMARK H PARENT 10 29 10 30 24 32 11 33 22 34 25 36 13 41 14 44 19 48 17 50
REMARK H PARENT 17 51 23 53
REMARK Flexibility Score: inf
ROOT
ATOM      1  C   UNL     1     -46.685  35.314  28.387  1.00  0.00    -0.044 C 
ATOM      2  H   UNL     1     -46.117  34.379  28.296  1.00  0.00     0.027 H 
ATOM      3  H   UNL     1     -47.339  35.182  29.258  1.00  0.00     0.027 H 
ENDROOT
BRANCH   1   4
ATOM      4  C   UNL     1     -47.522  35.452  27.104  1.00  0.00    -0.026 C 
ATOM      5  H   UNL     1     -48.513  35.843  27.369  1.00  0.00     0.032 H 
ATOM      6  H   UNL     1     -47.061  36.227  26.477  1.00  0.00     0.032 H 
BRANCH   4   7
ATOM      7  C   UNL     1     -47.643  34.205  26.267  1.00  0.00    -0.031 A 
ATOM      8  C   UNL     1     -46.678  30.790  23.475  1.00  0.00     0.056 A 
ATOM      9  C   UNL     1     -45.983  31.892  23.931  1.00  0.00     0.032 A 
ATOM     10  N   UNL     1     -47.947  30.766  24.006  1.00  0.00    -0.234 NA
ATOM     11  N   UNL     1     -46.846  32.558  24.761  1.00  0.00    -0.307 N 
ATOM     12  H   UNL     1     -44.980  32.243  23.741  1.00  0.00     0.084 H 
ATOM     13  C   UNL     1     -48.031  31.835  24.770  1.00  0.00     0.136 A 
ATOM     14  C   UNL     1     -46.648  33.727  25.492  1.00  0.00     0.014 A 
ATOM     15  C   UNL     1     -49.093  32.345  25.567  1.00  0.00    -0.018 A 
ATOM     16  H   UNL     1     -45.678  34.200  25.401  1.00  0.00     0.083 H 
ATOM     17  C   UNL     1     -48.914  33.476  26.278  1.00  0.00    -0.054 A 
ATOM     18  H   UNL     1     -50.033  31.805  25.581  1.00  0.00     0.066 H 
ATOM     19  H   UNL     1     -49.729  33.863  26.882  1.00  0.00     0.063 H 
BRANCH   8  20
ATOM     20  C   UNL     1     -46.234  29.723  22.553  1.00  0.00    -0.021 C 
ATOM     21  H   UNL     1     -46.921  29.642  21.706  1.00  0.00     0.030 H 
ATOM     22  H   UNL     1     -46.209  28.759  23.071  1.00  0.00     0.030 H 
ATOM     23  H   UNL     1     -45.232  29.926  22.162  1.00  0.00     0.030 H 
ENDBRANCH   8  20
ENDBRANCH   4   7
ENDBRANCH   1   4
BRANCH   1  24
ATOM     24  C   UNL     1     -45.690  36.457  28.638  1.00  0.00    -0.010 C 
ATOM     25  C   UNL     1     -45.446  37.386  27.447  1.00  0.00    -0.024 C 
ATOM     26  C   UNL     1     -46.206  37.455  29.677  1.00  0.00     0.085 C 
ATOM     27  H   UNL     1     -44.741  36.022  28.980  1.00  0.00     0.033 H 
ATOM     28  C   UNL     1     -44.880  38.706  28.037  1.00  0.00     0.064 C 
ATOM     29  H   UNL     1     -46.398  37.546  26.931  1.00  0.00     0.029 H 
ATOM     30  H   UNL     1     -44.738  36.962  26.730  1.00  0.00     0.029 H 
ATOM     31  C   UNL     1     -45.232  38.634  29.542  1.00  0.00     0.101 C 
ATOM     32  H   UNL     1     -47.228  37.781  29.448  1.00  0.00     0.063 H 
ATOM     33  H   UNL     1     -43.788  38.697  27.913  1.00  0.00     0.056 H 
ATOM     34  H   UNL     1     -45.669  39.539  29.970  1.00  0.00     0.065 H 
BRANCH  26  35
ATOM     35  O   UNL     1     -46.164  36.933  31.000  1.00  0.00    -0.390 OA
ATOM     36  H   UNL     1     -46.922  37.300  31.487  1.00  0.00     0.211 HD
ENDBRANCH  26  35
BRANCH  28  37
ATOM     37  N   UNL     1     -45.315  39.925  27.360  1.00  0.00    -0.327 N 
ATOM     38  C   UNL     1     -46.581  40.206  26.895  1.00  0.00     0.007 A 
ATOM     39  C   UNL     1     -44.468  40.941  26.963  1.00  0.00     0.145 A 
ATOM     40  C   UNL     1     -46.556  41.442  26.285  1.00  0.00    -0.031 A 
ATOM     41  H   UNL     1     -47.408  39.519  27.017  1.00  0.00     0.082 H 
ATOM     42  C   UNL     1     -45.218  41.910  26.312  1.00  0.00     0.061 A 
ATOM     43  N   UNL     1     -43.142  40.984  27.174  1.00  0.00    -0.218 NA
ATOM     44  H   UNL     1     -47.407  41.940  25.838  1.00  0.00     0.065 H 
ATOM     45  C   UNL     1     -44.530  43.040  25.850  1.00  0.00     0.136 A 
ATOM     46  C   UNL     1     -42.592  42.106  26.687  1.00  0.00     0.120 A 
ATOM     47  N   UNL     1     -43.201  43.122  26.048  1.00  0.00    -0.219 NA
ATOM     48  H   UNL     1     -41.519  42.207  26.825  1.00  0.00     0.106 H 
BRANCH  45  49
ATOM     49  N   UNL     1     -45.138  44.086  25.168  1.00  0.00    -0.383 N 
ATOM     50  H   UNL     1     -45.093  44.976  25.643  1.00  0.00     0.158 HD
ATOM     51  H   UNL     1     -46.053  43.801  24.838  1.00  0.00     0.158 HD
ENDBRANCH  45  49
ENDBRANCH  28  37
BRANCH  31  52
ATOM     52  O   UNL     1     -44.046  38.327  30.297  1.00  0.00    -0.388 OA
ATOM     53  H   UNL     1     -43.311  38.464  29.665  1.00  0.00     0.211 HD
ENDBRANCH  31  52
ENDBRANCH   1  24
TORSDOF 8
ENDMDL
