MODEL 1
REMARK VINA RESULT:     -11.3      0.000      0.000
REMARK SMILES O=C(NCc1ccc2cc([C@H]3CCCCN3)[nH]c2c1)c1cc(=O)n2ccccc2n1
REMARK SMILES IDX 4 1 3 4 1 5 2 6 20 8 21 9 30 10 22 11 29 13 23 14 24 15
REMARK SMILES IDX 28 16 25 17 27 18 26 20 5 24 6 25 19 26 7 27 18 29 8 31
REMARK SMILES IDX 17 33 9 34 10 35 11 38 12 39 16 40 13 42 15 45 14 47
REMARK H PARENT 4 2 4 3 3 7 21 12 28 19 25 21 27 22 26 23 6 28 19 30 7 32
REMARK H PARENT 17 36 9 37 11 41 12 43 12 44 16 46 13 48 13 49 15 50 15 51
REMARK H PARENT 14 52 14 53
REMARK Flexibility Score: inf
ROOT
ATOM      1  C   UNL     1     -48.294  36.212  27.300  1.00  0.00     0.043 C 
ATOM      2  H   UNL     1     -49.210  36.641  26.879  1.00  0.00     0.054 H 
ATOM      3  H   UNL     1     -48.502  35.969  28.348  1.00  0.00     0.054 H 
ENDROOT
BRANCH   1   4
ATOM      4  N   UNL     1     -47.226  37.179  27.288  1.00  0.00    -0.347 N 
ATOM      5  O   UNL     1     -46.359  36.662  29.356  1.00  0.00    -0.268 OA
ATOM      6  C   UNL     1     -46.386  37.371  28.358  1.00  0.00     0.270 C 
ATOM      7  H   UNL     1     -47.222  37.907  26.582  1.00  0.00     0.164 HD
BRANCH   6   8
ATOM      8  C   UNL     1     -45.496  38.579  28.177  1.00  0.00     0.136 A 
ATOM      9  C   UNL     1     -45.752  39.352  27.121  1.00  0.00     0.035 A 
ATOM     10  N   UNL     1     -44.491  38.803  29.091  1.00  0.00    -0.225 NA
ATOM     11  C   UNL     1     -44.908  40.532  26.902  1.00  0.00     0.258 A 
ATOM     12  H   UNL     1     -46.544  39.163  26.408  1.00  0.00     0.071 H 
ATOM     13  C   UNL     1     -43.745  39.846  28.892  1.00  0.00     0.140 A 
ATOM     14  O   UNL     1     -45.139  41.254  25.932  1.00  0.00    -0.269 OA
ATOM     15  N   UNL     1     -43.900  40.735  27.833  1.00  0.00    -0.268 N 
ATOM     16  C   UNL     1     -42.641  40.128  29.853  1.00  0.00    -0.019 A 
ATOM     17  C   UNL     1     -43.057  41.832  27.691  1.00  0.00     0.014 A 
ATOM     18  C   UNL     1     -41.855  41.197  29.674  1.00  0.00    -0.057 A 
ATOM     19  H   UNL     1     -42.509  39.441  30.679  1.00  0.00     0.066 H 
ATOM     20  C   UNL     1     -42.068  42.079  28.558  1.00  0.00    -0.045 A 
ATOM     21  H   UNL     1     -43.236  42.486  26.841  1.00  0.00     0.082 H 
ATOM     22  H   UNL     1     -41.045  41.418  30.363  1.00  0.00     0.062 H 
ATOM     23  H   UNL     1     -41.416  42.939  28.437  1.00  0.00     0.064 H 
ENDBRANCH   6   8
ENDBRANCH   1   4
BRANCH   1  24
ATOM     24  C   UNL     1     -47.900  34.971  26.540  1.00  0.00    -0.027 A 
ATOM     25  C   UNL     1     -46.674  34.928  25.862  1.00  0.00    -0.057 A 
ATOM     26  C   UNL     1     -48.740  33.844  26.542  1.00  0.00    -0.033 A 
ATOM     27  C   UNL     1     -46.269  33.782  25.167  1.00  0.00    -0.052 A 
ATOM     28  H   UNL     1     -46.017  35.797  25.876  1.00  0.00     0.063 H 
ATOM     29  C   UNL     1     -48.320  32.709  25.837  1.00  0.00     0.046 A 
ATOM     30  H   UNL     1     -49.689  33.851  27.070  1.00  0.00     0.065 H 
ATOM     31  C   UNL     1     -47.108  32.652  25.153  1.00  0.00    -0.000 A 
ATOM     32  H   UNL     1     -45.316  33.768  24.648  1.00  0.00     0.063 H 
ATOM     33  N   UNL     1     -48.932  31.490  25.670  1.00  0.00    -0.357 N 
ATOM     34  C   UNL     1     -47.015  31.358  24.571  1.00  0.00    -0.032 A 
ATOM     35  C   UNL     1     -48.159  30.652  24.895  1.00  0.00     0.033 A 
ATOM     36  H   UNL     1     -49.817  31.224  26.080  1.00  0.00     0.166 HD
ATOM     37  H   UNL     1     -46.189  30.990  23.977  1.00  0.00     0.065 H 
BRANCH  35  38
ATOM     38  C   UNL     1     -48.631  29.261  24.584  1.00  0.00     0.047 C 
ATOM     39  C   UNL     1     -47.875  28.596  23.415  1.00  0.00    -0.032 C 
ATOM     40  N   UNL     1     -48.600  28.488  25.838  1.00  0.00    -0.309 NA
ATOM     41  H   UNL     1     -49.681  29.344  24.273  1.00  0.00     0.053 H 
ATOM     42  C   UNL     1     -46.677  27.783  23.897  1.00  0.00    -0.050 C 
ATOM     43  H   UNL     1     -48.560  27.911  22.896  1.00  0.00     0.029 H 
ATOM     44  H   UNL     1     -47.557  29.330  22.665  1.00  0.00     0.029 H 
ATOM     45  C   UNL     1     -48.450  27.057  25.582  1.00  0.00    -0.004 C 
ATOM     46  H   UNL     1     -47.785  28.795  26.374  1.00  0.00     0.123 HD
ATOM     47  C   UNL     1     -47.094  26.748  24.944  1.00  0.00    -0.041 C 
ATOM     48  H   UNL     1     -46.189  27.285  23.052  1.00  0.00     0.027 H 
ATOM     49  H   UNL     1     -45.929  28.456  24.333  1.00  0.00     0.027 H 
ATOM     50  H   UNL     1     -48.537  26.510  26.527  1.00  0.00     0.043 H 
ATOM     51  H   UNL     1     -49.270  26.701  24.946  1.00  0.00     0.043 H 
ATOM     52  H   UNL     1     -46.318  26.693  25.716  1.00  0.00     0.028 H 
ATOM     53  H   UNL     1     -47.142  25.755  24.480  1.00  0.00     0.028 H 
ENDBRANCH  35  38
ENDBRANCH   1  24
TORSDOF 4
ENDMDL
MODEL 2
REMARK VINA RESULT:     -11.2      2.241      3.343
REMARK SMILES O=C(NCc1ccc2cc([C@H]3CCCCN3)[nH]c2c1)c1cc(=O)n2ccccc2n1
REMARK SMILES IDX 4 1 3 4 1 5 2 6 20 8 21 9 30 10 22 11 29 13 23 14 24 15
REMARK SMILES IDX 28 16 25 17 27 18 26 20 5 24 6 25 19 26 7 27 18 29 8 31
REMARK SMILES IDX 17 33 9 34 10 35 11 38 12 39 16 40 13 42 15 45 14 47
REMARK H PARENT 4 2 4 3 3 7 21 12 28 19 25 21 27 22 26 23 6 28 19 30 7 32
REMARK H PARENT 17 36 9 37 11 41 12 43 12 44 16 46 13 48 13 49 15 50 15 51
REMARK H PARENT 14 52 14 53
REMARK Flexibility Score: inf
ROOT
ATOM      1  C   UNL     1     -46.046  36.379  29.512  1.00  0.00     0.043 C 
ATOM      2  H   UNL     1     -46.859  36.775  30.131  1.00  0.00     0.054 H 
ATOM      3  H   UNL     1     -45.413  35.765  30.161  1.00  0.00     0.054 H 
ENDROOT
BRANCH   1   4
ATOM      4  N   UNL     1     -45.227  37.448  29.000  1.00  0.00    -0.347 N 
ATOM      5  O   UNL     1     -44.528  38.262  31.036  1.00  0.00    -0.268 OA
ATOM      6  C   UNL     1     -44.589  38.350  29.817  1.00  0.00     0.270 C 
ATOM      7  H   UNL     1     -45.298  37.705  28.022  1.00  0.00     0.164 HD
BRANCH   6   8
ATOM      8  C   UNL     1     -43.975  39.491  29.039  1.00  0.00     0.136 A 
ATOM      9  C   UNL     1     -42.910  40.078  29.588  1.00  0.00     0.035 A 
ATOM     10  N   UNL     1     -44.541  39.854  27.837  1.00  0.00    -0.225 NA
ATOM     11  C   UNL     1     -42.285  41.195  28.871  1.00  0.00     0.258 A 
ATOM     12  H   UNL     1     -42.476  39.785  30.536  1.00  0.00     0.071 H 
ATOM     13  C   UNL     1     -43.986  40.844  27.208  1.00  0.00     0.140 A 
ATOM     14  O   UNL     1     -41.299  41.740  29.367  1.00  0.00    -0.269 OA
ATOM     15  N   UNL     1     -42.875  41.545  27.665  1.00  0.00    -0.268 N 
ATOM     16  C   UNL     1     -44.566  41.276  25.904  1.00  0.00    -0.019 A 
ATOM     17  C   UNL     1     -42.339  42.596  26.928  1.00  0.00     0.014 A 
ATOM     18  C   UNL     1     -44.015  42.294  25.232  1.00  0.00    -0.057 A 
ATOM     19  H   UNL     1     -45.433  40.739  25.540  1.00  0.00     0.066 H 
ATOM     20  C   UNL     1     -42.864  42.978  25.758  1.00  0.00    -0.045 A 
ATOM     21  H   UNL     1     -41.470  43.099  27.345  1.00  0.00     0.082 H 
ATOM     22  H   UNL     1     -44.424  42.624  24.281  1.00  0.00     0.062 H 
ATOM     23  H   UNL     1     -42.438  43.800  25.192  1.00  0.00     0.064 H 
ENDBRANCH   6   8
ENDBRANCH   1   4
BRANCH   1  24
ATOM     24  C   UNL     1     -46.605  35.548  28.384  1.00  0.00    -0.027 A 
ATOM     25  C   UNL     1     -47.918  35.764  27.942  1.00  0.00    -0.057 A 
ATOM     26  C   UNL     1     -45.802  34.584  27.750  1.00  0.00    -0.033 A 
ATOM     27  C   UNL     1     -48.458  35.025  26.883  1.00  0.00    -0.052 A 
ATOM     28  H   UNL     1     -48.533  36.524  28.424  1.00  0.00     0.063 H 
ATOM     29  C   UNL     1     -46.361  33.852  26.696  1.00  0.00     0.046 A 
ATOM     30  H   UNL     1     -44.779  34.408  28.068  1.00  0.00     0.065 H 
ATOM     31  C   UNL     1     -47.665  34.050  26.249  1.00  0.00    -0.000 A 
ATOM     32  H   UNL     1     -49.476  35.207  26.555  1.00  0.00     0.063 H 
ATOM     33  N   UNL     1     -45.815  32.863  25.913  1.00  0.00    -0.357 N 
ATOM     34  C   UNL     1     -47.881  33.147  25.172  1.00  0.00    -0.032 A 
ATOM     35  C   UNL     1     -46.726  32.412  24.982  1.00  0.00     0.033 A 
ATOM     36  H   UNL     1     -44.865  32.525  25.984  1.00  0.00     0.166 HD
ATOM     37  H   UNL     1     -48.795  33.053  24.600  1.00  0.00     0.065 H 
BRANCH  35  38
ATOM     38  C   UNL     1     -46.343  31.331  24.014  1.00  0.00     0.047 C 
ATOM     39  C   UNL     1     -47.402  30.216  23.878  1.00  0.00    -0.032 C 
ATOM     40  N   UNL     1     -45.984  31.978  22.740  1.00  0.00    -0.309 NA
ATOM     41  H   UNL     1     -45.436  30.855  24.410  1.00  0.00     0.053 H 
ATOM     42  C   UNL     1     -48.386  30.497  22.746  1.00  0.00    -0.050 C 
ATOM     43  H   UNL     1     -46.890  29.269  23.652  1.00  0.00     0.029 H 
ATOM     44  H   UNL     1     -47.943  30.051  24.817  1.00  0.00     0.029 H 
ATOM     45  C   UNL     1     -46.177  31.075  21.606  1.00  0.00    -0.004 C 
ATOM     46  H   UNL     1     -46.607  32.778  22.610  1.00  0.00     0.123 HD
ATOM     47  C   UNL     1     -47.656  30.729  21.421  1.00  0.00    -0.041 C 
ATOM     48  H   UNL     1     -49.095  29.669  22.642  1.00  0.00     0.027 H 
ATOM     49  H   UNL     1     -48.981  31.385  22.990  1.00  0.00     0.027 H 
ATOM     50  H   UNL     1     -45.802  31.554  20.695  1.00  0.00     0.043 H 
ATOM     51  H   UNL     1     -45.578  30.166  21.743  1.00  0.00     0.043 H 
ATOM     52  H   UNL     1     -48.165  31.530  20.872  1.00  0.00     0.028 H 
ATOM     53  H   UNL     1     -47.731  29.830  20.797  1.00  0.00     0.028 H 
ENDBRANCH  35  38
ENDBRANCH   1  24
TORSDOF 4
ENDMDL
MODEL 3
REMARK VINA RESULT:     -11.1      1.395      2.003
REMARK SMILES O=C(NCc1ccc2cc([C@H]3CCCCN3)[nH]c2c1)c1cc(=O)n2ccccc2n1
REMARK SMILES IDX 4 1 3 4 1 5 2 6 20 8 21 9 30 10 22 11 29 13 23 14 24 15
REMARK SMILES IDX 28 16 25 17 27 18 26 20 5 24 6 25 19 26 7 27 18 29 8 31
REMARK SMILES IDX 17 33 9 34 10 35 11 38 12 39 16 40 13 42 15 45 14 47
REMARK H PARENT 4 2 4 3 3 7 21 12 28 19 25 21 27 22 26 23 6 28 19 30 7 32
REMARK H PARENT 17 36 9 37 11 41 12 43 12 44 16 46 13 48 13 49 15 50 15 51
REMARK H PARENT 14 52 14 53
REMARK Flexibility Score: inf
ROOT
ATOM      1  C   UNL     1     -48.409  35.435  27.212  1.00  0.00     0.043 C 
ATOM      2  H   UNL     1     -49.290  35.931  26.792  1.00  0.00     0.054 H 
ATOM      3  H   UNL     1     -48.681  35.083  28.213  1.00  0.00     0.054 H 
ENDROOT
BRANCH   1   4
ATOM      4  N   UNL     1     -47.322  36.367  27.366  1.00  0.00    -0.347 N 
ATOM      5  O   UNL     1     -46.958  36.002  29.609  1.00  0.00    -0.268 OA
ATOM      6  C   UNL     1     -46.732  36.626  28.580  1.00  0.00     0.270 C 
ATOM      7  H   UNL     1     -47.129  37.033  26.626  1.00  0.00     0.164 HD
BRANCH   6   8
ATOM      8  C   UNL     1     -45.770  37.789  28.512  1.00  0.00     0.136 A 
ATOM      9  C   UNL     1     -44.947  37.940  29.552  1.00  0.00     0.035 A 
ATOM     10  N   UNL     1     -45.802  38.612  27.408  1.00  0.00    -0.225 NA
ATOM     11  C   UNL     1     -44.000  39.060  29.532  1.00  0.00     0.258 A 
ATOM     12  H   UNL     1     -44.934  37.287  30.415  1.00  0.00     0.071 H 
ATOM     13  C   UNL     1     -44.965  39.604  27.397  1.00  0.00     0.140 A 
ATOM     14  O   UNL     1     -43.234  39.205  30.484  1.00  0.00    -0.269 OA
ATOM     15  N   UNL     1     -44.054  39.878  28.412  1.00  0.00    -0.268 N 
ATOM     16  C   UNL     1     -44.965  40.525  26.225  1.00  0.00    -0.019 A 
ATOM     17  C   UNL     1     -43.188  40.963  28.323  1.00  0.00     0.014 A 
ATOM     18  C   UNL     1     -44.113  41.557  26.185  1.00  0.00    -0.057 A 
ATOM     19  H   UNL     1     -45.672  40.323  25.430  1.00  0.00     0.066 H 
ATOM     20  C   UNL     1     -43.194  41.785  27.267  1.00  0.00    -0.045 A 
ATOM     21  H   UNL     1     -42.502  41.117  29.152  1.00  0.00     0.082 H 
ATOM     22  H   UNL     1     -44.099  42.239  25.340  1.00  0.00     0.062 H 
ATOM     23  H   UNL     1     -42.514  42.629  27.208  1.00  0.00     0.064 H 
ENDBRANCH   6   8
ENDBRANCH   1   4
BRANCH   1  24
ATOM     24  C   UNL     1     -47.997  34.274  26.340  1.00  0.00    -0.027 A 
ATOM     25  C   UNL     1     -46.755  34.295  25.693  1.00  0.00    -0.057 A 
ATOM     26  C   UNL     1     -48.840  33.157  26.206  1.00  0.00    -0.033 A 
ATOM     27  C   UNL     1     -46.334  33.223  24.895  1.00  0.00    -0.052 A 
ATOM     28  H   UNL     1     -46.096  35.154  25.812  1.00  0.00     0.063 H 
ATOM     29  C   UNL     1     -48.404  32.098  25.400  1.00  0.00     0.046 A 
ATOM     30  H   UNL     1     -49.802  33.115  26.707  1.00  0.00     0.065 H 
ATOM     31  C   UNL     1     -47.175  32.105  24.746  1.00  0.00    -0.000 A 
ATOM     32  H   UNL     1     -45.368  33.257  24.402  1.00  0.00     0.063 H 
ATOM     33  N   UNL     1     -49.015  30.905  25.095  1.00  0.00    -0.357 N 
ATOM     34  C   UNL     1     -47.070  30.876  24.038  1.00  0.00    -0.032 A 
ATOM     35  C   UNL     1     -48.223  30.146  24.259  1.00  0.00     0.033 A 
ATOM     36  H   UNL     1     -49.911  30.603  25.453  1.00  0.00     0.166 HD
ATOM     37  H   UNL     1     -46.229  30.566  23.431  1.00  0.00     0.065 H 
BRANCH  35  38
ATOM     38  C   UNL     1     -48.690  28.797  23.797  1.00  0.00     0.047 C 
ATOM     39  C   UNL     1     -47.583  27.721  23.801  1.00  0.00    -0.032 C 
ATOM     40  N   UNL     1     -49.879  28.439  24.590  1.00  0.00    -0.309 NA
ATOM     41  H   UNL     1     -49.011  28.912  22.753  1.00  0.00     0.053 H 
ATOM     42  C   UNL     1     -47.541  26.949  25.116  1.00  0.00    -0.050 C 
ATOM     43  H   UNL     1     -47.785  27.003  22.994  1.00  0.00     0.029 H 
ATOM     44  H   UNL     1     -46.597  28.151  23.584  1.00  0.00     0.029 H 
ATOM     45  C   UNL     1     -50.053  26.990  24.671  1.00  0.00    -0.004 C 
ATOM     46  H   UNL     1     -49.737  28.789  25.540  1.00  0.00     0.123 HD
ATOM     47  C   UNL     1     -48.905  26.337  25.444  1.00  0.00    -0.041 C 
ATOM     48  H   UNL     1     -46.779  26.163  25.074  1.00  0.00     0.027 H 
ATOM     49  H   UNL     1     -47.244  27.624  25.929  1.00  0.00     0.027 H 
ATOM     50  H   UNL     1     -51.000  26.768  25.176  1.00  0.00     0.043 H 
ATOM     51  H   UNL     1     -50.137  26.564  23.663  1.00  0.00     0.043 H 
ATOM     52  H   UNL     1     -49.081  26.421  26.522  1.00  0.00     0.028 H 
ATOM     53  H   UNL     1     -48.892  25.264  25.213  1.00  0.00     0.028 H 
ENDBRANCH  35  38
ENDBRANCH   1  24
TORSDOF 4
ENDMDL
MODEL 4
REMARK VINA RESULT:     -10.7      2.171      3.225
REMARK SMILES O=C(NCc1ccc2cc([C@H]3CCCCN3)[nH]c2c1)c1cc(=O)n2ccccc2n1
REMARK SMILES IDX 4 1 3 4 1 5 2 6 20 8 21 9 30 10 22 11 29 13 23 14 24 15
REMARK SMILES IDX 28 16 25 17 27 18 26 20 5 24 6 25 19 26 7 27 18 29 8 31
REMARK SMILES IDX 17 33 9 34 10 35 11 38 12 39 16 40 13 42 15 45 14 47
REMARK H PARENT 4 2 4 3 3 7 21 12 28 19 25 21 27 22 26 23 6 28 19 30 7 32
REMARK H PARENT 17 36 9 37 11 41 12 43 12 44 16 46 13 48 13 49 15 50 15 51
REMARK H PARENT 14 52 14 53
REMARK Flexibility Score: inf
ROOT
ATOM      1  C   UNL     1     -45.630  36.702  28.748  1.00  0.00     0.043 C 
ATOM      2  H   UNL     1     -46.275  36.954  29.597  1.00  0.00     0.054 H 
ATOM      3  H   UNL     1     -44.707  36.278  29.158  1.00  0.00     0.054 H 
ENDROOT
BRANCH   1   4
ATOM      4  N   UNL     1     -45.267  37.886  28.013  1.00  0.00    -0.347 N 
ATOM      5  O   UNL     1     -44.220  38.981  29.745  1.00  0.00    -0.268 OA
ATOM      6  C   UNL     1     -44.650  38.965  28.599  1.00  0.00     0.270 C 
ATOM      7  H   UNL     1     -45.676  38.049  27.099  1.00  0.00     0.164 HD
BRANCH   6   8
ATOM      8  C   UNL     1     -44.571  40.154  27.670  1.00  0.00     0.136 A 
ATOM      9  C   UNL     1     -45.719  40.554  27.120  1.00  0.00     0.035 A 
ATOM     10  N   UNL     1     -43.345  40.738  27.445  1.00  0.00    -0.225 NA
ATOM     11  C   UNL     1     -45.689  41.702  26.206  1.00  0.00     0.258 A 
ATOM     12  H   UNL     1     -46.677  40.085  27.304  1.00  0.00     0.071 H 
ATOM     13  C   UNL     1     -43.323  41.751  26.633  1.00  0.00     0.140 A 
ATOM     14  O   UNL     1     -46.743  42.082  25.697  1.00  0.00    -0.269 OA
ATOM     15  N   UNL     1     -44.442  42.271  25.992  1.00  0.00    -0.268 N 
ATOM     16  C   UNL     1     -42.017  42.414  26.355  1.00  0.00    -0.019 A 
ATOM     17  C   UNL     1     -44.333  43.362  25.135  1.00  0.00     0.014 A 
ATOM     18  C   UNL     1     -41.962  43.461  25.522  1.00  0.00    -0.057 A 
ATOM     19  H   UNL     1     -41.139  42.015  26.846  1.00  0.00     0.066 H 
ATOM     20  C   UNL     1     -43.158  43.953  24.891  1.00  0.00    -0.045 A 
ATOM     21  H   UNL     1     -45.249  43.717  24.669  1.00  0.00     0.082 H 
ATOM     22  H   UNL     1     -41.021  43.956  25.306  1.00  0.00     0.062 H 
ATOM     23  H   UNL     1     -43.085  44.803  24.221  1.00  0.00     0.064 H 
ENDBRANCH   6   8
ENDBRANCH   1   4
BRANCH   1  24
ATOM     24  C   UNL     1     -46.314  35.703  27.849  1.00  0.00    -0.027 A 
ATOM     25  C   UNL     1     -47.710  35.708  27.736  1.00  0.00    -0.057 A 
ATOM     26  C   UNL     1     -45.552  34.793  27.095  1.00  0.00    -0.033 A 
ATOM     27  C   UNL     1     -48.374  34.808  26.892  1.00  0.00    -0.052 A 
ATOM     28  H   UNL     1     -48.297  36.426  28.308  1.00  0.00     0.063 H 
ATOM     29  C   UNL     1     -46.234  33.898  26.260  1.00  0.00     0.046 A 
ATOM     30  H   UNL     1     -44.469  34.779  27.158  1.00  0.00     0.065 H 
ATOM     31  C   UNL     1     -47.622  33.886  26.141  1.00  0.00    -0.000 A 
ATOM     32  H   UNL     1     -49.456  34.828  26.818  1.00  0.00     0.063 H 
ATOM     33  N   UNL     1     -45.751  32.916  25.429  1.00  0.00    -0.357 N 
ATOM     34  C   UNL     1     -47.953  32.864  25.210  1.00  0.00    -0.032 A 
ATOM     35  C   UNL     1     -46.782  32.267  24.784  1.00  0.00     0.033 A 
ATOM     36  H   UNL     1     -44.772  32.710  25.281  1.00  0.00     0.166 HD
ATOM     37  H   UNL     1     -48.953  32.601  24.891  1.00  0.00     0.065 H 
BRANCH  35  38
ATOM     38  C   UNL     1     -46.487  31.155  23.819  1.00  0.00     0.047 C 
ATOM     39  C   UNL     1     -47.666  30.179  23.617  1.00  0.00    -0.032 C 
ATOM     40  N   UNL     1     -45.991  31.764  22.573  1.00  0.00    -0.309 NA
ATOM     41  H   UNL     1     -45.665  30.569  24.251  1.00  0.00     0.053 H 
ATOM     42  C   UNL     1     -48.553  30.588  22.445  1.00  0.00    -0.050 C 
ATOM     43  H   UNL     1     -47.263  29.179  23.402  1.00  0.00     0.029 H 
ATOM     44  H   UNL     1     -48.268  30.074  24.527  1.00  0.00     0.029 H 
ATOM     45  C   UNL     1     -46.237  30.902  21.419  1.00  0.00    -0.004 C 
ATOM     46  H   UNL     1     -46.505  32.636  22.426  1.00  0.00     0.123 HD
ATOM     47  C   UNL     1     -47.737  30.741  21.159  1.00  0.00    -0.041 C 
ATOM     48  H   UNL     1     -49.351  29.854  22.296  1.00  0.00     0.027 H 
ATOM     49  H   UNL     1     -49.047  31.541  22.673  1.00  0.00     0.027 H 
ATOM     50  H   UNL     1     -45.763  31.339  20.533  1.00  0.00     0.043 H 
ATOM     51  H   UNL     1     -45.761  29.925  21.570  1.00  0.00     0.043 H 
ATOM     52  H   UNL     1     -48.117  31.603  20.598  1.00  0.00     0.028 H 
ATOM     53  H   UNL     1     -47.890  29.863  20.519  1.00  0.00     0.028 H 
ENDBRANCH  35  38
ENDBRANCH   1  24
TORSDOF 4
ENDMDL
MODEL 5
REMARK VINA RESULT:     -10.6      1.387      2.251
REMARK SMILES O=C(NCc1ccc2cc([C@H]3CCCCN3)[nH]c2c1)c1cc(=O)n2ccccc2n1
REMARK SMILES IDX 4 1 3 4 1 5 2 6 20 8 21 9 30 10 22 11 29 13 23 14 24 15
REMARK SMILES IDX 28 16 25 17 27 18 26 20 5 24 6 25 19 26 7 27 18 29 8 31
REMARK SMILES IDX 17 33 9 34 10 35 11 38 12 39 16 40 13 42 15 45 14 47
REMARK H PARENT 4 2 4 3 3 7 21 12 28 19 25 21 27 22 26 23 6 28 19 30 7 32
REMARK H PARENT 17 36 9 37 11 41 12 43 12 44 16 46 13 48 13 49 15 50 15 51
REMARK H PARENT 14 52 14 53
REMARK Flexibility Score: inf
ROOT
ATOM      1  C   UNL     1     -48.570  36.867  27.538  1.00  0.00     0.043 C 
ATOM      2  H   UNL     1     -49.140  37.483  26.834  1.00  0.00     0.054 H 
ATOM      3  H   UNL     1     -49.238  36.628  28.373  1.00  0.00     0.054 H 
ENDROOT
BRANCH   1   4
ATOM      4  N   UNL     1     -47.457  37.605  28.077  1.00  0.00    -0.347 N 
ATOM      5  O   UNL     1     -47.248  39.103  26.343  1.00  0.00    -0.268 OA
ATOM      6  C   UNL     1     -46.840  38.624  27.393  1.00  0.00     0.270 C 
ATOM      7  H   UNL     1     -46.949  37.229  28.871  1.00  0.00     0.164 HD
BRANCH   6   8
ATOM      8  C   UNL     1     -45.575  39.089  28.077  1.00  0.00     0.136 A 
ATOM      9  C   UNL     1     -45.258  38.477  29.219  1.00  0.00     0.035 A 
ATOM     10  N   UNL     1     -44.842  40.099  27.496  1.00  0.00    -0.225 NA
ATOM     11  C   UNL     1     -44.041  38.900  29.921  1.00  0.00     0.258 A 
ATOM     12  H   UNL     1     -45.845  37.684  29.666  1.00  0.00     0.071 H 
ATOM     13  C   UNL     1     -43.768  40.473  28.123  1.00  0.00     0.140 A 
ATOM     14  O   UNL     1     -43.738  38.338  30.973  1.00  0.00    -0.269 OA
ATOM     15  N   UNL     1     -43.322  39.923  29.320  1.00  0.00    -0.268 N 
ATOM     16  C   UNL     1     -42.943  41.567  27.535  1.00  0.00    -0.019 A 
ATOM     17  C   UNL     1     -42.157  40.380  29.928  1.00  0.00     0.014 A 
ATOM     18  C   UNL     1     -41.831  41.974  28.158  1.00  0.00    -0.057 A 
ATOM     19  H   UNL     1     -43.283  42.005  26.605  1.00  0.00     0.066 H 
ATOM     20  C   UNL     1     -41.422  41.362  29.394  1.00  0.00    -0.045 A 
ATOM     21  H   UNL     1     -41.867  39.904  30.861  1.00  0.00     0.082 H 
ATOM     22  H   UNL     1     -41.217  42.770  27.746  1.00  0.00     0.062 H 
ATOM     23  H   UNL     1     -40.515  41.711  29.877  1.00  0.00     0.064 H 
ENDBRANCH   6   8
ENDBRANCH   1   4
BRANCH   1  24
ATOM     24  C   UNL     1     -48.097  35.603  26.863  1.00  0.00    -0.027 A 
ATOM     25  C   UNL     1     -46.792  35.528  26.359  1.00  0.00    -0.057 A 
ATOM     26  C   UNL     1     -48.949  34.489  26.774  1.00  0.00    -0.033 A 
ATOM     27  C   UNL     1     -46.316  34.361  25.748  1.00  0.00    -0.052 A 
ATOM     28  H   UNL     1     -46.128  36.387  26.445  1.00  0.00     0.063 H 
ATOM     29  C   UNL     1     -48.457  33.332  26.155  1.00  0.00     0.046 A 
ATOM     30  H   UNL     1     -49.960  34.521  27.168  1.00  0.00     0.065 H 
ATOM     31  C   UNL     1     -47.164  33.243  25.644  1.00  0.00    -0.000 A 
ATOM     32  H   UNL     1     -45.302  34.323  25.364  1.00  0.00     0.063 H 
ATOM     33  N   UNL     1     -49.062  32.119  25.931  1.00  0.00    -0.357 N 
ATOM     34  C   UNL     1     -47.016  31.935  25.106  1.00  0.00    -0.032 A 
ATOM     35  C   UNL     1     -48.204  31.253  25.286  1.00  0.00     0.033 A 
ATOM     36  H   UNL     1     -49.998  31.874  26.223  1.00  0.00     0.166 HD
ATOM     37  H   UNL     1     -46.123  31.543  24.637  1.00  0.00     0.065 H 
BRANCH  35  38
ATOM     38  C   UNL     1     -48.654  29.863  24.942  1.00  0.00     0.047 C 
ATOM     39  C   UNL     1     -49.941  29.818  24.092  1.00  0.00    -0.032 C 
ATOM     40  N   UNL     1     -47.509  29.160  24.337  1.00  0.00    -0.309 NA
ATOM     41  H   UNL     1     -48.886  29.360  25.891  1.00  0.00     0.053 H 
ATOM     42  C   UNL     1     -49.639  29.792  22.597  1.00  0.00    -0.050 C 
ATOM     43  H   UNL     1     -50.497  28.902  24.340  1.00  0.00     0.029 H 
ATOM     44  H   UNL     1     -50.613  30.652  24.327  1.00  0.00     0.029 H 
ATOM     45  C   UNL     1     -47.948  28.082  23.452  1.00  0.00    -0.004 C 
ATOM     46  H   UNL     1     -46.992  29.836  23.771  1.00  0.00     0.123 HD
ATOM     47  C   UNL     1     -48.703  28.634  22.241  1.00  0.00    -0.041 C 
ATOM     48  H   UNL     1     -50.567  29.713  22.021  1.00  0.00     0.027 H 
ATOM     49  H   UNL     1     -49.171  30.738  22.301  1.00  0.00     0.027 H 
ATOM     50  H   UNL     1     -47.074  27.520  23.107  1.00  0.00     0.043 H 
ATOM     51  H   UNL     1     -48.570  27.369  24.008  1.00  0.00     0.043 H 
ATOM     52  H   UNL     1     -47.993  28.975  21.478  1.00  0.00     0.028 H 
ATOM     53  H   UNL     1     -49.281  27.820  21.786  1.00  0.00     0.028 H 
ENDBRANCH  35  38
ENDBRANCH   1  24
TORSDOF 4
ENDMDL
MODEL 6
REMARK VINA RESULT:     -10.5      1.884      2.908
REMARK SMILES O=C(NCc1ccc2cc([C@H]3CCCCN3)[nH]c2c1)c1cc(=O)n2ccccc2n1
REMARK SMILES IDX 4 1 3 4 1 5 2 6 20 8 21 9 30 10 22 11 29 13 23 14 24 15
REMARK SMILES IDX 28 16 25 17 27 18 26 20 5 24 6 25 19 26 7 27 18 29 8 31
REMARK SMILES IDX 17 33 9 34 10 35 11 38 12 39 16 40 13 42 15 45 14 47
REMARK H PARENT 4 2 4 3 3 7 21 12 28 19 25 21 27 22 26 23 6 28 19 30 7 32
REMARK H PARENT 17 36 9 37 11 41 12 43 12 44 16 46 13 48 13 49 15 50 15 51
REMARK H PARENT 14 52 14 53
REMARK Flexibility Score: inf
ROOT
ATOM      1  C   UNL     1     -47.940  37.961  28.068  1.00  0.00     0.043 C 
ATOM      2  H   UNL     1     -48.870  38.368  27.656  1.00  0.00     0.054 H 
ATOM      3  H   UNL     1     -48.086  37.847  29.148  1.00  0.00     0.054 H 
ENDROOT
BRANCH   1   4
ATOM      4  N   UNL     1     -46.850  38.884  27.879  1.00  0.00    -0.347 N 
ATOM      5  O   UNL     1     -47.919  40.276  26.390  1.00  0.00    -0.268 OA
ATOM      6  C   UNL     1     -46.910  39.931  26.992  1.00  0.00     0.270 C 
ATOM      7  H   UNL     1     -45.926  38.638  28.217  1.00  0.00     0.164 HD
BRANCH   6   8
ATOM      8  C   UNL     1     -45.574  40.616  26.824  1.00  0.00     0.136 A 
ATOM      9  C   UNL     1     -44.658  40.368  27.762  1.00  0.00     0.035 A 
ATOM     10  N   UNL     1     -45.385  41.443  25.740  1.00  0.00    -0.225 NA
ATOM     11  C   UNL     1     -43.347  41.016  27.642  1.00  0.00     0.258 A 
ATOM     12  H   UNL     1     -44.819  39.716  28.611  1.00  0.00     0.071 H 
ATOM     13  C   UNL     1     -44.225  42.018  25.641  1.00  0.00     0.140 A 
ATOM     14  O   UNL     1     -42.493  40.790  28.500  1.00  0.00    -0.269 OA
ATOM     15  N   UNL     1     -43.182  41.848  26.545  1.00  0.00    -0.268 N 
ATOM     16  C   UNL     1     -43.975  42.926  24.485  1.00  0.00    -0.019 A 
ATOM     17  C   UNL     1     -41.967  42.501  26.365  1.00  0.00     0.014 A 
ATOM     18  C   UNL     1     -42.789  43.532  24.356  1.00  0.00    -0.057 A 
ATOM     19  H   UNL     1     -44.782  43.068  23.777  1.00  0.00     0.066 H 
ATOM     20  C   UNL     1     -41.749  43.314  25.325  1.00  0.00    -0.045 A 
ATOM     21  H   UNL     1     -41.195  42.321  27.110  1.00  0.00     0.082 H 
ATOM     22  H   UNL     1     -42.589  44.198  23.521  1.00  0.00     0.062 H 
ATOM     23  H   UNL     1     -40.797  43.818  25.195  1.00  0.00     0.064 H 
ENDBRANCH   6   8
ENDBRANCH   1   4
BRANCH   1  24
ATOM     24  C   UNL     1     -47.627  36.627  27.436  1.00  0.00    -0.027 A 
ATOM     25  C   UNL     1     -46.297  36.279  27.165  1.00  0.00    -0.057 A 
ATOM     26  C   UNL     1     -48.662  35.719  27.154  1.00  0.00    -0.033 A 
ATOM     27  C   UNL     1     -45.972  35.040  26.599  1.00  0.00    -0.052 A 
ATOM     28  H   UNL     1     -45.496  36.978  27.400  1.00  0.00     0.063 H 
ATOM     29  C   UNL     1     -48.318  34.486  26.584  1.00  0.00     0.046 A 
ATOM     30  H   UNL     1     -49.698  35.963  27.367  1.00  0.00     0.065 H 
ATOM     31  C   UNL     1     -47.001  34.127  26.303  1.00  0.00    -0.000 A 
ATOM     32  H   UNL     1     -44.936  34.789  26.396  1.00  0.00     0.063 H 
ATOM     33  N   UNL     1     -49.111  33.429  26.209  1.00  0.00    -0.357 N 
ATOM     34  C   UNL     1     -47.034  32.819  25.747  1.00  0.00    -0.032 A 
ATOM     35  C   UNL     1     -48.351  32.403  25.688  1.00  0.00     0.033 A 
ATOM     36  H   UNL     1     -50.115  33.387  26.323  1.00  0.00     0.166 HD
ATOM     37  H   UNL     1     -46.173  32.248  25.425  1.00  0.00     0.065 H 
BRANCH  35  38
ATOM     38  C   UNL     1     -49.010  31.140  25.215  1.00  0.00     0.047 C 
ATOM     39  C   UNL     1     -48.911  30.922  23.690  1.00  0.00    -0.032 C 
ATOM     40  N   UNL     1     -48.473  30.028  26.018  1.00  0.00    -0.309 NA
ATOM     41  H   UNL     1     -50.079  31.232  25.450  1.00  0.00     0.053 H 
ATOM     42  C   UNL     1     -47.686  30.097  23.309  1.00  0.00    -0.050 C 
ATOM     43  H   UNL     1     -49.804  30.376  23.353  1.00  0.00     0.029 H 
ATOM     44  H   UNL     1     -48.913  31.871  23.142  1.00  0.00     0.029 H 
ATOM     45  C   UNL     1     -48.558  28.758  25.299  1.00  0.00    -0.004 C 
ATOM     46  H   UNL     1     -47.485  30.220  26.196  1.00  0.00     0.123 HD
ATOM     47  C   UNL     1     -47.659  28.763  24.060  1.00  0.00    -0.041 C 
ATOM     48  H   UNL     1     -47.667  29.918  22.229  1.00  0.00     0.027 H 
ATOM     49  H   UNL     1     -46.775  30.661  23.545  1.00  0.00     0.027 H 
ATOM     50  H   UNL     1     -48.249  27.945  25.965  1.00  0.00     0.043 H 
ATOM     51  H   UNL     1     -49.599  28.549  25.025  1.00  0.00     0.043 H 
ATOM     52  H   UNL     1     -46.625  28.537  24.343  1.00  0.00     0.028 H 
ATOM     53  H   UNL     1     -47.981  27.957  23.389  1.00  0.00     0.028 H 
ENDBRANCH  35  38
ENDBRANCH   1  24
TORSDOF 4
ENDMDL
MODEL 7
REMARK VINA RESULT:     -10.4      2.531      4.419
REMARK SMILES O=C(NCc1ccc2cc([C@H]3CCCCN3)[nH]c2c1)c1cc(=O)n2ccccc2n1
REMARK SMILES IDX 4 1 3 4 1 5 2 6 20 8 21 9 30 10 22 11 29 13 23 14 24 15
REMARK SMILES IDX 28 16 25 17 27 18 26 20 5 24 6 25 19 26 7 27 18 29 8 31
REMARK SMILES IDX 17 33 9 34 10 35 11 38 12 39 16 40 13 42 15 45 14 47
REMARK H PARENT 4 2 4 3 3 7 21 12 28 19 25 21 27 22 26 23 6 28 19 30 7 32
REMARK H PARENT 17 36 9 37 11 41 12 43 12 44 16 46 13 48 13 49 15 50 15 51
REMARK H PARENT 14 52 14 53
REMARK Flexibility Score: inf
ROOT
ATOM      1  C   UNL     1     -44.966  38.544  29.045  1.00  0.00     0.043 C 
ATOM      2  H   UNL     1     -45.488  38.959  29.914  1.00  0.00     0.054 H 
ATOM      3  H   UNL     1     -44.035  38.096  29.410  1.00  0.00     0.054 H 
ENDROOT
BRANCH   1   4
ATOM      4  N   UNL     1     -44.605  39.588  28.120  1.00  0.00    -0.347 N 
ATOM      5  O   UNL     1     -42.845  40.440  29.334  1.00  0.00    -0.268 OA
ATOM      6  C   UNL     1     -43.611  40.500  28.381  1.00  0.00     0.270 C 
ATOM      7  H   UNL     1     -45.237  39.822  27.363  1.00  0.00     0.164 HD
BRANCH   6   8
ATOM      8  C   UNL     1     -43.573  41.612  27.359  1.00  0.00     0.136 A 
ATOM      9  C   UNL     1     -42.368  41.953  26.898  1.00  0.00     0.035 A 
ATOM     10  N   UNL     1     -44.757  42.200  26.975  1.00  0.00    -0.225 NA
ATOM     11  C   UNL     1     -42.282  43.033  25.908  1.00  0.00     0.258 A 
ATOM     12  H   UNL     1     -41.443  41.484  27.210  1.00  0.00     0.071 H 
ATOM     13  C   UNL     1     -44.676  43.158  26.102  1.00  0.00     0.140 A 
ATOM     14  O   UNL     1     -41.176  43.352  25.474  1.00  0.00    -0.269 OA
ATOM     15  N   UNL     1     -43.487  43.613  25.541  1.00  0.00    -0.268 N 
ATOM     16  C   UNL     1     -45.931  43.828  25.659  1.00  0.00    -0.019 A 
ATOM     17  C   UNL     1     -43.486  44.646  24.609  1.00  0.00     0.014 A 
ATOM     18  C   UNL     1     -45.880  44.818  24.760  1.00  0.00    -0.057 A 
ATOM     19  H   UNL     1     -46.862  43.483  26.092  1.00  0.00     0.066 H 
ATOM     20  C   UNL     1     -44.618  45.242  24.215  1.00  0.00    -0.045 A 
ATOM     21  H   UNL     1     -42.522  44.951  24.210  1.00  0.00     0.082 H 
ATOM     22  H   UNL     1     -46.783  45.319  24.426  1.00  0.00     0.062 H 
ATOM     23  H   UNL     1     -44.605  46.047  23.487  1.00  0.00     0.064 H 
ENDBRANCH   6   8
ENDBRANCH   1   4
BRANCH   1  24
ATOM     24  C   UNL     1     -45.821  37.502  28.368  1.00  0.00    -0.027 A 
ATOM     25  C   UNL     1     -47.137  37.812  28.000  1.00  0.00    -0.057 A 
ATOM     26  C   UNL     1     -45.289  36.235  28.071  1.00  0.00    -0.033 A 
ATOM     27  C   UNL     1     -47.948  36.874  27.349  1.00  0.00    -0.052 A 
ATOM     28  H   UNL     1     -47.541  38.801  28.215  1.00  0.00     0.063 H 
ATOM     29  C   UNL     1     -46.117  35.310  27.424  1.00  0.00     0.046 A 
ATOM     30  H   UNL     1     -44.268  35.978  28.337  1.00  0.00     0.065 H 
ATOM     31  C   UNL     1     -47.429  35.600  27.057  1.00  0.00    -0.000 A 
ATOM     32  H   UNL     1     -48.965  37.133  27.072  1.00  0.00     0.063 H 
ATOM     33  N   UNL     1     -45.864  34.019  27.023  1.00  0.00    -0.357 N 
ATOM     34  C   UNL     1     -47.953  34.440  26.422  1.00  0.00    -0.032 A 
ATOM     35  C   UNL     1     -46.971  33.466  26.417  1.00  0.00     0.033 A 
ATOM     36  H   UNL     1     -44.979  33.542  27.129  1.00  0.00     0.166 HD
ATOM     37  H   UNL     1     -48.950  34.339  26.014  1.00  0.00     0.065 H 
BRANCH  35  38
ATOM     38  C   UNL     1     -46.922  32.060  25.894  1.00  0.00     0.047 C 
ATOM     39  C   UNL     1     -48.301  31.369  25.838  1.00  0.00    -0.032 C 
ATOM     40  N   UNL     1     -46.210  32.087  24.605  1.00  0.00    -0.309 NA
ATOM     41  H   UNL     1     -46.309  31.480  26.598  1.00  0.00     0.053 H 
ATOM     42  C   UNL     1     -48.978  31.554  24.483  1.00  0.00    -0.050 C 
ATOM     43  H   UNL     1     -48.163  30.291  26.002  1.00  0.00     0.029 H 
ATOM     44  H   UNL     1     -48.962  31.715  26.642  1.00  0.00     0.029 H 
ATOM     45  C   UNL     1     -46.605  30.969  23.750  1.00  0.00    -0.004 C 
ATOM     46  H   UNL     1     -46.467  32.952  24.124  1.00  0.00     0.123 HD
ATOM     47  C   UNL     1     -48.076  31.077  23.343  1.00  0.00    -0.041 C 
ATOM     48  H   UNL     1     -49.931  31.015  24.456  1.00  0.00     0.027 H 
ATOM     49  H   UNL     1     -49.218  32.614  24.335  1.00  0.00     0.027 H 
ATOM     50  H   UNL     1     -45.981  30.964  22.850  1.00  0.00     0.043 H 
ATOM     51  H   UNL     1     -46.411  30.017  24.262  1.00  0.00     0.043 H 
ATOM     52  H   UNL     1     -48.183  31.764  22.496  1.00  0.00     0.028 H 
ATOM     53  H   UNL     1     -48.416  30.095  22.990  1.00  0.00     0.028 H 
ENDBRANCH  35  38
ENDBRANCH   1  24
TORSDOF 4
ENDMDL
