MODEL 1
REMARK VINA RESULT:      -9.6      0.000      0.000
REMARK SMILES CNc1ccc2ccc(OC[C@H]3O[C@@H](n4cc(CC5CC5)c5c(N)ncnc54)[C@H](O)[C@@H]3O)cc2n1
REMARK SMILES IDX 11 1 10 4 9 5 3 6 4 7 35 8 5 9 34 11 6 12 33 14 7 15 8 17
REMARK SMILES IDX 2 20 1 22 12 26 13 27 31 28 14 30 29 31 32 35 15 37 16 38
REMARK SMILES IDX 28 39 17 40 22 42 27 43 23 44 26 45 25 46 18 48 19 51 20 52
REMARK SMILES IDX 21 53 24 59 30 62
REMARK H PARENT 11 2 11 3 4 10 5 13 33 16 7 18 8 19 2 21 1 23 1 24 1 25 12 29
REMARK H PARENT 31 32 14 33 29 34 32 36 16 41 26 47 18 49 18 50 19 54 20 55
REMARK H PARENT 20 56 21 57 21 58 24 60 24 61 30 63
REMARK Flexibility Score: inf
ROOT
ATOM      1  C   UNL     1     -46.289  33.112  25.646  1.00  0.00     0.117 C 
ATOM      2  H   UNL     1     -45.754  33.894  25.100  1.00  0.00     0.073 H 
ATOM      3  H   UNL     1     -45.635  32.232  25.627  1.00  0.00     0.073 H 
ENDROOT
BRANCH   1   4
ATOM      4  O   UNL     1     -46.479  33.413  27.032  1.00  0.00    -0.491 OA
BRANCH   4   5
ATOM      5  C   UNL     1     -46.432  34.709  27.458  1.00  0.00     0.121 A 
ATOM      6  C   UNL     1     -46.651  39.427  26.937  1.00  0.00     0.126 A 
ATOM      7  C   UNL     1     -46.477  39.645  28.297  1.00  0.00    -0.019 A 
ATOM      8  N   UNL     1     -46.675  38.192  26.402  1.00  0.00    -0.231 NA
ATOM      9  C   UNL     1     -46.342  38.549  29.141  1.00  0.00    -0.049 A 
ATOM     10  H   UNL     1     -46.425  40.651  28.696  1.00  0.00     0.066 H 
ATOM     11  C   UNL     1     -46.535  37.128  27.214  1.00  0.00     0.076 A 
ATOM     12  C   UNL     1     -46.373  37.259  28.607  1.00  0.00     0.001 A 
ATOM     13  H   UNL     1     -46.205  38.709  30.207  1.00  0.00     0.063 H 
ATOM     14  C   UNL     1     -46.561  35.850  26.666  1.00  0.00     0.007 A 
ATOM     15  C   UNL     1     -46.248  36.119  29.414  1.00  0.00    -0.049 A 
ATOM     16  H   UNL     1     -46.702  35.786  25.592  1.00  0.00     0.069 H 
ATOM     17  C   UNL     1     -46.285  34.851  28.837  1.00  0.00    -0.019 A 
ATOM     18  H   UNL     1     -46.124  36.210  30.490  1.00  0.00     0.063 H 
ATOM     19  H   UNL     1     -46.195  33.969  29.466  1.00  0.00     0.066 H 
BRANCH   6  20
ATOM     20  N   UNL     1     -46.776  40.478  26.027  1.00  0.00    -0.373 N 
ATOM     21  H   UNL     1     -47.702  40.862  26.220  1.00  0.00     0.161 HD
BRANCH  20  22
ATOM     22  C   UNL     1     -45.744  41.493  26.137  1.00  0.00     0.005 C 
ATOM     23  H   UNL     1     -46.165  42.504  26.114  1.00  0.00     0.045 H 
ATOM     24  H   UNL     1     -44.994  41.395  25.345  1.00  0.00     0.045 H 
ATOM     25  H   UNL     1     -45.231  41.377  27.097  1.00  0.00     0.045 H 
ENDBRANCH  20  22
ENDBRANCH   6  20
ENDBRANCH   4   5
ENDBRANCH   1   4
BRANCH   1  26
ATOM     26  C   UNL     1     -47.607  32.743  24.959  1.00  0.00     0.123 C 
ATOM     27  O   UNL     1     -47.380  31.818  23.871  1.00  0.00    -0.345 OA
ATOM     28  C   UNL     1     -48.642  32.078  25.857  1.00  0.00     0.114 C 
ATOM     29  H   UNL     1     -48.015  33.662  24.518  1.00  0.00     0.067 H 
ATOM     30  C   UNL     1     -48.537  30.940  23.784  1.00  0.00     0.164 C 
ATOM     31  C   UNL     1     -49.551  31.433  24.824  1.00  0.00     0.128 C 
ATOM     32  H   UNL     1     -48.198  31.305  26.493  1.00  0.00     0.066 H 
ATOM     33  H   UNL     1     -48.918  30.996  22.760  1.00  0.00     0.088 H 
ATOM     34  H   UNL     1     -50.192  30.657  25.253  1.00  0.00     0.068 H 
BRANCH  28  35
ATOM     35  O   UNL     1     -49.353  33.015  26.660  1.00  0.00    -0.387 OA
ATOM     36  H   UNL     1     -48.963  32.983  27.554  1.00  0.00     0.211 HD
ENDBRANCH  28  35
BRANCH  30  37
ATOM     37  N   UNL     1     -48.114  29.561  24.018  1.00  0.00    -0.303 N 
ATOM     38  C   UNL     1     -48.803  28.579  24.684  1.00  0.00     0.012 A 
ATOM     39  C   UNL     1     -46.929  29.045  23.554  1.00  0.00     0.147 A 
ATOM     40  C   UNL     1     -48.058  27.412  24.652  1.00  0.00    -0.017 A 
ATOM     41  H   UNL     1     -49.766  28.780  25.135  1.00  0.00     0.082 H 
ATOM     42  C   UNL     1     -46.854  27.712  23.936  1.00  0.00     0.064 A 
ATOM     43  N   UNL     1     -46.016  29.728  22.844  1.00  0.00    -0.218 NA
ATOM     44  C   UNL     1     -45.692  27.021  23.549  1.00  0.00     0.136 A 
ATOM     45  C   UNL     1     -44.959  28.963  22.528  1.00  0.00     0.120 A 
ATOM     46  N   UNL     1     -44.748  27.670  22.839  1.00  0.00    -0.219 NA
ATOM     47  H   UNL     1     -44.176  29.446  21.953  1.00  0.00     0.106 H 
BRANCH  40  48
ATOM     48  C   UNL     1     -48.467  26.096  25.238  1.00  0.00    -0.023 C 
ATOM     49  H   UNL     1     -48.122  25.296  24.570  1.00  0.00     0.032 H 
ATOM     50  H   UNL     1     -49.564  26.029  25.218  1.00  0.00     0.032 H 
BRANCH  48  51
ATOM     51  C   UNL     1     -48.019  25.761  26.638  1.00  0.00    -0.037 C 
ATOM     52  C   UNL     1     -46.592  25.987  27.073  1.00  0.00    -0.050 C 
ATOM     53  C   UNL     1     -47.135  24.586  26.985  1.00  0.00    -0.050 C 
ATOM     54  H   UNL     1     -48.788  26.035  27.355  1.00  0.00     0.031 H 
ATOM     55  H   UNL     1     -46.422  26.404  28.059  1.00  0.00     0.027 H 
ATOM     56  H   UNL     1     -45.856  26.289  26.336  1.00  0.00     0.027 H 
ATOM     57  H   UNL     1     -46.736  23.950  26.204  1.00  0.00     0.027 H 
ATOM     58  H   UNL     1     -47.329  24.062  27.915  1.00  0.00     0.027 H 
ENDBRANCH  48  51
ENDBRANCH  40  48
BRANCH  44  59
ATOM     59  N   UNL     1     -45.426  25.696  23.875  1.00  0.00    -0.383 N 
ATOM     60  H   UNL     1     -44.657  25.356  23.309  1.00  0.00     0.158 HD
ATOM     61  H   UNL     1     -45.334  25.537  24.870  1.00  0.00     0.158 HD
ENDBRANCH  44  59
ENDBRANCH  30  37
BRANCH  31  62
ATOM     62  O   UNL     1     -50.423  32.435  24.265  1.00  0.00    -0.386 OA
ATOM     63  H   UNL     1     -51.331  32.085  24.361  1.00  0.00     0.211 HD
ENDBRANCH  31  62
ENDBRANCH   1  26
TORSDOF 11
ENDMDL
MODEL 2
REMARK VINA RESULT:      -9.4      3.346     11.344
REMARK SMILES CNc1ccc2ccc(OC[C@H]3O[C@@H](n4cc(CC5CC5)c5c(N)ncnc54)[C@H](O)[C@@H]3O)cc2n1
REMARK SMILES IDX 11 1 10 4 9 5 3 6 4 7 35 8 5 9 34 11 6 12 33 14 7 15 8 17
REMARK SMILES IDX 2 20 1 22 12 26 13 27 31 28 14 30 29 31 32 35 15 37 16 38
REMARK SMILES IDX 28 39 17 40 22 42 27 43 23 44 26 45 25 46 18 48 19 51 20 52
REMARK SMILES IDX 21 53 24 59 30 62
REMARK H PARENT 11 2 11 3 4 10 5 13 33 16 7 18 8 19 2 21 1 23 1 24 1 25 12 29
REMARK H PARENT 31 32 14 33 29 34 32 36 16 41 26 47 18 49 18 50 19 54 20 55
REMARK H PARENT 20 56 21 57 21 58 24 60 24 61 30 63
REMARK Flexibility Score: inf
ROOT
ATOM      1  C   UNL     1     -46.274  35.653  26.968  1.00  0.00     0.117 C 
ATOM      2  H   UNL     1     -45.631  36.099  26.204  1.00  0.00     0.073 H 
ATOM      3  H   UNL     1     -47.304  35.851  26.647  1.00  0.00     0.073 H 
ENDROOT
BRANCH   1   4
ATOM      4  O   UNL     1     -46.167  34.227  27.039  1.00  0.00    -0.491 OA
BRANCH   4   5
ATOM      5  C   UNL     1     -46.800  33.451  26.113  1.00  0.00     0.121 A 
ATOM      6  C   UNL     1     -47.101  30.875  22.130  1.00  0.00     0.126 A 
ATOM      7  C   UNL     1     -48.420  30.527  22.384  1.00  0.00    -0.019 A 
ATOM      8  N   UNL     1     -46.392  31.667  22.957  1.00  0.00    -0.231 NA
ATOM      9  C   UNL     1     -49.028  30.996  23.544  1.00  0.00    -0.049 A 
ATOM     10  H   UNL     1     -48.979  29.918  21.684  1.00  0.00     0.066 H 
ATOM     11  C   UNL     1     -46.978  32.131  24.076  1.00  0.00     0.076 A 
ATOM     12  C   UNL     1     -48.307  31.812  24.418  1.00  0.00     0.001 A 
ATOM     13  H   UNL     1     -50.061  30.729  23.751  1.00  0.00     0.063 H 
ATOM     14  C   UNL     1     -46.250  32.948  24.933  1.00  0.00     0.007 A 
ATOM     15  C   UNL     1     -48.869  32.306  25.604  1.00  0.00    -0.049 A 
ATOM     16  H   UNL     1     -45.226  33.162  24.646  1.00  0.00     0.069 H 
ATOM     17  C   UNL     1     -48.112  33.117  26.447  1.00  0.00    -0.019 A 
ATOM     18  H   UNL     1     -49.893  32.064  25.879  1.00  0.00     0.063 H 
ATOM     19  H   UNL     1     -48.548  33.493  27.370  1.00  0.00     0.066 H 
BRANCH   6  20
ATOM     20  N   UNL     1     -46.431  30.457  20.980  1.00  0.00    -0.373 N 
ATOM     21  H   UNL     1     -47.102  29.846  20.512  1.00  0.00     0.161 HD
BRANCH  20  22
ATOM     22  C   UNL     1     -45.998  31.538  20.112  1.00  0.00     0.005 C 
ATOM     23  H   UNL     1     -46.630  31.621  19.222  1.00  0.00     0.045 H 
ATOM     24  H   UNL     1     -44.954  31.415  19.805  1.00  0.00     0.045 H 
ATOM     25  H   UNL     1     -46.077  32.485  20.655  1.00  0.00     0.045 H 
ENDBRANCH  20  22
ENDBRANCH   6  20
ENDBRANCH   4   5
ENDBRANCH   1   4
BRANCH   1  26
ATOM     26  C   UNL     1     -46.066  36.307  28.336  1.00  0.00     0.123 C 
ATOM     27  O   UNL     1     -44.757  36.915  28.423  1.00  0.00    -0.345 OA
ATOM     28  C   UNL     1     -47.057  37.410  28.686  1.00  0.00     0.114 C 
ATOM     29  H   UNL     1     -46.099  35.509  29.090  1.00  0.00     0.067 H 
ATOM     30  C   UNL     1     -44.868  38.092  29.271  1.00  0.00     0.164 C 
ATOM     31  C   UNL     1     -46.310  38.132  29.794  1.00  0.00     0.128 C 
ATOM     32  H   UNL     1     -47.225  38.092  27.846  1.00  0.00     0.066 H 
ATOM     33  H   UNL     1     -44.129  37.993  30.073  1.00  0.00     0.088 H 
ATOM     34  H   UNL     1     -46.707  39.133  29.987  1.00  0.00     0.068 H 
BRANCH  28  35
ATOM     35  O   UNL     1     -48.304  36.899  29.148  1.00  0.00    -0.387 OA
ATOM     36  H   UNL     1     -48.243  36.823  30.120  1.00  0.00     0.211 HD
ENDBRANCH  28  35
BRANCH  30  37
ATOM     37  N   UNL     1     -44.515  39.279  28.497  1.00  0.00    -0.303 N 
ATOM     38  C   UNL     1     -45.132  39.750  27.365  1.00  0.00     0.012 A 
ATOM     39  C   UNL     1     -43.489  40.126  28.837  1.00  0.00     0.147 A 
ATOM     40  C   UNL     1     -44.501  40.917  26.965  1.00  0.00    -0.017 A 
ATOM     41  H   UNL     1     -45.968  39.223  26.923  1.00  0.00     0.082 H 
ATOM     42  C   UNL     1     -43.443  41.154  27.903  1.00  0.00     0.064 A 
ATOM     43  N   UNL     1     -42.686  39.976  29.903  1.00  0.00    -0.218 NA
ATOM     44  C   UNL     1     -42.438  42.118  28.093  1.00  0.00     0.136 A 
ATOM     45  C   UNL     1     -41.776  40.959  29.981  1.00  0.00     0.120 A 
ATOM     46  N   UNL     1     -41.607  42.002  29.147  1.00  0.00    -0.219 NA
ATOM     47  H   UNL     1     -41.087  40.905  30.818  1.00  0.00     0.106 H 
BRANCH  40  48
ATOM     48  C   UNL     1     -44.885  41.763  25.791  1.00  0.00    -0.023 C 
ATOM     49  H   UNL     1     -45.587  41.194  25.168  1.00  0.00     0.032 H 
ATOM     50  H   UNL     1     -43.999  41.908  25.159  1.00  0.00     0.032 H 
BRANCH  48  51
ATOM     51  C   UNL     1     -45.485  43.121  26.049  1.00  0.00    -0.037 C 
ATOM     52  C   UNL     1     -46.971  43.352  25.928  1.00  0.00    -0.050 C 
ATOM     53  C   UNL     1     -46.029  44.026  24.967  1.00  0.00    -0.050 C 
ATOM     54  H   UNL     1     -44.994  43.595  26.894  1.00  0.00     0.031 H 
ATOM     55  H   UNL     1     -47.453  43.964  26.681  1.00  0.00     0.027 H 
ATOM     56  H   UNL     1     -47.600  42.557  25.543  1.00  0.00     0.027 H 
ATOM     57  H   UNL     1     -46.055  43.694  23.937  1.00  0.00     0.027 H 
ATOM     58  H   UNL     1     -45.879  45.094  25.076  1.00  0.00     0.027 H 
ENDBRANCH  48  51
ENDBRANCH  40  48
BRANCH  44  59
ATOM     59  N   UNL     1     -42.216  43.193  27.239  1.00  0.00    -0.383 N 
ATOM     60  H   UNL     1     -42.149  44.048  27.781  1.00  0.00     0.158 HD
ATOM     61  H   UNL     1     -41.462  43.037  26.583  1.00  0.00     0.158 HD
ENDBRANCH  44  59
ENDBRANCH  30  37
BRANCH  31  62
ATOM     62  O   UNL     1     -46.438  37.387  31.020  1.00  0.00    -0.386 OA
ATOM     63  H   UNL     1     -47.173  37.804  31.513  1.00  0.00     0.211 HD
ENDBRANCH  31  62
ENDBRANCH   1  26
TORSDOF 11
ENDMDL
MODEL 3
REMARK VINA RESULT:      -9.4      3.068     10.643
REMARK SMILES CNc1ccc2ccc(OC[C@H]3O[C@@H](n4cc(CC5CC5)c5c(N)ncnc54)[C@H](O)[C@@H]3O)cc2n1
REMARK SMILES IDX 11 1 10 4 9 5 3 6 4 7 35 8 5 9 34 11 6 12 33 14 7 15 8 17
REMARK SMILES IDX 2 20 1 22 12 26 13 27 31 28 14 30 29 31 32 35 15 37 16 38
REMARK SMILES IDX 28 39 17 40 22 42 27 43 23 44 26 45 25 46 18 48 19 51 20 52
REMARK SMILES IDX 21 53 24 59 30 62
REMARK H PARENT 11 2 11 3 4 10 5 13 33 16 7 18 8 19 2 21 1 23 1 24 1 25 12 29
REMARK H PARENT 31 32 14 33 29 34 32 36 16 41 26 47 18 49 18 50 19 54 20 55
REMARK H PARENT 20 56 21 57 21 58 24 60 24 61 30 63
REMARK Flexibility Score: inf
ROOT
ATOM      1  C   UNL     1     -46.123  34.400  27.330  1.00  0.00     0.117 C 
ATOM      2  H   UNL     1     -45.106  34.573  27.692  1.00  0.00     0.073 H 
ATOM      3  H   UNL     1     -46.117  34.681  26.270  1.00  0.00     0.073 H 
ENDROOT
BRANCH   1   4
ATOM      4  O   UNL     1     -46.508  33.021  27.355  1.00  0.00    -0.491 OA
BRANCH   4   5
ATOM      5  C   UNL     1     -46.947  32.417  26.213  1.00  0.00     0.121 A 
ATOM      6  C   UNL     1     -46.616  30.983  21.694  1.00  0.00     0.126 A 
ATOM      7  C   UNL     1     -47.848  30.347  21.744  1.00  0.00    -0.019 A 
ATOM      8  N   UNL     1     -46.102  31.642  22.750  1.00  0.00    -0.231 NA
ATOM      9  C   UNL     1     -48.571  30.372  22.931  1.00  0.00    -0.049 A 
ATOM     10  H   UNL     1     -48.255  29.855  20.868  1.00  0.00     0.066 H 
ATOM     11  C   UNL     1     -46.801  31.678  23.899  1.00  0.00     0.076 A 
ATOM     12  C   UNL     1     -48.051  31.043  24.040  1.00  0.00     0.001 A 
ATOM     13  H   UNL     1     -49.537  29.877  22.979  1.00  0.00     0.063 H 
ATOM     14  C   UNL     1     -46.274  32.356  24.992  1.00  0.00     0.007 A 
ATOM     15  C   UNL     1     -48.734  31.093  25.263  1.00  0.00    -0.049 A 
ATOM     16  H   UNL     1     -45.303  32.820  24.853  1.00  0.00     0.069 H 
ATOM     17  C   UNL     1     -48.177  31.774  26.344  1.00  0.00    -0.019 A 
ATOM     18  H   UNL     1     -49.699  30.605  25.383  1.00  0.00     0.063 H 
ATOM     19  H   UNL     1     -48.707  31.806  27.293  1.00  0.00     0.066 H 
BRANCH   6  20
ATOM     20  N   UNL     1     -45.842  31.015  20.533  1.00  0.00    -0.373 N 
ATOM     21  H   UNL     1     -45.902  30.063  20.171  1.00  0.00     0.161 HD
BRANCH  20  22
ATOM     22  C   UNL     1     -46.280  31.988  19.547  1.00  0.00     0.005 C 
ATOM     23  H   UNL     1     -46.389  31.538  18.555  1.00  0.00     0.045 H 
ATOM     24  H   UNL     1     -45.592  32.838  19.486  1.00  0.00     0.045 H 
ATOM     25  H   UNL     1     -47.262  32.374  19.839  1.00  0.00     0.045 H 
ENDBRANCH  20  22
ENDBRANCH   6  20
ENDBRANCH   4   5
ENDBRANCH   1   4
BRANCH   1  26
ATOM     26  C   UNL     1     -47.140  35.287  28.053  1.00  0.00     0.123 C 
ATOM     27  O   UNL     1     -46.478  36.355  28.766  1.00  0.00    -0.345 OA
ATOM     28  C   UNL     1     -48.166  35.964  27.153  1.00  0.00     0.114 C 
ATOM     29  H   UNL     1     -47.642  34.663  28.805  1.00  0.00     0.067 H 
ATOM     30  C   UNL     1     -47.356  37.515  28.746  1.00  0.00     0.164 C 
ATOM     31  C   UNL     1     -48.657  37.079  28.061  1.00  0.00     0.128 C 
ATOM     32  H   UNL     1     -47.706  36.392  26.256  1.00  0.00     0.066 H 
ATOM     33  H   UNL     1     -47.509  37.832  29.783  1.00  0.00     0.088 H 
ATOM     34  H   UNL     1     -49.181  37.868  27.513  1.00  0.00     0.068 H 
BRANCH  28  35
ATOM     35  O   UNL     1     -49.229  35.091  26.781  1.00  0.00    -0.387 OA
ATOM     36  H   UNL     1     -48.910  34.549  26.035  1.00  0.00     0.211 HD
ENDBRANCH  28  35
BRANCH  30  37
ATOM     37  N   UNL     1     -46.690  38.612  28.048  1.00  0.00    -0.303 N 
ATOM     38  C   UNL     1     -45.357  38.718  27.742  1.00  0.00     0.012 A 
ATOM     39  C   UNL     1     -47.353  39.715  27.567  1.00  0.00     0.147 A 
ATOM     40  C   UNL     1     -45.150  39.902  27.053  1.00  0.00    -0.017 A 
ATOM     41  H   UNL     1     -44.653  37.951  28.038  1.00  0.00     0.082 H 
ATOM     42  C   UNL     1     -46.427  40.545  26.948  1.00  0.00     0.064 A 
ATOM     43  N   UNL     1     -48.674  39.930  27.677  1.00  0.00    -0.218 NA
ATOM     44  C   UNL     1     -46.933  41.736  26.399  1.00  0.00     0.136 A 
ATOM     45  C   UNL     1     -49.036  41.091  27.111  1.00  0.00     0.120 A 
ATOM     46  N   UNL     1     -48.252  41.993  26.492  1.00  0.00    -0.219 NA
ATOM     47  H   UNL     1     -50.093  41.336  27.160  1.00  0.00     0.106 H 
BRANCH  40  48
ATOM     48  C   UNL     1     -43.840  40.382  26.509  1.00  0.00    -0.023 C 
ATOM     49  H   UNL     1     -44.037  41.002  25.625  1.00  0.00     0.032 H 
ATOM     50  H   UNL     1     -43.280  39.516  26.129  1.00  0.00     0.032 H 
BRANCH  48  51
ATOM     51  C   UNL     1     -42.920  41.150  27.423  1.00  0.00    -0.037 C 
ATOM     52  C   UNL     1     -42.907  42.659  27.425  1.00  0.00    -0.050 C 
ATOM     53  C   UNL     1     -41.695  41.901  26.954  1.00  0.00    -0.050 C 
ATOM     54  H   UNL     1     -42.868  40.669  28.395  1.00  0.00     0.031 H 
ATOM     55  H   UNL     1     -42.850  43.165  28.381  1.00  0.00     0.027 H 
ATOM     56  H   UNL     1     -43.487  43.194  26.681  1.00  0.00     0.027 H 
ATOM     57  H   UNL     1     -41.457  41.957  25.899  1.00  0.00     0.027 H 
ATOM     58  H   UNL     1     -40.822  41.899  27.598  1.00  0.00     0.027 H 
ENDBRANCH  48  51
ENDBRANCH  40  48
BRANCH  44  59
ATOM     59  N   UNL     1     -46.151  42.703  25.777  1.00  0.00    -0.383 N 
ATOM     60  H   UNL     1     -46.110  42.517  24.781  1.00  0.00     0.158 HD
ATOM     61  H   UNL     1     -46.405  43.650  26.030  1.00  0.00     0.158 HD
ENDBRANCH  44  59
ENDBRANCH  30  37
BRANCH  31  62
ATOM     62  O   UNL     1     -49.592  36.540  29.015  1.00  0.00    -0.386 OA
ATOM     63  H   UNL     1     -49.287  36.847  29.893  1.00  0.00     0.211 HD
ENDBRANCH  31  62
ENDBRANCH   1  26
TORSDOF 11
ENDMDL
MODEL 4
REMARK VINA RESULT:      -9.3      2.796     11.459
REMARK SMILES CNc1ccc2ccc(OC[C@H]3O[C@@H](n4cc(CC5CC5)c5c(N)ncnc54)[C@H](O)[C@@H]3O)cc2n1
REMARK SMILES IDX 11 1 10 4 9 5 3 6 4 7 35 8 5 9 34 11 6 12 33 14 7 15 8 17
REMARK SMILES IDX 2 20 1 22 12 26 13 27 31 28 14 30 29 31 32 35 15 37 16 38
REMARK SMILES IDX 28 39 17 40 22 42 27 43 23 44 26 45 25 46 18 48 19 51 20 52
REMARK SMILES IDX 21 53 24 59 30 62
REMARK H PARENT 11 2 11 3 4 10 5 13 33 16 7 18 8 19 2 21 1 23 1 24 1 25 12 29
REMARK H PARENT 31 32 14 33 29 34 32 36 16 41 26 47 18 49 18 50 19 54 20 55
REMARK H PARENT 20 56 21 57 21 58 24 60 24 61 30 63
REMARK Flexibility Score: inf
ROOT
ATOM      1  C   UNL     1     -46.691  35.904  26.514  1.00  0.00     0.117 C 
ATOM      2  H   UNL     1     -45.786  35.531  26.025  1.00  0.00     0.073 H 
ATOM      3  H   UNL     1     -47.071  36.707  25.872  1.00  0.00     0.073 H 
ENDROOT
BRANCH   1   4
ATOM      4  O   UNL     1     -47.743  34.937  26.577  1.00  0.00    -0.491 OA
BRANCH   4   5
ATOM      5  C   UNL     1     -47.614  33.747  25.923  1.00  0.00     0.121 A 
ATOM      6  C   UNL     1     -49.033  29.450  24.471  1.00  0.00     0.126 A 
ATOM      7  C   UNL     1     -47.878  29.255  23.726  1.00  0.00    -0.019 A 
ATOM      8  N   UNL     1     -49.249  30.570  25.186  1.00  0.00    -0.231 NA
ATOM      9  C   UNL     1     -46.917  30.259  23.700  1.00  0.00    -0.049 A 
ATOM     10  H   UNL     1     -47.713  28.328  23.189  1.00  0.00     0.066 H 
ATOM     11  C   UNL     1     -48.318  31.542  25.172  1.00  0.00     0.076 A 
ATOM     12  C   UNL     1     -47.126  31.432  24.429  1.00  0.00     0.001 A 
ATOM     13  H   UNL     1     -46.009  30.115  23.121  1.00  0.00     0.063 H 
ATOM     14  C   UNL     1     -48.537  32.701  25.907  1.00  0.00     0.007 A 
ATOM     15  C   UNL     1     -46.193  32.479  24.431  1.00  0.00    -0.049 A 
ATOM     16  H   UNL     1     -49.471  32.758  26.456  1.00  0.00     0.069 H 
ATOM     17  C   UNL     1     -46.444  33.632  25.172  1.00  0.00    -0.019 A 
ATOM     18  H   UNL     1     -45.271  32.405  23.860  1.00  0.00     0.063 H 
ATOM     19  H   UNL     1     -45.722  34.445  25.168  1.00  0.00     0.066 H 
BRANCH   6  20
ATOM     20  N   UNL     1     -50.033  28.480  24.559  1.00  0.00    -0.373 N 
ATOM     21  H   UNL     1     -50.145  28.155  23.598  1.00  0.00     0.161 HD
BRANCH  20  22
ATOM     22  C   UNL     1     -49.728  27.384  25.461  1.00  0.00     0.005 C 
ATOM     23  H   UNL     1     -49.410  26.488  24.917  1.00  0.00     0.045 H 
ATOM     24  H   UNL     1     -50.583  27.136  26.099  1.00  0.00     0.045 H 
ATOM     25  H   UNL     1     -48.900  27.679  26.113  1.00  0.00     0.045 H 
ENDBRANCH  20  22
ENDBRANCH   6  20
ENDBRANCH   4   5
ENDBRANCH   1   4
BRANCH   1  26
ATOM     26  C   UNL     1     -46.383  36.500  27.891  1.00  0.00     0.123 C 
ATOM     27  O   UNL     1     -45.023  36.983  27.952  1.00  0.00    -0.345 OA
ATOM     28  C   UNL     1     -47.259  37.678  28.298  1.00  0.00     0.114 C 
ATOM     29  H   UNL     1     -46.468  35.688  28.626  1.00  0.00     0.067 H 
ATOM     30  C   UNL     1     -45.001  38.142  28.832  1.00  0.00     0.164 C 
ATOM     31  C   UNL     1     -46.417  38.299  29.400  1.00  0.00     0.128 C 
ATOM     32  H   UNL     1     -47.387  38.396  27.481  1.00  0.00     0.066 H 
ATOM     33  H   UNL     1     -44.251  37.954  29.607  1.00  0.00     0.088 H 
ATOM     34  H   UNL     1     -46.714  39.326  29.630  1.00  0.00     0.068 H 
BRANCH  28  35
ATOM     35  O   UNL     1     -48.533  37.271  28.787  1.00  0.00    -0.387 OA
ATOM     36  H   UNL     1     -48.520  37.380  29.757  1.00  0.00     0.211 HD
ENDBRANCH  28  35
BRANCH  30  37
ATOM     37  N   UNL     1     -44.562  39.313  28.076  1.00  0.00    -0.303 N 
ATOM     38  C   UNL     1     -45.023  39.737  26.855  1.00  0.00     0.012 A 
ATOM     39  C   UNL     1     -43.606  40.189  28.527  1.00  0.00     0.147 A 
ATOM     40  C   UNL     1     -44.361  40.904  26.509  1.00  0.00    -0.017 A 
ATOM     41  H   UNL     1     -45.782  39.181  26.319  1.00  0.00     0.082 H 
ATOM     42  C   UNL     1     -43.447  41.189  27.576  1.00  0.00     0.064 A 
ATOM     43  N   UNL     1     -42.955  40.086  29.697  1.00  0.00    -0.218 NA
ATOM     44  C   UNL     1     -42.493  42.179  27.871  1.00  0.00     0.136 A 
ATOM     45  C   UNL     1     -42.080  41.089  29.868  1.00  0.00     0.120 A 
ATOM     46  N   UNL     1     -41.814  42.110  29.033  1.00  0.00    -0.219 NA
ATOM     47  H   UNL     1     -41.513  41.073  30.794  1.00  0.00     0.106 H 
BRANCH  40  48
ATOM     48  C   UNL     1     -44.593  41.708  25.267  1.00  0.00    -0.023 C 
ATOM     49  H   UNL     1     -44.839  41.018  24.449  1.00  0.00     0.032 H 
ATOM     50  H   UNL     1     -43.643  42.173  24.969  1.00  0.00     0.032 H 
BRANCH  48  51
ATOM     51  C   UNL     1     -45.639  42.791  25.296  1.00  0.00    -0.037 C 
ATOM     52  C   UNL     1     -45.672  43.812  26.407  1.00  0.00    -0.050 C 
ATOM     53  C   UNL     1     -46.798  42.823  26.266  1.00  0.00    -0.050 C 
ATOM     54  H   UNL     1     -45.819  43.168  24.293  1.00  0.00     0.031 H 
ATOM     55  H   UNL     1     -45.867  44.845  26.142  1.00  0.00     0.027 H 
ATOM     56  H   UNL     1     -45.003  43.696  27.251  1.00  0.00     0.027 H 
ATOM     57  H   UNL     1     -46.889  42.067  27.036  1.00  0.00     0.027 H 
ATOM     58  H   UNL     1     -47.751  43.194  25.906  1.00  0.00     0.027 H 
ENDBRANCH  48  51
ENDBRANCH  40  48
BRANCH  44  59
ATOM     59  N   UNL     1     -42.172  43.232  27.022  1.00  0.00    -0.383 N 
ATOM     60  H   UNL     1     -41.666  43.942  27.540  1.00  0.00     0.158 HD
ATOM     61  H   UNL     1     -41.736  42.934  26.158  1.00  0.00     0.158 HD
ENDBRANCH  44  59
ENDBRANCH  30  37
BRANCH  31  62
ATOM     62  O   UNL     1     -46.578  37.536  30.611  1.00  0.00    -0.386 OA
ATOM     63  H   UNL     1     -47.534  37.558  30.818  1.00  0.00     0.211 HD
ENDBRANCH  31  62
ENDBRANCH   1  26
TORSDOF 11
ENDMDL
MODEL 5
REMARK VINA RESULT:      -8.6      2.250     10.983
REMARK SMILES CNc1ccc2ccc(OC[C@H]3O[C@@H](n4cc(CC5CC5)c5c(N)ncnc54)[C@H](O)[C@@H]3O)cc2n1
REMARK SMILES IDX 11 1 10 4 9 5 3 6 4 7 35 8 5 9 34 11 6 12 33 14 7 15 8 17
REMARK SMILES IDX 2 20 1 22 12 26 13 27 31 28 14 30 29 31 32 35 15 37 16 38
REMARK SMILES IDX 28 39 17 40 22 42 27 43 23 44 26 45 25 46 18 48 19 51 20 52
REMARK SMILES IDX 21 53 24 59 30 62
REMARK H PARENT 11 2 11 3 4 10 5 13 33 16 7 18 8 19 2 21 1 23 1 24 1 25 12 29
REMARK H PARENT 31 32 14 33 29 34 32 36 16 41 26 47 18 49 18 50 19 54 20 55
REMARK H PARENT 20 56 21 57 21 58 24 60 24 61 30 63
REMARK Flexibility Score: inf
ROOT
ATOM      1  C   UNL     1     -46.171  34.301  26.832  1.00  0.00     0.117 C 
ATOM      2  H   UNL     1     -45.821  33.380  27.306  1.00  0.00     0.073 H 
ATOM      3  H   UNL     1     -45.272  34.889  26.615  1.00  0.00     0.073 H 
ENDROOT
BRANCH   1   4
ATOM      4  O   UNL     1     -46.799  34.085  25.564  1.00  0.00    -0.491 OA
BRANCH   4   5
ATOM      5  C   UNL     1     -46.967  32.814  25.097  1.00  0.00     0.121 A 
ATOM      6  C   UNL     1     -49.000  28.522  24.919  1.00  0.00     0.126 A 
ATOM      7  C   UNL     1     -48.205  28.124  23.854  1.00  0.00    -0.019 A 
ATOM      8  N   UNL     1     -48.894  29.740  25.483  1.00  0.00    -0.231 NA
ATOM      9  C   UNL     1     -47.277  29.020  23.336  1.00  0.00    -0.049 A 
ATOM     10  H   UNL     1     -48.287  27.125  23.443  1.00  0.00     0.066 H 
ATOM     11  C   UNL     1     -47.990  30.608  24.992  1.00  0.00     0.076 A 
ATOM     12  C   UNL     1     -47.156  30.292  23.902  1.00  0.00     0.001 A 
ATOM     13  H   UNL     1     -46.649  28.717  22.503  1.00  0.00     0.063 H 
ATOM     14  C   UNL     1     -47.877  31.868  25.570  1.00  0.00     0.007 A 
ATOM     15  C   UNL     1     -46.242  31.236  23.414  1.00  0.00    -0.049 A 
ATOM     16  H   UNL     1     -48.545  32.083  26.398  1.00  0.00     0.069 H 
ATOM     17  C   UNL     1     -46.156  32.492  24.009  1.00  0.00    -0.019 A 
ATOM     18  H   UNL     1     -45.595  31.001  22.572  1.00  0.00     0.063 H 
ATOM     19  H   UNL     1     -45.450  33.225  23.625  1.00  0.00     0.066 H 
BRANCH   6  20
ATOM     20  N   UNL     1     -49.942  27.672  25.502  1.00  0.00    -0.373 N 
ATOM     21  H   UNL     1     -50.784  27.820  24.946  1.00  0.00     0.161 HD
BRANCH  20  22
ATOM     22  C   UNL     1     -49.554  26.272  25.522  1.00  0.00     0.005 C 
ATOM     23  H   UNL     1     -50.257  25.665  26.102  1.00  0.00     0.045 H 
ATOM     24  H   UNL     1     -48.543  26.139  25.922  1.00  0.00     0.045 H 
ATOM     25  H   UNL     1     -49.561  25.886  24.498  1.00  0.00     0.045 H 
ENDBRANCH  20  22
ENDBRANCH   6  20
ENDBRANCH   4   5
ENDBRANCH   1   4
BRANCH   1  26
ATOM     26  C   UNL     1     -47.060  35.118  27.774  1.00  0.00     0.123 C 
ATOM     27  O   UNL     1     -46.285  36.107  28.487  1.00  0.00    -0.345 OA
ATOM     28  C   UNL     1     -48.187  35.888  27.096  1.00  0.00     0.114 C 
ATOM     29  H   UNL     1     -47.466  34.426  28.524  1.00  0.00     0.067 H 
ATOM     30  C   UNL     1     -47.133  37.268  28.704  1.00  0.00     0.164 C 
ATOM     31  C   UNL     1     -48.525  36.911  28.168  1.00  0.00     0.128 C 
ATOM     32  H   UNL     1     -47.847  36.400  26.190  1.00  0.00     0.066 H 
ATOM     33  H   UNL     1     -47.134  37.481  29.778  1.00  0.00     0.088 H 
ATOM     34  H   UNL     1     -49.104  37.754  27.778  1.00  0.00     0.068 H 
BRANCH  28  35
ATOM     35  O   UNL     1     -49.308  35.064  26.793  1.00  0.00    -0.387 OA
ATOM     36  H   UNL     1     -49.186  34.222  27.272  1.00  0.00     0.211 HD
ENDBRANCH  28  35
BRANCH  30  37
ATOM     37  N   UNL     1     -46.548  38.425  28.030  1.00  0.00    -0.303 N 
ATOM     38  C   UNL     1     -45.231  38.618  27.696  1.00  0.00     0.012 A 
ATOM     39  C   UNL     1     -47.284  39.504  27.605  1.00  0.00     0.147 A 
ATOM     40  C   UNL     1     -45.109  39.834  27.045  1.00  0.00    -0.017 A 
ATOM     41  H   UNL     1     -44.477  37.882  27.948  1.00  0.00     0.082 H 
ATOM     42  C   UNL     1     -46.422  40.406  26.993  1.00  0.00     0.064 A 
ATOM     43  N   UNL     1     -48.612  39.639  27.753  1.00  0.00    -0.218 NA
ATOM     44  C   UNL     1     -47.008  41.585  26.500  1.00  0.00     0.136 A 
ATOM     45  C   UNL     1     -49.053  40.797  27.238  1.00  0.00     0.120 A 
ATOM     46  N   UNL     1     -48.337  41.763  26.633  1.00  0.00    -0.219 NA
ATOM     47  H   UNL     1     -50.120  40.979  27.321  1.00  0.00     0.106 H 
BRANCH  40  48
ATOM     48  C   UNL     1     -43.842  40.406  26.488  1.00  0.00    -0.023 C 
ATOM     49  H   UNL     1     -44.098  41.058  25.642  1.00  0.00     0.032 H 
ATOM     50  H   UNL     1     -43.252  39.590  26.049  1.00  0.00     0.032 H 
BRANCH  48  51
ATOM     51  C   UNL     1     -42.934  41.176  27.411  1.00  0.00    -0.037 C 
ATOM     52  C   UNL     1     -42.921  42.685  27.413  1.00  0.00    -0.050 C 
ATOM     53  C   UNL     1     -41.703  41.927  26.957  1.00  0.00    -0.050 C 
ATOM     54  H   UNL     1     -42.892  40.695  28.385  1.00  0.00     0.031 H 
ATOM     55  H   UNL     1     -42.875  43.191  28.370  1.00  0.00     0.027 H 
ATOM     56  H   UNL     1     -43.492  43.219  26.662  1.00  0.00     0.027 H 
ATOM     57  H   UNL     1     -41.453  41.983  25.905  1.00  0.00     0.027 H 
ATOM     58  H   UNL     1     -40.838  41.926  27.610  1.00  0.00     0.027 H 
ENDBRANCH  48  51
ENDBRANCH  40  48
BRANCH  44  59
ATOM     59  N   UNL     1     -46.298  42.616  25.895  1.00  0.00    -0.383 N 
ATOM     60  H   UNL     1     -46.752  42.875  25.026  1.00  0.00     0.158 HD
ATOM     61  H   UNL     1     -46.092  43.384  26.521  1.00  0.00     0.158 HD
ENDBRANCH  44  59
ENDBRANCH  30  37
BRANCH  31  62
ATOM     62  O   UNL     1     -49.329  36.286  29.187  1.00  0.00    -0.386 OA
ATOM     63  H   UNL     1     -49.739  37.016  29.691  1.00  0.00     0.211 HD
ENDBRANCH  31  62
ENDBRANCH   1  26
TORSDOF 11
ENDMDL
MODEL 6
REMARK VINA RESULT:      -8.5      2.778     10.894
REMARK SMILES CNc1ccc2ccc(OC[C@H]3O[C@@H](n4cc(CC5CC5)c5c(N)ncnc54)[C@H](O)[C@@H]3O)cc2n1
REMARK SMILES IDX 11 1 10 4 9 5 3 6 4 7 35 8 5 9 34 11 6 12 33 14 7 15 8 17
REMARK SMILES IDX 2 20 1 22 12 26 13 27 31 28 14 30 29 31 32 35 15 37 16 38
REMARK SMILES IDX 28 39 17 40 22 42 27 43 23 44 26 45 25 46 18 48 19 51 20 52
REMARK SMILES IDX 21 53 24 59 30 62
REMARK H PARENT 11 2 11 3 4 10 5 13 33 16 7 18 8 19 2 21 1 23 1 24 1 25 12 29
REMARK H PARENT 31 32 14 33 29 34 32 36 16 41 26 47 18 49 18 50 19 54 20 55
REMARK H PARENT 20 56 21 57 21 58 24 60 24 61 30 63
REMARK Flexibility Score: inf
ROOT
ATOM      1  C   UNL     1     -46.061  35.314  26.679  1.00  0.00     0.117 C 
ATOM      2  H   UNL     1     -45.187  35.022  26.091  1.00  0.00     0.073 H 
ATOM      3  H   UNL     1     -46.671  35.943  26.021  1.00  0.00     0.073 H 
ENDROOT
BRANCH   1   4
ATOM      4  O   UNL     1     -46.900  34.212  27.036  1.00  0.00    -0.491 OA
BRANCH   4   5
ATOM      5  C   UNL     1     -47.276  33.307  26.085  1.00  0.00     0.121 A 
ATOM      6  C   UNL     1     -46.541  30.201  22.564  1.00  0.00     0.126 A 
ATOM      7  C   UNL     1     -47.889  29.879  22.488  1.00  0.00    -0.019 A 
ATOM      8  N   UNL     1     -46.065  31.106  23.439  1.00  0.00    -0.231 NA
ATOM      9  C   UNL     1     -48.779  30.499  23.358  1.00  0.00    -0.049 A 
ATOM     10  H   UNL     1     -48.250  29.173  21.750  1.00  0.00     0.066 H 
ATOM     11  C   UNL     1     -46.923  31.716  24.278  1.00  0.00     0.076 A 
ATOM     12  C   UNL     1     -48.303  31.435  24.278  1.00  0.00     0.001 A 
ATOM     13  H   UNL     1     -49.836  30.253  23.304  1.00  0.00     0.063 H 
ATOM     14  C   UNL     1     -46.436  32.651  25.184  1.00  0.00     0.007 A 
ATOM     15  C   UNL     1     -49.156  32.083  25.183  1.00  0.00    -0.049 A 
ATOM     16  H   UNL     1     -45.367  32.833  25.166  1.00  0.00     0.069 H 
ATOM     17  C   UNL     1     -48.638  33.011  26.084  1.00  0.00    -0.019 A 
ATOM     18  H   UNL     1     -50.223  31.872  25.193  1.00  0.00     0.063 H 
ATOM     19  H   UNL     1     -49.301  33.508  26.789  1.00  0.00     0.066 H 
BRANCH   6  20
ATOM     20  N   UNL     1     -45.592  29.633  21.713  1.00  0.00    -0.373 N 
ATOM     21  H   UNL     1     -45.142  30.437  21.274  1.00  0.00     0.161 HD
BRANCH  20  22
ATOM     22  C   UNL     1     -44.624  28.779  22.379  1.00  0.00     0.005 C 
ATOM     23  H   UNL     1     -44.492  29.060  23.430  1.00  0.00     0.045 H 
ATOM     24  H   UNL     1     -43.653  28.799  21.874  1.00  0.00     0.045 H 
ATOM     25  H   UNL     1     -44.988  27.747  22.363  1.00  0.00     0.045 H 
ENDBRANCH  20  22
ENDBRANCH   6  20
ENDBRANCH   4   5
ENDBRANCH   1   4
BRANCH   1  26
ATOM     26  C   UNL     1     -45.666  36.146  27.903  1.00  0.00     0.123 C 
ATOM     27  O   UNL     1     -45.533  37.543  27.556  1.00  0.00    -0.345 OA
ATOM     28  C   UNL     1     -46.652  36.102  29.063  1.00  0.00     0.114 C 
ATOM     29  H   UNL     1     -44.675  35.801  28.228  1.00  0.00     0.067 H 
ATOM     30  C   UNL     1     -45.937  38.329  28.711  1.00  0.00     0.164 C 
ATOM     31  C   UNL     1     -46.241  37.339  29.842  1.00  0.00     0.128 C 
ATOM     32  H   UNL     1     -47.689  36.204  28.725  1.00  0.00     0.066 H 
ATOM     33  H   UNL     1     -45.114  39.010  28.952  1.00  0.00     0.088 H 
ATOM     34  H   UNL     1     -47.007  37.665  30.552  1.00  0.00     0.068 H 
BRANCH  28  35
ATOM     35  O   UNL     1     -46.517  34.923  29.852  1.00  0.00    -0.387 OA
ATOM     36  H   UNL     1     -45.680  34.495  29.590  1.00  0.00     0.211 HD
ENDBRANCH  28  35
BRANCH  30  37
ATOM     37  N   UNL     1     -47.092  39.151  28.354  1.00  0.00    -0.303 N 
ATOM     38  C   UNL     1     -48.395  38.973  28.748  1.00  0.00     0.012 A 
ATOM     39  C   UNL     1     -47.008  40.270  27.563  1.00  0.00     0.147 A 
ATOM     40  C   UNL     1     -49.166  39.990  28.209  1.00  0.00    -0.017 A 
ATOM     41  H   UNL     1     -48.680  38.139  29.376  1.00  0.00     0.082 H 
ATOM     42  C   UNL     1     -48.280  40.816  27.443  1.00  0.00     0.064 A 
ATOM     43  N   UNL     1     -45.877  40.747  27.018  1.00  0.00    -0.218 NA
ATOM     44  C   UNL     1     -48.385  41.975  26.653  1.00  0.00     0.136 A 
ATOM     45  C   UNL     1     -46.103  41.856  26.297  1.00  0.00     0.120 A 
ATOM     46  N   UNL     1     -47.274  42.484  26.084  1.00  0.00    -0.219 NA
ATOM     47  H   UNL     1     -45.233  42.300  25.822  1.00  0.00     0.106 H 
BRANCH  40  48
ATOM     48  C   UNL     1     -50.636  40.181  28.422  1.00  0.00    -0.023 C 
ATOM     49  H   UNL     1     -51.121  39.197  28.397  1.00  0.00     0.032 H 
ATOM     50  H   UNL     1     -51.048  40.721  27.558  1.00  0.00     0.032 H 
BRANCH  48  51
ATOM     51  C   UNL     1     -51.095  40.898  29.665  1.00  0.00    -0.037 C 
ATOM     52  C   UNL     1     -52.340  40.464  30.399  1.00  0.00    -0.050 C 
ATOM     53  C   UNL     1     -52.301  41.807  29.721  1.00  0.00    -0.050 C 
ATOM     54  H   UNL     1     -50.243  41.162  30.283  1.00  0.00     0.031 H 
ATOM     55  H   UNL     1     -52.309  40.440  31.482  1.00  0.00     0.027 H 
ATOM     56  H   UNL     1     -52.972  39.698  29.962  1.00  0.00     0.027 H 
ATOM     57  H   UNL     1     -52.930  41.938  28.849  1.00  0.00     0.027 H 
ATOM     58  H   UNL     1     -52.244  42.687  30.352  1.00  0.00     0.027 H 
ENDBRANCH  48  51
ENDBRANCH  40  48
BRANCH  44  59
ATOM     59  N   UNL     1     -49.580  42.634  26.389  1.00  0.00    -0.383 N 
ATOM     60  H   UNL     1     -49.667  42.789  25.390  1.00  0.00     0.158 HD
ATOM     61  H   UNL     1     -50.382  42.206  26.832  1.00  0.00     0.158 HD
ENDBRANCH  44  59
ENDBRANCH  30  37
BRANCH  31  62
ATOM     62  O   UNL     1     -45.056  37.048  30.609  1.00  0.00    -0.386 OA
ATOM     63  H   UNL     1     -45.285  36.287  31.179  1.00  0.00     0.211 HD
ENDBRANCH  31  62
ENDBRANCH   1  26
TORSDOF 11
ENDMDL
MODEL 7
REMARK VINA RESULT:      -8.2      2.982      4.556
REMARK SMILES CNc1ccc2ccc(OC[C@H]3O[C@@H](n4cc(CC5CC5)c5c(N)ncnc54)[C@H](O)[C@@H]3O)cc2n1
REMARK SMILES IDX 11 1 10 4 9 5 3 6 4 7 35 8 5 9 34 11 6 12 33 14 7 15 8 17
REMARK SMILES IDX 2 20 1 22 12 26 13 27 31 28 14 30 29 31 32 35 15 37 16 38
REMARK SMILES IDX 28 39 17 40 22 42 27 43 23 44 26 45 25 46 18 48 19 51 20 52
REMARK SMILES IDX 21 53 24 59 30 62
REMARK H PARENT 11 2 11 3 4 10 5 13 33 16 7 18 8 19 2 21 1 23 1 24 1 25 12 29
REMARK H PARENT 31 32 14 33 29 34 32 36 16 41 26 47 18 49 18 50 19 54 20 55
REMARK H PARENT 20 56 21 57 21 58 24 60 24 61 30 63
REMARK Flexibility Score: inf
ROOT
ATOM      1  C   UNL     1     -47.460  36.174  26.675  1.00  0.00     0.117 C 
ATOM      2  H   UNL     1     -48.306  36.152  25.982  1.00  0.00     0.073 H 
ATOM      3  H   UNL     1     -46.591  36.478  26.081  1.00  0.00     0.073 H 
ENDROOT
BRANCH   1   4
ATOM      4  O   UNL     1     -47.588  37.168  27.697  1.00  0.00    -0.491 OA
BRANCH   4   5
ATOM      5  C   UNL     1     -46.478  37.804  28.170  1.00  0.00     0.121 A 
ATOM      6  C   UNL     1     -43.182  41.227  28.262  1.00  0.00     0.126 A 
ATOM      7  C   UNL     1     -42.575  40.694  29.390  1.00  0.00    -0.019 A 
ATOM      8  N   UNL     1     -44.261  40.661  27.688  1.00  0.00    -0.231 NA
ATOM      9  C   UNL     1     -43.110  39.545  29.963  1.00  0.00    -0.049 A 
ATOM     10  H   UNL     1     -41.687  41.150  29.810  1.00  0.00     0.066 H 
ATOM     11  C   UNL     1     -44.777  39.544  28.233  1.00  0.00     0.076 A 
ATOM     12  C   UNL     1     -44.234  38.948  29.387  1.00  0.00     0.001 A 
ATOM     13  H   UNL     1     -42.641  39.121  30.846  1.00  0.00     0.063 H 
ATOM     14  C   UNL     1     -45.892  38.956  27.645  1.00  0.00     0.007 A 
ATOM     15  C   UNL     1     -44.817  37.793  29.928  1.00  0.00    -0.049 A 
ATOM     16  H   UNL     1     -46.293  39.449  26.765  1.00  0.00     0.069 H 
ATOM     17  C   UNL     1     -45.938  37.231  29.321  1.00  0.00    -0.019 A 
ATOM     18  H   UNL     1     -44.406  37.327  30.821  1.00  0.00     0.063 H 
ATOM     19  H   UNL     1     -46.393  36.339  29.746  1.00  0.00     0.066 H 
BRANCH   6  20
ATOM     20  N   UNL     1     -42.693  42.367  27.622  1.00  0.00    -0.373 N 
ATOM     21  H   UNL     1     -42.320  42.935  28.384  1.00  0.00     0.161 HD
BRANCH  20  22
ATOM     22  C   UNL     1     -41.683  42.101  26.613  1.00  0.00     0.005 C 
ATOM     23  H   UNL     1     -40.674  42.106  27.037  1.00  0.00     0.045 H 
ATOM     24  H   UNL     1     -41.735  42.823  25.791  1.00  0.00     0.045 H 
ATOM     25  H   UNL     1     -41.853  41.104  26.192  1.00  0.00     0.045 H 
ENDBRANCH  20  22
ENDBRANCH   6  20
ENDBRANCH   4   5
ENDBRANCH   1   4
BRANCH   1  26
ATOM     26  C   UNL     1     -47.175  34.789  27.263  1.00  0.00     0.123 C 
ATOM     27  O   UNL     1     -48.116  33.812  26.763  1.00  0.00    -0.345 OA
ATOM     28  C   UNL     1     -45.794  34.225  26.956  1.00  0.00     0.114 C 
ATOM     29  H   UNL     1     -47.329  34.855  28.349  1.00  0.00     0.067 H 
ATOM     30  C   UNL     1     -47.425  32.536  26.666  1.00  0.00     0.164 C 
ATOM     31  C   UNL     1     -46.015  32.748  27.231  1.00  0.00     0.128 C 
ATOM     32  H   UNL     1     -45.516  34.370  25.907  1.00  0.00     0.066 H 
ATOM     33  H   UNL     1     -48.005  31.803  27.236  1.00  0.00     0.088 H 
ATOM     34  H   UNL     1     -45.238  32.116  26.790  1.00  0.00     0.068 H 
BRANCH  28  35
ATOM     35  O   UNL     1     -44.782  34.765  27.801  1.00  0.00    -0.387 OA
ATOM     36  H   UNL     1     -44.053  35.064  27.225  1.00  0.00     0.211 HD
ENDBRANCH  28  35
BRANCH  30  37
ATOM     37  N   UNL     1     -47.416  32.098  25.273  1.00  0.00    -0.303 N 
ATOM     38  C   UNL     1     -46.321  31.861  24.480  1.00  0.00     0.012 A 
ATOM     39  C   UNL     1     -48.557  31.830  24.556  1.00  0.00     0.147 A 
ATOM     40  C   UNL     1     -46.754  31.434  23.236  1.00  0.00    -0.017 A 
ATOM     41  H   UNL     1     -45.317  32.017  24.853  1.00  0.00     0.082 H 
ATOM     42  C   UNL     1     -48.187  31.422  23.281  1.00  0.00     0.064 A 
ATOM     43  N   UNL     1     -49.809  31.939  25.031  1.00  0.00    -0.218 NA
ATOM     44  C   UNL     1     -49.238  31.111  22.401  1.00  0.00     0.136 A 
ATOM     45  C   UNL     1     -50.721  31.609  24.104  1.00  0.00     0.120 A 
ATOM     46  N   UNL     1     -50.509  31.212  22.835  1.00  0.00    -0.219 NA
ATOM     47  H   UNL     1     -51.760  31.674  24.413  1.00  0.00     0.106 H 
BRANCH  40  48
ATOM     48  C   UNL     1     -45.874  31.041  22.089  1.00  0.00    -0.023 C 
ATOM     49  H   UNL     1     -44.911  31.556  22.198  1.00  0.00     0.032 H 
ATOM     50  H   UNL     1     -46.307  31.442  21.162  1.00  0.00     0.032 H 
BRANCH  48  51
ATOM     51  C   UNL     1     -45.598  29.577  21.864  1.00  0.00    -0.037 C 
ATOM     52  C   UNL     1     -45.874  28.557  22.941  1.00  0.00    -0.050 C 
ATOM     53  C   UNL     1     -44.458  28.822  22.507  1.00  0.00    -0.050 C 
ATOM     54  H   UNL     1     -45.876  29.292  20.853  1.00  0.00     0.031 H 
ATOM     55  H   UNL     1     -46.328  27.618  22.648  1.00  0.00     0.027 H 
ATOM     56  H   UNL     1     -46.170  28.897  23.927  1.00  0.00     0.027 H 
ATOM     57  H   UNL     1     -43.807  29.314  23.220  1.00  0.00     0.027 H 
ATOM     58  H   UNL     1     -43.960  28.057  21.921  1.00  0.00     0.027 H 
ENDBRANCH  48  51
ENDBRANCH  40  48
BRANCH  44  59
ATOM     59  N   UNL     1     -49.059  30.724  21.078  1.00  0.00    -0.383 N 
ATOM     60  H   UNL     1     -49.839  30.144  20.786  1.00  0.00     0.158 HD
ATOM     61  H   UNL     1     -48.839  31.494  20.459  1.00  0.00     0.158 HD
ENDBRANCH  44  59
ENDBRANCH  30  37
BRANCH  31  62
ATOM     62  O   UNL     1     -45.985  32.517  28.652  1.00  0.00    -0.386 OA
ATOM     63  H   UNL     1     -45.753  31.574  28.767  1.00  0.00     0.211 HD
ENDBRANCH  31  62
ENDBRANCH   1  26
TORSDOF 11
ENDMDL
