MODEL 1
REMARK VINA RESULT:     -10.1      0.000      0.000
REMARK SMILES Cn1ccc(-c2cn([C@@H]3O[C@H](COc4ccc5ccc(N6CCC6)nc5c4)[C@@H](O)[C@@H]3F)c3ncnc(N)c23)n1
REMARK SMILES IDX 9 1 10 2 11 3 28 4 30 5 31 6 8 11 6 12 7 13 38 14 32 16
REMARK SMILES IDX 36 17 33 18 35 19 34 20 5 22 2 23 3 24 39 25 4 26 1 29 37 33
REMARK SMILES IDX 12 36 13 39 14 40 15 41 27 42 16 43 26 45 17 47 25 49 18 50
REMARK SMILES IDX 20 51 19 52 21 55 22 56 24 57 23 58 29 65
REMARK H PARENT 9 7 11 8 28 9 30 10 7 15 34 21 3 27 4 28 1 30 1 31 1 32 37 34
REMARK H PARENT 37 35 12 37 12 38 15 44 27 46 16 48 18 53 19 54 22 59 22 60
REMARK H PARENT 24 61 24 62 23 63 23 64 29 66
REMARK Flexibility Score: inf
ROOT
ATOM      1  C   UNL     1     -45.064  37.795  29.089  1.00  0.00     0.169 C 
ATOM      2  O   UNL     1     -45.001  36.777  28.073  1.00  0.00    -0.345 OA
ATOM      3  C   UNL     1     -46.296  36.165  27.938  1.00  0.00     0.123 C 
ATOM      4  C   UNL     1     -47.302  37.062  28.660  1.00  0.00     0.119 C 
ATOM      5  C   UNL     1     -46.451  37.748  29.711  1.00  0.00     0.173 C 
ATOM      6  F   UNL     1     -46.939  38.969  30.025  1.00  0.00    -0.239 F 
ATOM      7  H   UNL     1     -44.325  37.521  29.852  1.00  0.00     0.088 H 
ATOM      8  H   UNL     1     -46.230  35.184  28.428  1.00  0.00     0.067 H 
ATOM      9  H   UNL     1     -47.760  37.795  27.995  1.00  0.00     0.066 H 
ATOM     10  H   UNL     1     -46.436  37.156  30.634  1.00  0.00     0.074 H 
ENDROOT
BRANCH   1  11
ATOM     11  N   UNL     1     -44.624  39.060  28.524  1.00  0.00    -0.302 N 
ATOM     12  C   UNL     1     -44.582  40.866  27.211  1.00  0.00     0.033 A 
ATOM     13  C   UNL     1     -45.248  39.685  27.470  1.00  0.00     0.019 A 
ATOM     14  C   UNL     1     -43.541  40.999  28.176  1.00  0.00     0.071 A 
ATOM     15  H   UNL     1     -46.110  39.250  26.979  1.00  0.00     0.083 H 
ATOM     16  C   UNL     1     -43.580  39.844  28.955  1.00  0.00     0.148 A 
ATOM     17  C   UNL     1     -42.565  41.949  28.524  1.00  0.00     0.137 A 
ATOM     18  N   UNL     1     -42.752  39.546  29.970  1.00  0.00    -0.218 NA
ATOM     19  N   UNL     1     -41.707  41.675  29.526  1.00  0.00    -0.219 NA
ATOM     20  C   UNL     1     -41.842  40.509  30.178  1.00  0.00     0.120 A 
ATOM     21  H   UNL     1     -41.130  40.329  30.977  1.00  0.00     0.106 H 
BRANCH  12  22
ATOM     22  C   UNL     1     -44.912  41.801  26.138  1.00  0.00     0.095 A 
ATOM     23  N   UNL     1     -44.727  43.008  24.415  1.00  0.00    -0.275 N 
ATOM     24  C   UNL     1     -45.963  43.305  24.906  1.00  0.00     0.025 A 
ATOM     25  N   UNL     1     -44.061  42.098  25.148  1.00  0.00    -0.173 NA
ATOM     26  C   UNL     1     -46.109  42.542  26.043  1.00  0.00    -0.016 A 
ATOM     27  H   UNL     1     -46.617  44.024  24.432  1.00  0.00     0.084 H 
ATOM     28  H   UNL     1     -46.958  42.529  26.712  1.00  0.00     0.066 H 
BRANCH  23  29
ATOM     29  C   UNL     1     -44.101  43.570  23.244  1.00  0.00     0.030 C 
ATOM     30  H   UNL     1     -43.018  43.596  23.386  1.00  0.00     0.048 H 
ATOM     31  H   UNL     1     -44.351  42.943  22.384  1.00  0.00     0.048 H 
ATOM     32  H   UNL     1     -44.482  44.585  23.101  1.00  0.00     0.048 H 
ENDBRANCH  23  29
ENDBRANCH  12  22
BRANCH  17  33
ATOM     33  N   UNL     1     -42.426  43.201  27.933  1.00  0.00    -0.383 N 
ATOM     34  H   UNL     1     -41.714  43.143  27.213  1.00  0.00     0.158 HD
ATOM     35  H   UNL     1     -42.279  43.938  28.613  1.00  0.00     0.158 HD
ENDBRANCH  17  33
ENDBRANCH   1  11
BRANCH   3  36
ATOM     36  C   UNL     1     -46.667  35.954  26.463  1.00  0.00     0.117 C 
ATOM     37  H   UNL     1     -45.829  35.605  25.852  1.00  0.00     0.073 H 
ATOM     38  H   UNL     1     -46.970  36.919  26.039  1.00  0.00     0.073 H 
BRANCH  36  39
ATOM     39  O   UNL     1     -47.814  35.103  26.324  1.00  0.00    -0.491 OA
BRANCH  39  40
ATOM     40  C   UNL     1     -47.663  33.869  25.755  1.00  0.00     0.121 A 
ATOM     41  C   UNL     1     -46.415  33.649  25.172  1.00  0.00    -0.019 A 
ATOM     42  C   UNL     1     -48.625  32.860  25.691  1.00  0.00     0.007 A 
ATOM     43  C   UNL     1     -46.139  32.443  24.528  1.00  0.00    -0.049 A 
ATOM     44  H   UNL     1     -45.654  34.424  25.218  1.00  0.00     0.066 H 
ATOM     45  C   UNL     1     -48.388  31.660  25.032  1.00  0.00     0.076 A 
ATOM     46  H   UNL     1     -49.610  32.981  26.127  1.00  0.00     0.069 H 
ATOM     47  C   UNL     1     -47.127  31.450  24.446  1.00  0.00     0.001 A 
ATOM     48  H   UNL     1     -45.162  32.292  24.079  1.00  0.00     0.063 H 
ATOM     49  N   UNL     1     -49.375  30.751  24.961  1.00  0.00    -0.231 NA
ATOM     50  C   UNL     1     -46.912  30.237  23.787  1.00  0.00    -0.049 A 
ATOM     51  C   UNL     1     -49.173  29.598  24.287  1.00  0.00     0.129 A 
ATOM     52  C   UNL     1     -47.943  29.305  23.708  1.00  0.00    -0.019 A 
ATOM     53  H   UNL     1     -45.954  30.015  23.325  1.00  0.00     0.063 H 
ATOM     54  H   UNL     1     -47.785  28.364  23.194  1.00  0.00     0.066 H 
BRANCH  51  55
ATOM     55  N   UNL     1     -50.243  28.688  24.183  1.00  0.00    -0.356 N 
ATOM     56  C   UNL     1     -51.571  29.085  23.788  1.00  0.00     0.021 C 
ATOM     57  C   UNL     1     -50.279  27.526  23.341  1.00  0.00     0.021 C 
ATOM     58  C   UNL     1     -51.808  27.615  23.432  1.00  0.00    -0.018 C 
ATOM     59  H   UNL     1     -52.167  29.479  24.612  1.00  0.00     0.049 H 
ATOM     60  H   UNL     1     -51.575  29.773  22.937  1.00  0.00     0.049 H 
ATOM     61  H   UNL     1     -49.866  27.706  22.343  1.00  0.00     0.049 H 
ATOM     62  H   UNL     1     -49.828  26.642  23.795  1.00  0.00     0.049 H 
ATOM     63  H   UNL     1     -52.352  27.432  22.502  1.00  0.00     0.030 H 
ATOM     64  H   UNL     1     -52.248  27.019  24.238  1.00  0.00     0.030 H 
ENDBRANCH  51  55
ENDBRANCH  39  40
ENDBRANCH  36  39
ENDBRANCH   3  36
BRANCH   4  65
ATOM     65  O   UNL     1     -48.377  36.302  29.218  1.00  0.00    -0.387 OA
ATOM     66  H   UNL     1     -48.991  36.896  29.681  1.00  0.00     0.211 HD
ENDBRANCH   4  65
TORSDOF 9
ENDMDL
MODEL 2
REMARK VINA RESULT:      -9.1      2.535      3.361
REMARK SMILES Cn1ccc(-c2cn([C@@H]3O[C@H](COc4ccc5ccc(N6CCC6)nc5c4)[C@@H](O)[C@@H]3F)c3ncnc(N)c23)n1
REMARK SMILES IDX 9 1 10 2 11 3 28 4 30 5 31 6 8 11 6 12 7 13 38 14 32 16
REMARK SMILES IDX 36 17 33 18 35 19 34 20 5 22 2 23 3 24 39 25 4 26 1 29 37 33
REMARK SMILES IDX 12 36 13 39 14 40 15 41 27 42 16 43 26 45 17 47 25 49 18 50
REMARK SMILES IDX 20 51 19 52 21 55 22 56 24 57 23 58 29 65
REMARK H PARENT 9 7 11 8 28 9 30 10 7 15 34 21 3 27 4 28 1 30 1 31 1 32 37 34
REMARK H PARENT 37 35 12 37 12 38 15 44 27 46 16 48 18 53 19 54 22 59 22 60
REMARK H PARENT 24 61 24 62 23 63 23 64 29 66
REMARK Flexibility Score: inf
ROOT
ATOM      1  C   UNL     1     -45.428  37.761  27.987  1.00  0.00     0.169 C 
ATOM      2  O   UNL     1     -45.726  36.668  27.099  1.00  0.00    -0.345 OA
ATOM      3  C   UNL     1     -46.195  35.548  27.871  1.00  0.00     0.123 C 
ATOM      4  C   UNL     1     -46.527  36.066  29.270  1.00  0.00     0.119 C 
ATOM      5  C   UNL     1     -45.612  37.267  29.414  1.00  0.00     0.173 C 
ATOM      6  F   UNL     1     -46.141  38.199  30.239  1.00  0.00    -0.239 F 
ATOM      7  H   UNL     1     -44.370  38.009  27.833  1.00  0.00     0.088 H 
ATOM      8  H   UNL     1     -45.367  34.828  27.910  1.00  0.00     0.067 H 
ATOM      9  H   UNL     1     -47.572  36.363  29.369  1.00  0.00     0.066 H 
ATOM     10  H   UNL     1     -44.650  36.963  29.840  1.00  0.00     0.074 H 
ENDROOT
BRANCH   1  11
ATOM     11  N   UNL     1     -46.190  38.930  27.577  1.00  0.00    -0.302 N 
ATOM     12  C   UNL     1     -47.913  40.332  27.346  1.00  0.00     0.033 A 
ATOM     13  C   UNL     1     -47.521  39.114  27.866  1.00  0.00     0.019 A 
ATOM     14  C   UNL     1     -46.765  40.944  26.763  1.00  0.00     0.071 A 
ATOM     15  H   UNL     1     -48.094  38.374  28.410  1.00  0.00     0.083 H 
ATOM     16  C   UNL     1     -45.721  40.031  26.899  1.00  0.00     0.148 A 
ATOM     17  C   UNL     1     -46.443  42.165  26.143  1.00  0.00     0.137 A 
ATOM     18  N   UNL     1     -44.462  40.196  26.461  1.00  0.00    -0.218 NA
ATOM     19  N   UNL     1     -45.194  42.357  25.677  1.00  0.00    -0.219 NA
ATOM     20  C   UNL     1     -44.291  41.380  25.854  1.00  0.00     0.120 A 
ATOM     21  H   UNL     1     -43.298  41.576  25.462  1.00  0.00     0.106 H 
BRANCH  12  22
ATOM     22  C   UNL     1     -49.266  40.878  27.407  1.00  0.00     0.095 A 
ATOM     23  N   UNL     1     -51.023  41.922  26.875  1.00  0.00    -0.275 N 
ATOM     24  C   UNL     1     -51.265  41.473  28.139  1.00  0.00     0.025 A 
ATOM     25  N   UNL     1     -49.811  41.578  26.405  1.00  0.00    -0.173 NA
ATOM     26  C   UNL     1     -50.128  40.798  28.521  1.00  0.00    -0.016 A 
ATOM     27  H   UNL     1     -52.192  41.674  28.657  1.00  0.00     0.084 H 
ATOM     28  H   UNL     1     -49.945  40.322  29.475  1.00  0.00     0.066 H 
BRANCH  23  29
ATOM     29  C   UNL     1     -51.908  42.705  26.049  1.00  0.00     0.030 C 
ATOM     30  H   UNL     1     -52.498  42.041  25.414  1.00  0.00     0.048 H 
ATOM     31  H   UNL     1     -52.569  43.283  26.701  1.00  0.00     0.048 H 
ATOM     32  H   UNL     1     -51.302  43.372  25.429  1.00  0.00     0.048 H 
ENDBRANCH  23  29
ENDBRANCH  12  22
BRANCH  17  33
ATOM     33  N   UNL     1     -47.316  43.239  25.999  1.00  0.00    -0.383 N 
ATOM     34  H   UNL     1     -48.075  42.960  25.385  1.00  0.00     0.158 HD
ATOM     35  H   UNL     1     -46.842  44.091  25.723  1.00  0.00     0.158 HD
ENDBRANCH  17  33
ENDBRANCH   1  11
BRANCH   3  36
ATOM     36  C   UNL     1     -47.403  34.873  27.205  1.00  0.00     0.117 C 
ATOM     37  H   UNL     1     -47.537  35.162  26.158  1.00  0.00     0.073 H 
ATOM     38  H   UNL     1     -48.313  35.194  27.727  1.00  0.00     0.073 H 
BRANCH  36  39
ATOM     39  O   UNL     1     -47.361  33.447  27.359  1.00  0.00    -0.491 OA
BRANCH  39  40
ATOM     40  C   UNL     1     -47.439  32.655  26.246  1.00  0.00     0.121 A 
ATOM     41  C   UNL     1     -46.399  32.832  25.335  1.00  0.00    -0.019 A 
ATOM     42  C   UNL     1     -48.448  31.737  25.949  1.00  0.00     0.007 A 
ATOM     43  C   UNL     1     -46.374  32.110  24.142  1.00  0.00    -0.049 A 
ATOM     44  H   UNL     1     -45.604  33.540  25.555  1.00  0.00     0.066 H 
ATOM     45  C   UNL     1     -48.465  31.025  24.756  1.00  0.00     0.076 A 
ATOM     46  H   UNL     1     -49.279  31.563  26.623  1.00  0.00     0.069 H 
ATOM     47  C   UNL     1     -47.411  31.213  23.844  1.00  0.00     0.001 A 
ATOM     48  H   UNL     1     -45.556  32.264  23.445  1.00  0.00     0.063 H 
ATOM     49  N   UNL     1     -49.493  30.196  24.508  1.00  0.00    -0.231 NA
ATOM     50  C   UNL     1     -47.450  30.488  22.650  1.00  0.00    -0.049 A 
ATOM     51  C   UNL     1     -49.544  29.529  23.335  1.00  0.00     0.129 A 
ATOM     52  C   UNL     1     -48.524  29.640  22.396  1.00  0.00    -0.019 A 
ATOM     53  H   UNL     1     -46.658  30.584  21.913  1.00  0.00     0.063 H 
ATOM     54  H   UNL     1     -48.564  29.078  21.470  1.00  0.00     0.066 H 
BRANCH  51  55
ATOM     55  N   UNL     1     -50.661  28.710  23.079  1.00  0.00    -0.356 N 
ATOM     56  C   UNL     1     -50.638  27.280  23.258  1.00  0.00     0.021 C 
ATOM     57  C   UNL     1     -51.947  28.824  23.705  1.00  0.00     0.021 C 
ATOM     58  C   UNL     1     -52.165  27.354  23.325  1.00  0.00    -0.018 C 
ATOM     59  H   UNL     1     -50.222  26.744  22.404  1.00  0.00     0.049 H 
ATOM     60  H   UNL     1     -50.149  26.974  24.189  1.00  0.00     0.049 H 
ATOM     61  H   UNL     1     -51.887  29.018  24.781  1.00  0.00     0.049 H 
ATOM     62  H   UNL     1     -52.608  29.542  23.216  1.00  0.00     0.049 H 
ATOM     63  H   UNL     1     -52.639  26.730  24.087  1.00  0.00     0.030 H 
ATOM     64  H   UNL     1     -52.668  27.204  22.364  1.00  0.00     0.030 H 
ENDBRANCH  51  55
ENDBRANCH  39  40
ENDBRANCH  36  39
ENDBRANCH   3  36
BRANCH   4  65
ATOM     65  O   UNL     1     -46.299  35.066  30.268  1.00  0.00    -0.387 OA
ATOM     66  H   UNL     1     -46.342  35.470  31.151  1.00  0.00     0.211 HD
ENDBRANCH   4  65
TORSDOF 9
ENDMDL
MODEL 3
REMARK VINA RESULT:      -9.0      1.769      2.611
REMARK SMILES Cn1ccc(-c2cn([C@@H]3O[C@H](COc4ccc5ccc(N6CCC6)nc5c4)[C@@H](O)[C@@H]3F)c3ncnc(N)c23)n1
REMARK SMILES IDX 9 1 10 2 11 3 28 4 30 5 31 6 8 11 6 12 7 13 38 14 32 16
REMARK SMILES IDX 36 17 33 18 35 19 34 20 5 22 2 23 3 24 39 25 4 26 1 29 37 33
REMARK SMILES IDX 12 36 13 39 14 40 15 41 27 42 16 43 26 45 17 47 25 49 18 50
REMARK SMILES IDX 20 51 19 52 21 55 22 56 24 57 23 58 29 65
REMARK H PARENT 9 7 11 8 28 9 30 10 7 15 34 21 3 27 4 28 1 30 1 31 1 32 37 34
REMARK H PARENT 37 35 12 37 12 38 15 44 27 46 16 48 18 53 19 54 22 59 22 60
REMARK H PARENT 24 61 24 62 23 63 23 64 29 66
REMARK Flexibility Score: inf
ROOT
ATOM      1  C   UNL     1     -44.926  37.654  28.079  1.00  0.00     0.169 C 
ATOM      2  O   UNL     1     -45.696  36.635  27.417  1.00  0.00    -0.345 OA
ATOM      3  C   UNL     1     -46.342  35.813  28.406  1.00  0.00     0.123 C 
ATOM      4  C   UNL     1     -46.247  36.550  29.742  1.00  0.00     0.119 C 
ATOM      5  C   UNL     1     -44.999  37.395  29.576  1.00  0.00     0.173 C 
ATOM      6  F   UNL     1     -45.063  38.527  30.313  1.00  0.00    -0.239 F 
ATOM      7  H   UNL     1     -43.888  37.526  27.748  1.00  0.00     0.088 H 
ATOM      8  H   UNL     1     -45.781  34.871  28.443  1.00  0.00     0.067 H 
ATOM      9  H   UNL     1     -47.117  37.181  29.934  1.00  0.00     0.066 H 
ATOM     10  H   UNL     1     -44.116  36.838  29.911  1.00  0.00     0.074 H 
ENDROOT
BRANCH   1  11
ATOM     11  N   UNL     1     -45.354  38.960  27.602  1.00  0.00    -0.302 N 
ATOM     12  C   UNL     1     -45.256  40.974  26.642  1.00  0.00     0.033 A 
ATOM     13  C   UNL     1     -44.519  39.856  26.976  1.00  0.00     0.019 A 
ATOM     14  C   UNL     1     -46.607  40.735  27.030  1.00  0.00     0.071 A 
ATOM     15  H   UNL     1     -43.470  39.642  26.817  1.00  0.00     0.083 H 
ATOM     16  C   UNL     1     -46.623  39.487  27.649  1.00  0.00     0.148 A 
ATOM     17  C   UNL     1     -47.846  41.394  26.933  1.00  0.00     0.137 A 
ATOM     18  N   UNL     1     -47.695  38.884  28.189  1.00  0.00    -0.218 NA
ATOM     19  N   UNL     1     -48.939  40.825  27.478  1.00  0.00    -0.219 NA
ATOM     20  C   UNL     1     -48.805  39.627  28.068  1.00  0.00     0.120 A 
ATOM     21  H   UNL     1     -49.710  39.207  28.495  1.00  0.00     0.106 H 
BRANCH  12  22
ATOM     22  C   UNL     1     -44.725  42.172  25.997  1.00  0.00     0.095 A 
ATOM     23  N   UNL     1     -43.838  43.436  24.557  1.00  0.00    -0.275 N 
ATOM     24  C   UNL     1     -44.006  44.233  25.650  1.00  0.00     0.025 A 
ATOM     25  N   UNL     1     -44.263  42.173  24.740  1.00  0.00    -0.173 NA
ATOM     26  C   UNL     1     -44.571  43.430  26.615  1.00  0.00    -0.016 A 
ATOM     27  H   UNL     1     -43.708  45.271  25.660  1.00  0.00     0.084 H 
ATOM     28  H   UNL     1     -44.829  43.715  27.626  1.00  0.00     0.066 H 
BRANCH  23  29
ATOM     29  C   UNL     1     -43.260  43.812  23.290  1.00  0.00     0.030 C 
ATOM     30  H   UNL     1     -42.459  43.115  23.033  1.00  0.00     0.048 H 
ATOM     31  H   UNL     1     -44.045  43.777  22.528  1.00  0.00     0.048 H 
ATOM     32  H   UNL     1     -42.859  44.825  23.380  1.00  0.00     0.048 H 
ENDBRANCH  23  29
ENDBRANCH  12  22
BRANCH  17  33
ATOM     33  N   UNL     1     -48.057  42.599  26.269  1.00  0.00    -0.383 N 
ATOM     34  H   UNL     1     -47.431  43.297  26.657  1.00  0.00     0.158 HD
ATOM     35  H   UNL     1     -49.034  42.869  26.254  1.00  0.00     0.158 HD
ENDBRANCH  17  33
ENDBRANCH   1  11
BRANCH   3  36
ATOM     36  C   UNL     1     -47.796  35.506  28.020  1.00  0.00     0.117 C 
ATOM     37  H   UNL     1     -48.516  36.207  28.453  1.00  0.00     0.073 H 
ATOM     38  H   UNL     1     -48.060  34.517  28.416  1.00  0.00     0.073 H 
BRANCH  36  39
ATOM     39  O   UNL     1     -47.952  35.397  26.598  1.00  0.00    -0.491 OA
BRANCH  39  40
ATOM     40  C   UNL     1     -47.744  34.187  25.995  1.00  0.00     0.121 A 
ATOM     41  C   UNL     1     -46.518  34.068  25.342  1.00  0.00    -0.019 A 
ATOM     42  C   UNL     1     -48.633  33.112  25.960  1.00  0.00     0.007 A 
ATOM     43  C   UNL     1     -46.191  32.898  24.659  1.00  0.00    -0.049 A 
ATOM     44  H   UNL     1     -45.813  34.896  25.364  1.00  0.00     0.066 H 
ATOM     45  C   UNL     1     -48.347  31.944  25.264  1.00  0.00     0.076 A 
ATOM     46  H   UNL     1     -49.599  33.153  26.451  1.00  0.00     0.069 H 
ATOM     47  C   UNL     1     -47.108  31.837  24.608  1.00  0.00     0.001 A 
ATOM     48  H   UNL     1     -45.231  32.826  24.156  1.00  0.00     0.063 H 
ATOM     49  N   UNL     1     -49.269  30.967  25.226  1.00  0.00    -0.231 NA
ATOM     50  C   UNL     1     -46.843  30.655  23.912  1.00  0.00    -0.049 A 
ATOM     51  C   UNL     1     -49.022  29.844  24.518  1.00  0.00     0.129 A 
ATOM     52  C   UNL     1     -47.808  29.652  23.869  1.00  0.00    -0.019 A 
ATOM     53  H   UNL     1     -45.898  30.511  23.396  1.00  0.00     0.063 H 
ATOM     54  H   UNL     1     -47.611  28.734  23.326  1.00  0.00     0.066 H 
BRANCH  51  55
ATOM     55  N   UNL     1     -50.028  28.860  24.451  1.00  0.00    -0.356 N 
ATOM     56  C   UNL     1     -51.289  29.076  23.788  1.00  0.00     0.021 C 
ATOM     57  C   UNL     1     -49.887  27.552  23.879  1.00  0.00     0.021 C 
ATOM     58  C   UNL     1     -51.413  27.552  23.720  1.00  0.00    -0.018 C 
ATOM     59  H   UNL     1     -52.024  29.588  24.411  1.00  0.00     0.049 H 
ATOM     60  H   UNL     1     -51.182  29.574  22.818  1.00  0.00     0.049 H 
ATOM     61  H   UNL     1     -49.326  27.552  22.938  1.00  0.00     0.049 H 
ATOM     62  H   UNL     1     -49.483  26.813  24.573  1.00  0.00     0.049 H 
ATOM     63  H   UNL     1     -51.794  27.146  22.780  1.00  0.00     0.030 H 
ATOM     64  H   UNL     1     -51.955  27.105  24.560  1.00  0.00     0.030 H 
ENDBRANCH  51  55
ENDBRANCH  39  40
ENDBRANCH  36  39
ENDBRANCH   3  36
BRANCH   4  65
ATOM     65  O   UNL     1     -46.164  35.638  30.840  1.00  0.00    -0.387 OA
ATOM     66  H   UNL     1     -45.885  36.114  31.640  1.00  0.00     0.211 HD
ENDBRANCH   4  65
TORSDOF 9
ENDMDL
MODEL 4
REMARK VINA RESULT:      -9.0      3.080     12.105
REMARK SMILES Cn1ccc(-c2cn([C@@H]3O[C@H](COc4ccc5ccc(N6CCC6)nc5c4)[C@@H](O)[C@@H]3F)c3ncnc(N)c23)n1
REMARK SMILES IDX 9 1 10 2 11 3 28 4 30 5 31 6 8 11 6 12 7 13 38 14 32 16
REMARK SMILES IDX 36 17 33 18 35 19 34 20 5 22 2 23 3 24 39 25 4 26 1 29 37 33
REMARK SMILES IDX 12 36 13 39 14 40 15 41 27 42 16 43 26 45 17 47 25 49 18 50
REMARK SMILES IDX 20 51 19 52 21 55 22 56 24 57 23 58 29 65
REMARK H PARENT 9 7 11 8 28 9 30 10 7 15 34 21 3 27 4 28 1 30 1 31 1 32 37 34
REMARK H PARENT 37 35 12 37 12 38 15 44 27 46 16 48 18 53 19 54 22 59 22 60
REMARK H PARENT 24 61 24 62 23 63 23 64 29 66
REMARK Flexibility Score: inf
ROOT
ATOM      1  C   UNL     1     -48.017  31.741  23.988  1.00  0.00     0.169 C 
ATOM      2  O   UNL     1     -46.981  32.583  24.527  1.00  0.00    -0.345 OA
ATOM      3  C   UNL     1     -47.535  33.399  25.575  1.00  0.00     0.123 C 
ATOM      4  C   UNL     1     -48.897  32.809  25.941  1.00  0.00     0.119 C 
ATOM      5  C   UNL     1     -49.327  32.126  24.657  1.00  0.00     0.173 C 
ATOM      6  F   UNL     1     -50.134  31.069  24.902  1.00  0.00    -0.239 F 
ATOM      7  H   UNL     1     -48.084  31.975  22.918  1.00  0.00     0.088 H 
ATOM      8  H   UNL     1     -47.650  34.408  25.157  1.00  0.00     0.067 H 
ATOM      9  H   UNL     1     -48.834  32.089  26.758  1.00  0.00     0.066 H 
ATOM     10  H   UNL     1     -49.888  32.825  24.025  1.00  0.00     0.074 H 
ENDROOT
BRANCH   1  11
ATOM     11  N   UNL     1     -47.598  30.351  24.081  1.00  0.00    -0.302 N 
ATOM     12  C   UNL     1     -47.610  28.194  24.661  1.00  0.00     0.033 A 
ATOM     13  C   UNL     1     -48.268  29.399  24.813  1.00  0.00     0.019 A 
ATOM     14  C   UNL     1     -46.526  28.403  23.759  1.00  0.00     0.071 A 
ATOM     15  H   UNL     1     -49.152  29.640  25.389  1.00  0.00     0.083 H 
ATOM     16  C   UNL     1     -46.533  29.761  23.444  1.00  0.00     0.148 A 
ATOM     17  C   UNL     1     -45.532  27.628  23.136  1.00  0.00     0.137 A 
ATOM     18  N   UNL     1     -45.661  30.391  22.640  1.00  0.00    -0.218 NA
ATOM     19  N   UNL     1     -44.630  28.231  22.337  1.00  0.00    -0.219 NA
ATOM     20  C   UNL     1     -44.740  29.554  22.141  1.00  0.00     0.120 A 
ATOM     21  H   UNL     1     -43.992  29.999  21.491  1.00  0.00     0.106 H 
BRANCH  12  22
ATOM     22  C   UNL     1     -47.986  26.942  25.311  1.00  0.00     0.095 A 
ATOM     23  N   UNL     1     -47.842  25.131  26.389  1.00  0.00    -0.275 N 
ATOM     24  C   UNL     1     -49.139  25.175  25.970  1.00  0.00     0.025 A 
ATOM     25  N   UNL     1     -47.114  26.192  25.998  1.00  0.00    -0.173 NA
ATOM     26  C   UNL     1     -49.261  26.342  25.250  1.00  0.00    -0.016 A 
ATOM     27  H   UNL     1     -49.847  24.391  26.198  1.00  0.00     0.084 H 
ATOM     28  H   UNL     1     -50.146  26.703  24.745  1.00  0.00     0.066 H 
BRANCH  23  29
ATOM     29  C   UNL     1     -47.215  24.088  27.163  1.00  0.00     0.030 C 
ATOM     30  H   UNL     1     -46.225  23.875  26.754  1.00  0.00     0.048 H 
ATOM     31  H   UNL     1     -47.126  24.432  28.197  1.00  0.00     0.048 H 
ATOM     32  H   UNL     1     -47.842  23.194  27.109  1.00  0.00     0.048 H 
ENDBRANCH  23  29
ENDBRANCH  12  22
BRANCH  17  33
ATOM     33  N   UNL     1     -45.415  26.245  23.245  1.00  0.00    -0.383 N 
ATOM     34  H   UNL     1     -45.732  25.824  22.378  1.00  0.00     0.158 HD
ATOM     35  H   UNL     1     -45.862  25.881  24.079  1.00  0.00     0.158 HD
ENDBRANCH  17  33
ENDBRANCH   1  11
BRANCH   3  36
ATOM     36  C   UNL     1     -46.595  33.473  26.787  1.00  0.00     0.117 C 
ATOM     37  H   UNL     1     -45.590  33.824  26.533  1.00  0.00     0.073 H 
ATOM     38  H   UNL     1     -46.469  32.461  27.192  1.00  0.00     0.073 H 
BRANCH  36  39
ATOM     39  O   UNL     1     -47.170  34.239  27.855  1.00  0.00    -0.491 OA
BRANCH  39  40
ATOM     40  C   UNL     1     -47.127  35.605  27.793  1.00  0.00     0.121 A 
ATOM     41  C   UNL     1     -48.376  36.220  27.728  1.00  0.00    -0.019 A 
ATOM     42  C   UNL     1     -45.981  36.400  27.765  1.00  0.00     0.007 A 
ATOM     43  C   UNL     1     -48.476  37.607  27.627  1.00  0.00    -0.049 A 
ATOM     44  H   UNL     1     -49.278  35.614  27.752  1.00  0.00     0.066 H 
ATOM     45  C   UNL     1     -46.048  37.782  27.638  1.00  0.00     0.076 A 
ATOM     46  H   UNL     1     -44.986  35.971  27.813  1.00  0.00     0.069 H 
ATOM     47  C   UNL     1     -47.313  38.391  27.571  1.00  0.00     0.001 A 
ATOM     48  H   UNL     1     -49.458  38.068  27.576  1.00  0.00     0.063 H 
ATOM     49  N   UNL     1     -44.906  38.484  27.564  1.00  0.00    -0.231 NA
ATOM     50  C   UNL     1     -47.357  39.782  27.441  1.00  0.00    -0.049 A 
ATOM     51  C   UNL     1     -44.955  39.824  27.398  1.00  0.00     0.129 A 
ATOM     52  C   UNL     1     -46.168  40.502  27.354  1.00  0.00    -0.019 A 
ATOM     53  H   UNL     1     -48.306  40.309  27.395  1.00  0.00     0.063 H 
ATOM     54  H   UNL     1     -46.195  41.580  27.247  1.00  0.00     0.066 H 
BRANCH  51  55
ATOM     55  N   UNL     1     -43.742  40.528  27.269  1.00  0.00    -0.356 N 
ATOM     56  C   UNL     1     -43.622  41.745  26.507  1.00  0.00     0.021 C 
ATOM     57  C   UNL     1     -42.962  41.062  28.350  1.00  0.00     0.021 C 
ATOM     58  C   UNL     1     -42.356  42.025  27.321  1.00  0.00    -0.018 C 
ATOM     59  H   UNL     1     -43.476  41.573  25.439  1.00  0.00     0.049 H 
ATOM     60  H   UNL     1     -44.448  42.442  26.682  1.00  0.00     0.049 H 
ATOM     61  H   UNL     1     -43.571  41.540  29.124  1.00  0.00     0.049 H 
ATOM     62  H   UNL     1     -42.271  40.340  28.788  1.00  0.00     0.049 H 
ATOM     63  H   UNL     1     -42.223  43.056  27.655  1.00  0.00     0.030 H 
ATOM     64  H   UNL     1     -41.431  41.667  26.856  1.00  0.00     0.030 H 
ENDBRANCH  51  55
ENDBRANCH  39  40
ENDBRANCH  36  39
ENDBRANCH   3  36
BRANCH   4  65
ATOM     65  O   UNL     1     -49.810  33.822  26.370  1.00  0.00    -0.387 OA
ATOM     66  H   UNL     1     -50.723  33.528  26.212  1.00  0.00     0.211 HD
ENDBRANCH   4  65
TORSDOF 9
ENDMDL
MODEL 5
REMARK VINA RESULT:      -8.9      1.658      2.420
REMARK SMILES Cn1ccc(-c2cn([C@@H]3O[C@H](COc4ccc5ccc(N6CCC6)nc5c4)[C@@H](O)[C@@H]3F)c3ncnc(N)c23)n1
REMARK SMILES IDX 9 1 10 2 11 3 28 4 30 5 31 6 8 11 6 12 7 13 38 14 32 16
REMARK SMILES IDX 36 17 33 18 35 19 34 20 5 22 2 23 3 24 39 25 4 26 1 29 37 33
REMARK SMILES IDX 12 36 13 39 14 40 15 41 27 42 16 43 26 45 17 47 25 49 18 50
REMARK SMILES IDX 20 51 19 52 21 55 22 56 24 57 23 58 29 65
REMARK H PARENT 9 7 11 8 28 9 30 10 7 15 34 21 3 27 4 28 1 30 1 31 1 32 37 34
REMARK H PARENT 37 35 12 37 12 38 15 44 27 46 16 48 18 53 19 54 22 59 22 60
REMARK H PARENT 24 61 24 62 23 63 23 64 29 66
REMARK Flexibility Score: inf
ROOT
ATOM      1  C   UNL     1     -46.129  38.969  28.881  1.00  0.00     0.169 C 
ATOM      2  O   UNL     1     -45.552  37.652  28.846  1.00  0.00    -0.345 OA
ATOM      3  C   UNL     1     -46.503  36.735  28.276  1.00  0.00     0.123 C 
ATOM      4  C   UNL     1     -47.600  37.569  27.613  1.00  0.00     0.119 C 
ATOM      5  C   UNL     1     -47.571  38.860  28.408  1.00  0.00     0.173 C 
ATOM      6  F   UNL     1     -47.971  39.913  27.660  1.00  0.00    -0.239 F 
ATOM      7  H   UNL     1     -46.125  39.285  29.931  1.00  0.00     0.088 H 
ATOM      8  H   UNL     1     -46.912  36.151  29.111  1.00  0.00     0.067 H 
ATOM      9  H   UNL     1     -47.398  37.761  26.558  1.00  0.00     0.066 H 
ATOM     10  H   UNL     1     -48.250  38.793  29.266  1.00  0.00     0.074 H 
ENDROOT
BRANCH   1  11
ATOM     11  N   UNL     1     -45.258  39.891  28.169  1.00  0.00    -0.302 N 
ATOM     12  C   UNL     1     -44.568  41.360  26.635  1.00  0.00     0.033 A 
ATOM     13  C   UNL     1     -45.624  40.561  27.026  1.00  0.00     0.019 A 
ATOM     14  C   UNL     1     -43.533  41.216  27.604  1.00  0.00     0.071 A 
ATOM     15  H   UNL     1     -46.597  40.423  26.571  1.00  0.00     0.083 H 
ATOM     16  C   UNL     1     -43.986  40.273  28.525  1.00  0.00     0.148 A 
ATOM     17  C   UNL     1     -42.263  41.765  27.854  1.00  0.00     0.137 A 
ATOM     18  N   UNL     1     -43.308  39.821  29.593  1.00  0.00    -0.218 NA
ATOM     19  N   UNL     1     -41.549  41.322  28.907  1.00  0.00    -0.219 NA
ATOM     20  C   UNL     1     -42.099  40.390  29.700  1.00  0.00     0.120 A 
ATOM     21  H   UNL     1     -41.489  40.061  30.536  1.00  0.00     0.106 H 
BRANCH  12  22
ATOM     22  C   UNL     1     -44.546  42.202  25.441  1.00  0.00     0.095 A 
ATOM     23  N   UNL     1     -45.068  43.695  24.042  1.00  0.00    -0.275 N 
ATOM     24  C   UNL     1     -44.052  43.010  23.444  1.00  0.00     0.025 A 
ATOM     25  N   UNL     1     -45.393  43.222  25.258  1.00  0.00    -0.173 NA
ATOM     26  C   UNL     1     -43.699  42.016  24.329  1.00  0.00    -0.016 A 
ATOM     27  H   UNL     1     -43.683  43.265  22.461  1.00  0.00     0.084 H 
ATOM     28  H   UNL     1     -42.940  41.260  24.185  1.00  0.00     0.066 H 
BRANCH  23  29
ATOM     29  C   UNL     1     -45.793  44.818  23.501  1.00  0.00     0.030 C 
ATOM     30  H   UNL     1     -46.800  44.501  23.221  1.00  0.00     0.048 H 
ATOM     31  H   UNL     1     -45.846  45.597  24.267  1.00  0.00     0.048 H 
ATOM     32  H   UNL     1     -45.258  45.183  22.621  1.00  0.00     0.048 H 
ENDBRANCH  23  29
ENDBRANCH  12  22
BRANCH  17  33
ATOM     33  N   UNL     1     -41.676  42.785  27.110  1.00  0.00    -0.383 N 
ATOM     34  H   UNL     1     -41.072  42.369  26.409  1.00  0.00     0.158 HD
ATOM     35  H   UNL     1     -41.228  43.483  27.692  1.00  0.00     0.158 HD
ENDBRANCH  17  33
ENDBRANCH   1  11
BRANCH   3  36
ATOM     36  C   UNL     1     -45.832  35.773  27.285  1.00  0.00     0.117 C 
ATOM     37  H   UNL     1     -45.594  34.798  27.722  1.00  0.00     0.073 H 
ATOM     38  H   UNL     1     -44.875  36.207  26.972  1.00  0.00     0.073 H 
BRANCH  36  39
ATOM     39  O   UNL     1     -46.599  35.639  26.079  1.00  0.00    -0.491 OA
BRANCH  39  40
ATOM     40  C   UNL     1     -47.153  34.426  25.774  1.00  0.00     0.121 A 
ATOM     41  C   UNL     1     -48.413  34.209  26.330  1.00  0.00    -0.019 A 
ATOM     42  C   UNL     1     -46.574  33.419  25.002  1.00  0.00     0.007 A 
ATOM     43  C   UNL     1     -49.078  33.001  26.125  1.00  0.00    -0.049 A 
ATOM     44  H   UNL     1     -48.879  34.987  26.931  1.00  0.00     0.066 H 
ATOM     45  C   UNL     1     -47.200  32.194  24.803  1.00  0.00     0.076 A 
ATOM     46  H   UNL     1     -45.597  33.537  24.547  1.00  0.00     0.069 H 
ATOM     47  C   UNL     1     -48.469  31.986  25.371  1.00  0.00     0.001 A 
ATOM     48  H   UNL     1     -50.058  32.851  26.568  1.00  0.00     0.063 H 
ATOM     49  N   UNL     1     -46.565  31.247  24.093  1.00  0.00    -0.231 NA
ATOM     50  C   UNL     1     -49.079  30.746  25.160  1.00  0.00    -0.049 A 
ATOM     51  C   UNL     1     -47.142  30.037  23.928  1.00  0.00     0.129 A 
ATOM     52  C   UNL     1     -48.409  29.766  24.433  1.00  0.00    -0.019 A 
ATOM     53  H   UNL     1     -50.064  30.533  25.565  1.00  0.00     0.063 H 
ATOM     54  H   UNL     1     -48.873  28.800  24.270  1.00  0.00     0.066 H 
BRANCH  51  55
ATOM     55  N   UNL     1     -46.429  29.045  23.226  1.00  0.00    -0.356 N 
ATOM     56  C   UNL     1     -45.144  29.288  22.621  1.00  0.00     0.021 C 
ATOM     57  C   UNL     1     -46.004  27.782  23.756  1.00  0.00     0.021 C 
ATOM     58  C   UNL     1     -44.946  27.770  22.646  1.00  0.00    -0.018 C 
ATOM     59  H   UNL     1     -45.211  29.745  21.632  1.00  0.00     0.049 H 
ATOM     60  H   UNL     1     -44.467  29.853  23.269  1.00  0.00     0.049 H 
ATOM     61  H   UNL     1     -45.603  27.855  24.773  1.00  0.00     0.049 H 
ATOM     62  H   UNL     1     -46.765  27.002  23.693  1.00  0.00     0.049 H 
ATOM     63  H   UNL     1     -43.951  27.425  22.939  1.00  0.00     0.030 H 
ATOM     64  H   UNL     1     -45.257  27.258  21.729  1.00  0.00     0.030 H 
ENDBRANCH  51  55
ENDBRANCH  39  40
ENDBRANCH  36  39
ENDBRANCH   3  36
BRANCH   4  65
ATOM     65  O   UNL     1     -48.866  36.907  27.665  1.00  0.00    -0.387 OA
ATOM     66  H   UNL     1     -49.577  37.567  27.735  1.00  0.00     0.211 HD
ENDBRANCH   4  65
TORSDOF 9
ENDMDL
MODEL 6
REMARK VINA RESULT:      -8.9      3.319      4.711
REMARK SMILES Cn1ccc(-c2cn([C@@H]3O[C@H](COc4ccc5ccc(N6CCC6)nc5c4)[C@@H](O)[C@@H]3F)c3ncnc(N)c23)n1
REMARK SMILES IDX 9 1 10 2 11 3 28 4 30 5 31 6 8 11 6 12 7 13 38 14 32 16
REMARK SMILES IDX 36 17 33 18 35 19 34 20 5 22 2 23 3 24 39 25 4 26 1 29 37 33
REMARK SMILES IDX 12 36 13 39 14 40 15 41 27 42 16 43 26 45 17 47 25 49 18 50
REMARK SMILES IDX 20 51 19 52 21 55 22 56 24 57 23 58 29 65
REMARK H PARENT 9 7 11 8 28 9 30 10 7 15 34 21 3 27 4 28 1 30 1 31 1 32 37 34
REMARK H PARENT 37 35 12 37 12 38 15 44 27 46 16 48 18 53 19 54 22 59 22 60
REMARK H PARENT 24 61 24 62 23 63 23 64 29 66
REMARK Flexibility Score: inf
ROOT
ATOM      1  C   UNL     1     -46.247  37.313  27.232  1.00  0.00     0.169 C 
ATOM      2  O   UNL     1     -46.766  36.429  26.222  1.00  0.00    -0.345 OA
ATOM      3  C   UNL     1     -46.930  35.115  26.784  1.00  0.00     0.123 C 
ATOM      4  C   UNL     1     -46.829  35.254  28.303  1.00  0.00     0.119 C 
ATOM      5  C   UNL     1     -45.960  36.484  28.475  1.00  0.00     0.173 C 
ATOM      6  F   UNL     1     -46.239  37.134  29.628  1.00  0.00    -0.239 F 
ATOM      7  H   UNL     1     -45.299  37.708  26.844  1.00  0.00     0.088 H 
ATOM      8  H   UNL     1     -46.106  34.504  26.395  1.00  0.00     0.067 H 
ATOM      9  H   UNL     1     -47.802  35.399  28.776  1.00  0.00     0.066 H 
ATOM     10  H   UNL     1     -44.902  36.201  28.509  1.00  0.00     0.074 H 
ENDROOT
BRANCH   1  11
ATOM     11  N   UNL     1     -47.140  38.452  27.375  1.00  0.00    -0.302 N 
ATOM     12  C   UNL     1     -48.936  39.645  27.958  1.00  0.00     0.033 A 
ATOM     13  C   UNL     1     -48.374  38.384  27.978  1.00  0.00     0.019 A 
ATOM     14  C   UNL     1     -47.990  40.532  27.368  1.00  0.00     0.071 A 
ATOM     15  H   UNL     1     -48.766  37.454  28.372  1.00  0.00     0.083 H 
ATOM     16  C   UNL     1     -46.899  39.750  26.992  1.00  0.00     0.148 A 
ATOM     17  C   UNL     1     -47.883  41.910  27.106  1.00  0.00     0.137 A 
ATOM     18  N   UNL     1     -45.789  40.185  26.374  1.00  0.00    -0.218 NA
ATOM     19  N   UNL     1     -46.790  42.377  26.473  1.00  0.00    -0.219 NA
ATOM     20  C   UNL     1     -45.824  41.505  26.144  1.00  0.00     0.120 A 
ATOM     21  H   UNL     1     -44.962  41.925  25.635  1.00  0.00     0.106 H 
BRANCH  12  22
ATOM     22  C   UNL     1     -50.262  39.983  28.467  1.00  0.00     0.095 A 
ATOM     23  N   UNL     1     -51.800  40.950  29.546  1.00  0.00    -0.275 N 
ATOM     24  C   UNL     1     -52.425  39.913  28.920  1.00  0.00     0.025 A 
ATOM     25  N   UNL     1     -50.480  41.015  29.292  1.00  0.00    -0.173 NA
ATOM     26  C   UNL     1     -51.443  39.253  28.217  1.00  0.00    -0.016 A 
ATOM     27  H   UNL     1     -53.483  39.724  29.031  1.00  0.00     0.084 H 
ATOM     28  H   UNL     1     -51.563  38.363  27.615  1.00  0.00     0.066 H 
BRANCH  23  29
ATOM     29  C   UNL     1     -52.401  41.924  30.423  1.00  0.00     0.030 C 
ATOM     30  H   UNL     1     -51.712  42.758  30.569  1.00  0.00     0.048 H 
ATOM     31  H   UNL     1     -53.326  42.280  29.961  1.00  0.00     0.048 H 
ATOM     32  H   UNL     1     -52.612  41.442  31.381  1.00  0.00     0.048 H 
ENDBRANCH  23  29
ENDBRANCH  12  22
BRANCH  17  33
ATOM     33  N   UNL     1     -48.818  42.868  27.489  1.00  0.00    -0.383 N 
ATOM     34  H   UNL     1     -49.703  42.655  27.041  1.00  0.00     0.158 HD
ATOM     35  H   UNL     1     -48.487  43.814  27.343  1.00  0.00     0.158 HD
ENDBRANCH  17  33
ENDBRANCH   1  11
BRANCH   3  36
ATOM     36  C   UNL     1     -48.260  34.481  26.351  1.00  0.00     0.117 C 
ATOM     37  H   UNL     1     -48.401  34.471  25.266  1.00  0.00     0.073 H 
ATOM     38  H   UNL     1     -49.082  35.082  26.758  1.00  0.00     0.073 H 
BRANCH  36  39
ATOM     39  O   UNL     1     -48.431  33.174  26.918  1.00  0.00    -0.491 OA
BRANCH  39  40
ATOM     40  C   UNL     1     -48.536  32.094  26.085  1.00  0.00     0.121 A 
ATOM     41  C   UNL     1     -49.027  32.390  24.814  1.00  0.00    -0.019 A 
ATOM     42  C   UNL     1     -48.228  30.770  26.398  1.00  0.00     0.007 A 
ATOM     43  C   UNL     1     -49.216  31.376  23.876  1.00  0.00    -0.049 A 
ATOM     44  H   UNL     1     -49.267  33.418  24.554  1.00  0.00     0.066 H 
ATOM     45  C   UNL     1     -48.432  29.735  25.495  1.00  0.00     0.076 A 
ATOM     46  H   UNL     1     -47.844  30.487  27.373  1.00  0.00     0.069 H 
ATOM     47  C   UNL     1     -48.929  30.045  24.216  1.00  0.00     0.001 A 
ATOM     48  H   UNL     1     -49.600  31.626  22.892  1.00  0.00     0.063 H 
ATOM     49  N   UNL     1     -48.164  28.475  25.877  1.00  0.00    -0.231 NA
ATOM     50  C   UNL     1     -49.128  28.988  23.324  1.00  0.00    -0.049 A 
ATOM     51  C   UNL     1     -48.397  27.455  25.024  1.00  0.00     0.129 A 
ATOM     52  C   UNL     1     -48.859  27.684  23.732  1.00  0.00    -0.019 A 
ATOM     53  H   UNL     1     -49.500  29.168  22.320  1.00  0.00     0.063 H 
ATOM     54  H   UNL     1     -49.016  26.859  23.048  1.00  0.00     0.066 H 
BRANCH  51  55
ATOM     55  N   UNL     1     -48.159  26.140  25.471  1.00  0.00    -0.356 N 
ATOM     56  C   UNL     1     -46.839  25.570  25.553  1.00  0.00     0.021 C 
ATOM     57  C   UNL     1     -48.529  25.609  26.752  1.00  0.00     0.021 C 
ATOM     58  C   UNL     1     -47.434  24.558  26.535  1.00  0.00    -0.018 C 
ATOM     59  H   UNL     1     -46.483  25.164  24.604  1.00  0.00     0.049 H 
ATOM     60  H   UNL     1     -46.103  26.256  25.986  1.00  0.00     0.049 H 
ATOM     61  H   UNL     1     -48.342  26.305  27.577  1.00  0.00     0.049 H 
ATOM     62  H   UNL     1     -49.551  25.228  26.789  1.00  0.00     0.049 H 
ATOM     63  H   UNL     1     -46.819  24.323  27.407  1.00  0.00     0.030 H 
ATOM     64  H   UNL     1     -47.783  23.629  26.071  1.00  0.00     0.030 H 
ENDBRANCH  51  55
ENDBRANCH  39  40
ENDBRANCH  36  39
ENDBRANCH   3  36
BRANCH   4  65
ATOM     65  O   UNL     1     -46.266  34.083  28.901  1.00  0.00    -0.387 OA
ATOM     66  H   UNL     1     -46.911  33.684  29.510  1.00  0.00     0.211 HD
ENDBRANCH   4  65
TORSDOF 9
ENDMDL
MODEL 7
REMARK VINA RESULT:      -8.8      3.519      5.025
REMARK SMILES Cn1ccc(-c2cn([C@@H]3O[C@H](COc4ccc5ccc(N6CCC6)nc5c4)[C@@H](O)[C@@H]3F)c3ncnc(N)c23)n1
REMARK SMILES IDX 9 1 10 2 11 3 28 4 30 5 31 6 8 11 6 12 7 13 38 14 32 16
REMARK SMILES IDX 36 17 33 18 35 19 34 20 5 22 2 23 3 24 39 25 4 26 1 29 37 33
REMARK SMILES IDX 12 36 13 39 14 40 15 41 27 42 16 43 26 45 17 47 25 49 18 50
REMARK SMILES IDX 20 51 19 52 21 55 22 56 24 57 23 58 29 65
REMARK H PARENT 9 7 11 8 28 9 30 10 7 15 34 21 3 27 4 28 1 30 1 31 1 32 37 34
REMARK H PARENT 37 35 12 37 12 38 15 44 27 46 16 48 18 53 19 54 22 59 22 60
REMARK H PARENT 24 61 24 62 23 63 23 64 29 66
REMARK Flexibility Score: inf
ROOT
ATOM      1  C   UNL     1     -46.340  37.284  27.827  1.00  0.00     0.169 C 
ATOM      2  O   UNL     1     -46.454  36.601  26.565  1.00  0.00    -0.345 OA
ATOM      3  C   UNL     1     -46.445  35.181  26.795  1.00  0.00     0.123 C 
ATOM      4  C   UNL     1     -46.675  34.960  28.290  1.00  0.00     0.119 C 
ATOM      5  C   UNL     1     -46.135  36.235  28.909  1.00  0.00     0.173 C 
ATOM      6  F   UNL     1     -46.765  36.531  30.068  1.00  0.00    -0.239 F 
ATOM      7  H   UNL     1     -45.439  37.908  27.764  1.00  0.00     0.088 H 
ATOM      8  H   UNL     1     -45.450  34.823  26.499  1.00  0.00     0.067 H 
ATOM      9  H   UNL     1     -47.730  34.829  28.536  1.00  0.00     0.066 H 
ATOM     10  H   UNL     1     -45.068  36.125  29.137  1.00  0.00     0.074 H 
ENDROOT
BRANCH   1  11
ATOM     11  N   UNL     1     -47.463  38.196  27.979  1.00  0.00    -0.302 N 
ATOM     12  C   UNL     1     -48.597  40.111  28.159  1.00  0.00     0.033 A 
ATOM     13  C   UNL     1     -47.336  39.564  28.032  1.00  0.00     0.019 A 
ATOM     14  C   UNL     1     -49.539  39.042  28.130  1.00  0.00     0.071 A 
ATOM     15  H   UNL     1     -46.369  40.049  27.981  1.00  0.00     0.083 H 
ATOM     16  C   UNL     1     -48.796  37.866  28.047  1.00  0.00     0.148 A 
ATOM     17  C   UNL     1     -50.938  38.891  28.144  1.00  0.00     0.137 A 
ATOM     18  N   UNL     1     -49.291  36.617  28.020  1.00  0.00    -0.218 NA
ATOM     19  N   UNL     1     -51.467  37.653  28.135  1.00  0.00    -0.219 NA
ATOM     20  C   UNL     1     -50.630  36.604  28.079  1.00  0.00     0.120 A 
ATOM     21  H   UNL     1     -51.099  35.625  28.075  1.00  0.00     0.106 H 
BRANCH  12  22
ATOM     22  C   UNL     1     -48.887  41.537  28.288  1.00  0.00     0.095 A 
ATOM     23  N   UNL     1     -49.500  43.383  29.111  1.00  0.00    -0.275 N 
ATOM     24  C   UNL     1     -49.203  43.672  27.812  1.00  0.00     0.025 A 
ATOM     25  N   UNL     1     -49.321  42.088  29.428  1.00  0.00    -0.173 NA
ATOM     26  C   UNL     1     -48.813  42.481  27.243  1.00  0.00    -0.016 A 
ATOM     27  H   UNL     1     -49.304  44.668  27.404  1.00  0.00     0.084 H 
ATOM     28  H   UNL     1     -48.522  42.319  26.214  1.00  0.00     0.066 H 
BRANCH  23  29
ATOM     29  C   UNL     1     -49.979  44.299  30.117  1.00  0.00     0.030 C 
ATOM     30  H   UNL     1     -49.129  44.785  30.601  1.00  0.00     0.048 H 
ATOM     31  H   UNL     1     -50.610  45.048  29.630  1.00  0.00     0.048 H 
ATOM     32  H   UNL     1     -50.555  43.733  30.853  1.00  0.00     0.048 H 
ENDBRANCH  23  29
ENDBRANCH  12  22
BRANCH  17  33
ATOM     33  N   UNL     1     -51.852  39.941  28.127  1.00  0.00    -0.383 N 
ATOM     34  H   UNL     1     -52.702  39.623  27.675  1.00  0.00     0.158 HD
ATOM     35  H   UNL     1     -51.461  40.792  27.739  1.00  0.00     0.158 HD
ENDBRANCH  17  33
ENDBRANCH   1  11
BRANCH   3  36
ATOM     36  C   UNL     1     -47.500  34.466  25.938  1.00  0.00     0.117 C 
ATOM     37  H   UNL     1     -47.118  34.138  24.967  1.00  0.00     0.073 H 
ATOM     38  H   UNL     1     -48.310  35.174  25.721  1.00  0.00     0.073 H 
BRANCH  36  39
ATOM     39  O   UNL     1     -48.121  33.390  26.655  1.00  0.00    -0.491 OA
BRANCH  39  40
ATOM     40  C   UNL     1     -48.523  32.277  25.969  1.00  0.00     0.121 A 
ATOM     41  C   UNL     1     -49.499  32.514  25.002  1.00  0.00    -0.019 A 
ATOM     42  C   UNL     1     -48.071  30.971  26.166  1.00  0.00     0.007 A 
ATOM     43  C   UNL     1     -50.022  31.461  24.253  1.00  0.00    -0.049 A 
ATOM     44  H   UNL     1     -49.858  33.526  24.834  1.00  0.00     0.066 H 
ATOM     45  C   UNL     1     -48.593  29.898  25.454  1.00  0.00     0.076 A 
ATOM     46  H   UNL     1     -47.314  30.733  26.905  1.00  0.00     0.069 H 
ATOM     47  C   UNL     1     -49.578  30.149  24.483  1.00  0.00     0.001 A 
ATOM     48  H   UNL     1     -50.782  31.666  23.505  1.00  0.00     0.063 H 
ATOM     49  N   UNL     1     -48.152  28.659  25.729  1.00  0.00    -0.231 NA
ATOM     50  C   UNL     1     -50.090  29.055  23.780  1.00  0.00    -0.049 A 
ATOM     51  C   UNL     1     -48.681  27.603  25.074  1.00  0.00     0.129 A 
ATOM     52  C   UNL     1     -49.636  27.773  24.079  1.00  0.00    -0.019 A 
ATOM     53  H   UNL     1     -50.845  29.189  23.011  1.00  0.00     0.063 H 
ATOM     54  H   UNL     1     -50.033  26.919  23.542  1.00  0.00     0.066 H 
BRANCH  51  55
ATOM     55  N   UNL     1     -48.239  26.311  25.422  1.00  0.00    -0.356 N 
ATOM     56  C   UNL     1     -46.887  26.034  25.837  1.00  0.00     0.021 C 
ATOM     57  C   UNL     1     -48.786  25.487  26.462  1.00  0.00     0.021 C 
ATOM     58  C   UNL     1     -47.439  24.754  26.471  1.00  0.00    -0.018 C 
ATOM     59  H   UNL     1     -46.198  25.894  25.003  1.00  0.00     0.049 H 
ATOM     60  H   UNL     1     -46.498  26.770  26.548  1.00  0.00     0.049 H 
ATOM     61  H   UNL     1     -49.015  26.044  27.377  1.00  0.00     0.049 H 
ATOM     62  H   UNL     1     -49.646  24.894  26.142  1.00  0.00     0.049 H 
ATOM     63  H   UNL     1     -47.042  24.501  27.457  1.00  0.00     0.030 H 
ATOM     64  H   UNL     1     -47.398  23.873  25.822  1.00  0.00     0.030 H 
ENDBRANCH  51  55
ENDBRANCH  39  40
ENDBRANCH  36  39
ENDBRANCH   3  36
BRANCH   4  65
ATOM     65  O   UNL     1     -46.007  33.785  28.756  1.00  0.00    -0.387 OA
ATOM     66  H   UNL     1     -46.293  33.017  28.231  1.00  0.00     0.211 HD
ENDBRANCH   4  65
TORSDOF 9
ENDMDL
