MODEL 1
REMARK VINA RESULT:     -10.9      0.000      0.000
REMARK SMILES O=C(NCc1cnc2cc(CNCC34CC(C3)C4)[nH]c2c1)c1cc(=O)n2ccccc2n1
REMARK SMILES IDX 5 1 6 2 7 3 8 4 9 5 10 6 19 7 20 8 21 9 4 14 3 17 1 18 2 19
REMARK SMILES IDX 22 21 23 22 32 23 24 24 31 26 25 27 26 28 30 29 27 30 29 31
REMARK SMILES IDX 28 33 11 37 12 40 13 42 14 45 15 46 17 47 18 48 16 49
REMARK H PARENT 6 10 9 11 19 12 21 13 4 15 4 16 3 20 23 25 30 32 27 34 29 35
REMARK H PARENT 28 36 11 38 11 39 12 41 13 43 13 44 15 50 15 51 17 52 17 53
REMARK H PARENT 18 54 18 55 16 56
REMARK Flexibility Score: inf
ROOT
ATOM      1  C   UNL     1     -47.969  35.374  26.884  1.00  0.00    -0.008 A 
ATOM      2  C   UNL     1     -46.668  35.294  26.387  1.00  0.00     0.033 A 
ATOM      3  N   UNL     1     -46.150  34.267  25.678  1.00  0.00    -0.254 NA
ATOM      4  C   UNL     1     -47.009  33.246  25.453  1.00  0.00     0.088 A 
ATOM      5  C   UNL     1     -46.792  32.037  24.755  1.00  0.00    -0.014 A 
ATOM      6  C   UNL     1     -47.973  31.314  24.784  1.00  0.00     0.031 A 
ATOM      7  N   UNL     1     -48.888  32.059  25.495  1.00  0.00    -0.356 N 
ATOM      8  C   UNL     1     -48.324  33.243  25.906  1.00  0.00     0.065 A 
ATOM      9  C   UNL     1     -48.845  34.312  26.634  1.00  0.00    -0.030 A 
ATOM     10  H   UNL     1     -45.963  36.107  26.554  1.00  0.00     0.084 H 
ATOM     11  H   UNL     1     -45.870  31.733  24.281  1.00  0.00     0.067 H 
ATOM     12  H   UNL     1     -49.842  31.782  25.681  1.00  0.00     0.166 HD
ATOM     13  H   UNL     1     -49.870  34.322  26.986  1.00  0.00     0.065 H 
ENDROOT
BRANCH   1  14
ATOM     14  C   UNL     1     -48.430  36.586  27.638  1.00  0.00     0.045 C 
ATOM     15  H   UNL     1     -48.648  36.343  28.685  1.00  0.00     0.054 H 
ATOM     16  H   UNL     1     -49.358  36.976  27.203  1.00  0.00     0.054 H 
BRANCH  14  17
ATOM     17  N   UNL     1     -47.426  37.617  27.623  1.00  0.00    -0.347 N 
ATOM     18  O   UNL     1     -46.536  37.100  29.676  1.00  0.00    -0.268 OA
ATOM     19  C   UNL     1     -46.510  37.749  28.638  1.00  0.00     0.270 C 
ATOM     20  H   UNL     1     -47.233  38.137  26.771  1.00  0.00     0.164 HD
BRANCH  19  21
ATOM     21  C   UNL     1     -45.452  38.780  28.327  1.00  0.00     0.136 A 
ATOM     22  C   UNL     1     -45.553  39.401  27.151  1.00  0.00     0.035 A 
ATOM     23  N   UNL     1     -44.468  39.015  29.260  1.00  0.00    -0.225 NA
ATOM     24  C   UNL     1     -44.543  40.412  26.811  1.00  0.00     0.258 A 
ATOM     25  H   UNL     1     -46.333  39.208  26.427  1.00  0.00     0.071 H 
ATOM     26  C   UNL     1     -43.578  39.911  28.956  1.00  0.00     0.140 A 
ATOM     27  O   UNL     1     -44.626  40.987  25.727  1.00  0.00    -0.269 OA
ATOM     28  N   UNL     1     -43.563  40.632  27.767  1.00  0.00    -0.268 N 
ATOM     29  C   UNL     1     -42.493  40.201  29.936  1.00  0.00    -0.019 A 
ATOM     30  C   UNL     1     -42.573  41.576  27.517  1.00  0.00     0.014 A 
ATOM     31  C   UNL     1     -41.563  41.120  29.650  1.00  0.00    -0.057 A 
ATOM     32  H   UNL     1     -42.497  39.646  30.865  1.00  0.00     0.066 H 
ATOM     33  C   UNL     1     -41.601  41.832  28.401  1.00  0.00    -0.045 A 
ATOM     34  H   UNL     1     -42.622  42.104  26.567  1.00  0.00     0.082 H 
ATOM     35  H   UNL     1     -40.765  41.346  30.351  1.00  0.00     0.062 H 
ATOM     36  H   UNL     1     -40.833  42.572  28.196  1.00  0.00     0.064 H 
ENDBRANCH  19  21
ENDBRANCH  14  17
ENDBRANCH   1  14
BRANCH   6  37
ATOM     37  C   UNL     1     -48.314  29.982  24.212  1.00  0.00     0.036 C 
ATOM     38  H   UNL     1     -49.399  29.933  24.068  1.00  0.00     0.049 H 
ATOM     39  H   UNL     1     -47.871  29.846  23.218  1.00  0.00     0.049 H 
BRANCH  37  40
ATOM     40  N   UNL     1     -47.926  28.897  25.107  1.00  0.00    -0.311 NA
ATOM     41  H   UNL     1     -46.984  29.080  25.450  1.00  0.00     0.123 HD
BRANCH  40  42
ATOM     42  C   UNL     1     -47.975  27.580  24.476  1.00  0.00     0.001 C 
ATOM     43  H   UNL     1     -48.928  27.453  23.952  1.00  0.00     0.043 H 
ATOM     44  H   UNL     1     -47.173  27.473  23.737  1.00  0.00     0.043 H 
BRANCH  42  45
ATOM     45  C   UNL     1     -47.838  26.524  25.513  1.00  0.00    -0.016 C 
ATOM     46  C   UNL     1     -48.869  25.422  25.981  1.00  0.00    -0.043 C 
ATOM     47  C   UNL     1     -46.790  25.341  25.539  1.00  0.00    -0.043 C 
ATOM     48  C   UNL     1     -47.500  26.655  27.053  1.00  0.00    -0.043 C 
ATOM     49  C   UNL     1     -47.606  25.104  26.854  1.00  0.00    -0.040 C 
ATOM     50  H   UNL     1     -49.161  24.670  25.241  1.00  0.00     0.028 H 
ATOM     51  H   UNL     1     -49.762  25.770  26.512  1.00  0.00     0.028 H 
ATOM     52  H   UNL     1     -45.736  25.615  25.651  1.00  0.00     0.028 H 
ATOM     53  H   UNL     1     -46.881  24.582  24.754  1.00  0.00     0.028 H 
ATOM     54  H   UNL     1     -48.258  27.125  27.689  1.00  0.00     0.028 H 
ATOM     55  H   UNL     1     -46.515  27.056  27.312  1.00  0.00     0.028 H 
ATOM     56  H   UNL     1     -47.479  24.325  27.589  1.00  0.00     0.030 H 
ENDBRANCH  42  45
ENDBRANCH  40  42
ENDBRANCH  37  40
ENDBRANCH   6  37
TORSDOF 7
ENDMDL
MODEL 2
REMARK VINA RESULT:     -10.2      1.542      2.333
REMARK SMILES O=C(NCc1cnc2cc(CNCC34CC(C3)C4)[nH]c2c1)c1cc(=O)n2ccccc2n1
REMARK SMILES IDX 5 1 6 2 7 3 8 4 9 5 10 6 19 7 20 8 21 9 4 14 3 17 1 18 2 19
REMARK SMILES IDX 22 21 23 22 32 23 24 24 31 26 25 27 26 28 30 29 27 30 29 31
REMARK SMILES IDX 28 33 11 37 12 40 13 42 14 45 15 46 17 47 18 48 16 49
REMARK H PARENT 6 10 9 11 19 12 21 13 4 15 4 16 3 20 23 25 30 32 27 34 29 35
REMARK H PARENT 28 36 11 38 11 39 12 41 13 43 13 44 15 50 15 51 17 52 17 53
REMARK H PARENT 18 54 18 55 16 56
REMARK Flexibility Score: inf
ROOT
ATOM      1  C   UNL     1     -47.949  33.822  26.044  1.00  0.00    -0.008 A 
ATOM      2  C   UNL     1     -46.620  33.840  25.620  1.00  0.00     0.033 A 
ATOM      3  N   UNL     1     -46.034  32.937  24.803  1.00  0.00    -0.254 NA
ATOM      4  C   UNL     1     -46.851  31.942  24.382  1.00  0.00     0.088 A 
ATOM      5  C   UNL     1     -46.562  30.851  23.532  1.00  0.00    -0.014 A 
ATOM      6  C   UNL     1     -47.721  30.110  23.385  1.00  0.00     0.031 A 
ATOM      7  N   UNL     1     -48.695  30.726  24.140  1.00  0.00    -0.356 N 
ATOM      8  C   UNL     1     -48.189  31.848  24.750  1.00  0.00     0.065 A 
ATOM      9  C   UNL     1     -48.779  32.791  25.592  1.00  0.00    -0.030 A 
ATOM     10  H   UNL     1     -45.949  34.634  25.944  1.00  0.00     0.084 H 
ATOM     11  H   UNL     1     -45.606  30.637  23.076  1.00  0.00     0.067 H 
ATOM     12  H   UNL     1     -49.650  30.407  24.227  1.00  0.00     0.166 HD
ATOM     13  H   UNL     1     -49.823  32.730  25.879  1.00  0.00     0.065 H 
ENDROOT
BRANCH   1  14
ATOM     14  C   UNL     1     -48.486  34.903  26.935  1.00  0.00     0.045 C 
ATOM     15  H   UNL     1     -48.738  34.510  27.927  1.00  0.00     0.054 H 
ATOM     16  H   UNL     1     -49.408  35.320  26.515  1.00  0.00     0.054 H 
BRANCH  14  17
ATOM     17  N   UNL     1     -47.521  35.957  27.108  1.00  0.00    -0.347 N 
ATOM     18  O   UNL     1     -49.001  37.484  27.973  1.00  0.00    -0.268 OA
ATOM     19  C   UNL     1     -47.857  37.159  27.678  1.00  0.00     0.270 C 
ATOM     20  H   UNL     1     -46.527  35.766  27.010  1.00  0.00     0.164 HD
BRANCH  19  21
ATOM     21  C   UNL     1     -46.655  38.039  27.917  1.00  0.00     0.136 A 
ATOM     22  C   UNL     1     -45.948  37.795  29.023  1.00  0.00     0.035 A 
ATOM     23  N   UNL     1     -46.362  39.019  26.997  1.00  0.00    -0.225 NA
ATOM     24  C   UNL     1     -44.769  38.629  29.292  1.00  0.00     0.258 A 
ATOM     25  H   UNL     1     -46.188  37.020  29.738  1.00  0.00     0.071 H 
ATOM     26  C   UNL     1     -45.318  39.753  27.238  1.00  0.00     0.140 A 
ATOM     27  O   UNL     1     -44.114  38.414  30.310  1.00  0.00    -0.269 OA
ATOM     28  N   UNL     1     -44.495  39.608  28.349  1.00  0.00    -0.268 N 
ATOM     29  C   UNL     1     -44.961  40.827  26.268  1.00  0.00    -0.019 A 
ATOM     30  C   UNL     1     -43.393  40.437  28.535  1.00  0.00     0.014 A 
ATOM     31  C   UNL     1     -43.890  41.599  26.489  1.00  0.00    -0.057 A 
ATOM     32  H   UNL     1     -45.595  40.947  25.398  1.00  0.00     0.066 H 
ATOM     33  C   UNL     1     -43.079  41.400  27.660  1.00  0.00    -0.045 A 
ATOM     34  H   UNL     1     -42.793  40.268  29.426  1.00  0.00     0.082 H 
ATOM     35  H   UNL     1     -43.614  42.385  25.795  1.00  0.00     0.062 H 
ATOM     36  H   UNL     1     -42.215  42.040  27.814  1.00  0.00     0.064 H 
ENDBRANCH  19  21
ENDBRANCH  14  17
ENDBRANCH   1  14
BRANCH   6  37
ATOM     37  C   UNL     1     -47.993  28.868  22.609  1.00  0.00     0.036 C 
ATOM     38  H   UNL     1     -48.864  29.043  21.967  1.00  0.00     0.049 H 
ATOM     39  H   UNL     1     -47.163  28.628  21.933  1.00  0.00     0.049 H 
BRANCH  37  40
ATOM     40  N   UNL     1     -48.293  27.741  23.485  1.00  0.00    -0.311 NA
ATOM     41  H   UNL     1     -49.102  27.980  24.057  1.00  0.00     0.123 HD
BRANCH  40  42
ATOM     42  C   UNL     1     -47.175  27.362  24.345  1.00  0.00     0.001 C 
ATOM     43  H   UNL     1     -46.421  26.824  23.760  1.00  0.00     0.043 H 
ATOM     44  H   UNL     1     -46.694  28.249  24.771  1.00  0.00     0.043 H 
BRANCH  42  45
ATOM     45  C   UNL     1     -47.663  26.487  25.443  1.00  0.00    -0.016 C 
ATOM     46  C   UNL     1     -47.063  25.140  26.010  1.00  0.00    -0.043 C 
ATOM     47  C   UNL     1     -47.841  26.874  26.966  1.00  0.00    -0.043 C 
ATOM     48  C   UNL     1     -49.062  25.769  25.619  1.00  0.00    -0.043 C 
ATOM     49  C   UNL     1     -48.306  25.379  26.935  1.00  0.00    -0.040 C 
ATOM     50  H   UNL     1     -46.077  25.196  26.481  1.00  0.00     0.028 H 
ATOM     51  H   UNL     1     -47.098  24.264  25.353  1.00  0.00     0.028 H 
ATOM     52  H   UNL     1     -48.601  27.626  27.200  1.00  0.00     0.028 H 
ATOM     53  H   UNL     1     -46.929  27.099  27.528  1.00  0.00     0.028 H 
ATOM     54  H   UNL     1     -49.293  24.956  24.922  1.00  0.00     0.028 H 
ATOM     55  H   UNL     1     -49.940  26.414  25.724  1.00  0.00     0.028 H 
ATOM     56  H   UNL     1     -48.658  24.772  27.754  1.00  0.00     0.030 H 
ENDBRANCH  42  45
ENDBRANCH  40  42
ENDBRANCH  37  40
ENDBRANCH   6  37
TORSDOF 7
ENDMDL
MODEL 3
REMARK VINA RESULT:     -10.2      1.827      2.990
REMARK SMILES O=C(NCc1cnc2cc(CNCC34CC(C3)C4)[nH]c2c1)c1cc(=O)n2ccccc2n1
REMARK SMILES IDX 5 1 6 2 7 3 8 4 9 5 10 6 19 7 20 8 21 9 4 14 3 17 1 18 2 19
REMARK SMILES IDX 22 21 23 22 32 23 24 24 31 26 25 27 26 28 30 29 27 30 29 31
REMARK SMILES IDX 28 33 11 37 12 40 13 42 14 45 15 46 17 47 18 48 16 49
REMARK H PARENT 6 10 9 11 19 12 21 13 4 15 4 16 3 20 23 25 30 32 27 34 29 35
REMARK H PARENT 28 36 11 38 11 39 12 41 13 43 13 44 15 50 15 51 17 52 17 53
REMARK H PARENT 18 54 18 55 16 56
REMARK Flexibility Score: inf
ROOT
ATOM      1  C   UNL     1     -46.304  36.039  28.355  1.00  0.00    -0.008 A 
ATOM      2  C   UNL     1     -47.688  36.090  28.188  1.00  0.00     0.033 A 
ATOM      3  N   UNL     1     -48.424  35.281  27.395  1.00  0.00    -0.254 NA
ATOM      4  C   UNL     1     -47.709  34.350  26.720  1.00  0.00     0.088 A 
ATOM      5  C   UNL     1     -48.161  33.361  25.818  1.00  0.00    -0.014 A 
ATOM      6  C   UNL     1     -47.059  32.640  25.392  1.00  0.00     0.031 A 
ATOM      7  N   UNL     1     -45.954  33.184  26.010  1.00  0.00    -0.356 N 
ATOM      8  C   UNL     1     -46.328  34.223  26.829  1.00  0.00     0.065 A 
ATOM      9  C   UNL     1     -45.584  35.065  27.655  1.00  0.00    -0.030 A 
ATOM     10  H   UNL     1     -48.280  36.829  28.726  1.00  0.00     0.084 H 
ATOM     11  H   UNL     1     -49.186  33.196  25.517  1.00  0.00     0.067 H 
ATOM     12  H   UNL     1     -45.004  32.862  25.889  1.00  0.00     0.166 HD
ATOM     13  H   UNL     1     -44.508  34.969  27.752  1.00  0.00     0.065 H 
ENDROOT
BRANCH   1  14
ATOM     14  C   UNL     1     -45.607  36.982  29.290  1.00  0.00     0.045 C 
ATOM     15  H   UNL     1     -44.855  36.459  29.893  1.00  0.00     0.054 H 
ATOM     16  H   UNL     1     -46.324  37.423  29.992  1.00  0.00     0.054 H 
BRANCH  14  17
ATOM     17  N   UNL     1     -44.941  38.032  28.565  1.00  0.00    -0.347 N 
ATOM     18  O   UNL     1     -46.756  39.437  28.478  1.00  0.00    -0.268 OA
ATOM     19  C   UNL     1     -45.569  39.216  28.268  1.00  0.00     0.270 C 
ATOM     20  H   UNL     1     -43.933  38.012  28.440  1.00  0.00     0.164 HD
BRANCH  19  21
ATOM     21  C   UNL     1     -44.629  40.229  27.661  1.00  0.00     0.136 A 
ATOM     22  C   UNL     1     -43.526  40.509  28.357  1.00  0.00     0.035 A 
ATOM     23  N   UNL     1     -44.957  40.789  26.448  1.00  0.00    -0.225 NA
ATOM     24  C   UNL     1     -42.584  41.490  27.802  1.00  0.00     0.258 A 
ATOM     25  H   UNL     1     -43.278  40.060  29.310  1.00  0.00     0.071 H 
ATOM     26  C   UNL     1     -44.121  41.654  25.960  1.00  0.00     0.140 A 
ATOM     27  O   UNL     1     -41.567  41.758  28.438  1.00  0.00    -0.269 OA
ATOM     28  N   UNL     1     -42.937  42.039  26.578  1.00  0.00    -0.268 N 
ATOM     29  C   UNL     1     -44.434  42.287  24.646  1.00  0.00    -0.019 A 
ATOM     30  C   UNL     1     -42.094  42.974  25.987  1.00  0.00     0.014 A 
ATOM     31  C   UNL     1     -43.591  43.181  24.118  1.00  0.00    -0.057 A 
ATOM     32  H   UNL     1     -45.354  41.992  24.156  1.00  0.00     0.066 H 
ATOM     33  C   UNL     1     -42.381  43.539  24.808  1.00  0.00    -0.045 A 
ATOM     34  H   UNL     1     -41.184  43.229  26.526  1.00  0.00     0.082 H 
ATOM     35  H   UNL     1     -43.801  43.652  23.162  1.00  0.00     0.062 H 
ATOM     36  H   UNL     1     -41.715  44.267  24.355  1.00  0.00     0.064 H 
ENDBRANCH  19  21
ENDBRANCH  14  17
ENDBRANCH   1  14
BRANCH   6  37
ATOM     37  C   UNL     1     -46.949  31.492  24.449  1.00  0.00     0.036 C 
ATOM     38  H   UNL     1     -47.349  31.802  23.477  1.00  0.00     0.049 H 
ATOM     39  H   UNL     1     -45.903  31.217  24.272  1.00  0.00     0.049 H 
BRANCH  37  40
ATOM     40  N   UNL     1     -47.719  30.342  24.911  1.00  0.00    -0.311 NA
ATOM     41  H   UNL     1     -47.367  30.060  25.825  1.00  0.00     0.123 HD
BRANCH  40  42
ATOM     42  C   UNL     1     -47.673  29.207  23.992  1.00  0.00     0.001 C 
ATOM     43  H   UNL     1     -48.324  29.397  23.132  1.00  0.00     0.043 H 
ATOM     44  H   UNL     1     -46.657  29.057  23.611  1.00  0.00     0.043 H 
BRANCH  42  45
ATOM     45  C   UNL     1     -48.127  27.978  24.693  1.00  0.00    -0.016 C 
ATOM     46  C   UNL     1     -47.325  26.670  25.072  1.00  0.00    -0.043 C 
ATOM     47  C   UNL     1     -48.700  27.873  26.163  1.00  0.00    -0.043 C 
ATOM     48  C   UNL     1     -49.298  26.979  24.328  1.00  0.00    -0.043 C 
ATOM     49  C   UNL     1     -48.746  26.387  25.670  1.00  0.00    -0.040 C 
ATOM     50  H   UNL     1     -46.502  26.784  25.785  1.00  0.00     0.028 H 
ATOM     51  H   UNL     1     -47.000  26.030  24.245  1.00  0.00     0.028 H 
ATOM     52  H   UNL     1     -49.660  28.361  26.357  1.00  0.00     0.028 H 
ATOM     53  H   UNL     1     -48.009  28.103  26.981  1.00  0.00     0.028 H 
ATOM     54  H   UNL     1     -49.167  26.370  23.427  1.00  0.00     0.028 H 
ATOM     55  H   UNL     1     -50.316  27.381  24.345  1.00  0.00     0.028 H 
ATOM     56  H   UNL     1     -49.085  25.515  26.206  1.00  0.00     0.030 H 
ENDBRANCH  42  45
ENDBRANCH  40  42
ENDBRANCH  37  40
ENDBRANCH   6  37
TORSDOF 7
ENDMDL
MODEL 4
REMARK VINA RESULT:     -10.1      3.040      4.287
REMARK SMILES O=C(NCc1cnc2cc(CNCC34CC(C3)C4)[nH]c2c1)c1cc(=O)n2ccccc2n1
REMARK SMILES IDX 5 1 6 2 7 3 8 4 9 5 10 6 19 7 20 8 21 9 4 14 3 17 1 18 2 19
REMARK SMILES IDX 22 21 23 22 32 23 24 24 31 26 25 27 26 28 30 29 27 30 29 31
REMARK SMILES IDX 28 33 11 37 12 40 13 42 14 45 15 46 17 47 18 48 16 49
REMARK H PARENT 6 10 9 11 19 12 21 13 4 15 4 16 3 20 23 25 30 32 27 34 29 35
REMARK H PARENT 28 36 11 38 11 39 12 41 13 43 13 44 15 50 15 51 17 52 17 53
REMARK H PARENT 18 54 18 55 16 56
REMARK Flexibility Score: inf
ROOT
ATOM      1  C   UNL     1     -46.553  36.042  28.155  1.00  0.00    -0.008 A 
ATOM      2  C   UNL     1     -47.931  35.890  28.003  1.00  0.00     0.033 A 
ATOM      3  N   UNL     1     -48.548  35.014  27.178  1.00  0.00    -0.254 NA
ATOM      4  C   UNL     1     -47.711  34.235  26.455  1.00  0.00     0.088 A 
ATOM      5  C   UNL     1     -48.021  33.229  25.511  1.00  0.00    -0.014 A 
ATOM      6  C   UNL     1     -46.828  32.705  25.043  1.00  0.00     0.031 A 
ATOM      7  N   UNL     1     -45.810  33.383  25.677  1.00  0.00    -0.356 N 
ATOM      8  C   UNL     1     -46.325  34.315  26.546  1.00  0.00     0.065 A 
ATOM      9  C   UNL     1     -45.704  35.222  27.405  1.00  0.00    -0.030 A 
ATOM     10  H   UNL     1     -48.621  36.504  28.579  1.00  0.00     0.084 H 
ATOM     11  H   UNL     1     -49.013  32.924  25.211  1.00  0.00     0.067 H 
ATOM     12  H   UNL     1     -44.824  33.215  25.533  1.00  0.00     0.166 HD
ATOM     13  H   UNL     1     -44.625  35.287  27.488  1.00  0.00     0.065 H 
ENDROOT
BRANCH   1  14
ATOM     14  C   UNL     1     -45.994  37.038  29.128  1.00  0.00     0.045 C 
ATOM     15  H   UNL     1     -45.323  36.554  29.849  1.00  0.00     0.054 H 
ATOM     16  H   UNL     1     -46.801  37.500  29.708  1.00  0.00     0.054 H 
BRANCH  14  17
ATOM     17  N   UNL     1     -45.247  38.062  28.448  1.00  0.00    -0.347 N 
ATOM     18  O   UNL     1     -46.967  39.581  28.361  1.00  0.00    -0.268 OA
ATOM     19  C   UNL     1     -45.792  39.291  28.170  1.00  0.00     0.270 C 
ATOM     20  H   UNL     1     -44.239  37.982  28.344  1.00  0.00     0.164 HD
BRANCH  19  21
ATOM     21  C   UNL     1     -44.776  40.259  27.613  1.00  0.00     0.136 A 
ATOM     22  C   UNL     1     -43.683  40.465  28.350  1.00  0.00     0.035 A 
ATOM     23  N   UNL     1     -45.031  40.856  26.400  1.00  0.00    -0.225 NA
ATOM     24  C   UNL     1     -42.669  41.399  27.843  1.00  0.00     0.258 A 
ATOM     25  H   UNL     1     -43.494  39.988  29.303  1.00  0.00     0.071 H 
ATOM     26  C   UNL     1     -44.131  41.679  25.955  1.00  0.00     0.140 A 
ATOM     27  O   UNL     1     -41.660  41.598  28.518  1.00  0.00    -0.269 OA
ATOM     28  N   UNL     1     -42.949  41.986  26.619  1.00  0.00    -0.268 N 
ATOM     29  C   UNL     1     -44.363  42.349  24.643  1.00  0.00    -0.019 A 
ATOM     30  C   UNL     1     -42.035  42.881  26.072  1.00  0.00     0.014 A 
ATOM     31  C   UNL     1     -43.454  43.202  24.158  1.00  0.00    -0.057 A 
ATOM     32  H   UNL     1     -45.281  42.115  24.117  1.00  0.00     0.066 H 
ATOM     33  C   UNL     1     -42.249  43.480  24.895  1.00  0.00    -0.045 A 
ATOM     34  H   UNL     1     -41.130  43.075  26.645  1.00  0.00     0.082 H 
ATOM     35  H   UNL     1     -43.604  43.700  23.205  1.00  0.00     0.062 H 
ATOM     36  H   UNL     1     -41.529  44.176  24.477  1.00  0.00     0.064 H 
ENDBRANCH  19  21
ENDBRANCH  14  17
ENDBRANCH   1  14
BRANCH   6  37
ATOM     37  C   UNL     1     -46.560  31.631  24.047  1.00  0.00     0.036 C 
ATOM     38  H   UNL     1     -45.651  31.890  23.493  1.00  0.00     0.049 H 
ATOM     39  H   UNL     1     -46.354  30.672  24.536  1.00  0.00     0.049 H 
BRANCH  37  40
ATOM     40  N   UNL     1     -47.654  31.502  23.089  1.00  0.00    -0.311 NA
ATOM     41  H   UNL     1     -48.497  31.230  23.592  1.00  0.00     0.123 HD
BRANCH  40  42
ATOM     42  C   UNL     1     -47.381  30.538  22.026  1.00  0.00     0.001 C 
ATOM     43  H   UNL     1     -46.381  30.710  21.614  1.00  0.00     0.043 H 
ATOM     44  H   UNL     1     -47.408  29.514  22.413  1.00  0.00     0.043 H 
BRANCH  42  45
ATOM     45  C   UNL     1     -48.391  30.686  20.946  1.00  0.00    -0.016 C 
ATOM     46  C   UNL     1     -48.263  31.360  19.521  1.00  0.00    -0.043 C 
ATOM     47  C   UNL     1     -49.132  29.528  20.165  1.00  0.00    -0.043 C 
ATOM     48  C   UNL     1     -49.817  31.370  20.980  1.00  0.00    -0.043 C 
ATOM     49  C   UNL     1     -49.734  30.819  19.515  1.00  0.00    -0.040 C 
ATOM     50  H   UNL     1     -47.563  30.900  18.817  1.00  0.00     0.028 H 
ATOM     51  H   UNL     1     -48.136  32.448  19.496  1.00  0.00     0.028 H 
ATOM     52  H   UNL     1     -49.816  28.899  20.744  1.00  0.00     0.028 H 
ATOM     53  H   UNL     1     -48.515  28.890  19.524  1.00  0.00     0.028 H 
ATOM     54  H   UNL     1     -49.843  32.458  21.099  1.00  0.00     0.028 H 
ATOM     55  H   UNL     1     -50.567  30.919  21.638  1.00  0.00     0.028 H 
ATOM     56  H   UNL     1     -50.471  30.892  18.730  1.00  0.00     0.030 H 
ENDBRANCH  42  45
ENDBRANCH  40  42
ENDBRANCH  37  40
ENDBRANCH   6  37
TORSDOF 7
ENDMDL
MODEL 5
REMARK VINA RESULT:     -10.0      1.566      2.210
REMARK SMILES O=C(NCc1cnc2cc(CNCC34CC(C3)C4)[nH]c2c1)c1cc(=O)n2ccccc2n1
REMARK SMILES IDX 5 1 6 2 7 3 8 4 9 5 10 6 19 7 20 8 21 9 4 14 3 17 1 18 2 19
REMARK SMILES IDX 22 21 23 22 32 23 24 24 31 26 25 27 26 28 30 29 27 30 29 31
REMARK SMILES IDX 28 33 11 37 12 40 13 42 14 45 15 46 17 47 18 48 16 49
REMARK H PARENT 6 10 9 11 19 12 21 13 4 15 4 16 3 20 23 25 30 32 27 34 29 35
REMARK H PARENT 28 36 11 38 11 39 12 41 13 43 13 44 15 50 15 51 17 52 17 53
REMARK H PARENT 18 54 18 55 16 56
REMARK Flexibility Score: inf
ROOT
ATOM      1  C   UNL     1     -47.010  35.482  28.088  1.00  0.00    -0.008 A 
ATOM      2  C   UNL     1     -48.331  35.618  27.661  1.00  0.00     0.033 A 
ATOM      3  N   UNL     1     -48.980  34.794  26.808  1.00  0.00    -0.254 NA
ATOM      4  C   UNL     1     -48.240  33.757  26.352  1.00  0.00     0.088 A 
ATOM      5  C   UNL     1     -48.607  32.724  25.460  1.00  0.00    -0.014 A 
ATOM      6  C   UNL     1     -47.513  31.890  25.304  1.00  0.00     0.031 A 
ATOM      7  N   UNL     1     -46.495  32.408  26.075  1.00  0.00    -0.356 N 
ATOM      8  C   UNL     1     -46.918  33.541  26.727  1.00  0.00     0.065 A 
ATOM      9  C   UNL     1     -46.264  34.399  27.612  1.00  0.00    -0.030 A 
ATOM     10  H   UNL     1     -48.944  36.443  28.020  1.00  0.00     0.084 H 
ATOM     11  H   UNL     1     -49.571  32.607  24.986  1.00  0.00     0.067 H 
ATOM     12  H   UNL     1     -45.570  32.009  26.159  1.00  0.00     0.166 HD
ATOM     13  H   UNL     1     -45.236  34.235  27.915  1.00  0.00     0.065 H 
ENDROOT
BRANCH   1  14
ATOM     14  C   UNL     1     -46.414  36.454  29.062  1.00  0.00     0.045 C 
ATOM     15  H   UNL     1     -45.459  36.086  29.455  1.00  0.00     0.054 H 
ATOM     16  H   UNL     1     -47.080  36.588  29.923  1.00  0.00     0.054 H 
BRANCH  14  17
ATOM     17  N   UNL     1     -46.174  37.729  28.440  1.00  0.00    -0.347 N 
ATOM     18  O   UNL     1     -44.378  38.293  29.755  1.00  0.00    -0.268 OA
ATOM     19  C   UNL     1     -45.120  38.527  28.808  1.00  0.00     0.270 C 
ATOM     20  H   UNL     1     -46.646  37.977  27.574  1.00  0.00     0.164 HD
BRANCH  19  21
ATOM     21  C   UNL     1     -44.963  39.727  27.907  1.00  0.00     0.136 A 
ATOM     22  C   UNL     1     -46.064  40.152  27.284  1.00  0.00     0.035 A 
ATOM     23  N   UNL     1     -43.720  40.303  27.786  1.00  0.00    -0.225 NA
ATOM     24  C   UNL     1     -45.955  41.318  26.398  1.00  0.00     0.258 A 
ATOM     25  H   UNL     1     -47.038  39.691  27.389  1.00  0.00     0.071 H 
ATOM     26  C   UNL     1     -43.628  41.335  27.003  1.00  0.00     0.140 A 
ATOM     27  O   UNL     1     -46.964  41.715  25.817  1.00  0.00    -0.269 OA
ATOM     28  N   UNL     1     -44.692  41.881  26.294  1.00  0.00    -0.268 N 
ATOM     29  C   UNL     1     -42.300  41.993  26.842  1.00  0.00    -0.019 A 
ATOM     30  C   UNL     1     -44.510  42.990  25.475  1.00  0.00     0.014 A 
ATOM     31  C   UNL     1     -42.175  43.059  26.042  1.00  0.00    -0.057 A 
ATOM     32  H   UNL     1     -41.465  41.576  27.391  1.00  0.00     0.066 H 
ATOM     33  C   UNL     1     -43.315  43.576  25.334  1.00  0.00    -0.045 A 
ATOM     34  H   UNL     1     -45.386  43.365  24.949  1.00  0.00     0.082 H 
ATOM     35  H   UNL     1     -41.217  43.552  25.912  1.00  0.00     0.062 H 
ATOM     36  H   UNL     1     -43.184  44.442  24.692  1.00  0.00     0.064 H 
ENDBRANCH  19  21
ENDBRANCH  14  17
ENDBRANCH   1  14
BRANCH   6  37
ATOM     37  C   UNL     1     -47.336  30.657  24.489  1.00  0.00     0.036 C 
ATOM     38  H   UNL     1     -47.700  30.855  23.475  1.00  0.00     0.049 H 
ATOM     39  H   UNL     1     -46.276  30.394  24.383  1.00  0.00     0.049 H 
BRANCH  37  40
ATOM     40  N   UNL     1     -48.097  29.538  25.035  1.00  0.00    -0.311 NA
ATOM     41  H   UNL     1     -47.903  29.467  26.032  1.00  0.00     0.123 HD
BRANCH  40  42
ATOM     42  C   UNL     1     -47.804  28.264  24.383  1.00  0.00     0.001 C 
ATOM     43  H   UNL     1     -48.463  28.127  23.518  1.00  0.00     0.043 H 
ATOM     44  H   UNL     1     -46.771  28.243  24.018  1.00  0.00     0.043 H 
BRANCH  42  45
ATOM     45  C   UNL     1     -48.013  27.151  25.344  1.00  0.00    -0.016 C 
ATOM     46  C   UNL     1     -48.291  27.191  26.899  1.00  0.00    -0.043 C 
ATOM     47  C   UNL     1     -49.168  26.070  25.318  1.00  0.00    -0.043 C 
ATOM     48  C   UNL     1     -47.078  25.923  25.690  1.00  0.00    -0.043 C 
ATOM     49  C   UNL     1     -48.340  25.657  26.581  1.00  0.00    -0.040 C 
ATOM     50  H   UNL     1     -49.226  27.660  27.223  1.00  0.00     0.028 H 
ATOM     51  H   UNL     1     -47.474  27.537  27.541  1.00  0.00     0.028 H 
ATOM     52  H   UNL     1     -49.172  25.370  24.476  1.00  0.00     0.028 H 
ATOM     53  H   UNL     1     -50.187  26.432  25.488  1.00  0.00     0.028 H 
ATOM     54  H   UNL     1     -46.141  26.144  26.212  1.00  0.00     0.028 H 
ATOM     55  H   UNL     1     -46.881  25.208  24.885  1.00  0.00     0.028 H 
ATOM     56  H   UNL     1     -48.519  24.838  27.260  1.00  0.00     0.030 H 
ENDBRANCH  42  45
ENDBRANCH  40  42
ENDBRANCH  37  40
ENDBRANCH   6  37
TORSDOF 7
ENDMDL
MODEL 6
REMARK VINA RESULT:      -9.9      1.680      2.099
REMARK SMILES O=C(NCc1cnc2cc(CNCC34CC(C3)C4)[nH]c2c1)c1cc(=O)n2ccccc2n1
REMARK SMILES IDX 5 1 6 2 7 3 8 4 9 5 10 6 19 7 20 8 21 9 4 14 3 17 1 18 2 19
REMARK SMILES IDX 22 21 23 22 32 23 24 24 31 26 25 27 26 28 30 29 27 30 29 31
REMARK SMILES IDX 28 33 11 37 12 40 13 42 14 45 15 46 17 47 18 48 16 49
REMARK H PARENT 6 10 9 11 19 12 21 13 4 15 4 16 3 20 23 25 30 32 27 34 29 35
REMARK H PARENT 28 36 11 38 11 39 12 41 13 43 13 44 15 50 15 51 17 52 17 53
REMARK H PARENT 18 54 18 55 16 56
REMARK Flexibility Score: inf
ROOT
ATOM      1  C   UNL     1     -46.539  33.453  26.781  1.00  0.00    -0.008 A 
ATOM      2  C   UNL     1     -46.198  33.754  25.462  1.00  0.00     0.033 A 
ATOM      3  N   UNL     1     -46.591  33.070  24.364  1.00  0.00    -0.254 NA
ATOM      4  C   UNL     1     -47.386  32.004  24.616  1.00  0.00     0.088 A 
ATOM      5  C   UNL     1     -47.964  31.089  23.708  1.00  0.00    -0.014 A 
ATOM      6  C   UNL     1     -48.705  30.177  24.440  1.00  0.00     0.031 A 
ATOM      7  N   UNL     1     -48.572  30.519  25.768  1.00  0.00    -0.356 N 
ATOM      8  C   UNL     1     -47.779  31.634  25.898  1.00  0.00     0.065 A 
ATOM      9  C   UNL     1     -47.368  32.352  27.021  1.00  0.00    -0.030 A 
ATOM     10  H   UNL     1     -45.564  34.610  25.238  1.00  0.00     0.084 H 
ATOM     11  H   UNL     1     -47.849  31.102  22.634  1.00  0.00     0.067 H 
ATOM     12  H   UNL     1     -49.004  30.029  26.539  1.00  0.00     0.166 HD
ATOM     13  H   UNL     1     -47.674  32.075  28.023  1.00  0.00     0.065 H 
ENDROOT
BRANCH   1  14
ATOM     14  C   UNL     1     -46.057  34.310  27.913  1.00  0.00     0.045 C 
ATOM     15  H   UNL     1     -45.027  34.056  28.193  1.00  0.00     0.054 H 
ATOM     16  H   UNL     1     -46.675  34.149  28.804  1.00  0.00     0.054 H 
BRANCH  14  17
ATOM     17  N   UNL     1     -46.087  35.704  27.556  1.00  0.00    -0.347 N 
ATOM     18  O   UNL     1     -46.222  36.490  29.709  1.00  0.00    -0.268 OA
ATOM     19  C   UNL     1     -46.108  36.694  28.506  1.00  0.00     0.270 C 
ATOM     20  H   UNL     1     -45.881  35.996  26.604  1.00  0.00     0.164 HD
BRANCH  19  21
ATOM     21  C   UNL     1     -45.961  38.071  27.906  1.00  0.00     0.136 A 
ATOM     22  C   UNL     1     -47.024  38.557  27.263  1.00  0.00     0.035 A 
ATOM     23  N   UNL     1     -44.764  38.733  28.059  1.00  0.00    -0.225 NA
ATOM     24  C   UNL     1     -46.923  39.895  26.665  1.00  0.00     0.258 A 
ATOM     25  H   UNL     1     -47.961  38.027  27.150  1.00  0.00     0.071 H 
ATOM     26  C   UNL     1     -44.680  39.915  27.531  1.00  0.00     0.140 A 
ATOM     27  O   UNL     1     -47.896  40.349  26.067  1.00  0.00    -0.269 OA
ATOM     28  N   UNL     1     -45.708  40.541  26.834  1.00  0.00    -0.268 N 
ATOM     29  C   UNL     1     -43.402  40.671  27.673  1.00  0.00    -0.019 A 
ATOM     30  C   UNL     1     -45.536  41.813  26.298  1.00  0.00     0.014 A 
ATOM     31  C   UNL     1     -43.286  41.893  27.139  1.00  0.00    -0.057 A 
ATOM     32  H   UNL     1     -42.596  40.193  28.215  1.00  0.00     0.066 H 
ATOM     33  C   UNL     1     -44.387  42.485  26.428  1.00  0.00    -0.045 A 
ATOM     34  H   UNL     1     -46.382  42.242  25.765  1.00  0.00     0.082 H 
ATOM     35  H   UNL     1     -42.364  42.459  27.232  1.00  0.00     0.062 H 
ATOM     36  H   UNL     1     -44.264  43.478  26.006  1.00  0.00     0.064 H 
ENDBRANCH  19  21
ENDBRANCH  14  17
ENDBRANCH   1  14
BRANCH   6  37
ATOM     37  C   UNL     1     -49.517  29.007  24.004  1.00  0.00     0.036 C 
ATOM     38  H   UNL     1     -50.497  29.369  23.675  1.00  0.00     0.049 H 
ATOM     39  H   UNL     1     -49.070  28.510  23.135  1.00  0.00     0.049 H 
BRANCH  37  40
ATOM     40  N   UNL     1     -49.725  28.061  25.095  1.00  0.00    -0.311 NA
ATOM     41  H   UNL     1     -49.239  28.405  25.922  1.00  0.00     0.123 HD
BRANCH  40  42
ATOM     42  C   UNL     1     -49.271  26.708  24.782  1.00  0.00     0.001 C 
ATOM     43  H   UNL     1     -50.089  25.996  24.934  1.00  0.00     0.043 H 
ATOM     44  H   UNL     1     -48.958  26.635  23.735  1.00  0.00     0.043 H 
BRANCH  42  45
ATOM     45  C   UNL     1     -48.132  26.347  25.666  1.00  0.00    -0.016 C 
ATOM     46  C   UNL     1     -47.693  26.955  27.057  1.00  0.00    -0.043 C 
ATOM     47  C   UNL     1     -47.870  24.952  26.364  1.00  0.00    -0.043 C 
ATOM     48  C   UNL     1     -46.582  26.312  25.357  1.00  0.00    -0.043 C 
ATOM     49  C   UNL     1     -46.648  25.809  26.839  1.00  0.00    -0.040 C 
ATOM     50  H   UNL     1     -48.392  26.838  27.892  1.00  0.00     0.028 H 
ATOM     51  H   UNL     1     -47.310  27.982  27.052  1.00  0.00     0.028 H 
ATOM     52  H   UNL     1     -47.655  24.102  25.708  1.00  0.00     0.028 H 
ATOM     53  H   UNL     1     -48.586  24.641  27.131  1.00  0.00     0.028 H 
ATOM     54  H   UNL     1     -46.089  27.275  25.183  1.00  0.00     0.028 H 
ATOM     55  H   UNL     1     -46.242  25.594  24.604  1.00  0.00     0.028 H 
ATOM     56  H   UNL     1     -45.834  25.513  27.483  1.00  0.00     0.030 H 
ENDBRANCH  42  45
ENDBRANCH  40  42
ENDBRANCH  37  40
ENDBRANCH   6  37
TORSDOF 7
ENDMDL
MODEL 7
REMARK VINA RESULT:      -9.6      2.910     11.903
REMARK SMILES O=C(NCc1cnc2cc(CNCC34CC(C3)C4)[nH]c2c1)c1cc(=O)n2ccccc2n1
REMARK SMILES IDX 5 1 6 2 7 3 8 4 9 5 10 6 19 7 20 8 21 9 4 14 3 17 1 18 2 19
REMARK SMILES IDX 22 21 23 22 32 23 24 24 31 26 25 27 26 28 30 29 27 30 29 31
REMARK SMILES IDX 28 33 11 37 12 40 13 42 14 45 15 46 17 47 18 48 16 49
REMARK H PARENT 6 10 9 11 19 12 21 13 4 15 4 16 3 20 23 25 30 32 27 34 29 35
REMARK H PARENT 28 36 11 38 11 39 12 41 13 43 13 44 15 50 15 51 17 52 17 53
REMARK H PARENT 18 54 18 55 16 56
REMARK Flexibility Score: inf
ROOT
ATOM      1  C   UNL     1     -46.998  33.660  25.645  1.00  0.00    -0.008 A 
ATOM      2  C   UNL     1     -48.320  33.776  26.074  1.00  0.00     0.033 A 
ATOM      3  N   UNL     1     -48.799  34.706  26.930  1.00  0.00    -0.254 NA
ATOM      4  C   UNL     1     -47.875  35.583  27.387  1.00  0.00     0.088 A 
ATOM      5  C   UNL     1     -48.038  36.664  28.282  1.00  0.00    -0.014 A 
ATOM      6  C   UNL     1     -46.806  37.275  28.436  1.00  0.00     0.031 A 
ATOM      7  N   UNL     1     -45.906  36.576  27.662  1.00  0.00    -0.356 N 
ATOM      8  C   UNL     1     -46.537  35.545  27.009  1.00  0.00     0.065 A 
ATOM      9  C   UNL     1     -46.059  34.581  26.121  1.00  0.00    -0.030 A 
ATOM     10  H   UNL     1     -49.079  33.083  25.715  1.00  0.00     0.084 H 
ATOM     11  H   UNL     1     -48.961  36.961  28.758  1.00  0.00     0.067 H 
ATOM     12  H   UNL     1     -44.922  36.793  27.577  1.00  0.00     0.166 HD
ATOM     13  H   UNL     1     -45.019  34.547  25.816  1.00  0.00     0.065 H 
ENDROOT
BRANCH   1  14
ATOM     14  C   UNL     1     -46.599  32.595  24.667  1.00  0.00     0.045 C 
ATOM     15  H   UNL     1     -45.517  32.414  24.697  1.00  0.00     0.054 H 
ATOM     16  H   UNL     1     -46.839  32.906  23.644  1.00  0.00     0.054 H 
BRANCH  14  17
ATOM     17  N   UNL     1     -47.263  31.351  24.957  1.00  0.00    -0.347 N 
ATOM     18  O   UNL     1     -48.504  31.298  23.025  1.00  0.00    -0.268 OA
ATOM     19  C   UNL     1     -48.131  30.770  24.066  1.00  0.00     0.270 C 
ATOM     20  H   UNL     1     -46.950  30.768  25.728  1.00  0.00     0.164 HD
BRANCH  19  21
ATOM     21  C   UNL     1     -48.570  29.394  24.504  1.00  0.00     0.136 A 
ATOM     22  C   UNL     1     -49.875  29.130  24.418  1.00  0.00     0.035 A 
ATOM     23  N   UNL     1     -47.616  28.510  24.953  1.00  0.00    -0.225 NA
ATOM     24  C   UNL     1     -50.343  27.801  24.833  1.00  0.00     0.258 A 
ATOM     25  H   UNL     1     -50.615  29.834  24.061  1.00  0.00     0.071 H 
ATOM     26  C   UNL     1     -48.034  27.336  25.317  1.00  0.00     0.140 A 
ATOM     27  O   UNL     1     -51.545  27.550  24.761  1.00  0.00    -0.269 OA
ATOM     28  N   UNL     1     -49.363  26.928  25.280  1.00  0.00    -0.268 N 
ATOM     29  C   UNL     1     -47.036  26.343  25.809  1.00  0.00    -0.019 A 
ATOM     30  C   UNL     1     -49.729  25.650  25.689  1.00  0.00     0.014 A 
ATOM     31  C   UNL     1     -47.437  25.126  26.191  1.00  0.00    -0.057 A 
ATOM     32  H   UNL     1     -45.998  26.651  25.840  1.00  0.00     0.066 H 
ATOM     33  C   UNL     1     -48.829  24.764  26.130  1.00  0.00    -0.045 A 
ATOM     34  H   UNL     1     -50.786  25.398  25.634  1.00  0.00     0.082 H 
ATOM     35  H   UNL     1     -46.726  24.389  26.551  1.00  0.00     0.062 H 
ATOM     36  H   UNL     1     -49.125  23.769  26.446  1.00  0.00     0.064 H 
ENDBRANCH  19  21
ENDBRANCH  14  17
ENDBRANCH   1  14
BRANCH   6  37
ATOM     37  C   UNL     1     -46.397  38.451  29.253  1.00  0.00     0.036 C 
ATOM     38  H   UNL     1     -47.195  39.201  29.208  1.00  0.00     0.049 H 
ATOM     39  H   UNL     1     -46.290  38.187  30.312  1.00  0.00     0.049 H 
BRANCH  37  40
ATOM     40  N   UNL     1     -45.173  39.060  28.743  1.00  0.00    -0.311 NA
ATOM     41  H   UNL     1     -44.670  39.483  29.523  1.00  0.00     0.123 HD
BRANCH  40  42
ATOM     42  C   UNL     1     -45.412  40.064  27.709  1.00  0.00     0.001 C 
ATOM     43  H   UNL     1     -45.739  39.575  26.784  1.00  0.00     0.043 H 
ATOM     44  H   UNL     1     -46.204  40.756  28.015  1.00  0.00     0.043 H 
BRANCH  42  45
ATOM     45  C   UNL     1     -44.161  40.823  27.450  1.00  0.00    -0.016 C 
ATOM     46  C   UNL     1     -43.046  40.598  26.353  1.00  0.00    -0.043 C 
ATOM     47  C   UNL     1     -44.035  42.348  27.050  1.00  0.00    -0.043 C 
ATOM     48  C   UNL     1     -42.946  41.131  28.414  1.00  0.00    -0.043 C 
ATOM     49  C   UNL     1     -42.541  41.880  27.099  1.00  0.00    -0.040 C 
ATOM     50  H   UNL     1     -43.348  40.719  25.307  1.00  0.00     0.028 H 
ATOM     51  H   UNL     1     -42.431  39.696  26.447  1.00  0.00     0.028 H 
ATOM     52  H   UNL     1     -44.349  43.083  27.798  1.00  0.00     0.028 H 
ATOM     53  H   UNL     1     -44.433  42.637  26.073  1.00  0.00     0.028 H 
ATOM     54  H   UNL     1     -42.322  40.281  28.712  1.00  0.00     0.028 H 
ATOM     55  H   UNL     1     -43.155  41.749  29.293  1.00  0.00     0.028 H 
ATOM     56  H   UNL     1     -41.652  42.460  26.906  1.00  0.00     0.030 H 
ENDBRANCH  42  45
ENDBRANCH  40  42
ENDBRANCH  37  40
ENDBRANCH   6  37
TORSDOF 7
ENDMDL
