MODEL 1
REMARK VINA RESULT:     -11.0      0.000      0.000
REMARK SMILES OC1(CNCc2cc3ccc(Cn4cc(-c5cccc6[nH]ncc56)nn4)cc3[nH]2)CCC1
REMARK SMILES IDX 5 1 4 4 3 6 2 9 30 10 32 11 31 12 1 19 6 21 7 22 29 23 8 24
REMARK SMILES IDX 28 26 9 28 27 29 10 30 11 32 12 35 13 38 14 39 26 40 15 41
REMARK SMILES IDX 25 43 16 44 17 45 24 46 18 47 20 49 23 50 19 51 21 53 22 54
REMARK H PARENT 5 2 5 3 4 5 3 7 3 8 30 13 30 14 32 15 32 16 31 17 31 18 1 20
REMARK H PARENT 7 25 29 27 9 31 27 33 10 34 12 36 12 37 14 42 17 48 18 52
REMARK H PARENT 23 55 19 56 21 57
REMARK Flexibility Score: inf
ROOT
ATOM      1  C   UNL     1     -49.513  30.720  24.532  1.00  0.00     0.036 C 
ATOM      2  H   UNL     1     -49.867  30.959  23.523  1.00  0.00     0.049 H 
ATOM      3  H   UNL     1     -50.391  30.521  25.154  1.00  0.00     0.049 H 
ENDROOT
BRANCH   1   4
ATOM      4  N   UNL     1     -48.611  29.578  24.492  1.00  0.00    -0.308 NA
ATOM      5  H   UNL     1     -47.875  29.715  25.186  1.00  0.00     0.123 HD
BRANCH   4   6
ATOM      6  C   UNL     1     -49.289  28.309  24.792  1.00  0.00     0.024 C 
ATOM      7  H   UNL     1     -50.361  28.459  24.970  1.00  0.00     0.046 H 
ATOM      8  H   UNL     1     -49.216  27.697  23.884  1.00  0.00     0.046 H 
BRANCH   6   9
ATOM      9  C   UNL     1     -48.617  27.539  25.945  1.00  0.00     0.077 C 
ATOM     10  C   UNL     1     -47.455  26.615  25.479  1.00  0.00    -0.023 C 
ATOM     11  C   UNL     1     -49.337  26.239  26.414  1.00  0.00    -0.023 C 
ATOM     12  C   UNL     1     -47.954  25.567  26.489  1.00  0.00    -0.048 C 
ATOM     13  H   UNL     1     -46.444  26.989  25.665  1.00  0.00     0.030 H 
ATOM     14  H   UNL     1     -47.522  26.288  24.434  1.00  0.00     0.030 H 
ATOM     15  H   UNL     1     -49.866  26.302  27.370  1.00  0.00     0.030 H 
ATOM     16  H   UNL     1     -50.006  25.791  25.670  1.00  0.00     0.030 H 
ATOM     17  H   UNL     1     -47.480  25.645  27.474  1.00  0.00     0.027 H 
ATOM     18  H   UNL     1     -47.912  24.528  26.155  1.00  0.00     0.027 H 
BRANCH   9  19
ATOM     19  O   UNL     1     -48.275  28.458  27.018  1.00  0.00    -0.389 OA
ATOM     20  H   UNL     1     -49.037  29.063  27.074  1.00  0.00     0.211 HD
ENDBRANCH   9  19
ENDBRANCH   6   9
ENDBRANCH   4   6
ENDBRANCH   1   4
BRANCH   1  21
ATOM     21  C   UNL     1     -48.782  31.892  25.089  1.00  0.00     0.030 A 
ATOM     22  C   UNL     1     -47.456  32.263  24.992  1.00  0.00    -0.032 A 
ATOM     23  N   UNL     1     -49.416  32.848  25.847  1.00  0.00    -0.357 N 
ATOM     24  C   UNL     1     -47.285  33.482  25.703  1.00  0.00    -0.000 A 
ATOM     25  H   UNL     1     -46.689  31.712  24.465  1.00  0.00     0.065 H 
ATOM     26  C   UNL     1     -48.527  33.826  26.232  1.00  0.00     0.046 A 
ATOM     27  H   UNL     1     -50.395  32.832  26.097  1.00  0.00     0.166 HD
ATOM     28  C   UNL     1     -46.186  34.324  25.949  1.00  0.00    -0.052 A 
ATOM     29  C   UNL     1     -48.729  34.979  27.003  1.00  0.00    -0.033 A 
ATOM     30  C   UNL     1     -46.367  35.483  26.716  1.00  0.00    -0.056 A 
ATOM     31  H   UNL     1     -45.206  34.080  25.551  1.00  0.00     0.063 H 
ATOM     32  C   UNL     1     -47.622  35.814  27.247  1.00  0.00    -0.024 A 
ATOM     33  H   UNL     1     -49.712  35.214  27.398  1.00  0.00     0.065 H 
ATOM     34  H   UNL     1     -45.506  36.124  26.901  1.00  0.00     0.063 H 
BRANCH  32  35
ATOM     35  C   UNL     1     -47.789  37.064  28.076  1.00  0.00     0.068 C 
ATOM     36  H   UNL     1     -47.742  36.848  29.150  1.00  0.00     0.057 H 
ATOM     37  H   UNL     1     -48.765  37.519  27.871  1.00  0.00     0.057 H 
BRANCH  35  38
ATOM     38  N   UNL     1     -46.752  38.043  27.803  1.00  0.00    -0.247 N 
ATOM     39  C   UNL     1     -45.728  38.440  28.615  1.00  0.00     0.054 A 
ATOM     40  N   UNL     1     -46.763  38.741  26.654  1.00  0.00    -0.066 NA
ATOM     41  C   UNL     1     -45.079  39.411  27.883  1.00  0.00     0.113 A 
ATOM     42  H   UNL     1     -45.561  38.010  29.590  1.00  0.00     0.086 H 
ATOM     43  N   UNL     1     -45.734  39.578  26.689  1.00  0.00    -0.130 NA
BRANCH  41  44
ATOM     44  C   UNL     1     -43.901  40.151  28.285  1.00  0.00     0.015 A 
ATOM     45  C   UNL     1     -43.193  39.852  29.466  1.00  0.00    -0.052 A 
ATOM     46  C   UNL     1     -43.431  41.212  27.479  1.00  0.00     0.029 A 
ATOM     47  C   UNL     1     -42.061  40.579  29.837  1.00  0.00    -0.059 A 
ATOM     48  H   UNL     1     -43.513  39.032  30.104  1.00  0.00     0.063 H 
ATOM     49  C   UNL     1     -42.299  41.919  27.881  1.00  0.00     0.066 A 
ATOM     50  C   UNL     1     -43.809  41.842  26.265  1.00  0.00     0.057 A 
ATOM     51  C   UNL     1     -41.590  41.632  29.051  1.00  0.00    -0.036 A 
ATOM     52  H   UNL     1     -41.534  40.318  30.753  1.00  0.00     0.062 H 
ATOM     53  N   UNL     1     -42.096  42.870  26.914  1.00  0.00    -0.278 N 
ATOM     54  N   UNL     1     -43.003  42.852  25.925  1.00  0.00    -0.183 NA
ATOM     55  H   UNL     1     -44.644  41.601  25.619  1.00  0.00     0.087 H 
ATOM     56  H   UNL     1     -40.708  42.196  29.339  1.00  0.00     0.065 H 
ATOM     57  H   UNL     1     -41.358  43.563  26.874  1.00  0.00     0.190 HD
ENDBRANCH  41  44
ENDBRANCH  35  38
ENDBRANCH  32  35
ENDBRANCH   1  21
TORSDOF 8
ENDMDL
MODEL 2
REMARK VINA RESULT:     -10.6      2.323      3.042
REMARK SMILES OC1(CNCc2cc3ccc(Cn4cc(-c5cccc6[nH]ncc56)nn4)cc3[nH]2)CCC1
REMARK SMILES IDX 5 1 4 4 3 6 2 9 30 10 32 11 31 12 1 19 6 21 7 22 29 23 8 24
REMARK SMILES IDX 28 26 9 28 27 29 10 30 11 32 12 35 13 38 14 39 26 40 15 41
REMARK SMILES IDX 25 43 16 44 17 45 24 46 18 47 20 49 23 50 19 51 21 53 22 54
REMARK H PARENT 5 2 5 3 4 5 3 7 3 8 30 13 30 14 32 15 32 16 31 17 31 18 1 20
REMARK H PARENT 7 25 29 27 9 31 27 33 10 34 12 36 12 37 14 42 17 48 18 52
REMARK H PARENT 23 55 19 56 21 57
REMARK Flexibility Score: inf
ROOT
ATOM      1  C   UNL     1     -46.183  31.246  23.784  1.00  0.00     0.036 C 
ATOM      2  H   UNL     1     -45.091  31.171  23.802  1.00  0.00     0.049 H 
ATOM      3  H   UNL     1     -46.478  31.546  22.773  1.00  0.00     0.049 H 
ENDROOT
BRANCH   1   4
ATOM      4  N   UNL     1     -46.783  29.975  24.165  1.00  0.00    -0.308 NA
ATOM      5  H   UNL     1     -47.718  30.151  24.536  1.00  0.00     0.123 HD
BRANCH   4   6
ATOM      6  C   UNL     1     -46.909  29.046  23.034  1.00  0.00     0.024 C 
ATOM      7  H   UNL     1     -46.030  29.089  22.379  1.00  0.00     0.046 H 
ATOM      8  H   UNL     1     -46.919  28.037  23.462  1.00  0.00     0.046 H 
BRANCH   6   9
ATOM      9  C   UNL     1     -48.220  29.246  22.249  1.00  0.00     0.077 C 
ATOM     10  C   UNL     1     -49.356  29.895  23.092  1.00  0.00    -0.023 C 
ATOM     11  C   UNL     1     -49.148  27.999  22.131  1.00  0.00    -0.023 C 
ATOM     12  C   UNL     1     -50.341  28.931  22.408  1.00  0.00    -0.048 C 
ATOM     13  H   UNL     1     -49.543  30.956  22.904  1.00  0.00     0.030 H 
ATOM     14  H   UNL     1     -49.266  29.740  24.174  1.00  0.00     0.030 H 
ATOM     15  H   UNL     1     -49.169  27.509  21.153  1.00  0.00     0.030 H 
ATOM     16  H   UNL     1     -48.992  27.239  22.904  1.00  0.00     0.030 H 
ATOM     17  H   UNL     1     -50.799  29.342  21.501  1.00  0.00     0.027 H 
ATOM     18  H   UNL     1     -51.126  28.521  23.048  1.00  0.00     0.027 H 
BRANCH   9  19
ATOM     19  O   UNL     1     -47.941  29.910  20.985  1.00  0.00    -0.389 OA
ATOM     20  H   UNL     1     -47.152  30.452  21.163  1.00  0.00     0.211 HD
ENDBRANCH   9  19
ENDBRANCH   6   9
ENDBRANCH   4   6
ENDBRANCH   1   4
BRANCH   1  21
ATOM     21  C   UNL     1     -46.621  32.294  24.746  1.00  0.00     0.030 A 
ATOM     22  C   UNL     1     -47.865  32.842  24.987  1.00  0.00    -0.032 A 
ATOM     23  N   UNL     1     -45.737  32.906  25.604  1.00  0.00    -0.357 N 
ATOM     24  C   UNL     1     -47.732  33.804  26.025  1.00  0.00    -0.000 A 
ATOM     25  H   UNL     1     -48.777  32.577  24.467  1.00  0.00     0.065 H 
ATOM     26  C   UNL     1     -46.388  33.827  26.393  1.00  0.00     0.046 A 
ATOM     27  H   UNL     1     -44.745  32.715  25.644  1.00  0.00     0.166 HD
ATOM     28  C   UNL     1     -48.631  34.660  26.686  1.00  0.00    -0.052 A 
ATOM     29  C   UNL     1     -45.891  34.672  27.394  1.00  0.00    -0.033 A 
ATOM     30  C   UNL     1     -48.155  35.511  27.691  1.00  0.00    -0.056 A 
ATOM     31  H   UNL     1     -49.683  34.665  26.418  1.00  0.00     0.063 H 
ATOM     32  C   UNL     1     -46.798  35.528  28.047  1.00  0.00    -0.024 A 
ATOM     33  H   UNL     1     -44.837  34.662  27.653  1.00  0.00     0.065 H 
ATOM     34  H   UNL     1     -48.862  36.172  28.193  1.00  0.00     0.063 H 
BRANCH  32  35
ATOM     35  C   UNL     1     -46.309  36.460  29.129  1.00  0.00     0.068 C 
ATOM     36  H   UNL     1     -45.366  36.114  29.567  1.00  0.00     0.057 H 
ATOM     37  H   UNL     1     -47.051  36.515  29.936  1.00  0.00     0.057 H 
BRANCH  35  38
ATOM     38  N   UNL     1     -46.067  37.801  28.627  1.00  0.00    -0.247 N 
ATOM     39  C   UNL     1     -44.900  38.331  28.157  1.00  0.00     0.054 A 
ATOM     40  N   UNL     1     -47.046  38.723  28.653  1.00  0.00    -0.066 NA
ATOM     41  C   UNL     1     -45.222  39.638  27.858  1.00  0.00     0.113 A 
ATOM     42  H   UNL     1     -43.992  37.754  28.076  1.00  0.00     0.086 H 
ATOM     43  N   UNL     1     -46.540  39.851  28.174  1.00  0.00    -0.130 NA
BRANCH  41  44
ATOM     44  C   UNL     1     -44.335  40.640  27.307  1.00  0.00     0.015 A 
ATOM     45  C   UNL     1     -44.568  41.243  26.055  1.00  0.00    -0.052 A 
ATOM     46  C   UNL     1     -43.192  41.040  28.035  1.00  0.00     0.029 A 
ATOM     47  C   UNL     1     -43.699  42.206  25.540  1.00  0.00    -0.059 A 
ATOM     48  H   UNL     1     -45.447  40.975  25.472  1.00  0.00     0.063 H 
ATOM     49  C   UNL     1     -42.344  42.003  27.490  1.00  0.00     0.066 A 
ATOM     50  C   UNL     1     -42.583  40.717  29.274  1.00  0.00     0.057 A 
ATOM     51  C   UNL     1     -42.565  42.606  26.248  1.00  0.00    -0.036 A 
ATOM     52  H   UNL     1     -43.912  42.656  24.572  1.00  0.00     0.062 H 
ATOM     53  N   UNL     1     -41.343  42.175  28.410  1.00  0.00    -0.278 N 
ATOM     54  N   UNL     1     -41.458  41.401  29.500  1.00  0.00    -0.183 NA
ATOM     55  H   UNL     1     -42.920  40.006  30.019  1.00  0.00     0.087 H 
ATOM     56  H   UNL     1     -41.890  43.356  25.848  1.00  0.00     0.065 H 
ATOM     57  H   UNL     1     -40.550  42.803  28.351  1.00  0.00     0.190 HD
ENDBRANCH  41  44
ENDBRANCH  35  38
ENDBRANCH  32  35
ENDBRANCH   1  21
TORSDOF 8
ENDMDL
MODEL 3
REMARK VINA RESULT:      -9.6      1.355      2.055
REMARK SMILES OC1(CNCc2cc3ccc(Cn4cc(-c5cccc6[nH]ncc56)nn4)cc3[nH]2)CCC1
REMARK SMILES IDX 5 1 4 4 3 6 2 9 30 10 32 11 31 12 1 19 6 21 7 22 29 23 8 24
REMARK SMILES IDX 28 26 9 28 27 29 10 30 11 32 12 35 13 38 14 39 26 40 15 41
REMARK SMILES IDX 25 43 16 44 17 45 24 46 18 47 20 49 23 50 19 51 21 53 22 54
REMARK H PARENT 5 2 5 3 4 5 3 7 3 8 30 13 30 14 32 15 32 16 31 17 31 18 1 20
REMARK H PARENT 7 25 29 27 9 31 27 33 10 34 12 36 12 37 14 42 17 48 18 52
REMARK H PARENT 23 55 19 56 21 57
REMARK Flexibility Score: inf
ROOT
ATOM      1  C   UNL     1     -48.935  30.137  25.388  1.00  0.00     0.036 C 
ATOM      2  H   UNL     1     -50.029  30.183  25.376  1.00  0.00     0.049 H 
ATOM      3  H   UNL     1     -48.639  29.478  26.210  1.00  0.00     0.049 H 
ENDROOT
BRANCH   1   4
ATOM      4  N   UNL     1     -48.435  29.657  24.107  1.00  0.00    -0.308 NA
ATOM      5  H   UNL     1     -48.096  30.455  23.567  1.00  0.00     0.123 HD
BRANCH   4   6
ATOM      6  C   UNL     1     -47.330  28.700  24.252  1.00  0.00     0.024 C 
ATOM      7  H   UNL     1     -46.717  28.654  23.344  1.00  0.00     0.046 H 
ATOM      8  H   UNL     1     -46.678  29.098  25.039  1.00  0.00     0.046 H 
BRANCH   6   9
ATOM      9  C   UNL     1     -47.813  27.304  24.691  1.00  0.00     0.077 C 
ATOM     10  C   UNL     1     -49.257  26.969  24.216  1.00  0.00    -0.023 C 
ATOM     11  C   UNL     1     -48.366  27.192  26.144  1.00  0.00    -0.023 C 
ATOM     12  C   UNL     1     -49.497  26.310  25.586  1.00  0.00    -0.048 C 
ATOM     13  H   UNL     1     -49.332  26.292  23.360  1.00  0.00     0.030 H 
ATOM     14  H   UNL     1     -49.891  27.844  24.030  1.00  0.00     0.030 H 
ATOM     15  H   UNL     1     -47.713  26.695  26.868  1.00  0.00     0.030 H 
ATOM     16  H   UNL     1     -48.715  28.138  26.574  1.00  0.00     0.030 H 
ATOM     17  H   UNL     1     -49.268  25.239  25.605  1.00  0.00     0.027 H 
ATOM     18  H   UNL     1     -50.484  26.471  26.024  1.00  0.00     0.027 H 
BRANCH   9  19
ATOM     19  O   UNL     1     -46.810  26.307  24.351  1.00  0.00    -0.389 OA
ATOM     20  H   UNL     1     -47.231  25.762  23.661  1.00  0.00     0.211 HD
ENDBRANCH   9  19
ENDBRANCH   6   9
ENDBRANCH   4   6
ENDBRANCH   1   4
BRANCH   1  21
ATOM     21  C   UNL     1     -48.388  31.500  25.639  1.00  0.00     0.030 A 
ATOM     22  C   UNL     1     -47.154  32.048  25.353  1.00  0.00    -0.032 A 
ATOM     23  N   UNL     1     -49.134  32.479  26.252  1.00  0.00    -0.357 N 
ATOM     24  C   UNL     1     -47.157  33.399  25.797  1.00  0.00    -0.000 A 
ATOM     25  H   UNL     1     -46.333  31.529  24.876  1.00  0.00     0.065 H 
ATOM     26  C   UNL     1     -48.408  33.643  26.358  1.00  0.00     0.046 A 
ATOM     27  H   UNL     1     -50.080  32.359  26.587  1.00  0.00     0.166 HD
ATOM     28  C   UNL     1     -46.208  34.437  25.775  1.00  0.00    -0.052 A 
ATOM     29  C   UNL     1     -48.763  34.883  26.907  1.00  0.00    -0.033 A 
ATOM     30  C   UNL     1     -46.544  35.685  26.316  1.00  0.00    -0.056 A 
ATOM     31  H   UNL     1     -45.225  34.274  25.346  1.00  0.00     0.063 H 
ATOM     32  C   UNL     1     -47.806  35.915  26.884  1.00  0.00    -0.024 A 
ATOM     33  H   UNL     1     -49.748  35.036  27.336  1.00  0.00     0.065 H 
ATOM     34  H   UNL     1     -45.798  36.479  26.295  1.00  0.00     0.063 H 
BRANCH  32  35
ATOM     35  C   UNL     1     -48.140  37.267  27.467  1.00  0.00     0.068 C 
ATOM     36  H   UNL     1     -48.701  37.176  28.404  1.00  0.00     0.057 H 
ATOM     37  H   UNL     1     -48.759  37.833  26.762  1.00  0.00     0.057 H 
BRANCH  35  38
ATOM     38  N   UNL     1     -46.949  38.041  27.769  1.00  0.00    -0.247 N 
ATOM     39  C   UNL     1     -46.407  39.072  27.056  1.00  0.00     0.054 A 
ATOM     40  N   UNL     1     -46.186  37.727  28.831  1.00  0.00    -0.066 NA
ATOM     41  C   UNL     1     -45.272  39.406  27.763  1.00  0.00     0.113 A 
ATOM     42  H   UNL     1     -46.863  39.460  26.159  1.00  0.00     0.086 H 
ATOM     43  N   UNL     1     -45.158  38.566  28.841  1.00  0.00    -0.130 NA
BRANCH  41  44
ATOM     44  C   UNL     1     -44.334  40.461  27.440  1.00  0.00     0.015 A 
ATOM     45  C   UNL     1     -44.426  41.209  26.249  1.00  0.00    -0.052 A 
ATOM     46  C   UNL     1     -43.284  40.764  28.336  1.00  0.00     0.029 A 
ATOM     47  C   UNL     1     -43.510  42.220  25.955  1.00  0.00    -0.059 A 
ATOM     48  H   UNL     1     -45.229  41.018  25.542  1.00  0.00     0.063 H 
ATOM     49  C   UNL     1     -42.386  41.779  28.010  1.00  0.00     0.066 A 
ATOM     50  C   UNL     1     -42.820  40.293  29.591  1.00  0.00     0.057 A 
ATOM     51  C   UNL     1     -42.467  42.526  26.831  1.00  0.00    -0.036 A 
ATOM     52  H   UNL     1     -43.613  42.783  25.030  1.00  0.00     0.062 H 
ATOM     53  N   UNL     1     -41.498  41.833  29.053  1.00  0.00    -0.278 N 
ATOM     54  N   UNL     1     -41.733  40.937  30.024  1.00  0.00    -0.183 NA
ATOM     55  H   UNL     1     -43.235  39.501  30.202  1.00  0.00     0.087 H 
ATOM     56  H   UNL     1     -41.755  43.314  26.603  1.00  0.00     0.065 H 
ATOM     57  H   UNL     1     -40.708  42.459  29.160  1.00  0.00     0.190 HD
ENDBRANCH  41  44
ENDBRANCH  35  38
ENDBRANCH  32  35
ENDBRANCH   1  21
TORSDOF 8
ENDMDL
MODEL 4
REMARK VINA RESULT:      -9.5      3.506     11.393
REMARK SMILES OC1(CNCc2cc3ccc(Cn4cc(-c5cccc6[nH]ncc56)nn4)cc3[nH]2)CCC1
REMARK SMILES IDX 5 1 4 4 3 6 2 9 30 10 32 11 31 12 1 19 6 21 7 22 29 23 8 24
REMARK SMILES IDX 28 26 9 28 27 29 10 30 11 32 12 35 13 38 14 39 26 40 15 41
REMARK SMILES IDX 25 43 16 44 17 45 24 46 18 47 20 49 23 50 19 51 21 53 22 54
REMARK H PARENT 5 2 5 3 4 5 3 7 3 8 30 13 30 14 32 15 32 16 31 17 31 18 1 20
REMARK H PARENT 7 25 29 27 9 31 27 33 10 34 12 36 12 37 14 42 17 48 18 52
REMARK H PARENT 23 55 19 56 21 57
REMARK Flexibility Score: inf
ROOT
ATOM      1  C   UNL     1     -42.663  40.408  29.488  1.00  0.00     0.036 C 
ATOM      2  H   UNL     1     -41.714  40.024  29.098  1.00  0.00     0.049 H 
ATOM      3  H   UNL     1     -42.513  40.651  30.545  1.00  0.00     0.049 H 
ENDROOT
BRANCH   1   4
ATOM      4  N   UNL     1     -43.088  41.571  28.723  1.00  0.00    -0.308 NA
ATOM      5  H   UNL     1     -43.186  42.365  29.358  1.00  0.00     0.123 HD
BRANCH   4   6
ATOM      6  C   UNL     1     -42.128  41.943  27.675  1.00  0.00     0.024 C 
ATOM      7  H   UNL     1     -41.177  42.281  28.103  1.00  0.00     0.046 H 
ATOM      8  H   UNL     1     -41.901  41.022  27.123  1.00  0.00     0.046 H 
BRANCH   6   9
ATOM      9  C   UNL     1     -42.707  42.967  26.680  1.00  0.00     0.077 C 
ATOM     10  C   UNL     1     -43.693  42.343  25.649  1.00  0.00    -0.023 C 
ATOM     11  C   UNL     1     -41.807  43.326  25.460  1.00  0.00    -0.023 C 
ATOM     12  C   UNL     1     -43.067  43.254  24.580  1.00  0.00    -0.048 C 
ATOM     13  H   UNL     1     -44.756  42.517  25.840  1.00  0.00     0.030 H 
ATOM     14  H   UNL     1     -43.540  41.273  25.462  1.00  0.00     0.030 H 
ATOM     15  H   UNL     1     -41.327  44.308  25.491  1.00  0.00     0.030 H 
ATOM     16  H   UNL     1     -41.051  42.571  25.211  1.00  0.00     0.030 H 
ATOM     17  H   UNL     1     -43.580  44.216  24.467  1.00  0.00     0.027 H 
ATOM     18  H   UNL     1     -42.933  42.806  23.593  1.00  0.00     0.027 H 
BRANCH   9  19
ATOM     19  O   UNL     1     -43.226  44.117  27.403  1.00  0.00    -0.389 OA
ATOM     20  H   UNL     1     -44.183  44.110  27.221  1.00  0.00     0.211 HD
ENDBRANCH   9  19
ENDBRANCH   6   9
ENDBRANCH   4   6
ENDBRANCH   1   4
BRANCH   1  21
ATOM     21  C   UNL     1     -43.705  39.350  29.378  1.00  0.00     0.030 A 
ATOM     22  C   UNL     1     -44.171  38.437  30.302  1.00  0.00    -0.032 A 
ATOM     23  N   UNL     1     -44.403  39.138  28.212  1.00  0.00    -0.357 N 
ATOM     24  C   UNL     1     -45.185  37.657  29.682  1.00  0.00    -0.000 A 
ATOM     25  H   UNL     1     -43.816  38.339  31.320  1.00  0.00     0.065 H 
ATOM     26  C   UNL     1     -45.310  38.115  28.372  1.00  0.00     0.046 A 
ATOM     27  H   UNL     1     -44.264  39.654  27.354  1.00  0.00     0.166 HD
ATOM     28  C   UNL     1     -46.008  36.602  30.113  1.00  0.00    -0.052 A 
ATOM     29  C   UNL     1     -46.222  37.565  27.460  1.00  0.00    -0.033 A 
ATOM     30  C   UNL     1     -46.928  36.039  29.218  1.00  0.00    -0.056 A 
ATOM     31  H   UNL     1     -45.931  36.224  31.127  1.00  0.00     0.063 H 
ATOM     32  C   UNL     1     -47.038  36.506  27.900  1.00  0.00    -0.024 A 
ATOM     33  H   UNL     1     -46.290  37.948  26.447  1.00  0.00     0.065 H 
ATOM     34  H   UNL     1     -47.557  35.220  29.565  1.00  0.00     0.063 H 
BRANCH  32  35
ATOM     35  C   UNL     1     -48.033  35.878  26.954  1.00  0.00     0.068 C 
ATOM     36  H   UNL     1     -48.183  36.491  26.058  1.00  0.00     0.057 H 
ATOM     37  H   UNL     1     -49.004  35.772  27.452  1.00  0.00     0.057 H 
BRANCH  35  38
ATOM     38  N   UNL     1     -47.599  34.570  26.496  1.00  0.00    -0.247 N 
ATOM     39  C   UNL     1     -48.343  33.593  25.898  1.00  0.00     0.054 A 
ATOM     40  N   UNL     1     -46.335  34.162  26.705  1.00  0.00    -0.066 NA
ATOM     41  C   UNL     1     -47.451  32.558  25.716  1.00  0.00     0.113 A 
ATOM     42  H   UNL     1     -49.388  33.722  25.661  1.00  0.00     0.086 H 
ATOM     43  N   UNL     1     -46.232  32.931  26.223  1.00  0.00    -0.130 NA
BRANCH  41  44
ATOM     44  C   UNL     1     -47.730  31.277  25.102  1.00  0.00     0.015 A 
ATOM     45  C   UNL     1     -48.615  30.344  25.678  1.00  0.00    -0.052 A 
ATOM     46  C   UNL     1     -47.103  30.933  23.882  1.00  0.00     0.029 A 
ATOM     47  C   UNL     1     -48.870  29.114  25.070  1.00  0.00    -0.059 A 
ATOM     48  H   UNL     1     -49.131  30.578  26.606  1.00  0.00     0.063 H 
ATOM     49  C   UNL     1     -47.377  29.695  23.304  1.00  0.00     0.066 A 
ATOM     50  C   UNL     1     -46.179  31.527  22.986  1.00  0.00     0.057 A 
ATOM     51  C   UNL     1     -48.253  28.762  23.868  1.00  0.00    -0.036 A 
ATOM     52  H   UNL     1     -49.564  28.418  25.538  1.00  0.00     0.062 H 
ATOM     53  N   UNL     1     -46.632  29.653  22.155  1.00  0.00    -0.278 N 
ATOM     54  N   UNL     1     -45.888  30.748  21.940  1.00  0.00    -0.183 NA
ATOM     55  H   UNL     1     -45.707  32.499  23.059  1.00  0.00     0.087 H 
ATOM     56  H   UNL     1     -48.452  27.805  23.394  1.00  0.00     0.065 H 
ATOM     57  H   UNL     1     -46.585  28.901  21.476  1.00  0.00     0.190 HD
ENDBRANCH  41  44
ENDBRANCH  35  38
ENDBRANCH  32  35
ENDBRANCH   1  21
TORSDOF 8
ENDMDL
MODEL 5
REMARK VINA RESULT:      -9.4      1.791      2.342
REMARK SMILES OC1(CNCc2cc3ccc(Cn4cc(-c5cccc6[nH]ncc56)nn4)cc3[nH]2)CCC1
REMARK SMILES IDX 5 1 4 4 3 6 2 9 30 10 32 11 31 12 1 19 6 21 7 22 29 23 8 24
REMARK SMILES IDX 28 26 9 28 27 29 10 30 11 32 12 35 13 38 14 39 26 40 15 41
REMARK SMILES IDX 25 43 16 44 17 45 24 46 18 47 20 49 23 50 19 51 21 53 22 54
REMARK H PARENT 5 2 5 3 4 5 3 7 3 8 30 13 30 14 32 15 32 16 31 17 31 18 1 20
REMARK H PARENT 7 25 29 27 9 31 27 33 10 34 12 36 12 37 14 42 17 48 18 52
REMARK H PARENT 23 55 19 56 21 57
REMARK Flexibility Score: inf
ROOT
ATOM      1  C   UNL     1     -47.935  29.699  23.330  1.00  0.00     0.036 C 
ATOM      2  H   UNL     1     -46.991  29.188  23.112  1.00  0.00     0.049 H 
ATOM      3  H   UNL     1     -48.410  29.940  22.373  1.00  0.00     0.049 H 
ENDROOT
BRANCH   1   4
ATOM      4  N   UNL     1     -48.787  28.856  24.156  1.00  0.00    -0.308 NA
ATOM      5  H   UNL     1     -49.617  28.601  23.619  1.00  0.00     0.123 HD
BRANCH   4   6
ATOM      6  C   UNL     1     -48.119  27.618  24.579  1.00  0.00     0.024 C 
ATOM      7  H   UNL     1     -48.092  26.879  23.769  1.00  0.00     0.046 H 
ATOM      8  H   UNL     1     -47.075  27.883  24.783  1.00  0.00     0.046 H 
BRANCH   6   9
ATOM      9  C   UNL     1     -48.725  27.033  25.870  1.00  0.00     0.077 C 
ATOM     10  C   UNL     1     -48.503  25.499  26.020  1.00  0.00    -0.023 C 
ATOM     11  C   UNL     1     -50.250  26.713  25.832  1.00  0.00    -0.023 C 
ATOM     12  C   UNL     1     -49.936  25.400  26.570  1.00  0.00    -0.048 C 
ATOM     13  H   UNL     1     -47.718  25.197  26.720  1.00  0.00     0.030 H 
ATOM     14  H   UNL     1     -48.355  24.965  25.074  1.00  0.00     0.030 H 
ATOM     15  H   UNL     1     -50.897  27.403  26.381  1.00  0.00     0.030 H 
ATOM     16  H   UNL     1     -50.661  26.567  24.826  1.00  0.00     0.030 H 
ATOM     17  H   UNL     1     -49.995  25.485  27.662  1.00  0.00     0.027 H 
ATOM     18  H   UNL     1     -50.508  24.527  26.251  1.00  0.00     0.027 H 
BRANCH   9  19
ATOM     19  O   UNL     1     -48.305  27.826  27.015  1.00  0.00    -0.389 OA
ATOM     20  H   UNL     1     -49.134  28.044  27.478  1.00  0.00     0.211 HD
ENDBRANCH   9  19
ENDBRANCH   6   9
ENDBRANCH   4   6
ENDBRANCH   1   4
BRANCH   1  21
ATOM     21  C   UNL     1     -47.652  30.965  24.062  1.00  0.00     0.030 A 
ATOM     22  C   UNL     1     -46.504  31.727  24.145  1.00  0.00    -0.032 A 
ATOM     23  N   UNL     1     -48.610  31.591  24.825  1.00  0.00    -0.357 N 
ATOM     24  C   UNL     1     -46.778  32.850  24.972  1.00  0.00    -0.000 A 
ATOM     25  H   UNL     1     -45.564  31.497  23.660  1.00  0.00     0.065 H 
ATOM     26  C   UNL     1     -48.103  32.740  25.387  1.00  0.00     0.046 A 
ATOM     27  H   UNL     1     -49.551  31.251  24.962  1.00  0.00     0.166 HD
ATOM     28  C   UNL     1     -46.018  33.950  25.410  1.00  0.00    -0.052 A 
ATOM     29  C   UNL     1     -48.714  33.681  26.227  1.00  0.00    -0.033 A 
ATOM     30  C   UNL     1     -46.611  34.903  26.248  1.00  0.00    -0.056 A 
ATOM     31  H   UNL     1     -44.983  34.060  25.103  1.00  0.00     0.063 H 
ATOM     32  C   UNL     1     -47.945  34.776  26.663  1.00  0.00    -0.024 A 
ATOM     33  H   UNL     1     -49.750  33.561  26.530  1.00  0.00     0.065 H 
ATOM     34  H   UNL     1     -46.010  35.749  26.581  1.00  0.00     0.063 H 
BRANCH  32  35
ATOM     35  C   UNL     1     -48.558  35.814  27.573  1.00  0.00     0.068 C 
ATOM     36  H   UNL     1     -48.824  35.391  28.548  1.00  0.00     0.057 H 
ATOM     37  H   UNL     1     -49.474  36.211  27.120  1.00  0.00     0.057 H 
BRANCH  35  38
ATOM     38  N   UNL     1     -47.650  36.918  27.832  1.00  0.00    -0.247 N 
ATOM     39  C   UNL     1     -47.195  37.862  26.957  1.00  0.00     0.054 A 
ATOM     40  N   UNL     1     -47.089  37.065  29.045  1.00  0.00    -0.066 NA
ATOM     41  C   UNL     1     -46.336  38.631  27.713  1.00  0.00     0.113 A 
ATOM     42  H   UNL     1     -47.514  37.902  25.927  1.00  0.00     0.086 H 
ATOM     43  N   UNL     1     -46.287  38.119  28.985  1.00  0.00    -0.130 NA
BRANCH  41  44
ATOM     44  C   UNL     1     -45.592  39.789  27.263  1.00  0.00     0.015 A 
ATOM     45  C   UNL     1     -44.184  39.827  27.271  1.00  0.00    -0.052 A 
ATOM     46  C   UNL     1     -46.285  40.929  26.795  1.00  0.00     0.029 A 
ATOM     47  C   UNL     1     -43.485  40.954  26.834  1.00  0.00    -0.059 A 
ATOM     48  H   UNL     1     -43.614  38.963  27.607  1.00  0.00     0.063 H 
ATOM     49  C   UNL     1     -45.556  42.038  26.369  1.00  0.00     0.066 A 
ATOM     50  C   UNL     1     -47.636  41.324  26.620  1.00  0.00     0.057 A 
ATOM     51  C   UNL     1     -44.159  42.086  26.375  1.00  0.00    -0.036 A 
ATOM     52  H   UNL     1     -42.397  40.948  26.848  1.00  0.00     0.062 H 
ATOM     53  N   UNL     1     -46.490  42.965  25.985  1.00  0.00    -0.278 N 
ATOM     54  N   UNL     1     -47.761  42.562  26.134  1.00  0.00    -0.183 NA
ATOM     55  H   UNL     1     -48.532  40.755  26.832  1.00  0.00     0.087 H 
ATOM     56  H   UNL     1     -43.616  42.962  26.034  1.00  0.00     0.065 H 
ATOM     57  H   UNL     1     -46.322  43.894  25.615  1.00  0.00     0.190 HD
ENDBRANCH  41  44
ENDBRANCH  35  38
ENDBRANCH  32  35
ENDBRANCH   1  21
TORSDOF 8
ENDMDL
MODEL 6
REMARK VINA RESULT:      -9.4      2.521      3.764
REMARK SMILES OC1(CNCc2cc3ccc(Cn4cc(-c5cccc6[nH]ncc56)nn4)cc3[nH]2)CCC1
REMARK SMILES IDX 5 1 4 4 3 6 2 9 30 10 32 11 31 12 1 19 6 21 7 22 29 23 8 24
REMARK SMILES IDX 28 26 9 28 27 29 10 30 11 32 12 35 13 38 14 39 26 40 15 41
REMARK SMILES IDX 25 43 16 44 17 45 24 46 18 47 20 49 23 50 19 51 21 53 22 54
REMARK H PARENT 5 2 5 3 4 5 3 7 3 8 30 13 30 14 32 15 32 16 31 17 31 18 1 20
REMARK H PARENT 7 25 29 27 9 31 27 33 10 34 12 36 12 37 14 42 17 48 18 52
REMARK H PARENT 23 55 19 56 21 57
REMARK Flexibility Score: inf
ROOT
ATOM      1  C   UNL     1     -48.633  28.639  22.675  1.00  0.00     0.036 C 
ATOM      2  H   UNL     1     -47.823  28.629  21.938  1.00  0.00     0.049 H 
ATOM      3  H   UNL     1     -49.579  28.700  22.127  1.00  0.00     0.049 H 
ENDROOT
BRANCH   1   4
ATOM      4  N   UNL     1     -48.571  27.448  23.510  1.00  0.00    -0.308 NA
ATOM      5  H   UNL     1     -48.510  26.627  22.907  1.00  0.00     0.123 HD
BRANCH   4   6
ATOM      6  C   UNL     1     -47.406  27.444  24.405  1.00  0.00     0.024 C 
ATOM      7  H   UNL     1     -46.551  26.930  23.950  1.00  0.00     0.046 H 
ATOM      8  H   UNL     1     -47.102  28.492  24.523  1.00  0.00     0.046 H 
BRANCH   6   9
ATOM      9  C   UNL     1     -47.737  26.882  25.802  1.00  0.00     0.077 C 
ATOM     10  C   UNL     1     -46.630  25.949  26.373  1.00  0.00    -0.023 C 
ATOM     11  C   UNL     1     -48.674  25.638  25.838  1.00  0.00    -0.023 C 
ATOM     12  C   UNL     1     -47.749  25.043  26.915  1.00  0.00    -0.048 C 
ATOM     13  H   UNL     1     -45.982  26.389  27.137  1.00  0.00     0.030 H 
ATOM     14  H   UNL     1     -46.002  25.468  25.614  1.00  0.00     0.030 H 
ATOM     15  H   UNL     1     -49.701  25.820  26.168  1.00  0.00     0.030 H 
ATOM     16  H   UNL     1     -48.699  25.057  24.909  1.00  0.00     0.030 H 
ATOM     17  H   UNL     1     -48.054  25.286  27.939  1.00  0.00     0.027 H 
ATOM     18  H   UNL     1     -47.567  23.968  26.844  1.00  0.00     0.027 H 
BRANCH   9  19
ATOM     19  O   UNL     1     -48.140  27.964  26.685  1.00  0.00    -0.389 OA
ATOM     20  H   UNL     1     -49.067  28.144  26.445  1.00  0.00     0.211 HD
ENDBRANCH   9  19
ENDBRANCH   6   9
ENDBRANCH   4   6
ENDBRANCH   1   4
BRANCH   1  21
ATOM     21  C   UNL     1     -48.498  29.843  23.540  1.00  0.00     0.030 A 
ATOM     22  C   UNL     1     -49.432  30.534  24.285  1.00  0.00    -0.032 A 
ATOM     23  N   UNL     1     -47.290  30.477  23.717  1.00  0.00    -0.357 N 
ATOM     24  C   UNL     1     -48.770  31.609  24.939  1.00  0.00    -0.000 A 
ATOM     25  H   UNL     1     -50.485  30.291  24.351  1.00  0.00     0.065 H 
ATOM     26  C   UNL     1     -47.429  31.552  24.565  1.00  0.00     0.046 A 
ATOM     27  H   UNL     1     -46.423  30.199  23.280  1.00  0.00     0.166 HD
ATOM     28  C   UNL     1     -49.188  32.628  25.814  1.00  0.00    -0.052 A 
ATOM     29  C   UNL     1     -46.475  32.472  25.023  1.00  0.00    -0.033 A 
ATOM     30  C   UNL     1     -48.250  33.556  26.284  1.00  0.00    -0.056 A 
ATOM     31  H   UNL     1     -50.227  32.697  26.120  1.00  0.00     0.063 H 
ATOM     32  C   UNL     1     -46.905  33.490  25.894  1.00  0.00    -0.024 A 
ATOM     33  H   UNL     1     -45.439  32.396  24.709  1.00  0.00     0.065 H 
ATOM     34  H   UNL     1     -48.589  34.342  26.959  1.00  0.00     0.063 H 
BRANCH  32  35
ATOM     35  C   UNL     1     -45.915  34.508  26.410  1.00  0.00     0.068 C 
ATOM     36  H   UNL     1     -45.325  34.947  25.598  1.00  0.00     0.057 H 
ATOM     37  H   UNL     1     -45.217  34.028  27.107  1.00  0.00     0.057 H 
BRANCH  35  38
ATOM     38  N   UNL     1     -46.570  35.610  27.092  1.00  0.00    -0.247 N 
ATOM     39  C   UNL     1     -46.971  36.808  26.573  1.00  0.00     0.054 A 
ATOM     40  N   UNL     1     -46.790  35.554  28.418  1.00  0.00    -0.066 NA
ATOM     41  C   UNL     1     -47.488  37.485  27.657  1.00  0.00     0.113 A 
ATOM     42  H   UNL     1     -46.863  37.052  25.528  1.00  0.00     0.086 H 
ATOM     43  N   UNL     1     -47.361  36.697  28.773  1.00  0.00    -0.130 NA
BRANCH  41  44
ATOM     44  C   UNL     1     -48.069  38.811  27.648  1.00  0.00     0.015 A 
ATOM     45  C   UNL     1     -49.349  39.075  28.174  1.00  0.00    -0.052 A 
ATOM     46  C   UNL     1     -47.341  39.891  27.097  1.00  0.00     0.029 A 
ATOM     47  C   UNL     1     -49.891  40.361  28.153  1.00  0.00    -0.059 A 
ATOM     48  H   UNL     1     -49.933  38.274  28.622  1.00  0.00     0.063 H 
ATOM     49  C   UNL     1     -47.914  41.161  27.091  1.00  0.00     0.066 A 
ATOM     50  C   UNL     1     -46.079  40.086  26.480  1.00  0.00     0.057 A 
ATOM     51  C   UNL     1     -49.183  41.434  27.608  1.00  0.00    -0.036 A 
ATOM     52  H   UNL     1     -50.881  40.531  28.573  1.00  0.00     0.062 H 
ATOM     53  N   UNL     1     -46.986  41.980  26.500  1.00  0.00    -0.278 N 
ATOM     54  N   UNL     1     -45.865  41.353  26.112  1.00  0.00    -0.183 NA
ATOM     55  H   UNL     1     -45.310  39.350  26.283  1.00  0.00     0.087 H 
ATOM     56  H   UNL     1     -49.605  42.434  27.594  1.00  0.00     0.065 H 
ATOM     57  H   UNL     1     -47.061  42.976  26.331  1.00  0.00     0.190 HD
ENDBRANCH  41  44
ENDBRANCH  35  38
ENDBRANCH  32  35
ENDBRANCH   1  21
TORSDOF 8
ENDMDL
MODEL 7
REMARK VINA RESULT:      -9.3      2.142      2.691
REMARK SMILES OC1(CNCc2cc3ccc(Cn4cc(-c5cccc6[nH]ncc56)nn4)cc3[nH]2)CCC1
REMARK SMILES IDX 5 1 4 4 3 6 2 9 30 10 32 11 31 12 1 19 6 21 7 22 29 23 8 24
REMARK SMILES IDX 28 26 9 28 27 29 10 30 11 32 12 35 13 38 14 39 26 40 15 41
REMARK SMILES IDX 25 43 16 44 17 45 24 46 18 47 20 49 23 50 19 51 21 53 22 54
REMARK H PARENT 5 2 5 3 4 5 3 7 3 8 30 13 30 14 32 15 32 16 31 17 31 18 1 20
REMARK H PARENT 7 25 29 27 9 31 27 33 10 34 12 36 12 37 14 42 17 48 18 52
REMARK H PARENT 23 55 19 56 21 57
REMARK Flexibility Score: inf
ROOT
ATOM      1  C   UNL     1     -45.999  32.250  24.760  1.00  0.00     0.036 C 
ATOM      2  H   UNL     1     -45.076  32.102  25.331  1.00  0.00     0.049 H 
ATOM      3  H   UNL     1     -45.719  32.618  23.768  1.00  0.00     0.049 H 
ENDROOT
BRANCH   1   4
ATOM      4  N   UNL     1     -46.749  31.005  24.681  1.00  0.00    -0.308 NA
ATOM      5  H   UNL     1     -47.483  31.018  25.391  1.00  0.00     0.123 HD
BRANCH   4   6
ATOM      6  C   UNL     1     -47.385  30.809  23.371  1.00  0.00     0.024 C 
ATOM      7  H   UNL     1     -47.255  31.686  22.726  1.00  0.00     0.046 H 
ATOM      8  H   UNL     1     -46.843  29.990  22.883  1.00  0.00     0.046 H 
BRANCH   6   9
ATOM      9  C   UNL     1     -48.866  30.398  23.490  1.00  0.00     0.077 C 
ATOM     10  C   UNL     1     -49.322  29.395  22.391  1.00  0.00    -0.023 C 
ATOM     11  C   UNL     1     -49.905  31.389  22.884  1.00  0.00    -0.023 C 
ATOM     12  C   UNL     1     -50.648  30.170  22.309  1.00  0.00    -0.048 C 
ATOM     13  H   UNL     1     -49.416  28.352  22.706  1.00  0.00     0.030 H 
ATOM     14  H   UNL     1     -48.732  29.430  21.467  1.00  0.00     0.030 H 
ATOM     15  H   UNL     1     -50.482  31.978  23.603  1.00  0.00     0.030 H 
ATOM     16  H   UNL     1     -49.503  32.062  22.118  1.00  0.00     0.030 H 
ATOM     17  H   UNL     1     -51.428  29.778  22.972  1.00  0.00     0.027 H 
ATOM     18  H   UNL     1     -51.064  30.296  21.307  1.00  0.00     0.027 H 
BRANCH   9  19
ATOM     19  O   UNL     1     -49.155  29.984  24.853  1.00  0.00    -0.389 OA
ATOM     20  H   UNL     1     -49.881  30.568  25.138  1.00  0.00     0.211 HD
ENDBRANCH   9  19
ENDBRANCH   6   9
ENDBRANCH   4   6
ENDBRANCH   1   4
BRANCH   1  21
ATOM     21  C   UNL     1     -46.838  33.277  25.437  1.00  0.00     0.030 A 
ATOM     22  C   UNL     1     -48.143  33.230  25.886  1.00  0.00    -0.032 A 
ATOM     23  N   UNL     1     -46.356  34.532  25.728  1.00  0.00    -0.357 N 
ATOM     24  C   UNL     1     -48.455  34.487  26.473  1.00  0.00    -0.000 A 
ATOM     25  H   UNL     1     -48.804  32.378  25.798  1.00  0.00     0.065 H 
ATOM     26  C   UNL     1     -47.319  35.285  26.359  1.00  0.00     0.046 A 
ATOM     27  H   UNL     1     -45.427  34.860  25.502  1.00  0.00     0.166 HD
ATOM     28  C   UNL     1     -49.601  35.020  27.089  1.00  0.00    -0.052 A 
ATOM     29  C   UNL     1     -47.270  36.604  26.831  1.00  0.00    -0.033 A 
ATOM     30  C   UNL     1     -49.572  36.336  27.570  1.00  0.00    -0.056 A 
ATOM     31  H   UNL     1     -50.501  34.421  27.189  1.00  0.00     0.063 H 
ATOM     32  C   UNL     1     -48.423  37.130  27.443  1.00  0.00    -0.024 A 
ATOM     33  H   UNL     1     -46.367  37.196  26.724  1.00  0.00     0.065 H 
ATOM     34  H   UNL     1     -50.469  36.737  28.042  1.00  0.00     0.063 H 
BRANCH  32  35
ATOM     35  C   UNL     1     -48.421  38.548  27.963  1.00  0.00     0.068 C 
ATOM     36  H   UNL     1     -48.496  38.578  29.056  1.00  0.00     0.057 H 
ATOM     37  H   UNL     1     -49.278  39.095  27.555  1.00  0.00     0.057 H 
BRANCH  35  38
ATOM     38  N   UNL     1     -47.204  39.257  27.610  1.00  0.00    -0.247 N 
ATOM     39  C   UNL     1     -46.083  39.443  28.367  1.00  0.00     0.054 A 
ATOM     40  N   UNL     1     -47.109  39.898  26.432  1.00  0.00    -0.066 NA
ATOM     41  C   UNL     1     -45.265  40.215  27.569  1.00  0.00     0.113 A 
ATOM     42  H   UNL     1     -45.973  39.022  29.354  1.00  0.00     0.086 H 
ATOM     43  N   UNL     1     -45.919  40.482  26.393  1.00  0.00    -0.130 NA
BRANCH  41  44
ATOM     44  C   UNL     1     -43.936  40.685  27.897  1.00  0.00     0.015 A 
ATOM     45  C   UNL     1     -43.253  40.262  29.055  1.00  0.00    -0.052 A 
ATOM     46  C   UNL     1     -43.284  41.598  27.037  1.00  0.00     0.029 A 
ATOM     47  C   UNL     1     -41.972  40.729  29.354  1.00  0.00    -0.059 A 
ATOM     48  H   UNL     1     -43.714  39.547  29.732  1.00  0.00     0.063 H 
ATOM     49  C   UNL     1     -42.006  42.046  27.367  1.00  0.00     0.066 A 
ATOM     50  C   UNL     1     -43.573  42.269  25.822  1.00  0.00     0.057 A 
ATOM     51  C   UNL     1     -41.320  41.634  28.514  1.00  0.00    -0.036 A 
ATOM     52  H   UNL     1     -41.471  40.378  30.253  1.00  0.00     0.062 H 
ATOM     53  N   UNL     1     -41.647  42.907  26.363  1.00  0.00    -0.278 N 
ATOM     54  N   UNL     1     -42.583  43.069  25.415  1.00  0.00    -0.183 NA
ATOM     55  H   UNL     1     -44.472  42.206  25.221  1.00  0.00     0.087 H 
ATOM     56  H   UNL     1     -40.323  41.996  28.746  1.00  0.00     0.065 H 
ATOM     57  H   UNL     1     -40.777  43.419  26.270  1.00  0.00     0.190 HD
ENDBRANCH  41  44
ENDBRANCH  35  38
ENDBRANCH  32  35
ENDBRANCH   1  21
TORSDOF 8
ENDMDL
