MODEL 1
REMARK VINA RESULT:     -10.4      0.000      0.000
REMARK SMILES CCNc1ccc2ccc(CCc3cncc(-n4cc([C@@H]5CCCO5)c5c(N)ncnc54)c3)cc2n1
REMARK SMILES IDX 11 1 10 4 4 5 5 6 36 7 6 8 35 10 7 11 34 13 8 14 9 16 3 19
REMARK SMILES IDX 2 21 1 24 12 28 13 31 14 32 33 33 15 34 17 36 16 38 18 40
REMARK SMILES IDX 19 41 32 42 20 43 26 45 31 46 27 47 30 48 29 49 21 51 22 52
REMARK SMILES IDX 25 53 23 55 24 58 28 63
REMARK H PARENT 11 2 11 3 5 9 6 12 34 15 8 17 9 18 3 20 2 22 2 23 1 25 1 26
REMARK H PARENT 1 27 12 29 12 30 14 35 33 37 16 39 19 44 30 50 21 54 22 56
REMARK H PARENT 22 57 23 59 23 60 24 61 24 62 28 64 28 65
REMARK Flexibility Score: inf
ROOT
ATOM      1  C   UNL     1     -46.857  36.983  26.816  1.00  0.00    -0.024 C 
ATOM      2  H   UNL     1     -47.816  37.049  27.346  1.00  0.00     0.032 H 
ATOM      3  H   UNL     1     -46.998  37.526  25.873  1.00  0.00     0.032 H 
ENDROOT
BRANCH   1   4
ATOM      4  C   UNL     1     -45.808  37.679  27.653  1.00  0.00    -0.046 A 
ATOM      5  C   UNL     1     -42.755  41.312  28.189  1.00  0.00     0.126 A 
ATOM      6  C   UNL     1     -42.410  40.890  29.468  1.00  0.00    -0.019 A 
ATOM      7  N   UNL     1     -43.648  40.634  27.440  1.00  0.00    -0.231 NA
ATOM      8  C   UNL     1     -43.009  39.752  29.997  1.00  0.00    -0.049 A 
ATOM      9  H   UNL     1     -41.674  41.436  30.048  1.00  0.00     0.066 H 
ATOM     10  C   UNL     1     -44.227  39.526  27.943  1.00  0.00     0.073 A 
ATOM     11  C   UNL     1     -43.939  39.046  29.233  1.00  0.00     0.000 A 
ATOM     12  H   UNL     1     -42.744  39.425  30.999  1.00  0.00     0.063 H 
ATOM     13  C   UNL     1     -45.152  38.826  27.176  1.00  0.00    -0.032 A 
ATOM     14  C   UNL     1     -44.575  37.893  29.723  1.00  0.00    -0.053 A 
ATOM     15  H   UNL     1     -45.376  39.203  26.180  1.00  0.00     0.065 H 
ATOM     16  C   UNL     1     -45.505  37.216  28.936  1.00  0.00    -0.058 A 
ATOM     17  H   UNL     1     -44.359  37.525  30.722  1.00  0.00     0.063 H 
ATOM     18  H   UNL     1     -46.005  36.339  29.341  1.00  0.00     0.063 H 
BRANCH   5  19
ATOM     19  N   UNL     1     -42.121  42.462  27.687  1.00  0.00    -0.370 N 
ATOM     20  H   UNL     1     -41.896  43.071  28.469  1.00  0.00     0.162 HD
BRANCH  19  21
ATOM     21  C   UNL     1     -42.831  43.178  26.631  1.00  0.00     0.013 C 
ATOM     22  H   UNL     1     -43.101  44.166  27.024  1.00  0.00     0.049 H 
ATOM     23  H   UNL     1     -43.775  42.692  26.358  1.00  0.00     0.049 H 
BRANCH  21  24
ATOM     24  C   UNL     1     -41.942  43.389  25.415  1.00  0.00    -0.048 C 
ATOM     25  H   UNL     1     -40.892  43.488  25.710  1.00  0.00     0.025 H 
ATOM     26  H   UNL     1     -42.235  44.301  24.886  1.00  0.00     0.025 H 
ATOM     27  H   UNL     1     -42.011  42.556  24.710  1.00  0.00     0.025 H 
ENDBRANCH  21  24
ENDBRANCH  19  21
ENDBRANCH   5  19
ENDBRANCH   1   4
BRANCH   1  28
ATOM     28  C   UNL     1     -46.546  35.507  26.523  1.00  0.00    -0.022 C 
ATOM     29  H   UNL     1     -45.895  35.117  27.315  1.00  0.00     0.032 H 
ATOM     30  H   UNL     1     -45.969  35.414  25.595  1.00  0.00     0.032 H 
BRANCH  28  31
ATOM     31  C   UNL     1     -47.777  34.641  26.435  1.00  0.00    -0.027 A 
ATOM     32  C   UNL     1     -49.026  35.106  26.815  1.00  0.00     0.030 A 
ATOM     33  C   UNL     1     -47.699  33.342  25.915  1.00  0.00    -0.032 A 
ATOM     34  N   UNL     1     -50.159  34.380  26.713  1.00  0.00    -0.262 NA
ATOM     35  H   UNL     1     -49.160  36.106  27.221  1.00  0.00     0.084 H 
ATOM     36  C   UNL     1     -48.848  32.562  25.765  1.00  0.00     0.066 A 
ATOM     37  H   UNL     1     -46.719  32.978  25.628  1.00  0.00     0.065 H 
ATOM     38  C   UNL     1     -50.045  33.133  26.189  1.00  0.00     0.051 A 
ATOM     39  H   UNL     1     -51.001  32.628  26.116  1.00  0.00     0.086 H 
BRANCH  36  40
ATOM     40  N   UNL     1     -48.812  31.252  25.185  1.00  0.00    -0.299 N 
ATOM     41  C   UNL     1     -48.533  30.079  25.873  1.00  0.00     0.018 A 
ATOM     42  C   UNL     1     -49.063  30.895  23.859  1.00  0.00     0.150 A 
ATOM     43  C   UNL     1     -48.588  28.990  25.019  1.00  0.00     0.012 A 
ATOM     44  H   UNL     1     -48.298  30.094  26.927  1.00  0.00     0.083 H 
ATOM     45  C   UNL     1     -48.944  29.514  23.736  1.00  0.00     0.067 A 
ATOM     46  N   UNL     1     -49.396  31.727  22.854  1.00  0.00    -0.218 NA
ATOM     47  C   UNL     1     -49.186  28.968  22.463  1.00  0.00     0.136 A 
ATOM     48  C   UNL     1     -49.608  31.098  21.694  1.00  0.00     0.120 A 
ATOM     49  N   UNL     1     -49.516  29.782  21.444  1.00  0.00    -0.219 NA
ATOM     50  H   UNL     1     -49.880  31.728  20.853  1.00  0.00     0.106 H 
BRANCH  43  51
ATOM     51  C   UNL     1     -48.368  27.544  25.354  1.00  0.00     0.085 C 
ATOM     52  C   UNL     1     -48.177  27.234  26.835  1.00  0.00    -0.020 C 
ATOM     53  O   UNL     1     -47.194  27.013  24.691  1.00  0.00    -0.373 OA
ATOM     54  H   UNL     1     -49.223  26.969  24.974  1.00  0.00     0.066 H 
ATOM     55  C   UNL     1     -47.399  25.943  26.788  1.00  0.00    -0.027 C 
ATOM     56  H   UNL     1     -49.123  27.150  27.378  1.00  0.00     0.030 H 
ATOM     57  H   UNL     1     -47.566  27.999  27.332  1.00  0.00     0.030 H 
ATOM     58  C   UNL     1     -46.474  26.192  25.620  1.00  0.00     0.048 C 
ATOM     59  H   UNL     1     -48.075  25.110  26.562  1.00  0.00     0.029 H 
ATOM     60  H   UNL     1     -46.867  25.715  27.714  1.00  0.00     0.029 H 
ATOM     61  H   UNL     1     -46.159  25.267  25.127  1.00  0.00     0.057 H 
ATOM     62  H   UNL     1     -45.580  26.744  25.930  1.00  0.00     0.057 H 
ENDBRANCH  43  51
BRANCH  47  63
ATOM     63  N   UNL     1     -49.091  27.610  22.177  1.00  0.00    -0.383 N 
ATOM     64  H   UNL     1     -49.913  27.126  22.514  1.00  0.00     0.158 HD
ATOM     65  H   UNL     1     -48.852  27.439  21.198  1.00  0.00     0.158 HD
ENDBRANCH  47  63
ENDBRANCH  36  40
ENDBRANCH  28  31
ENDBRANCH   1  28
TORSDOF 9
ENDMDL
MODEL 2
REMARK VINA RESULT:     -10.2      3.351     12.468
REMARK SMILES CCNc1ccc2ccc(CCc3cncc(-n4cc([C@@H]5CCCO5)c5c(N)ncnc54)c3)cc2n1
REMARK SMILES IDX 11 1 10 4 4 5 5 6 36 7 6 8 35 10 7 11 34 13 8 14 9 16 3 19
REMARK SMILES IDX 2 21 1 24 12 28 13 31 14 32 33 33 15 34 17 36 16 38 18 40
REMARK SMILES IDX 19 41 32 42 20 43 26 45 31 46 27 47 30 48 29 49 21 51 22 52
REMARK SMILES IDX 25 53 23 55 24 58 28 63
REMARK H PARENT 11 2 11 3 5 9 6 12 34 15 8 17 9 18 3 20 2 22 2 23 1 25 1 26
REMARK H PARENT 1 27 12 29 12 30 14 35 33 37 16 39 19 44 30 50 21 54 22 56
REMARK H PARENT 22 57 23 59 23 60 24 61 24 62 28 64 28 65
REMARK Flexibility Score: inf
ROOT
ATOM      1  C   UNL     1     -47.980  33.784  26.219  1.00  0.00    -0.024 C 
ATOM      2  H   UNL     1     -48.857  34.282  25.785  1.00  0.00     0.032 H 
ATOM      3  H   UNL     1     -48.258  33.534  27.251  1.00  0.00     0.032 H 
ENDROOT
BRANCH   1   4
ATOM      4  C   UNL     1     -47.725  32.514  25.439  1.00  0.00    -0.046 A 
ATOM      5  C   UNL     1     -48.864  27.962  24.554  1.00  0.00     0.126 A 
ATOM      6  C   UNL     1     -47.944  27.888  23.514  1.00  0.00    -0.019 A 
ATOM      7  N   UNL     1     -49.024  29.090  25.274  1.00  0.00    -0.231 NA
ATOM      8  C   UNL     1     -47.182  29.007  23.196  1.00  0.00    -0.049 A 
ATOM      9  H   UNL     1     -47.814  26.967  22.957  1.00  0.00     0.066 H 
ATOM     10  C   UNL     1     -48.284  30.176  24.978  1.00  0.00     0.073 A 
ATOM     11  C   UNL     1     -47.344  30.182  23.932  1.00  0.00     0.000 A 
ATOM     12  H   UNL     1     -46.467  28.952  22.379  1.00  0.00     0.063 H 
ATOM     13  C   UNL     1     -48.449  31.343  25.716  1.00  0.00    -0.032 A 
ATOM     14  C   UNL     1     -46.601  31.340  23.648  1.00  0.00    -0.053 A 
ATOM     15  H   UNL     1     -49.181  31.335  26.521  1.00  0.00     0.065 H 
ATOM     16  C   UNL     1     -46.793  32.499  24.398  1.00  0.00    -0.058 A 
ATOM     17  H   UNL     1     -45.880  31.349  22.836  1.00  0.00     0.063 H 
ATOM     18  H   UNL     1     -46.226  33.393  24.148  1.00  0.00     0.063 H 
BRANCH   5  19
ATOM     19  N   UNL     1     -49.609  26.807  24.849  1.00  0.00    -0.370 N 
ATOM     20  H   UNL     1     -50.368  26.734  24.176  1.00  0.00     0.162 HD
BRANCH  19  21
ATOM     21  C   UNL     1     -50.092  26.687  26.222  1.00  0.00     0.013 C 
ATOM     22  H   UNL     1     -50.142  27.698  26.645  1.00  0.00     0.049 H 
ATOM     23  H   UNL     1     -49.400  26.125  26.860  1.00  0.00     0.049 H 
BRANCH  21  24
ATOM     24  C   UNL     1     -51.493  26.095  26.264  1.00  0.00    -0.048 C 
ATOM     25  H   UNL     1     -52.149  26.691  26.907  1.00  0.00     0.025 H 
ATOM     26  H   UNL     1     -51.461  25.076  26.661  1.00  0.00     0.025 H 
ATOM     27  H   UNL     1     -51.949  26.055  25.271  1.00  0.00     0.025 H 
ENDBRANCH  21  24
ENDBRANCH  19  21
ENDBRANCH   5  19
ENDBRANCH   1   4
BRANCH   1  28
ATOM     28  C   UNL     1     -46.796  34.764  26.223  1.00  0.00    -0.022 C 
ATOM     29  H   UNL     1     -46.429  34.882  25.196  1.00  0.00     0.032 H 
ATOM     30  H   UNL     1     -45.955  34.347  26.791  1.00  0.00     0.032 H 
BRANCH  28  31
ATOM     31  C   UNL     1     -47.145  36.123  26.774  1.00  0.00    -0.027 A 
ATOM     32  C   UNL     1     -48.378  36.381  27.356  1.00  0.00     0.030 A 
ATOM     33  C   UNL     1     -46.205  37.162  26.758  1.00  0.00    -0.032 A 
ATOM     34  N   UNL     1     -48.715  37.569  27.899  1.00  0.00    -0.262 NA
ATOM     35  H   UNL     1     -49.151  35.620  27.408  1.00  0.00     0.084 H 
ATOM     36  C   UNL     1     -46.499  38.402  27.332  1.00  0.00     0.066 A 
ATOM     37  H   UNL     1     -45.246  36.959  26.294  1.00  0.00     0.065 H 
ATOM     38  C   UNL     1     -47.772  38.546  27.878  1.00  0.00     0.051 A 
ATOM     39  H   UNL     1     -48.111  39.456  28.357  1.00  0.00     0.086 H 
BRANCH  36  40
ATOM     40  N   UNL     1     -45.542  39.467  27.382  1.00  0.00    -0.299 N 
ATOM     41  C   UNL     1     -45.496  40.544  26.508  1.00  0.00     0.018 A 
ATOM     42  C   UNL     1     -44.507  39.645  28.301  1.00  0.00     0.150 A 
ATOM     43  C   UNL     1     -44.456  41.395  26.840  1.00  0.00     0.012 A 
ATOM     44  H   UNL     1     -46.201  40.631  25.694  1.00  0.00     0.083 H 
ATOM     45  C   UNL     1     -43.835  40.825  27.997  1.00  0.00     0.067 A 
ATOM     46  N   UNL     1     -44.206  38.839  29.337  1.00  0.00    -0.218 NA
ATOM     47  C   UNL     1     -42.766  41.181  28.839  1.00  0.00     0.136 A 
ATOM     48  C   UNL     1     -43.178  39.279  30.069  1.00  0.00     0.120 A 
ATOM     49  N   UNL     1     -42.447  40.388  29.876  1.00  0.00    -0.219 NA
ATOM     50  H   UNL     1     -42.898  38.662  30.917  1.00  0.00     0.106 H 
BRANCH  43  51
ATOM     51  C   UNL     1     -44.064  42.678  26.168  1.00  0.00     0.085 C 
ATOM     52  C   UNL     1     -44.692  42.923  24.799  1.00  0.00    -0.020 C 
ATOM     53  O   UNL     1     -42.633  42.759  25.959  1.00  0.00    -0.373 OA
ATOM     54  H   UNL     1     -44.325  43.510  26.837  1.00  0.00     0.066 H 
ATOM     55  C   UNL     1     -43.699  43.861  24.161  1.00  0.00    -0.027 C 
ATOM     56  H   UNL     1     -45.702  43.337  24.863  1.00  0.00     0.030 H 
ATOM     57  H   UNL     1     -44.740  41.999  24.207  1.00  0.00     0.030 H 
ATOM     58  C   UNL     1     -42.389  43.290  24.649  1.00  0.00     0.048 C 
ATOM     59  H   UNL     1     -43.839  44.875  24.556  1.00  0.00     0.029 H 
ATOM     60  H   UNL     1     -43.769  43.901  23.072  1.00  0.00     0.029 H 
ATOM     61  H   UNL     1     -41.594  44.040  24.698  1.00  0.00     0.057 H 
ATOM     62  H   UNL     1     -42.051  42.465  24.012  1.00  0.00     0.057 H 
ENDBRANCH  43  51
BRANCH  47  63
ATOM     63  N   UNL     1     -41.989  42.320  28.655  1.00  0.00    -0.383 N 
ATOM     64  H   UNL     1     -42.577  43.144  28.646  1.00  0.00     0.158 HD
ATOM     65  H   UNL     1     -41.199  42.354  29.301  1.00  0.00     0.158 HD
ENDBRANCH  47  63
ENDBRANCH  36  40
ENDBRANCH  28  31
ENDBRANCH   1  28
TORSDOF 9
ENDMDL
MODEL 3
REMARK VINA RESULT:      -9.3      1.827      2.241
REMARK SMILES CCNc1ccc2ccc(CCc3cncc(-n4cc([C@@H]5CCCO5)c5c(N)ncnc54)c3)cc2n1
REMARK SMILES IDX 11 1 10 4 4 5 5 6 36 7 6 8 35 10 7 11 34 13 8 14 9 16 3 19
REMARK SMILES IDX 2 21 1 24 12 28 13 31 14 32 33 33 15 34 17 36 16 38 18 40
REMARK SMILES IDX 19 41 32 42 20 43 26 45 31 46 27 47 30 48 29 49 21 51 22 52
REMARK SMILES IDX 25 53 23 55 24 58 28 63
REMARK H PARENT 11 2 11 3 5 9 6 12 34 15 8 17 9 18 3 20 2 22 2 23 1 25 1 26
REMARK H PARENT 1 27 12 29 12 30 14 35 33 37 16 39 19 44 30 50 21 54 22 56
REMARK H PARENT 22 57 23 59 23 60 24 61 24 62 28 64 28 65
REMARK Flexibility Score: inf
ROOT
ATOM      1  C   UNL     1     -47.088  37.460  27.443  1.00  0.00    -0.024 C 
ATOM      2  H   UNL     1     -47.321  36.801  28.289  1.00  0.00     0.032 H 
ATOM      3  H   UNL     1     -47.981  38.079  27.291  1.00  0.00     0.032 H 
ENDROOT
BRANCH   1   4
ATOM      4  C   UNL     1     -45.920  38.336  27.834  1.00  0.00    -0.046 A 
ATOM      5  C   UNL     1     -43.326  42.272  27.067  1.00  0.00     0.126 A 
ATOM      6  C   UNL     1     -42.542  42.026  28.188  1.00  0.00    -0.019 A 
ATOM      7  N   UNL     1     -44.321  41.437  26.706  1.00  0.00    -0.231 NA
ATOM      8  C   UNL     1     -42.797  40.902  28.967  1.00  0.00    -0.049 A 
ATOM      9  H   UNL     1     -41.733  42.698  28.452  1.00  0.00     0.066 H 
ATOM     10  C   UNL     1     -44.569  40.341  27.451  1.00  0.00     0.073 A 
ATOM     11  C   UNL     1     -43.828  40.034  28.606  1.00  0.00     0.000 A 
ATOM     12  H   UNL     1     -42.188  40.713  29.847  1.00  0.00     0.063 H 
ATOM     13  C   UNL     1     -45.597  39.480  27.084  1.00  0.00    -0.032 A 
ATOM     14  C   UNL     1     -44.128  38.889  29.361  1.00  0.00    -0.053 A 
ATOM     15  H   UNL     1     -46.171  39.724  26.193  1.00  0.00     0.065 H 
ATOM     16  C   UNL     1     -45.169  38.047  28.976  1.00  0.00    -0.058 A 
ATOM     17  H   UNL     1     -43.561  38.653  30.257  1.00  0.00     0.063 H 
ATOM     18  H   UNL     1     -45.403  37.177  29.587  1.00  0.00     0.063 H 
BRANCH   5  19
ATOM     19  N   UNL     1     -43.031  43.413  26.301  1.00  0.00    -0.370 N 
ATOM     20  H   UNL     1     -43.876  43.701  25.815  1.00  0.00     0.162 HD
BRANCH  19  21
ATOM     21  C   UNL     1     -41.896  43.300  25.389  1.00  0.00     0.013 C 
ATOM     22  H   UNL     1     -41.553  42.258  25.415  1.00  0.00     0.049 H 
ATOM     23  H   UNL     1     -41.041  43.908  25.709  1.00  0.00     0.049 H 
BRANCH  21  24
ATOM     24  C   UNL     1     -42.304  43.620  23.959  1.00  0.00    -0.048 C 
ATOM     25  H   UNL     1     -43.392  43.579  23.845  1.00  0.00     0.025 H 
ATOM     26  H   UNL     1     -41.861  42.896  23.269  1.00  0.00     0.025 H 
ATOM     27  H   UNL     1     -41.976  44.618  23.655  1.00  0.00     0.025 H 
ENDBRANCH  21  24
ENDBRANCH  19  21
ENDBRANCH   5  19
ENDBRANCH   1   4
BRANCH   1  28
ATOM     28  C   UNL     1     -46.834  36.601  26.193  1.00  0.00    -0.022 C 
ATOM     29  H   UNL     1     -45.913  36.945  25.707  1.00  0.00     0.032 H 
ATOM     30  H   UNL     1     -47.632  36.753  25.455  1.00  0.00     0.032 H 
BRANCH  28  31
ATOM     31  C   UNL     1     -46.705  35.129  26.493  1.00  0.00    -0.027 A 
ATOM     32  C   UNL     1     -46.251  34.672  27.721  1.00  0.00     0.030 A 
ATOM     33  C   UNL     1     -47.092  34.172  25.547  1.00  0.00    -0.032 A 
ATOM     34  N   UNL     1     -46.161  33.365  28.046  1.00  0.00    -0.262 NA
ATOM     35  H   UNL     1     -45.941  35.358  28.504  1.00  0.00     0.084 H 
ATOM     36  C   UNL     1     -47.042  32.808  25.846  1.00  0.00     0.066 A 
ATOM     37  H   UNL     1     -47.438  34.534  24.584  1.00  0.00     0.065 H 
ATOM     38  C   UNL     1     -46.560  32.469  27.107  1.00  0.00     0.051 A 
ATOM     39  H   UNL     1     -46.482  31.446  27.456  1.00  0.00     0.086 H 
BRANCH  36  40
ATOM     40  N   UNL     1     -47.482  31.806  24.922  1.00  0.00    -0.299 N 
ATOM     41  C   UNL     1     -48.476  30.869  25.169  1.00  0.00     0.018 A 
ATOM     42  C   UNL     1     -47.031  31.585  23.619  1.00  0.00     0.150 A 
ATOM     43  C   UNL     1     -48.661  30.054  24.065  1.00  0.00     0.012 A 
ATOM     44  H   UNL     1     -48.981  30.832  26.123  1.00  0.00     0.083 H 
ATOM     45  C   UNL     1     -47.747  30.526  23.070  1.00  0.00     0.067 A 
ATOM     46  N   UNL     1     -46.083  32.287  22.969  1.00  0.00    -0.218 NA
ATOM     47  C   UNL     1     -47.441  30.175  21.743  1.00  0.00     0.136 A 
ATOM     48  C   UNL     1     -45.881  31.868  21.716  1.00  0.00     0.120 A 
ATOM     49  N   UNL     1     -46.494  30.860  21.077  1.00  0.00    -0.219 NA
ATOM     50  H   UNL     1     -45.125  32.405  21.150  1.00  0.00     0.106 H 
BRANCH  43  51
ATOM     51  C   UNL     1     -49.641  28.930  23.903  1.00  0.00     0.085 C 
ATOM     52  C   UNL     1     -50.514  28.638  25.119  1.00  0.00    -0.020 C 
ATOM     53  O   UNL     1     -48.977  27.680  23.593  1.00  0.00    -0.373 OA
ATOM     54  H   UNL     1     -50.287  29.157  23.044  1.00  0.00     0.066 H 
ATOM     55  C   UNL     1     -50.882  27.192  24.903  1.00  0.00    -0.027 C 
ATOM     56  H   UNL     1     -51.382  29.301  25.189  1.00  0.00     0.030 H 
ATOM     57  H   UNL     1     -49.945  28.724  26.055  1.00  0.00     0.030 H 
ATOM     58  C   UNL     1     -49.590  26.632  24.355  1.00  0.00     0.048 C 
ATOM     59  H   UNL     1     -51.674  27.119  24.148  1.00  0.00     0.029 H 
ATOM     60  H   UNL     1     -51.219  26.683  25.809  1.00  0.00     0.029 H 
ATOM     61  H   UNL     1     -49.747  25.757  23.718  1.00  0.00     0.057 H 
ATOM     62  H   UNL     1     -48.901  26.358  25.161  1.00  0.00     0.057 H 
ENDBRANCH  43  51
BRANCH  47  63
ATOM     63  N   UNL     1     -48.056  29.129  21.062  1.00  0.00    -0.383 N 
ATOM     64  H   UNL     1     -49.042  29.098  21.292  1.00  0.00     0.158 HD
ATOM     65  H   UNL     1     -47.840  29.140  20.064  1.00  0.00     0.158 HD
ENDBRANCH  47  63
ENDBRANCH  36  40
ENDBRANCH  28  31
ENDBRANCH   1  28
TORSDOF 9
ENDMDL
MODEL 4
REMARK VINA RESULT:      -9.3      3.882     12.283
REMARK SMILES CCNc1ccc2ccc(CCc3cncc(-n4cc([C@@H]5CCCO5)c5c(N)ncnc54)c3)cc2n1
REMARK SMILES IDX 11 1 10 4 4 5 5 6 36 7 6 8 35 10 7 11 34 13 8 14 9 16 3 19
REMARK SMILES IDX 2 21 1 24 12 28 13 31 14 32 33 33 15 34 17 36 16 38 18 40
REMARK SMILES IDX 19 41 32 42 20 43 26 45 31 46 27 47 30 48 29 49 21 51 22 52
REMARK SMILES IDX 25 53 23 55 24 58 28 63
REMARK H PARENT 11 2 11 3 5 9 6 12 34 15 8 17 9 18 3 20 2 22 2 23 1 25 1 26
REMARK H PARENT 1 27 12 29 12 30 14 35 33 37 16 39 19 44 30 50 21 54 22 56
REMARK H PARENT 22 57 23 59 23 60 24 61 24 62 28 64 28 65
REMARK Flexibility Score: inf
ROOT
ATOM      1  C   UNL     1     -47.590  33.887  26.520  1.00  0.00    -0.024 C 
ATOM      2  H   UNL     1     -48.651  34.136  26.650  1.00  0.00     0.032 H 
ATOM      3  H   UNL     1     -47.209  33.666  27.525  1.00  0.00     0.032 H 
ENDROOT
BRANCH   1   4
ATOM      4  C   UNL     1     -47.498  32.649  25.657  1.00  0.00    -0.046 A 
ATOM      5  C   UNL     1     -49.250  28.379  24.434  1.00  0.00     0.126 A 
ATOM      6  C   UNL     1     -48.323  28.244  23.407  1.00  0.00    -0.019 A 
ATOM      7  N   UNL     1     -49.267  29.467  25.230  1.00  0.00    -0.231 NA
ATOM      8  C   UNL     1     -47.401  29.260  23.181  1.00  0.00    -0.049 A 
ATOM      9  H   UNL     1     -48.312  27.353  22.789  1.00  0.00     0.066 H 
ATOM     10  C   UNL     1     -48.372  30.452  25.023  1.00  0.00     0.073 A 
ATOM     11  C   UNL     1     -47.413  30.394  23.995  1.00  0.00     0.000 A 
ATOM     12  H   UNL     1     -46.680  29.158  22.374  1.00  0.00     0.063 H 
ATOM     13  C   UNL     1     -48.389  31.578  25.839  1.00  0.00    -0.032 A 
ATOM     14  C   UNL     1     -46.506  31.450  23.806  1.00  0.00    -0.053 A 
ATOM     15  H   UNL     1     -49.135  31.622  26.629  1.00  0.00     0.065 H 
ATOM     16  C   UNL     1     -46.551  32.570  24.633  1.00  0.00    -0.058 A 
ATOM     17  H   UNL     1     -45.769  31.409  23.009  1.00  0.00     0.063 H 
ATOM     18  H   UNL     1     -45.856  33.388  24.456  1.00  0.00     0.063 H 
BRANCH   5  19
ATOM     19  N   UNL     1     -50.160  27.326  24.635  1.00  0.00    -0.370 N 
ATOM     20  H   UNL     1     -51.087  27.647  24.366  1.00  0.00     0.162 HD
BRANCH  19  21
ATOM     21  C   UNL     1     -50.162  26.723  25.965  1.00  0.00     0.013 C 
ATOM     22  H   UNL     1     -51.052  26.087  26.039  1.00  0.00     0.049 H 
ATOM     23  H   UNL     1     -50.256  27.471  26.762  1.00  0.00     0.049 H 
BRANCH  21  24
ATOM     24  C   UNL     1     -48.941  25.840  26.171  1.00  0.00    -0.048 C 
ATOM     25  H   UNL     1     -48.105  26.419  26.579  1.00  0.00     0.025 H 
ATOM     26  H   UNL     1     -48.622  25.407  25.218  1.00  0.00     0.025 H 
ATOM     27  H   UNL     1     -49.144  25.018  26.863  1.00  0.00     0.025 H 
ENDBRANCH  21  24
ENDBRANCH  19  21
ENDBRANCH   5  19
ENDBRANCH   1   4
BRANCH   1  28
ATOM     28  C   UNL     1     -46.855  35.108  25.943  1.00  0.00    -0.022 C 
ATOM     29  H   UNL     1     -47.404  35.471  25.066  1.00  0.00     0.032 H 
ATOM     30  H   UNL     1     -45.864  34.819  25.572  1.00  0.00     0.032 H 
BRANCH  28  31
ATOM     31  C   UNL     1     -46.709  36.240  26.928  1.00  0.00    -0.027 A 
ATOM     32  C   UNL     1     -46.570  36.011  28.289  1.00  0.00     0.030 A 
ATOM     33  C   UNL     1     -46.660  37.569  26.486  1.00  0.00    -0.032 A 
ATOM     34  N   UNL     1     -46.394  36.992  29.199  1.00  0.00    -0.262 NA
ATOM     35  H   UNL     1     -46.592  35.006  28.700  1.00  0.00     0.084 H 
ATOM     36  C   UNL     1     -46.453  38.616  27.387  1.00  0.00     0.066 A 
ATOM     37  H   UNL     1     -46.779  37.744  25.422  1.00  0.00     0.065 H 
ATOM     38  C   UNL     1     -46.336  38.264  28.729  1.00  0.00     0.051 A 
ATOM     39  H   UNL     1     -46.166  38.987  29.518  1.00  0.00     0.086 H 
BRANCH  36  40
ATOM     40  N   UNL     1     -46.343  39.980  26.962  1.00  0.00    -0.299 N 
ATOM     41  C   UNL     1     -45.155  40.629  26.655  1.00  0.00     0.018 A 
ATOM     42  C   UNL     1     -47.373  40.898  26.755  1.00  0.00     0.150 A 
ATOM     43  C   UNL     1     -45.401  41.936  26.271  1.00  0.00     0.012 A 
ATOM     44  H   UNL     1     -44.205  40.123  26.743  1.00  0.00     0.083 H 
ATOM     45  C   UNL     1     -46.822  42.100  26.320  1.00  0.00     0.067 A 
ATOM     46  N   UNL     1     -48.691  40.675  26.915  1.00  0.00    -0.218 NA
ATOM     47  C   UNL     1     -47.721  43.144  26.038  1.00  0.00     0.136 A 
ATOM     48  C   UNL     1     -49.448  41.734  26.613  1.00  0.00     0.120 A 
ATOM     49  N   UNL     1     -49.042  42.942  26.195  1.00  0.00    -0.219 NA
ATOM     50  H   UNL     1     -50.520  41.601  26.726  1.00  0.00     0.106 H 
BRANCH  43  51
ATOM     51  C   UNL     1     -44.406  42.974  25.843  1.00  0.00     0.085 C 
ATOM     52  C   UNL     1     -43.945  42.886  24.392  1.00  0.00    -0.020 C 
ATOM     53  O   UNL     1     -43.196  42.917  26.639  1.00  0.00    -0.373 OA
ATOM     54  H   UNL     1     -44.844  43.966  26.021  1.00  0.00     0.066 H 
ATOM     55  C   UNL     1     -42.601  43.567  24.446  1.00  0.00    -0.027 C 
ATOM     56  H   UNL     1     -44.643  43.359  23.695  1.00  0.00     0.030 H 
ATOM     57  H   UNL     1     -43.803  41.844  24.077  1.00  0.00     0.030 H 
ATOM     58  C   UNL     1     -42.066  43.071  25.769  1.00  0.00     0.048 C 
ATOM     59  H   UNL     1     -42.737  44.655  24.478  1.00  0.00     0.029 H 
ATOM     60  H   UNL     1     -41.949  43.324  23.604  1.00  0.00     0.029 H 
ATOM     61  H   UNL     1     -41.348  43.763  26.219  1.00  0.00     0.057 H 
ATOM     62  H   UNL     1     -41.589  42.091  25.665  1.00  0.00     0.057 H 
ENDBRANCH  43  51
BRANCH  47  63
ATOM     63  N   UNL     1     -47.324  44.407  25.611  1.00  0.00    -0.383 N 
ATOM     64  H   UNL     1     -46.786  44.331  24.757  1.00  0.00     0.158 HD
ATOM     65  H   UNL     1     -48.104  45.065  25.580  1.00  0.00     0.158 HD
ENDBRANCH  47  63
ENDBRANCH  36  40
ENDBRANCH  28  31
ENDBRANCH   1  28
TORSDOF 9
ENDMDL
MODEL 5
REMARK VINA RESULT:      -9.1      3.293     12.150
REMARK SMILES CCNc1ccc2ccc(CCc3cncc(-n4cc([C@@H]5CCCO5)c5c(N)ncnc54)c3)cc2n1
REMARK SMILES IDX 11 1 10 4 4 5 5 6 36 7 6 8 35 10 7 11 34 13 8 14 9 16 3 19
REMARK SMILES IDX 2 21 1 24 12 28 13 31 14 32 33 33 15 34 17 36 16 38 18 40
REMARK SMILES IDX 19 41 32 42 20 43 26 45 31 46 27 47 30 48 29 49 21 51 22 52
REMARK SMILES IDX 25 53 23 55 24 58 28 63
REMARK H PARENT 11 2 11 3 5 9 6 12 34 15 8 17 9 18 3 20 2 22 2 23 1 25 1 26
REMARK H PARENT 1 27 12 29 12 30 14 35 33 37 16 39 19 44 30 50 21 54 22 56
REMARK H PARENT 22 57 23 59 23 60 24 61 24 62 28 64 28 65
REMARK Flexibility Score: inf
ROOT
ATOM      1  C   UNL     1     -46.096  34.602  26.700  1.00  0.00    -0.024 C 
ATOM      2  H   UNL     1     -45.150  34.078  26.888  1.00  0.00     0.032 H 
ATOM      3  H   UNL     1     -45.862  35.394  25.978  1.00  0.00     0.032 H 
ENDROOT
BRANCH   1   4
ATOM      4  C   UNL     1     -47.065  33.618  26.082  1.00  0.00    -0.046 A 
ATOM      5  C   UNL     1     -47.787  29.555  23.680  1.00  0.00     0.126 A 
ATOM      6  C   UNL     1     -49.167  29.673  23.809  1.00  0.00    -0.019 A 
ATOM      7  N   UNL     1     -46.950  30.482  24.186  1.00  0.00    -0.231 NA
ATOM      8  C   UNL     1     -49.699  30.763  24.490  1.00  0.00    -0.049 A 
ATOM      9  H   UNL     1     -49.826  28.928  23.378  1.00  0.00     0.066 H 
ATOM     10  C   UNL     1     -47.458  31.546  24.841  1.00  0.00     0.073 A 
ATOM     11  C   UNL     1     -48.841  31.726  25.023  1.00  0.00     0.000 A 
ATOM     12  H   UNL     1     -50.776  30.853  24.597  1.00  0.00     0.063 H 
ATOM     13  C   UNL     1     -46.597  32.502  25.369  1.00  0.00    -0.032 A 
ATOM     14  C   UNL     1     -49.327  32.843  25.724  1.00  0.00    -0.053 A 
ATOM     15  H   UNL     1     -45.528  32.356  25.230  1.00  0.00     0.065 H 
ATOM     16  C   UNL     1     -48.442  33.782  26.250  1.00  0.00    -0.058 A 
ATOM     17  H   UNL     1     -50.394  32.980  25.871  1.00  0.00     0.063 H 
ATOM     18  H   UNL     1     -48.836  34.628  26.809  1.00  0.00     0.063 H 
BRANCH   5  19
ATOM     19  N   UNL     1     -47.290  28.444  22.977  1.00  0.00    -0.370 N 
ATOM     20  H   UNL     1     -48.078  27.879  22.672  1.00  0.00     0.162 HD
BRANCH  19  21
ATOM     21  C   UNL     1     -46.287  27.641  23.671  1.00  0.00     0.013 C 
ATOM     22  H   UNL     1     -45.550  28.331  24.100  1.00  0.00     0.049 H 
ATOM     23  H   UNL     1     -45.729  26.988  22.988  1.00  0.00     0.049 H 
BRANCH  21  24
ATOM     24  C   UNL     1     -46.906  26.851  24.814  1.00  0.00    -0.048 C 
ATOM     25  H   UNL     1     -47.972  27.083  24.916  1.00  0.00     0.025 H 
ATOM     26  H   UNL     1     -46.411  27.101  25.757  1.00  0.00     0.025 H 
ATOM     27  H   UNL     1     -46.815  25.772  24.661  1.00  0.00     0.025 H 
ENDBRANCH  21  24
ENDBRANCH  19  21
ENDBRANCH   5  19
ENDBRANCH   1   4
BRANCH   1  28
ATOM     28  C   UNL     1     -46.593  35.227  28.013  1.00  0.00    -0.022 C 
ATOM     29  H   UNL     1     -45.797  35.157  28.764  1.00  0.00     0.032 H 
ATOM     30  H   UNL     1     -47.433  34.649  28.420  1.00  0.00     0.032 H 
BRANCH  28  31
ATOM     31  C   UNL     1     -47.004  36.671  27.872  1.00  0.00    -0.027 A 
ATOM     32  C   UNL     1     -48.323  37.073  28.018  1.00  0.00     0.030 A 
ATOM     33  C   UNL     1     -46.045  37.665  27.636  1.00  0.00    -0.032 A 
ATOM     34  N   UNL     1     -48.726  38.358  27.942  1.00  0.00    -0.262 NA
ATOM     35  H   UNL     1     -49.117  36.356  28.210  1.00  0.00     0.084 H 
ATOM     36  C   UNL     1     -46.411  39.012  27.575  1.00  0.00     0.066 A 
ATOM     37  H   UNL     1     -45.016  37.345  27.513  1.00  0.00     0.065 H 
ATOM     38  C   UNL     1     -47.766  39.293  27.727  1.00  0.00     0.051 A 
ATOM     39  H   UNL     1     -48.168  40.299  27.707  1.00  0.00     0.086 H 
BRANCH  36  40
ATOM     40  N   UNL     1     -45.449  40.058  27.390  1.00  0.00    -0.299 N 
ATOM     41  C   UNL     1     -45.514  41.042  26.414  1.00  0.00     0.018 A 
ATOM     42  C   UNL     1     -44.298  40.305  28.141  1.00  0.00     0.150 A 
ATOM     43  C   UNL     1     -44.432  41.901  26.517  1.00  0.00     0.012 A 
ATOM     44  H   UNL     1     -46.321  41.062  25.696  1.00  0.00     0.083 H 
ATOM     45  C   UNL     1     -43.666  41.436  27.633  1.00  0.00     0.067 A 
ATOM     46  N   UNL     1     -43.866  39.600  29.203  1.00  0.00    -0.218 NA
ATOM     47  C   UNL     1     -42.492  41.852  28.285  1.00  0.00     0.136 A 
ATOM     48  C   UNL     1     -42.747  40.089  29.744  1.00  0.00     0.120 A 
ATOM     49  N   UNL     1     -42.041  41.159  29.346  1.00  0.00    -0.219 NA
ATOM     50  H   UNL     1     -42.360  39.554  30.606  1.00  0.00     0.106 H 
BRANCH  43  51
ATOM     51  C   UNL     1     -44.127  43.103  25.674  1.00  0.00     0.085 C 
ATOM     52  C   UNL     1     -45.043  43.315  24.473  1.00  0.00    -0.020 C 
ATOM     53  O   UNL     1     -42.783  43.050  25.132  1.00  0.00    -0.373 OA
ATOM     54  H   UNL     1     -44.164  43.993  26.316  1.00  0.00     0.066 H 
ATOM     55  C   UNL     1     -44.170  44.126  23.550  1.00  0.00    -0.027 C 
ATOM     56  H   UNL     1     -45.980  43.816  24.736  1.00  0.00     0.030 H 
ATOM     57  H   UNL     1     -45.293  42.365  23.983  1.00  0.00     0.030 H 
ATOM     58  C   UNL     1     -42.823  43.479  23.764  1.00  0.00     0.048 C 
ATOM     59  H   UNL     1     -44.144  45.170  23.885  1.00  0.00     0.029 H 
ATOM     60  H   UNL     1     -44.494  44.106  22.506  1.00  0.00     0.029 H 
ATOM     61  H   UNL     1     -41.990  44.161  23.568  1.00  0.00     0.057 H 
ATOM     62  H   UNL     1     -42.702  42.591  23.133  1.00  0.00     0.057 H 
ENDBRANCH  43  51
BRANCH  47  63
ATOM     63  N   UNL     1     -41.738  42.952  27.886  1.00  0.00    -0.383 N 
ATOM     64  H   UNL     1     -41.539  43.543  28.683  1.00  0.00     0.158 HD
ATOM     65  H   UNL     1     -40.927  42.680  27.329  1.00  0.00     0.158 HD
ENDBRANCH  47  63
ENDBRANCH  36  40
ENDBRANCH  28  31
ENDBRANCH   1  28
TORSDOF 9
ENDMDL
MODEL 6
REMARK VINA RESULT:      -9.1      4.209     12.686
REMARK SMILES CCNc1ccc2ccc(CCc3cncc(-n4cc([C@@H]5CCCO5)c5c(N)ncnc54)c3)cc2n1
REMARK SMILES IDX 11 1 10 4 4 5 5 6 36 7 6 8 35 10 7 11 34 13 8 14 9 16 3 19
REMARK SMILES IDX 2 21 1 24 12 28 13 31 14 32 33 33 15 34 17 36 16 38 18 40
REMARK SMILES IDX 19 41 32 42 20 43 26 45 31 46 27 47 30 48 29 49 21 51 22 52
REMARK SMILES IDX 25 53 23 55 24 58 28 63
REMARK H PARENT 11 2 11 3 5 9 6 12 34 15 8 17 9 18 3 20 2 22 2 23 1 25 1 26
REMARK H PARENT 1 27 12 29 12 30 14 35 33 37 16 39 19 44 30 50 21 54 22 56
REMARK H PARENT 22 57 23 59 23 60 24 61 24 62 28 64 28 65
REMARK Flexibility Score: inf
ROOT
ATOM      1  C   UNL     1     -46.171  35.847  26.855  1.00  0.00    -0.024 C 
ATOM      2  H   UNL     1     -45.874  35.630  27.888  1.00  0.00     0.032 H 
ATOM      3  H   UNL     1     -45.237  35.927  26.285  1.00  0.00     0.032 H 
ENDROOT
BRANCH   1   4
ATOM      4  C   UNL     1     -46.983  34.679  26.341  1.00  0.00    -0.046 A 
ATOM      5  C   UNL     1     -47.122  30.492  24.049  1.00  0.00     0.126 A 
ATOM      6  C   UNL     1     -48.479  30.344  24.312  1.00  0.00    -0.019 A 
ATOM      7  N   UNL     1     -46.438  31.577  24.465  1.00  0.00    -0.231 NA
ATOM      8  C   UNL     1     -49.147  31.327  25.035  1.00  0.00    -0.049 A 
ATOM      9  H   UNL     1     -49.018  29.474  23.953  1.00  0.00     0.066 H 
ATOM     10  C   UNL     1     -47.079  32.538  25.159  1.00  0.00     0.073 A 
ATOM     11  C   UNL     1     -48.447  32.451  25.475  1.00  0.00     0.000 A 
ATOM     12  H   UNL     1     -50.206  31.208  25.246  1.00  0.00     0.063 H 
ATOM     13  C   UNL     1     -46.376  33.656  25.593  1.00  0.00    -0.032 A 
ATOM     14  C   UNL     1     -49.073  33.470  26.212  1.00  0.00    -0.053 A 
ATOM     15  H   UNL     1     -45.317  33.717  25.351  1.00  0.00     0.065 H 
ATOM     16  C   UNL     1     -48.343  34.576  26.642  1.00  0.00    -0.058 A 
ATOM     17  H   UNL     1     -50.128  33.402  26.463  1.00  0.00     0.063 H 
ATOM     18  H   UNL     1     -48.840  35.344  27.232  1.00  0.00     0.063 H 
BRANCH   5  19
ATOM     19  N   UNL     1     -46.486  29.480  23.309  1.00  0.00    -0.370 N 
ATOM     20  H   UNL     1     -46.436  29.777  22.338  1.00  0.00     0.162 HD
BRANCH  19  21
ATOM     21  C   UNL     1     -47.051  28.139  23.436  1.00  0.00     0.013 C 
ATOM     22  H   UNL     1     -47.238  27.762  22.424  1.00  0.00     0.049 H 
ATOM     23  H   UNL     1     -48.023  28.142  23.944  1.00  0.00     0.049 H 
BRANCH  21  24
ATOM     24  C   UNL     1     -46.073  27.191  24.113  1.00  0.00    -0.048 C 
ATOM     25  H   UNL     1     -46.032  26.231  23.587  1.00  0.00     0.025 H 
ATOM     26  H   UNL     1     -46.383  27.002  25.145  1.00  0.00     0.025 H 
ATOM     27  H   UNL     1     -45.058  27.600  24.136  1.00  0.00     0.025 H 
ENDBRANCH  21  24
ENDBRANCH  19  21
ENDBRANCH   5  19
ENDBRANCH   1   4
BRANCH   1  28
ATOM     28  C   UNL     1     -46.917  37.190  26.818  1.00  0.00    -0.022 C 
ATOM     29  H   UNL     1     -47.799  37.125  27.466  1.00  0.00     0.032 H 
ATOM     30  H   UNL     1     -47.306  37.386  25.810  1.00  0.00     0.032 H 
BRANCH  28  31
ATOM     31  C   UNL     1     -46.072  38.357  27.263  1.00  0.00    -0.027 A 
ATOM     32  C   UNL     1     -45.146  38.240  28.288  1.00  0.00     0.030 A 
ATOM     33  C   UNL     1     -46.165  39.595  26.612  1.00  0.00    -0.032 A 
ATOM     34  N   UNL     1     -44.341  39.246  28.688  1.00  0.00    -0.262 NA
ATOM     35  H   UNL     1     -45.016  37.308  28.831  1.00  0.00     0.084 H 
ATOM     36  C   UNL     1     -45.334  40.657  26.973  1.00  0.00     0.066 A 
ATOM     37  H   UNL     1     -46.898  39.685  25.817  1.00  0.00     0.065 H 
ATOM     38  C   UNL     1     -44.450  40.424  28.023  1.00  0.00     0.051 A 
ATOM     39  H   UNL     1     -43.752  41.168  28.386  1.00  0.00     0.086 H 
BRANCH  36  40
ATOM     40  N   UNL     1     -45.365  41.918  26.292  1.00  0.00    -0.299 N 
ATOM     41  C   UNL     1     -46.515  42.614  25.946  1.00  0.00     0.018 A 
ATOM     42  C   UNL     1     -44.282  42.689  25.868  1.00  0.00     0.150 A 
ATOM     43  C   UNL     1     -46.193  43.798  25.306  1.00  0.00     0.012 A 
ATOM     44  H   UNL     1     -47.495  42.214  26.166  1.00  0.00     0.083 H 
ATOM     45  C   UNL     1     -44.763  43.851  25.273  1.00  0.00     0.067 A 
ATOM     46  N   UNL     1     -42.977  42.394  26.024  1.00  0.00    -0.218 NA
ATOM     47  C   UNL     1     -43.804  44.766  24.803  1.00  0.00     0.136 A 
ATOM     48  C   UNL     1     -42.160  43.336  25.546  1.00  0.00     0.120 A 
ATOM     49  N   UNL     1     -42.496  44.488  24.945  1.00  0.00    -0.219 NA
ATOM     50  H   UNL     1     -41.096  43.143  25.650  1.00  0.00     0.106 H 
BRANCH  43  51
ATOM     51  C   UNL     1     -47.129  44.849  24.785  1.00  0.00     0.085 C 
ATOM     52  C   UNL     1     -48.615  44.527  24.910  1.00  0.00    -0.020 C 
ATOM     53  O   UNL     1     -46.906  45.113  23.377  1.00  0.00    -0.373 OA
ATOM     54  H   UNL     1     -46.919  45.789  25.312  1.00  0.00     0.066 H 
ATOM     55  C   UNL     1     -49.214  45.375  23.817  1.00  0.00    -0.027 C 
ATOM     56  H   UNL     1     -49.016  44.752  25.903  1.00  0.00     0.030 H 
ATOM     57  H   UNL     1     -48.818  43.470  24.693  1.00  0.00     0.030 H 
ATOM     58  C   UNL     1     -48.178  45.234  22.726  1.00  0.00     0.048 C 
ATOM     59  H   UNL     1     -49.273  46.419  24.147  1.00  0.00     0.029 H 
ATOM     60  H   UNL     1     -50.210  45.052  23.505  1.00  0.00     0.029 H 
ATOM     61  H   UNL     1     -48.163  46.091  22.046  1.00  0.00     0.057 H 
ATOM     62  H   UNL     1     -48.340  44.324  22.138  1.00  0.00     0.057 H 
ENDBRANCH  43  51
BRANCH  47  63
ATOM     63  N   UNL     1     -44.128  45.963  24.171  1.00  0.00    -0.383 N 
ATOM     64  H   UNL     1     -44.787  46.485  24.734  1.00  0.00     0.158 HD
ATOM     65  H   UNL     1     -43.297  46.479  23.877  1.00  0.00     0.158 HD
ENDBRANCH  47  63
ENDBRANCH  36  40
ENDBRANCH  28  31
ENDBRANCH   1  28
TORSDOF 9
ENDMDL
MODEL 7
REMARK VINA RESULT:      -9.0      2.112      2.809
REMARK SMILES CCNc1ccc2ccc(CCc3cncc(-n4cc([C@@H]5CCCO5)c5c(N)ncnc54)c3)cc2n1
REMARK SMILES IDX 11 1 10 4 4 5 5 6 36 7 6 8 35 10 7 11 34 13 8 14 9 16 3 19
REMARK SMILES IDX 2 21 1 24 12 28 13 31 14 32 33 33 15 34 17 36 16 38 18 40
REMARK SMILES IDX 19 41 32 42 20 43 26 45 31 46 27 47 30 48 29 49 21 51 22 52
REMARK SMILES IDX 25 53 23 55 24 58 28 63
REMARK H PARENT 11 2 11 3 5 9 6 12 34 15 8 17 9 18 3 20 2 22 2 23 1 25 1 26
REMARK H PARENT 1 27 12 29 12 30 14 35 33 37 16 39 19 44 30 50 21 54 22 56
REMARK H PARENT 22 57 23 59 23 60 24 61 24 62 28 64 28 65
REMARK Flexibility Score: inf
ROOT
ATOM      1  C   UNL     1     -48.416  36.546  28.307  1.00  0.00    -0.024 C 
ATOM      2  H   UNL     1     -47.425  36.127  28.522  1.00  0.00     0.032 H 
ATOM      3  H   UNL     1     -48.984  36.467  29.242  1.00  0.00     0.032 H 
ENDROOT
BRANCH   1   4
ATOM      4  C   UNL     1     -48.243  38.002  27.937  1.00  0.00    -0.046 A 
ATOM      5  C   UNL     1     -45.549  41.431  25.992  1.00  0.00     0.126 A 
ATOM      6  C   UNL     1     -46.556  42.376  26.158  1.00  0.00    -0.019 A 
ATOM      7  N   UNL     1     -45.709  40.154  26.390  1.00  0.00    -0.231 NA
ATOM      8  C   UNL     1     -47.763  41.995  26.733  1.00  0.00    -0.049 A 
ATOM      9  H   UNL     1     -46.402  43.405  25.849  1.00  0.00     0.066 H 
ATOM     10  C   UNL     1     -46.873  39.778  26.956  1.00  0.00     0.073 A 
ATOM     11  C   UNL     1     -47.942  40.673  27.144  1.00  0.00     0.000 A 
ATOM     12  H   UNL     1     -48.552  42.731  26.857  1.00  0.00     0.063 H 
ATOM     13  C   UNL     1     -47.044  38.460  27.364  1.00  0.00    -0.032 A 
ATOM     14  C   UNL     1     -49.143  40.236  27.726  1.00  0.00    -0.053 A 
ATOM     15  H   UNL     1     -46.217  37.769  27.213  1.00  0.00     0.065 H 
ATOM     16  C   UNL     1     -49.291  38.907  28.118  1.00  0.00    -0.058 A 
ATOM     17  H   UNL     1     -49.972  40.925  27.866  1.00  0.00     0.063 H 
ATOM     18  H   UNL     1     -50.237  38.581  28.546  1.00  0.00     0.063 H 
BRANCH   5  19
ATOM     19  N   UNL     1     -44.341  41.859  25.414  1.00  0.00    -0.370 N 
ATOM     20  H   UNL     1     -43.868  41.049  25.022  1.00  0.00     0.162 HD
BRANCH  19  21
ATOM     21  C   UNL     1     -43.456  42.637  26.277  1.00  0.00     0.013 C 
ATOM     22  H   UNL     1     -44.084  43.292  26.891  1.00  0.00     0.049 H 
ATOM     23  H   UNL     1     -42.793  43.299  25.707  1.00  0.00     0.049 H 
BRANCH  21  24
ATOM     24  C   UNL     1     -42.668  41.734  27.214  1.00  0.00    -0.048 C 
ATOM     25  H   UNL     1     -43.253  40.849  27.487  1.00  0.00     0.025 H 
ATOM     26  H   UNL     1     -42.416  42.272  28.133  1.00  0.00     0.025 H 
ATOM     27  H   UNL     1     -41.735  41.389  26.760  1.00  0.00     0.025 H 
ENDBRANCH  21  24
ENDBRANCH  19  21
ENDBRANCH   5  19
ENDBRANCH   1   4
BRANCH   1  28
ATOM     28  C   UNL     1     -49.092  35.700  27.216  1.00  0.00    -0.022 C 
ATOM     29  H   UNL     1     -49.539  36.371  26.472  1.00  0.00     0.032 H 
ATOM     30  H   UNL     1     -49.929  35.129  27.637  1.00  0.00     0.032 H 
BRANCH  28  31
ATOM     31  C   UNL     1     -48.147  34.757  26.515  1.00  0.00    -0.027 A 
ATOM     32  C   UNL     1     -46.835  35.111  26.238  1.00  0.00     0.030 A 
ATOM     33  C   UNL     1     -48.558  33.464  26.165  1.00  0.00    -0.032 A 
ATOM     34  N   UNL     1     -45.944  34.283  25.653  1.00  0.00    -0.262 NA
ATOM     35  H   UNL     1     -46.447  36.095  26.489  1.00  0.00     0.084 H 
ATOM     36  C   UNL     1     -47.664  32.563  25.581  1.00  0.00     0.066 A 
ATOM     37  H   UNL     1     -49.587  33.195  26.375  1.00  0.00     0.065 H 
ATOM     38  C   UNL     1     -46.376  33.034  25.343  1.00  0.00     0.051 A 
ATOM     39  H   UNL     1     -45.595  32.426  24.903  1.00  0.00     0.086 H 
BRANCH  36  40
ATOM     40  N   UNL     1     -48.036  31.217  25.262  1.00  0.00    -0.299 N 
ATOM     41  C   UNL     1     -48.314  30.221  26.188  1.00  0.00     0.018 A 
ATOM     42  C   UNL     1     -48.211  30.654  23.996  1.00  0.00     0.150 A 
ATOM     43  C   UNL     1     -48.649  29.040  25.547  1.00  0.00     0.012 A 
ATOM     44  H   UNL     1     -48.243  30.412  27.249  1.00  0.00     0.083 H 
ATOM     45  C   UNL     1     -48.598  29.326  24.145  1.00  0.00     0.067 A 
ATOM     46  N   UNL     1     -48.064  31.280  22.813  1.00  0.00    -0.218 NA
ATOM     47  C   UNL     1     -48.842  28.601  22.965  1.00  0.00     0.136 A 
ATOM     48  C   UNL     1     -48.327  30.496  21.763  1.00  0.00     0.120 A 
ATOM     49  N   UNL     1     -48.697  29.206  21.773  1.00  0.00    -0.219 NA
ATOM     50  H   UNL     1     -48.223  30.957  20.786  1.00  0.00     0.106 H 
BRANCH  43  51
ATOM     51  C   UNL     1     -49.033  27.730  26.169  1.00  0.00     0.085 C 
ATOM     52  C   UNL     1     -48.021  26.601  26.002  1.00  0.00    -0.020 C 
ATOM     53  O   UNL     1     -50.276  27.222  25.625  1.00  0.00    -0.373 OA
ATOM     54  H   UNL     1     -49.211  27.897  27.240  1.00  0.00     0.066 H 
ATOM     55  C   UNL     1     -48.891  25.377  26.136  1.00  0.00    -0.027 C 
ATOM     56  H   UNL     1     -47.213  26.642  26.737  1.00  0.00     0.030 H 
ATOM     57  H   UNL     1     -47.571  26.608  25.000  1.00  0.00     0.030 H 
ATOM     58  C   UNL     1     -50.138  25.812  25.403  1.00  0.00     0.048 C 
ATOM     59  H   UNL     1     -49.119  25.198  27.194  1.00  0.00     0.029 H 
ATOM     60  H   UNL     1     -48.445  24.471  25.720  1.00  0.00     0.029 H 
ATOM     61  H   UNL     1     -51.036  25.295  25.755  1.00  0.00     0.057 H 
ATOM     62  H   UNL     1     -50.043  25.652  24.324  1.00  0.00     0.057 H 
ENDBRANCH  43  51
BRANCH  47  63
ATOM     63  N   UNL     1     -49.219  27.261  22.949  1.00  0.00    -0.383 N 
ATOM     64  H   UNL     1     -49.541  27.003  22.025  1.00  0.00     0.158 HD
ATOM     65  H   UNL     1     -48.500  26.655  23.348  1.00  0.00     0.158 HD
ENDBRANCH  47  63
ENDBRANCH  36  40
ENDBRANCH  28  31
ENDBRANCH   1  28
TORSDOF 9
ENDMDL
