MODEL 1
REMARK VINA RESULT:      -9.6      0.000      0.000
REMARK SMILES COc1cnc(C#N)c(-c2cn(Cc3ccc4cc(CNC[C@]56C[C@](F)(C5)C6)[nH]c4c3)nn2)c1
REMARK SMILES IDX 14 1 15 2 16 3 17 4 18 5 19 6 29 7 30 8 31 9 13 15 12 18
REMARK SMILES IDX 10 19 11 20 33 21 32 23 9 24 3 25 4 26 34 27 5 28 6 31 2 32
REMARK SMILES IDX 1 33 7 37 8 38 20 39 21 42 22 44 23 47 27 48 24 49 28 50
REMARK SMILES IDX 25 51 26 58
REMARK H PARENT 15 10 16 11 18 12 29 13 31 14 13 16 13 17 11 22 4 29 34 30
REMARK H PARENT 1 34 1 35 1 36 20 40 20 41 21 43 22 45 22 46 27 52 27 53 24 54
REMARK H PARENT 24 55 28 56 28 57
REMARK Flexibility Score: inf
ROOT
ATOM      1  C   UNL     1     -46.518  37.117  28.204  1.00  0.00    -0.024 A 
ATOM      2  C   UNL     1     -47.911  37.022  28.083  1.00  0.00    -0.056 A 
ATOM      3  C   UNL     1     -48.506  35.984  27.353  1.00  0.00    -0.052 A 
ATOM      4  C   UNL     1     -47.690  35.022  26.730  1.00  0.00    -0.000 A 
ATOM      5  C   UNL     1     -47.948  33.868  25.939  1.00  0.00    -0.032 A 
ATOM      6  C   UNL     1     -46.735  33.303  25.600  1.00  0.00     0.030 A 
ATOM      7  N   UNL     1     -45.753  34.088  26.160  1.00  0.00    -0.357 N 
ATOM      8  C   UNL     1     -46.306  35.136  26.854  1.00  0.00     0.046 A 
ATOM      9  C   UNL     1     -45.693  36.165  27.578  1.00  0.00    -0.033 A 
ATOM     10  H   UNL     1     -48.559  37.758  28.557  1.00  0.00     0.063 H 
ATOM     11  H   UNL     1     -49.586  35.924  27.269  1.00  0.00     0.063 H 
ATOM     12  H   UNL     1     -48.920  33.494  25.649  1.00  0.00     0.065 H 
ATOM     13  H   UNL     1     -44.764  33.882  26.087  1.00  0.00     0.166 HD
ATOM     14  H   UNL     1     -44.609  36.219  27.655  1.00  0.00     0.065 H 
ENDROOT
BRANCH   1  15
ATOM     15  C   UNL     1     -45.897  38.239  29.003  1.00  0.00     0.068 C 
ATOM     16  H   UNL     1     -44.913  37.960  29.397  1.00  0.00     0.057 H 
ATOM     17  H   UNL     1     -46.537  38.495  29.855  1.00  0.00     0.057 H 
BRANCH  15  18
ATOM     18  N   UNL     1     -45.701  39.428  28.192  1.00  0.00    -0.247 N 
ATOM     19  C   UNL     1     -44.928  41.050  27.001  1.00  0.00     0.116 A 
ATOM     20  C   UNL     1     -44.542  39.893  27.638  1.00  0.00     0.054 A 
ATOM     21  N   UNL     1     -46.265  41.252  27.193  1.00  0.00    -0.130 NA
ATOM     22  H   UNL     1     -43.600  39.375  27.738  1.00  0.00     0.086 H 
ATOM     23  N   UNL     1     -46.733  40.251  27.926  1.00  0.00    -0.066 NA
BRANCH  19  24
ATOM     24  C   UNL     1     -44.080  41.924  26.224  1.00  0.00     0.044 A 
ATOM     25  C   UNL     1     -43.647  43.111  24.151  1.00  0.00     0.137 A 
ATOM     26  C   UNL     1     -42.494  43.603  24.752  1.00  0.00     0.070 A 
ATOM     27  C   UNL     1     -44.446  42.256  24.906  1.00  0.00    -0.006 A 
ATOM     28  N   UNL     1     -42.101  43.309  26.013  1.00  0.00    -0.241 NA
ATOM     29  H   UNL     1     -41.832  44.275  24.209  1.00  0.00     0.088 H 
ATOM     30  H   UNL     1     -45.365  41.849  24.499  1.00  0.00     0.067 H 
ATOM     31  C   UNL     1     -42.904  42.477  26.734  1.00  0.00     0.150 A 
BRANCH  25  32
ATOM     32  O   UNL     1     -43.877  43.521  22.871  1.00  0.00    -0.495 OA
BRANCH  32  33
ATOM     33  C   UNL     1     -43.232  44.717  22.450  1.00  0.00     0.078 C 
ATOM     34  H   UNL     1     -43.816  45.140  21.627  1.00  0.00     0.067 H 
ATOM     35  H   UNL     1     -42.225  44.511  22.073  1.00  0.00     0.067 H 
ATOM     36  H   UNL     1     -43.209  45.457  23.257  1.00  0.00     0.067 H 
ENDBRANCH  32  33
ENDBRANCH  25  32
BRANCH  31  37
ATOM     37  C   UNL     1     -42.398  42.169  28.047  1.00  0.00     0.120 C 
ATOM     38  N   UNL     1     -42.020  41.912  29.116  1.00  0.00    -0.191 NA
ENDBRANCH  31  37
ENDBRANCH  19  24
ENDBRANCH  15  18
ENDBRANCH   1  15
BRANCH   6  39
ATOM     39  C   UNL     1     -46.400  32.103  24.787  1.00  0.00     0.036 C 
ATOM     40  H   UNL     1     -46.306  32.357  23.724  1.00  0.00     0.049 H 
ATOM     41  H   UNL     1     -45.418  31.741  25.111  1.00  0.00     0.049 H 
BRANCH  39  42
ATOM     42  N   UNL     1     -47.376  31.028  24.990  1.00  0.00    -0.311 NA
ATOM     43  H   UNL     1     -47.042  30.451  25.762  1.00  0.00     0.123 HD
BRANCH  42  44
ATOM     44  C   UNL     1     -47.500  30.179  23.800  1.00  0.00     0.002 C 
ATOM     45  H   UNL     1     -46.519  30.050  23.329  1.00  0.00     0.043 H 
ATOM     46  H   UNL     1     -48.164  30.639  23.060  1.00  0.00     0.043 H 
BRANCH  44  47
ATOM     47  C   UNL     1     -48.055  28.859  24.194  1.00  0.00    -0.008 C 
ATOM     48  C   UNL     1     -48.833  28.421  25.506  1.00  0.00    -0.012 C 
ATOM     49  C   UNL     1     -47.263  27.502  24.402  1.00  0.00    -0.012 C 
ATOM     50  C   UNL     1     -49.113  27.942  23.447  1.00  0.00    -0.012 C 
ATOM     51  C   UNL     1     -48.731  27.105  24.693  1.00  0.00     0.112 C 
ATOM     52  H   UNL     1     -49.833  28.841  25.651  1.00  0.00     0.031 H 
ATOM     53  H   UNL     1     -48.278  28.470  26.448  1.00  0.00     0.031 H 
ATOM     54  H   UNL     1     -46.793  27.062  23.516  1.00  0.00     0.031 H 
ATOM     55  H   UNL     1     -46.559  27.463  25.240  1.00  0.00     0.031 H 
ATOM     56  H   UNL     1     -50.140  28.316  23.392  1.00  0.00     0.031 H 
ATOM     57  H   UNL     1     -48.819  27.545  22.471  1.00  0.00     0.031 H 
ATOM     58  F   UNL     1     -49.188  25.912  25.035  1.00  0.00    -0.244 F 
ENDBRANCH  44  47
ENDBRANCH  42  44
ENDBRANCH  39  42
ENDBRANCH   6  39
TORSDOF 10
ENDMDL
MODEL 2
REMARK VINA RESULT:      -9.3      3.209      5.855
REMARK SMILES COc1cnc(C#N)c(-c2cn(Cc3ccc4cc(CNC[C@]56C[C@](F)(C5)C6)[nH]c4c3)nn2)c1
REMARK SMILES IDX 14 1 15 2 16 3 17 4 18 5 19 6 29 7 30 8 31 9 13 15 12 18
REMARK SMILES IDX 10 19 11 20 33 21 32 23 9 24 3 25 4 26 34 27 5 28 6 31 2 32
REMARK SMILES IDX 1 33 7 37 8 38 20 39 21 42 22 44 23 47 27 48 24 49 28 50
REMARK SMILES IDX 25 51 26 58
REMARK H PARENT 15 10 16 11 18 12 29 13 31 14 13 16 13 17 11 22 4 29 34 30
REMARK H PARENT 1 34 1 35 1 36 20 40 20 41 21 43 22 45 22 46 27 52 27 53 24 54
REMARK H PARENT 24 55 28 56 28 57
REMARK Flexibility Score: inf
ROOT
ATOM      1  C   UNL     1     -47.350  32.238  25.043  1.00  0.00    -0.024 A 
ATOM      2  C   UNL     1     -48.610  32.771  25.346  1.00  0.00    -0.056 A 
ATOM      3  C   UNL     1     -49.785  32.063  25.058  1.00  0.00    -0.052 A 
ATOM      4  C   UNL     1     -49.697  30.796  24.452  1.00  0.00    -0.000 A 
ATOM      5  C   UNL     1     -50.654  29.829  24.036  1.00  0.00    -0.032 A 
ATOM      6  C   UNL     1     -49.972  28.757  23.498  1.00  0.00     0.030 A 
ATOM      7  N   UNL     1     -48.630  29.054  23.572  1.00  0.00    -0.357 N 
ATOM      8  C   UNL     1     -48.437  30.284  24.151  1.00  0.00     0.046 A 
ATOM      9  C   UNL     1     -47.251  30.975  24.430  1.00  0.00    -0.033 A 
ATOM     10  H   UNL     1     -48.698  33.750  25.814  1.00  0.00     0.063 H 
ATOM     11  H   UNL     1     -50.754  32.489  25.298  1.00  0.00     0.063 H 
ATOM     12  H   UNL     1     -51.729  29.914  24.123  1.00  0.00     0.065 H 
ATOM     13  H   UNL     1     -47.901  28.421  23.268  1.00  0.00     0.166 HD
ATOM     14  H   UNL     1     -46.285  30.541  24.182  1.00  0.00     0.065 H 
ENDROOT
BRANCH   1  15
ATOM     15  C   UNL     1     -46.095  33.013  25.370  1.00  0.00     0.068 C 
ATOM     16  H   UNL     1     -45.654  33.466  24.476  1.00  0.00     0.057 H 
ATOM     17  H   UNL     1     -45.345  32.348  25.812  1.00  0.00     0.057 H 
BRANCH  15  18
ATOM     18  N   UNL     1     -46.365  34.097  26.299  1.00  0.00    -0.247 N 
ATOM     19  C   UNL     1     -46.757  35.987  27.259  1.00  0.00     0.116 A 
ATOM     20  C   UNL     1     -46.575  35.418  26.020  1.00  0.00     0.054 A 
ATOM     21  N   UNL     1     -46.642  35.026  28.224  1.00  0.00    -0.130 NA
ATOM     22  H   UNL     1     -46.584  35.806  25.012  1.00  0.00     0.086 H 
ATOM     23  N   UNL     1     -46.401  33.867  27.624  1.00  0.00    -0.066 NA
BRANCH  19  24
ATOM     24  C   UNL     1     -47.048  37.375  27.530  1.00  0.00     0.044 A 
ATOM     25  C   UNL     1     -46.283  39.672  27.719  1.00  0.00     0.137 A 
ATOM     26  C   UNL     1     -47.597  40.015  28.013  1.00  0.00     0.070 A 
ATOM     27  C   UNL     1     -46.013  38.327  27.477  1.00  0.00    -0.006 A 
ATOM     28  N   UNL     1     -48.624  39.135  28.078  1.00  0.00    -0.241 NA
ATOM     29  H   UNL     1     -47.867  41.051  28.210  1.00  0.00     0.088 H 
ATOM     30  H   UNL     1     -45.009  37.996  27.229  1.00  0.00     0.067 H 
ATOM     31  C   UNL     1     -48.335  37.827  27.829  1.00  0.00     0.150 A 
BRANCH  25  32
ATOM     32  O   UNL     1     -45.386  40.698  27.698  1.00  0.00    -0.495 OA
BRANCH  32  33
ATOM     33  C   UNL     1     -44.016  40.362  27.877  1.00  0.00     0.078 C 
ATOM     34  H   UNL     1     -43.962  39.298  28.124  1.00  0.00     0.067 H 
ATOM     35  H   UNL     1     -43.578  40.921  28.711  1.00  0.00     0.067 H 
ATOM     36  H   UNL     1     -43.447  40.521  26.954  1.00  0.00     0.067 H 
ENDBRANCH  32  33
ENDBRANCH  25  32
BRANCH  31  37
ATOM     37  C   UNL     1     -49.464  36.943  27.966  1.00  0.00     0.120 C 
ATOM     38  N   UNL     1     -50.355  36.206  28.087  1.00  0.00    -0.191 NA
ENDBRANCH  31  37
ENDBRANCH  19  24
ENDBRANCH  15  18
ENDBRANCH   1  15
BRANCH   6  39
ATOM     39  C   UNL     1     -50.454  27.482  22.903  1.00  0.00     0.036 C 
ATOM     40  H   UNL     1     -51.547  27.412  22.944  1.00  0.00     0.049 H 
ATOM     41  H   UNL     1     -50.180  27.482  21.841  1.00  0.00     0.049 H 
BRANCH  39  42
ATOM     42  N   UNL     1     -49.825  26.321  23.539  1.00  0.00    -0.311 NA
ATOM     43  H   UNL     1     -50.217  25.483  23.107  1.00  0.00     0.123 HD
BRANCH  42  44
ATOM     44  C   UNL     1     -50.107  26.273  24.977  1.00  0.00     0.002 C 
ATOM     45  H   UNL     1     -50.695  25.379  25.214  1.00  0.00     0.043 H 
ATOM     46  H   UNL     1     -50.693  27.144  25.289  1.00  0.00     0.043 H 
BRANCH  44  47
ATOM     47  C   UNL     1     -48.826  26.255  25.729  1.00  0.00    -0.008 C 
ATOM     48  C   UNL     1     -48.303  27.204  26.888  1.00  0.00    -0.012 C 
ATOM     49  C   UNL     1     -47.362  26.422  25.147  1.00  0.00    -0.012 C 
ATOM     50  C   UNL     1     -48.179  25.096  26.597  1.00  0.00    -0.012 C 
ATOM     51  C   UNL     1     -47.121  26.226  26.664  1.00  0.00     0.112 C 
ATOM     52  H   UNL     1     -48.823  27.144  27.849  1.00  0.00     0.031 H 
ATOM     53  H   UNL     1     -48.137  28.254  26.629  1.00  0.00     0.031 H 
ATOM     54  H   UNL     1     -47.003  25.633  24.478  1.00  0.00     0.031 H 
ATOM     55  H   UNL     1     -47.106  27.399  24.722  1.00  0.00     0.031 H 
ATOM     56  H   UNL     1     -48.687  24.831  27.529  1.00  0.00     0.031 H 
ATOM     57  H   UNL     1     -47.898  24.181  26.066  1.00  0.00     0.031 H 
ATOM     58  F   UNL     1     -45.960  26.208  27.298  1.00  0.00    -0.244 F 
ENDBRANCH  44  47
ENDBRANCH  42  44
ENDBRANCH  39  42
ENDBRANCH   6  39
TORSDOF 10
ENDMDL
MODEL 3
REMARK VINA RESULT:      -9.1      2.248      3.399
REMARK SMILES COc1cnc(C#N)c(-c2cn(Cc3ccc4cc(CNC[C@]56C[C@](F)(C5)C6)[nH]c4c3)nn2)c1
REMARK SMILES IDX 14 1 15 2 16 3 17 4 18 5 19 6 29 7 30 8 31 9 13 15 12 18
REMARK SMILES IDX 10 19 11 20 33 21 32 23 9 24 3 25 4 26 34 27 5 28 6 31 2 32
REMARK SMILES IDX 1 33 7 37 8 38 20 39 21 42 22 44 23 47 27 48 24 49 28 50
REMARK SMILES IDX 25 51 26 58
REMARK H PARENT 15 10 16 11 18 12 29 13 31 14 13 16 13 17 11 22 4 29 34 30
REMARK H PARENT 1 34 1 35 1 36 20 40 20 41 21 43 22 45 22 46 27 52 27 53 24 54
REMARK H PARENT 24 55 28 56 28 57
REMARK Flexibility Score: inf
ROOT
ATOM      1  C   UNL     1     -47.569  36.069  27.332  1.00  0.00    -0.024 A 
ATOM      2  C   UNL     1     -46.251  35.688  27.043  1.00  0.00    -0.056 A 
ATOM      3  C   UNL     1     -45.969  34.449  26.452  1.00  0.00    -0.052 A 
ATOM      4  C   UNL     1     -47.026  33.574  26.144  1.00  0.00    -0.000 A 
ATOM      5  C   UNL     1     -47.100  32.280  25.555  1.00  0.00    -0.032 A 
ATOM      6  C   UNL     1     -48.429  31.911  25.504  1.00  0.00     0.030 A 
ATOM      7  N   UNL     1     -49.157  32.942  26.050  1.00  0.00    -0.357 N 
ATOM      8  C   UNL     1     -48.329  33.965  26.444  1.00  0.00     0.046 A 
ATOM      9  C   UNL     1     -48.633  35.197  27.035  1.00  0.00    -0.033 A 
ATOM     10  H   UNL     1     -45.420  36.351  27.276  1.00  0.00     0.063 H 
ATOM     11  H   UNL     1     -44.943  34.168  26.236  1.00  0.00     0.063 H 
ATOM     12  H   UNL     1     -46.266  31.685  25.208  1.00  0.00     0.065 H 
ATOM     13  H   UNL     1     -50.167  32.942  26.112  1.00  0.00     0.166 HD
ATOM     14  H   UNL     1     -49.663  35.470  27.251  1.00  0.00     0.065 H 
ENDROOT
BRANCH   1  15
ATOM     15  C   UNL     1     -47.853  37.413  27.961  1.00  0.00     0.068 C 
ATOM     16  H   UNL     1     -47.710  37.391  29.047  1.00  0.00     0.057 H 
ATOM     17  H   UNL     1     -48.891  37.709  27.767  1.00  0.00     0.057 H 
BRANCH  15  18
ATOM     18  N   UNL     1     -46.969  38.442  27.443  1.00  0.00    -0.247 N 
ATOM     19  C   UNL     1     -45.567  40.056  27.163  1.00  0.00     0.116 A 
ATOM     20  C   UNL     1     -46.149  39.284  28.141  1.00  0.00     0.054 A 
ATOM     21  N   UNL     1     -46.046  39.680  25.940  1.00  0.00    -0.130 NA
ATOM     22  H   UNL     1     -46.057  39.248  29.216  1.00  0.00     0.086 H 
ATOM     23  N   UNL     1     -46.907  38.688  26.121  1.00  0.00    -0.066 NA
BRANCH  19  24
ATOM     24  C   UNL     1     -44.582  41.094  27.363  1.00  0.00     0.044 A 
ATOM     25  C   UNL     1     -42.471  41.812  28.321  1.00  0.00     0.137 A 
ATOM     26  C   UNL     1     -42.695  43.045  27.723  1.00  0.00     0.070 A 
ATOM     27  C   UNL     1     -43.436  40.826  28.135  1.00  0.00    -0.006 A 
ATOM     28  N   UNL     1     -43.782  43.349  26.975  1.00  0.00    -0.241 NA
ATOM     29  H   UNL     1     -41.974  43.853  27.835  1.00  0.00     0.088 H 
ATOM     30  H   UNL     1     -43.314  39.838  28.565  1.00  0.00     0.067 H 
ATOM     31  C   UNL     1     -44.708  42.366  26.801  1.00  0.00     0.150 A 
BRANCH  25  32
ATOM     32  O   UNL     1     -41.316  41.694  29.037  1.00  0.00    -0.495 OA
BRANCH  32  33
ATOM     33  C   UNL     1     -41.359  40.882  30.204  1.00  0.00     0.078 C 
ATOM     34  H   UNL     1     -40.854  39.939  29.974  1.00  0.00     0.067 H 
ATOM     35  H   UNL     1     -42.391  40.647  30.484  1.00  0.00     0.067 H 
ATOM     36  H   UNL     1     -40.822  41.355  31.033  1.00  0.00     0.067 H 
ENDBRANCH  32  33
ENDBRANCH  25  32
BRANCH  31  37
ATOM     37  C   UNL     1     -45.859  42.775  26.038  1.00  0.00     0.120 C 
ATOM     38  N   UNL     1     -46.807  43.087  25.441  1.00  0.00    -0.191 NA
ENDBRANCH  31  37
ENDBRANCH  19  24
ENDBRANCH  15  18
ENDBRANCH   1  15
BRANCH   6  39
ATOM     39  C   UNL     1     -49.088  30.674  25.004  1.00  0.00     0.036 C 
ATOM     40  H   UNL     1     -50.180  30.771  25.021  1.00  0.00     0.049 H 
ATOM     41  H   UNL     1     -48.801  30.541  23.954  1.00  0.00     0.049 H 
BRANCH  39  42
ATOM     42  N   UNL     1     -48.651  29.493  25.753  1.00  0.00    -0.311 NA
ATOM     43  H   UNL     1     -47.638  29.552  25.858  1.00  0.00     0.123 HD
BRANCH  42  44
ATOM     44  C   UNL     1     -48.968  28.251  25.039  1.00  0.00     0.002 C 
ATOM     45  H   UNL     1     -48.631  28.322  23.998  1.00  0.00     0.043 H 
ATOM     46  H   UNL     1     -50.049  28.076  25.023  1.00  0.00     0.043 H 
BRANCH  44  47
ATOM     47  C   UNL     1     -48.301  27.110  25.715  1.00  0.00    -0.008 C 
ATOM     48  C   UNL     1     -46.966  26.336  25.348  1.00  0.00    -0.012 C 
ATOM     49  C   UNL     1     -48.886  25.658  25.963  1.00  0.00    -0.012 C 
ATOM     50  C   UNL     1     -47.780  26.983  27.208  1.00  0.00    -0.012 C 
ATOM     51  C   UNL     1     -47.478  25.589  26.605  1.00  0.00     0.112 C 
ATOM     52  H   UNL     1     -46.028  26.893  25.447  1.00  0.00     0.031 H 
ATOM     53  H   UNL     1     -46.960  25.781  24.404  1.00  0.00     0.031 H 
ATOM     54  H   UNL     1     -49.746  25.580  26.636  1.00  0.00     0.031 H 
ATOM     55  H   UNL     1     -49.064  25.038  25.078  1.00  0.00     0.031 H 
ATOM     56  H   UNL     1     -46.923  27.602  27.489  1.00  0.00     0.031 H 
ATOM     57  H   UNL     1     -48.535  27.031  27.999  1.00  0.00     0.031 H 
ATOM     58  F   UNL     1     -46.921  24.551  27.207  1.00  0.00    -0.244 F 
ENDBRANCH  44  47
ENDBRANCH  42  44
ENDBRANCH  39  42
ENDBRANCH   6  39
TORSDOF 10
ENDMDL
MODEL 4
REMARK VINA RESULT:      -9.1      3.436      5.499
REMARK SMILES COc1cnc(C#N)c(-c2cn(Cc3ccc4cc(CNC[C@]56C[C@](F)(C5)C6)[nH]c4c3)nn2)c1
REMARK SMILES IDX 14 1 15 2 16 3 17 4 18 5 19 6 29 7 30 8 31 9 13 15 12 18
REMARK SMILES IDX 10 19 11 20 33 21 32 23 9 24 3 25 4 26 34 27 5 28 6 31 2 32
REMARK SMILES IDX 1 33 7 37 8 38 20 39 21 42 22 44 23 47 27 48 24 49 28 50
REMARK SMILES IDX 25 51 26 58
REMARK H PARENT 15 10 16 11 18 12 29 13 31 14 13 16 13 17 11 22 4 29 34 30
REMARK H PARENT 1 34 1 35 1 36 20 40 20 41 21 43 22 45 22 46 27 52 27 53 24 54
REMARK H PARENT 24 55 28 56 28 57
REMARK Flexibility Score: inf
ROOT
ATOM      1  C   UNL     1     -47.118  33.230  25.621  1.00  0.00    -0.024 A 
ATOM      2  C   UNL     1     -48.426  33.407  26.092  1.00  0.00    -0.056 A 
ATOM      3  C   UNL     1     -49.463  32.557  25.684  1.00  0.00    -0.052 A 
ATOM      4  C   UNL     1     -49.186  31.510  24.786  1.00  0.00    -0.000 A 
ATOM      5  C   UNL     1     -49.972  30.489  24.184  1.00  0.00    -0.032 A 
ATOM      6  C   UNL     1     -49.145  29.735  23.376  1.00  0.00     0.030 A 
ATOM      7  N   UNL     1     -47.884  30.276  23.470  1.00  0.00    -0.357 N 
ATOM      8  C   UNL     1     -47.881  31.353  24.323  1.00  0.00     0.046 A 
ATOM      9  C   UNL     1     -46.831  32.191  24.717  1.00  0.00    -0.033 A 
ATOM     10  H   UNL     1     -48.660  34.212  26.786  1.00  0.00     0.063 H 
ATOM     11  H   UNL     1     -50.472  32.707  26.057  1.00  0.00     0.063 H 
ATOM     12  H   UNL     1     -51.032  30.327  24.328  1.00  0.00     0.065 H 
ATOM     13  H   UNL     1     -47.076  29.895  22.995  1.00  0.00     0.166 HD
ATOM     14  H   UNL     1     -45.824  32.035  24.336  1.00  0.00     0.065 H 
ENDROOT
BRANCH   1  15
ATOM     15  C   UNL     1     -46.012  34.151  26.081  1.00  0.00     0.068 C 
ATOM     16  H   UNL     1     -45.522  34.650  25.236  1.00  0.00     0.057 H 
ATOM     17  H   UNL     1     -45.246  33.583  26.621  1.00  0.00     0.057 H 
BRANCH  15  18
ATOM     18  N   UNL     1     -46.516  35.200  26.949  1.00  0.00    -0.247 N 
ATOM     19  C   UNL     1     -47.339  37.000  27.805  1.00  0.00     0.116 A 
ATOM     20  C   UNL     1     -47.056  36.405  26.597  1.00  0.00     0.054 A 
ATOM     21  N   UNL     1     -46.963  36.168  28.822  1.00  0.00    -0.130 NA
ATOM     22  H   UNL     1     -47.187  36.706  25.568  1.00  0.00     0.086 H 
ATOM     23  N   UNL     1     -46.459  35.065  28.287  1.00  0.00    -0.066 NA
BRANCH  19  24
ATOM     24  C   UNL     1     -47.958  38.290  28.000  1.00  0.00     0.044 A 
ATOM     25  C   UNL     1     -49.971  39.621  28.265  1.00  0.00     0.137 A 
ATOM     26  C   UNL     1     -49.142  40.727  28.400  1.00  0.00     0.070 A 
ATOM     27  C   UNL     1     -49.361  38.386  28.059  1.00  0.00    -0.006 A 
ATOM     28  N   UNL     1     -47.790  40.683  28.348  1.00  0.00    -0.241 NA
ATOM     29  H   UNL     1     -49.563  41.717  28.563  1.00  0.00     0.088 H 
ATOM     30  H   UNL     1     -49.953  37.482  27.959  1.00  0.00     0.067 H 
ATOM     31  C   UNL     1     -47.217  39.462  28.154  1.00  0.00     0.150 A 
BRANCH  25  32
ATOM     32  O   UNL     1     -51.310  39.863  28.347  1.00  0.00    -0.495 OA
BRANCH  32  33
ATOM     33  C   UNL     1     -51.981  39.394  29.510  1.00  0.00     0.078 C 
ATOM     34  H   UNL     1     -52.645  38.578  29.207  1.00  0.00     0.067 H 
ATOM     35  H   UNL     1     -52.601  40.180  29.954  1.00  0.00     0.067 H 
ATOM     36  H   UNL     1     -51.270  38.992  30.240  1.00  0.00     0.067 H 
ENDBRANCH  32  33
ENDBRANCH  25  32
BRANCH  31  37
ATOM     37  C   UNL     1     -45.780  39.499  28.058  1.00  0.00     0.120 C 
ATOM     38  N   UNL     1     -44.623  39.547  27.955  1.00  0.00    -0.191 NA
ENDBRANCH  31  37
ENDBRANCH  19  24
ENDBRANCH  15  18
ENDBRANCH   1  15
BRANCH   6  39
ATOM     39  C   UNL     1     -49.423  28.559  22.508  1.00  0.00     0.036 C 
ATOM     40  H   UNL     1     -50.498  28.444  22.326  1.00  0.00     0.049 H 
ATOM     41  H   UNL     1     -48.958  28.745  21.532  1.00  0.00     0.049 H 
BRANCH  39  42
ATOM     42  N   UNL     1     -48.846  27.332  23.064  1.00  0.00    -0.311 NA
ATOM     43  H   UNL     1     -49.025  26.578  22.400  1.00  0.00     0.123 HD
BRANCH  42  44
ATOM     44  C   UNL     1     -49.466  26.974  24.344  1.00  0.00     0.002 C 
ATOM     45  H   UNL     1     -50.147  26.126  24.206  1.00  0.00     0.043 H 
ATOM     46  H   UNL     1     -50.055  27.809  24.739  1.00  0.00     0.043 H 
BRANCH  44  47
ATOM     47  C   UNL     1     -48.406  26.623  25.323  1.00  0.00    -0.008 C 
ATOM     48  C   UNL     1     -46.827  26.649  25.180  1.00  0.00    -0.012 C 
ATOM     49  C   UNL     1     -48.162  25.221  26.021  1.00  0.00    -0.012 C 
ATOM     50  C   UNL     1     -48.130  27.213  26.770  1.00  0.00    -0.012 C 
ATOM     51  C   UNL     1     -47.048  26.116  26.619  1.00  0.00     0.112 C 
ATOM     52  H   UNL     1     -46.355  27.631  25.081  1.00  0.00     0.031 H 
ATOM     53  H   UNL     1     -46.386  25.959  24.454  1.00  0.00     0.031 H 
ATOM     54  H   UNL     1     -48.940  24.868  26.706  1.00  0.00     0.031 H 
ATOM     55  H   UNL     1     -47.848  24.395  25.375  1.00  0.00     0.031 H 
ATOM     56  H   UNL     1     -47.785  28.250  26.825  1.00  0.00     0.031 H 
ATOM     57  H   UNL     1     -48.905  27.049  27.526  1.00  0.00     0.031 H 
ATOM     58  F   UNL     1     -46.123  25.766  27.498  1.00  0.00    -0.244 F 
ENDBRANCH  44  47
ENDBRANCH  42  44
ENDBRANCH  39  42
ENDBRANCH   6  39
TORSDOF 10
ENDMDL
MODEL 5
REMARK VINA RESULT:      -8.9      1.764      3.363
REMARK SMILES COc1cnc(C#N)c(-c2cn(Cc3ccc4cc(CNC[C@]56C[C@](F)(C5)C6)[nH]c4c3)nn2)c1
REMARK SMILES IDX 14 1 15 2 16 3 17 4 18 5 19 6 29 7 30 8 31 9 13 15 12 18
REMARK SMILES IDX 10 19 11 20 33 21 32 23 9 24 3 25 4 26 34 27 5 28 6 31 2 32
REMARK SMILES IDX 1 33 7 37 8 38 20 39 21 42 22 44 23 47 27 48 24 49 28 50
REMARK SMILES IDX 25 51 26 58
REMARK H PARENT 15 10 16 11 18 12 29 13 31 14 13 16 13 17 11 22 4 29 34 30
REMARK H PARENT 1 34 1 35 1 36 20 40 20 41 21 43 22 45 22 46 27 52 27 53 24 54
REMARK H PARENT 24 55 28 56 28 57
REMARK Flexibility Score: inf
ROOT
ATOM      1  C   UNL     1     -47.861  34.516  26.455  1.00  0.00    -0.024 A 
ATOM      2  C   UNL     1     -46.619  34.464  25.808  1.00  0.00    -0.056 A 
ATOM      3  C   UNL     1     -46.288  33.396  24.962  1.00  0.00    -0.052 A 
ATOM      4  C   UNL     1     -47.218  32.360  24.761  1.00  0.00    -0.000 A 
ATOM      5  C   UNL     1     -47.216  31.163  23.991  1.00  0.00    -0.032 A 
ATOM      6  C   UNL     1     -48.425  30.528  24.186  1.00  0.00     0.030 A 
ATOM      7  N   UNL     1     -49.154  31.305  25.056  1.00  0.00    -0.357 N 
ATOM      8  C   UNL     1     -48.445  32.424  25.418  1.00  0.00     0.046 A 
ATOM      9  C   UNL     1     -48.795  33.481  26.266  1.00  0.00    -0.033 A 
ATOM     10  H   UNL     1     -45.886  35.255  25.952  1.00  0.00     0.063 H 
ATOM     11  H   UNL     1     -45.321  33.368  24.469  1.00  0.00     0.063 H 
ATOM     12  H   UNL     1     -46.410  30.807  23.363  1.00  0.00     0.065 H 
ATOM     13  H   UNL     1     -50.097  31.082  25.349  1.00  0.00     0.166 HD
ATOM     14  H   UNL     1     -49.765  33.499  26.760  1.00  0.00     0.065 H 
ENDROOT
BRANCH   1  15
ATOM     15  C   UNL     1     -48.202  35.681  27.355  1.00  0.00     0.068 C 
ATOM     16  H   UNL     1     -48.520  35.346  28.349  1.00  0.00     0.057 H 
ATOM     17  H   UNL     1     -49.022  36.266  26.922  1.00  0.00     0.057 H 
BRANCH  15  18
ATOM     18  N   UNL     1     -47.060  36.555  27.554  1.00  0.00    -0.247 N 
ATOM     19  C   UNL     1     -45.625  38.165  27.556  1.00  0.00     0.116 A 
ATOM     20  C   UNL     1     -46.878  37.829  27.096  1.00  0.00     0.054 A 
ATOM     21  N   UNL     1     -45.096  37.112  28.247  1.00  0.00    -0.130 NA
ATOM     22  H   UNL     1     -47.626  38.353  26.520  1.00  0.00     0.086 H 
ATOM     23  N   UNL     1     -45.984  36.127  28.241  1.00  0.00    -0.066 NA
BRANCH  19  24
ATOM     24  C   UNL     1     -44.957  39.432  27.374  1.00  0.00     0.044 A 
ATOM     25  C   UNL     1     -44.522  41.385  25.999  1.00  0.00     0.137 A 
ATOM     26  C   UNL     1     -43.718  41.850  27.032  1.00  0.00     0.070 A 
ATOM     27  C   UNL     1     -45.147  40.154  26.180  1.00  0.00    -0.006 A 
ATOM     28  N   UNL     1     -43.503  41.191  28.194  1.00  0.00    -0.241 NA
ATOM     29  H   UNL     1     -43.205  42.806  26.945  1.00  0.00     0.088 H 
ATOM     30  H   UNL     1     -45.798  39.742  25.417  1.00  0.00     0.067 H 
ATOM     31  C   UNL     1     -44.132  39.992  28.351  1.00  0.00     0.150 A 
BRANCH  25  32
ATOM     32  O   UNL     1     -44.617  42.192  24.904  1.00  0.00    -0.495 OA
BRANCH  32  33
ATOM     33  C   UNL     1     -43.936  43.439  24.959  1.00  0.00     0.078 C 
ATOM     34  H   UNL     1     -43.779  43.780  23.931  1.00  0.00     0.067 H 
ATOM     35  H   UNL     1     -42.952  43.331  25.428  1.00  0.00     0.067 H 
ATOM     36  H   UNL     1     -44.538  44.195  25.474  1.00  0.00     0.067 H 
ENDBRANCH  32  33
ENDBRANCH  25  32
BRANCH  31  37
ATOM     37  C   UNL     1     -43.818  39.325  29.589  1.00  0.00     0.120 C 
ATOM     38  N   UNL     1     -43.587  38.763  30.580  1.00  0.00    -0.191 NA
ENDBRANCH  31  37
ENDBRANCH  19  24
ENDBRANCH  15  18
ENDBRANCH   1  15
BRANCH   6  39
ATOM     39  C   UNL     1     -48.964  29.250  23.647  1.00  0.00     0.036 C 
ATOM     40  H   UNL     1     -49.701  28.810  24.330  1.00  0.00     0.049 H 
ATOM     41  H   UNL     1     -49.496  29.477  22.715  1.00  0.00     0.049 H 
BRANCH  39  42
ATOM     42  N   UNL     1     -47.891  28.300  23.344  1.00  0.00    -0.311 NA
ATOM     43  H   UNL     1     -48.272  27.596  22.712  1.00  0.00     0.123 HD
BRANCH  42  44
ATOM     44  C   UNL     1     -47.410  27.623  24.552  1.00  0.00     0.002 C 
ATOM     45  H   UNL     1     -47.022  28.360  25.265  1.00  0.00     0.043 H 
ATOM     46  H   UNL     1     -46.593  26.933  24.314  1.00  0.00     0.043 H 
BRANCH  44  47
ATOM     47  C   UNL     1     -48.526  26.858  25.166  1.00  0.00    -0.008 C 
ATOM     48  C   UNL     1     -49.890  26.349  24.536  1.00  0.00    -0.012 C 
ATOM     49  C   UNL     1     -49.435  27.291  26.390  1.00  0.00    -0.012 C 
ATOM     50  C   UNL     1     -48.508  25.444  25.883  1.00  0.00    -0.012 C 
ATOM     51  C   UNL     1     -49.985  25.893  26.014  1.00  0.00     0.112 C 
ATOM     52  H   UNL     1     -49.822  25.565  23.776  1.00  0.00     0.031 H 
ATOM     53  H   UNL     1     -50.597  27.116  24.205  1.00  0.00     0.031 H 
ATOM     54  H   UNL     1     -48.941  27.389  27.362  1.00  0.00     0.031 H 
ATOM     55  H   UNL     1     -50.099  28.148  26.234  1.00  0.00     0.031 H 
ATOM     56  H   UNL     1     -48.306  24.571  25.254  1.00  0.00     0.031 H 
ATOM     57  H   UNL     1     -47.926  25.367  26.807  1.00  0.00     0.031 H 
ATOM     58  F   UNL     1     -50.979  25.240  26.592  1.00  0.00    -0.244 F 
ENDBRANCH  44  47
ENDBRANCH  42  44
ENDBRANCH  39  42
ENDBRANCH   6  39
TORSDOF 10
ENDMDL
MODEL 6
REMARK VINA RESULT:      -8.8      2.167      3.699
REMARK SMILES COc1cnc(C#N)c(-c2cn(Cc3ccc4cc(CNC[C@]56C[C@](F)(C5)C6)[nH]c4c3)nn2)c1
REMARK SMILES IDX 14 1 15 2 16 3 17 4 18 5 19 6 29 7 30 8 31 9 13 15 12 18
REMARK SMILES IDX 10 19 11 20 33 21 32 23 9 24 3 25 4 26 34 27 5 28 6 31 2 32
REMARK SMILES IDX 1 33 7 37 8 38 20 39 21 42 22 44 23 47 27 48 24 49 28 50
REMARK SMILES IDX 25 51 26 58
REMARK H PARENT 15 10 16 11 18 12 29 13 31 14 13 16 13 17 11 22 4 29 34 30
REMARK H PARENT 1 34 1 35 1 36 20 40 20 41 21 43 22 45 22 46 27 52 27 53 24 54
REMARK H PARENT 24 55 28 56 28 57
REMARK Flexibility Score: inf
ROOT
ATOM      1  C   UNL     1     -46.643  34.009  27.514  1.00  0.00    -0.024 A 
ATOM      2  C   UNL     1     -47.807  34.719  27.189  1.00  0.00    -0.056 A 
ATOM      3  C   UNL     1     -48.785  34.163  26.352  1.00  0.00    -0.052 A 
ATOM      4  C   UNL     1     -48.594  32.871  25.831  1.00  0.00    -0.000 A 
ATOM      5  C   UNL     1     -49.358  32.024  24.980  1.00  0.00    -0.032 A 
ATOM      6  C   UNL     1     -48.658  30.848  24.808  1.00  0.00     0.030 A 
ATOM      7  N   UNL     1     -47.490  30.964  25.526  1.00  0.00    -0.357 N 
ATOM      8  C   UNL     1     -47.429  32.181  26.158  1.00  0.00     0.046 A 
ATOM      9  C   UNL     1     -46.439  32.719  26.991  1.00  0.00    -0.033 A 
ATOM     10  H   UNL     1     -47.971  35.721  27.581  1.00  0.00     0.063 H 
ATOM     11  H   UNL     1     -49.681  34.726  26.109  1.00  0.00     0.063 H 
ATOM     12  H   UNL     1     -50.320  32.256  24.541  1.00  0.00     0.065 H 
ATOM     13  H   UNL     1     -46.800  30.226  25.594  1.00  0.00     0.166 HD
ATOM     14  H   UNL     1     -45.544  32.149  27.227  1.00  0.00     0.065 H 
ENDROOT
BRANCH   1  15
ATOM     15  C   UNL     1     -45.606  34.623  28.425  1.00  0.00     0.068 C 
ATOM     16  H   UNL     1     -44.588  34.427  28.069  1.00  0.00     0.057 H 
ATOM     17  H   UNL     1     -45.693  34.203  29.433  1.00  0.00     0.057 H 
BRANCH  15  18
ATOM     18  N   UNL     1     -45.751  36.065  28.504  1.00  0.00    -0.247 N 
ATOM     19  C   UNL     1     -45.773  38.193  28.158  1.00  0.00     0.116 A 
ATOM     20  C   UNL     1     -45.478  36.998  27.544  1.00  0.00     0.054 A 
ATOM     21  N   UNL     1     -46.193  37.957  29.436  1.00  0.00    -0.130 NA
ATOM     22  H   UNL     1     -45.123  36.733  26.559  1.00  0.00     0.086 H 
ATOM     23  N   UNL     1     -46.176  36.647  29.641  1.00  0.00    -0.066 NA
BRANCH  19  24
ATOM     24  C   UNL     1     -45.687  39.506  27.563  1.00  0.00     0.044 A 
ATOM     25  C   UNL     1     -44.337  41.274  26.590  1.00  0.00     0.137 A 
ATOM     26  C   UNL     1     -45.518  41.983  26.405  1.00  0.00     0.070 A 
ATOM     27  C   UNL     1     -44.432  40.017  27.181  1.00  0.00    -0.006 A 
ATOM     28  N   UNL     1     -46.745  41.535  26.759  1.00  0.00    -0.241 NA
ATOM     29  H   UNL     1     -45.504  42.970  25.948  1.00  0.00     0.088 H 
ATOM     30  H   UNL     1     -43.549  39.408  27.341  1.00  0.00     0.067 H 
ATOM     31  C   UNL     1     -46.813  40.298  27.327  1.00  0.00     0.150 A 
BRANCH  25  32
ATOM     32  O   UNL     1     -43.196  41.890  26.169  1.00  0.00    -0.495 OA
BRANCH  32  33
ATOM     33  C   UNL     1     -43.298  43.263  25.810  1.00  0.00     0.078 C 
ATOM     34  H   UNL     1     -43.287  43.852  26.732  1.00  0.00     0.067 H 
ATOM     35  H   UNL     1     -44.242  43.468  25.295  1.00  0.00     0.067 H 
ATOM     36  H   UNL     1     -42.441  43.576  25.204  1.00  0.00     0.067 H 
ENDBRANCH  32  33
ENDBRANCH  25  32
BRANCH  31  37
ATOM     37  C   UNL     1     -48.142  39.908  27.723  1.00  0.00     0.120 C 
ATOM     38  N   UNL     1     -49.202  39.573  28.063  1.00  0.00    -0.191 NA
ENDBRANCH  31  37
ENDBRANCH  19  24
ENDBRANCH  15  18
ENDBRANCH   1  15
BRANCH   6  39
ATOM     39  C   UNL     1     -48.967  29.623  24.021  1.00  0.00     0.036 C 
ATOM     40  H   UNL     1     -49.468  29.873  23.078  1.00  0.00     0.049 H 
ATOM     41  H   UNL     1     -48.017  29.146  23.755  1.00  0.00     0.049 H 
BRANCH  39  42
ATOM     42  N   UNL     1     -49.757  28.668  24.803  1.00  0.00    -0.311 NA
ATOM     43  H   UNL     1     -49.505  28.789  25.784  1.00  0.00     0.123 HD
BRANCH  42  44
ATOM     44  C   UNL     1     -49.465  27.283  24.420  1.00  0.00     0.002 C 
ATOM     45  H   UNL     1     -49.072  27.253  23.397  1.00  0.00     0.043 H 
ATOM     46  H   UNL     1     -50.373  26.672  24.442  1.00  0.00     0.043 H 
BRANCH  44  47
ATOM     47  C   UNL     1     -48.472  26.709  25.364  1.00  0.00    -0.008 C 
ATOM     48  C   UNL     1     -46.910  26.486  25.203  1.00  0.00    -0.012 C 
ATOM     49  C   UNL     1     -48.458  25.250  25.981  1.00  0.00    -0.012 C 
ATOM     50  C   UNL     1     -48.098  27.164  26.838  1.00  0.00    -0.012 C 
ATOM     51  C   UNL     1     -47.210  25.916  26.612  1.00  0.00     0.112 C 
ATOM     52  H   UNL     1     -46.285  27.383  25.151  1.00  0.00     0.031 H 
ATOM     53  H   UNL     1     -46.591  25.775  24.434  1.00  0.00     0.031 H 
ATOM     54  H   UNL     1     -49.280  24.989  26.656  1.00  0.00     0.031 H 
ATOM     55  H   UNL     1     -48.285  24.421  25.286  1.00  0.00     0.031 H 
ATOM     56  H   UNL     1     -47.589  28.127  26.945  1.00  0.00     0.031 H 
ATOM     57  H   UNL     1     -48.887  27.086  27.593  1.00  0.00     0.031 H 
ATOM     58  F   UNL     1     -46.351  25.372  27.459  1.00  0.00    -0.244 F 
ENDBRANCH  44  47
ENDBRANCH  42  44
ENDBRANCH  39  42
ENDBRANCH   6  39
TORSDOF 10
ENDMDL
MODEL 7
REMARK VINA RESULT:      -8.6      5.008     12.673
REMARK SMILES COc1cnc(C#N)c(-c2cn(Cc3ccc4cc(CNC[C@]56C[C@](F)(C5)C6)[nH]c4c3)nn2)c1
REMARK SMILES IDX 14 1 15 2 16 3 17 4 18 5 19 6 29 7 30 8 31 9 13 15 12 18
REMARK SMILES IDX 10 19 11 20 33 21 32 23 9 24 3 25 4 26 34 27 5 28 6 31 2 32
REMARK SMILES IDX 1 33 7 37 8 38 20 39 21 42 22 44 23 47 27 48 24 49 28 50
REMARK SMILES IDX 25 51 26 58
REMARK H PARENT 15 10 16 11 18 12 29 13 31 14 13 16 13 17 11 22 4 29 34 30
REMARK H PARENT 1 34 1 35 1 36 20 40 20 41 21 43 22 45 22 46 27 52 27 53 24 54
REMARK H PARENT 24 55 28 56 28 57
REMARK Flexibility Score: inf
ROOT
ATOM      1  C   UNL     1     -46.432  33.859  25.884  1.00  0.00    -0.024 A 
ATOM      2  C   UNL     1     -46.106  33.328  27.139  1.00  0.00    -0.056 A 
ATOM      3  C   UNL     1     -46.041  34.145  28.276  1.00  0.00    -0.052 A 
ATOM      4  C   UNL     1     -46.308  35.520  28.155  1.00  0.00    -0.000 A 
ATOM      5  C   UNL     1     -46.337  36.608  29.072  1.00  0.00    -0.032 A 
ATOM      6  C   UNL     1     -46.668  37.749  28.370  1.00  0.00     0.030 A 
ATOM      7  N   UNL     1     -46.834  37.381  27.055  1.00  0.00    -0.357 N 
ATOM      8  C   UNL     1     -46.625  36.033  26.898  1.00  0.00     0.046 A 
ATOM      9  C   UNL     1     -46.693  35.235  25.750  1.00  0.00    -0.033 A 
ATOM     10  H   UNL     1     -45.894  32.266  27.253  1.00  0.00     0.063 H 
ATOM     11  H   UNL     1     -45.786  33.719  29.242  1.00  0.00     0.063 H 
ATOM     12  H   UNL     1     -46.134  36.556  30.133  1.00  0.00     0.065 H 
ATOM     13  H   UNL     1     -47.108  38.026  26.324  1.00  0.00     0.166 HD
ATOM     14  H   UNL     1     -46.947  35.670  24.786  1.00  0.00     0.065 H 
ENDROOT
BRANCH   1  15
ATOM     15  C   UNL     1     -46.506  32.959  24.672  1.00  0.00     0.068 C 
ATOM     16  H   UNL     1     -45.561  32.430  24.502  1.00  0.00     0.057 H 
ATOM     17  H   UNL     1     -46.722  33.551  23.775  1.00  0.00     0.057 H 
BRANCH  15  18
ATOM     18  N   UNL     1     -47.533  31.944  24.821  1.00  0.00    -0.247 N 
ATOM     19  C   UNL     1     -48.688  30.125  24.904  1.00  0.00     0.116 A 
ATOM     20  C   UNL     1     -47.415  30.591  24.668  1.00  0.00     0.054 A 
ATOM     21  N   UNL     1     -49.516  31.177  25.174  1.00  0.00    -0.130 NA
ATOM     22  H   UNL     1     -46.478  30.112  24.424  1.00  0.00     0.086 H 
ATOM     23  N   UNL     1     -48.798  32.291  25.121  1.00  0.00    -0.066 NA
BRANCH  19  24
ATOM     24  C   UNL     1     -49.109  28.743  24.899  1.00  0.00     0.044 A 
ATOM     25  C   UNL     1     -49.071  26.545  25.928  1.00  0.00     0.137 A 
ATOM     26  C   UNL     1     -49.926  26.129  24.915  1.00  0.00     0.070 A 
ATOM     27  C   UNL     1     -48.659  27.875  25.911  1.00  0.00    -0.006 A 
ATOM     28  N   UNL     1     -50.382  26.927  23.921  1.00  0.00    -0.241 NA
ATOM     29  H   UNL     1     -50.281  25.101  24.878  1.00  0.00     0.088 H 
ATOM     30  H   UNL     1     -48.001  28.265  26.682  1.00  0.00     0.067 H 
ATOM     31  C   UNL     1     -49.971  28.225  23.931  1.00  0.00     0.150 A 
BRANCH  25  32
ATOM     32  O   UNL     1     -48.721  25.597  26.843  1.00  0.00    -0.495 OA
BRANCH  32  33
ATOM     33  C   UNL     1     -47.476  24.937  26.646  1.00  0.00     0.078 C 
ATOM     34  H   UNL     1     -46.679  25.647  26.887  1.00  0.00     0.067 H 
ATOM     35  H   UNL     1     -47.350  24.637  25.601  1.00  0.00     0.067 H 
ATOM     36  H   UNL     1     -47.374  24.079  27.319  1.00  0.00     0.067 H 
ENDBRANCH  32  33
ENDBRANCH  25  32
BRANCH  31  37
ATOM     37  C   UNL     1     -50.454  29.000  22.817  1.00  0.00     0.120 C 
ATOM     38  N   UNL     1     -50.836  29.602  21.898  1.00  0.00    -0.191 NA
ENDBRANCH  31  37
ENDBRANCH  19  24
ENDBRANCH  15  18
ENDBRANCH   1  15
BRANCH   6  39
ATOM     39  C   UNL     1     -46.830  39.162  28.808  1.00  0.00     0.036 C 
ATOM     40  H   UNL     1     -47.884  39.463  28.797  1.00  0.00     0.049 H 
ATOM     41  H   UNL     1     -46.495  39.231  29.850  1.00  0.00     0.049 H 
BRANCH  39  42
ATOM     42  N   UNL     1     -46.011  40.071  28.002  1.00  0.00    -0.311 NA
ATOM     43  H   UNL     1     -46.234  39.899  27.021  1.00  0.00     0.123 HD
BRANCH  42  44
ATOM     44  C   UNL     1     -44.578  39.829  28.199  1.00  0.00     0.002 C 
ATOM     45  H   UNL     1     -44.290  38.886  27.720  1.00  0.00     0.043 H 
ATOM     46  H   UNL     1     -44.340  39.743  29.264  1.00  0.00     0.043 H 
BRANCH  44  47
ATOM     47  C   UNL     1     -43.804  40.954  27.617  1.00  0.00    -0.008 C 
ATOM     48  C   UNL     1     -44.293  42.231  26.813  1.00  0.00    -0.012 C 
ATOM     49  C   UNL     1     -42.679  40.879  26.503  1.00  0.00    -0.012 C 
ATOM     50  C   UNL     1     -42.813  41.972  28.324  1.00  0.00    -0.012 C 
ATOM     51  C   UNL     1     -42.752  42.390  26.834  1.00  0.00     0.112 C 
ATOM     52  H   UNL     1     -44.879  42.971  27.367  1.00  0.00     0.031 H 
ATOM     53  H   UNL     1     -44.763  42.051  25.841  1.00  0.00     0.031 H 
ATOM     54  H   UNL     1     -41.756  40.354  26.767  1.00  0.00     0.031 H 
ATOM     55  H   UNL     1     -42.996  40.571  25.501  1.00  0.00     0.031 H 
ATOM     56  H   UNL     1     -43.253  42.687  29.026  1.00  0.00     0.031 H 
ATOM     57  H   UNL     1     -41.902  41.550  28.761  1.00  0.00     0.031 H 
ATOM     58  F   UNL     1     -42.037  43.365  26.298  1.00  0.00    -0.244 F 
ENDBRANCH  44  47
ENDBRANCH  42  44
ENDBRANCH  39  42
ENDBRANCH   6  39
TORSDOF 10
ENDMDL
