MODEL 1
REMARK VINA RESULT:     -10.2      0.000      0.000
REMARK SMILES CN(CCS(C)(=O)=O)c1ccc2ccc(OCc3cncc(-n4cc(-c5ccn(C)n5)c5c(N)ncnc54)c3)cc2n1
REMARK SMILES IDX 9 1 10 2 11 3 12 4 13 5 14 6 15 7 40 8 41 9 42 10 2 16 1 17
REMARK SMILES IDX 3 21 4 24 5 27 7 28 8 29 6 30 16 34 17 35 18 38 19 39 39 40
REMARK SMILES IDX 20 41 22 43 21 45 23 47 24 48 38 49 25 50 32 52 37 53 33 54
REMARK SMILES IDX 36 55 35 56 26 58 27 59 31 60 28 61 29 63 30 65 34 69
REMARK H PARENT 10 11 11 12 13 13 14 14 40 15 1 18 1 19 1 20 3 22 3 23 4 25
REMARK H PARENT 4 26 6 31 6 32 6 33 17 36 17 37 19 42 39 44 21 46 24 51 36 57
REMARK H PARENT 27 62 28 64 30 66 30 67 30 68 34 70 34 71
REMARK Flexibility Score: inf
ROOT
ATOM      1  C   UNL     1     -43.472  40.316  28.607  1.00  0.00     0.129 A 
ATOM      2  C   UNL     1     -43.103  39.710  29.807  1.00  0.00    -0.019 A 
ATOM      3  C   UNL     1     -43.825  38.621  30.289  1.00  0.00    -0.049 A 
ATOM      4  C   UNL     1     -44.925  38.153  29.570  1.00  0.00     0.001 A 
ATOM      5  C   UNL     1     -45.688  37.057  30.005  1.00  0.00    -0.049 A 
ATOM      6  C   UNL     1     -46.786  36.620  29.262  1.00  0.00    -0.019 A 
ATOM      7  C   UNL     1     -47.126  37.277  28.084  1.00  0.00     0.122 A 
ATOM      8  C   UNL     1     -46.352  38.364  27.660  1.00  0.00     0.007 A 
ATOM      9  C   UNL     1     -45.255  38.819  28.379  1.00  0.00     0.076 A 
ATOM     10  N   UNL     1     -44.551  39.873  27.923  1.00  0.00    -0.231 NA
ATOM     11  H   UNL     1     -42.266  40.082  30.386  1.00  0.00     0.066 H 
ATOM     12  H   UNL     1     -43.526  38.153  31.222  1.00  0.00     0.063 H 
ATOM     13  H   UNL     1     -45.428  36.535  30.923  1.00  0.00     0.063 H 
ATOM     14  H   UNL     1     -47.336  35.760  29.626  1.00  0.00     0.066 H 
ATOM     15  H   UNL     1     -46.612  38.873  26.734  1.00  0.00     0.069 H 
ENDROOT
BRANCH   1  16
ATOM     16  N   UNL     1     -42.763  41.427  28.121  1.00  0.00    -0.359 N 
BRANCH  16  17
ATOM     17  C   UNL     1     -41.985  42.125  29.147  1.00  0.00     0.008 C 
ATOM     18  H   UNL     1     -40.919  41.878  29.083  1.00  0.00     0.046 H 
ATOM     19  H   UNL     1     -42.114  43.211  29.077  1.00  0.00     0.046 H 
ATOM     20  H   UNL     1     -42.336  41.834  30.144  1.00  0.00     0.046 H 
ENDBRANCH  16  17
BRANCH  16  21
ATOM     21  C   UNL     1     -43.475  42.300  27.172  1.00  0.00     0.033 C 
ATOM     22  H   UNL     1     -43.795  43.221  27.679  1.00  0.00     0.050 H 
ATOM     23  H   UNL     1     -44.404  41.849  26.800  1.00  0.00     0.050 H 
BRANCH  21  24
ATOM     24  C   UNL     1     -42.546  42.641  26.021  1.00  0.00     0.067 C 
ATOM     25  H   UNL     1     -41.622  43.101  26.385  1.00  0.00     0.045 H 
ATOM     26  H   UNL     1     -42.292  41.750  25.438  1.00  0.00     0.045 H 
BRANCH  24  27
ATOM     27  S   UNL     1     -43.330  43.794  24.923  1.00  0.00     0.149 S 
ATOM     28  O   UNL     1     -43.149  45.128  25.464  1.00  0.00    -0.229 OA
ATOM     29  O   UNL     1     -44.652  43.288  24.609  1.00  0.00    -0.229 OA
BRANCH  27  30
ATOM     30  C   UNL     1     -42.343  43.672  23.452  1.00  0.00     0.039 C 
ATOM     31  H   UNL     1     -42.746  42.877  22.821  1.00  0.00     0.040 H 
ATOM     32  H   UNL     1     -42.367  44.630  22.930  1.00  0.00     0.040 H 
ATOM     33  H   UNL     1     -41.319  43.432  23.748  1.00  0.00     0.040 H 
ENDBRANCH  27  30
ENDBRANCH  24  27
ENDBRANCH  21  24
ENDBRANCH  16  21
ENDBRANCH   1  16
BRANCH   7  34
ATOM     34  O   UNL     1     -48.162  36.960  27.249  1.00  0.00    -0.489 OA
BRANCH  34  35
ATOM     35  C   UNL     1     -48.751  35.661  27.343  1.00  0.00     0.115 C 
ATOM     36  H   UNL     1     -49.784  35.762  26.988  1.00  0.00     0.076 H 
ATOM     37  H   UNL     1     -48.820  35.339  28.389  1.00  0.00     0.076 H 
BRANCH  35  38
ATOM     38  C   UNL     1     -48.075  34.633  26.471  1.00  0.00     0.010 A 
ATOM     39  C   UNL     1     -46.800  34.870  25.977  1.00  0.00     0.034 A 
ATOM     40  C   UNL     1     -48.668  33.397  26.172  1.00  0.00    -0.028 A 
ATOM     41  N   UNL     1     -46.119  33.999  25.205  1.00  0.00    -0.262 NA
ATOM     42  H   UNL     1     -46.270  35.795  26.188  1.00  0.00     0.084 H 
ATOM     43  C   UNL     1     -47.998  32.461  25.376  1.00  0.00     0.066 A 
ATOM     44  H   UNL     1     -49.666  33.212  26.557  1.00  0.00     0.065 H 
ATOM     45  C   UNL     1     -46.732  32.822  24.923  1.00  0.00     0.051 A 
ATOM     46  H   UNL     1     -46.112  32.170  24.317  1.00  0.00     0.086 H 
BRANCH  43  47
ATOM     47  N   UNL     1     -48.570  31.193  25.033  1.00  0.00    -0.299 N 
ATOM     48  C   UNL     1     -48.396  30.025  25.758  1.00  0.00     0.021 A 
ATOM     49  C   UNL     1     -49.383  30.881  23.942  1.00  0.00     0.150 A 
ATOM     50  C   UNL     1     -49.061  28.989  25.137  1.00  0.00     0.033 A 
ATOM     51  H   UNL     1     -47.772  29.993  26.639  1.00  0.00     0.083 H 
ATOM     52  C   UNL     1     -49.714  29.525  23.994  1.00  0.00     0.071 A 
ATOM     53  N   UNL     1     -49.811  31.743  22.997  1.00  0.00    -0.218 NA
ATOM     54  C   UNL     1     -50.561  29.045  22.976  1.00  0.00     0.137 A 
ATOM     55  C   UNL     1     -50.583  31.164  22.071  1.00  0.00     0.120 A 
ATOM     56  N   UNL     1     -50.970  29.883  22.007  1.00  0.00    -0.219 NA
ATOM     57  H   UNL     1     -50.942  31.810  21.276  1.00  0.00     0.106 H 
BRANCH  50  58
ATOM     58  C   UNL     1     -49.071  27.589  25.576  1.00  0.00     0.095 A 
ATOM     59  C   UNL     1     -50.241  26.843  25.848  1.00  0.00    -0.016 A 
ATOM     60  N   UNL     1     -47.963  26.870  25.800  1.00  0.00    -0.173 NA
ATOM     61  C   UNL     1     -49.790  25.604  26.244  1.00  0.00     0.025 A 
ATOM     62  H   UNL     1     -51.271  27.155  25.761  1.00  0.00     0.066 H 
ATOM     63  N   UNL     1     -48.430  25.671  26.197  1.00  0.00    -0.275 N 
ATOM     64  H   UNL     1     -50.315  24.708  26.545  1.00  0.00     0.084 H 
BRANCH  63  65
ATOM     65  C   UNL     1     -47.499  24.618  26.520  1.00  0.00     0.030 C 
ATOM     66  H   UNL     1     -47.674  24.308  27.554  1.00  0.00     0.048 H 
ATOM     67  H   UNL     1     -47.670  23.784  25.835  1.00  0.00     0.048 H 
ATOM     68  H   UNL     1     -46.477  24.989  26.410  1.00  0.00     0.048 H 
ENDBRANCH  63  65
ENDBRANCH  50  58
BRANCH  54  69
ATOM     69  N   UNL     1     -51.019  27.738  22.897  1.00  0.00    -0.383 N 
ATOM     70  H   UNL     1     -50.301  27.055  23.156  1.00  0.00     0.158 HD
ATOM     71  H   UNL     1     -51.511  27.573  22.030  1.00  0.00     0.158 HD
ENDBRANCH  54  69
ENDBRANCH  43  47
ENDBRANCH  35  38
ENDBRANCH  34  35
ENDBRANCH   7  34
TORSDOF 13
ENDMDL
MODEL 2
REMARK VINA RESULT:     -10.1      4.014     13.036
REMARK SMILES CN(CCS(C)(=O)=O)c1ccc2ccc(OCc3cncc(-n4cc(-c5ccn(C)n5)c5c(N)ncnc54)c3)cc2n1
REMARK SMILES IDX 9 1 10 2 11 3 12 4 13 5 14 6 15 7 40 8 41 9 42 10 2 16 1 17
REMARK SMILES IDX 3 21 4 24 5 27 7 28 8 29 6 30 16 34 17 35 18 38 19 39 39 40
REMARK SMILES IDX 20 41 22 43 21 45 23 47 24 48 38 49 25 50 32 52 37 53 33 54
REMARK SMILES IDX 36 55 35 56 26 58 27 59 31 60 28 61 29 63 30 65 34 69
REMARK H PARENT 10 11 11 12 13 13 14 14 40 15 1 18 1 19 1 20 3 22 3 23 4 25
REMARK H PARENT 4 26 6 31 6 32 6 33 17 36 17 37 19 42 39 44 21 46 24 51 36 57
REMARK H PARENT 27 62 28 64 30 66 30 67 30 68 34 70 34 71
REMARK Flexibility Score: inf
ROOT
ATOM      1  C   UNL     1     -48.277  30.054  23.521  1.00  0.00     0.129 A 
ATOM      2  C   UNL     1     -46.977  30.260  23.061  1.00  0.00    -0.019 A 
ATOM      3  C   UNL     1     -46.224  31.322  23.553  1.00  0.00    -0.049 A 
ATOM      4  C   UNL     1     -46.783  32.184  24.498  1.00  0.00     0.001 A 
ATOM      5  C   UNL     1     -46.070  33.268  25.032  1.00  0.00    -0.049 A 
ATOM      6  C   UNL     1     -46.664  34.112  25.971  1.00  0.00    -0.019 A 
ATOM      7  C   UNL     1     -47.974  33.877  26.377  1.00  0.00     0.122 A 
ATOM      8  C   UNL     1     -48.670  32.787  25.840  1.00  0.00     0.007 A 
ATOM      9  C   UNL     1     -48.103  31.932  24.905  1.00  0.00     0.076 A 
ATOM     10  N   UNL     1     -48.823  30.902  24.421  1.00  0.00    -0.231 NA
ATOM     11  H   UNL     1     -46.542  29.612  22.309  1.00  0.00     0.066 H 
ATOM     12  H   UNL     1     -45.210  31.471  23.192  1.00  0.00     0.063 H 
ATOM     13  H   UNL     1     -45.044  33.459  24.723  1.00  0.00     0.063 H 
ATOM     14  H   UNL     1     -46.071  34.927  26.370  1.00  0.00     0.066 H 
ATOM     15  H   UNL     1     -49.691  32.596  26.165  1.00  0.00     0.069 H 
ENDROOT
BRANCH   1  16
ATOM     16  N   UNL     1     -49.054  28.997  23.018  1.00  0.00    -0.359 N 
BRANCH  16  17
ATOM     17  C   UNL     1     -50.190  29.437  22.206  1.00  0.00     0.008 C 
ATOM     18  H   UNL     1     -50.964  29.913  22.819  1.00  0.00     0.046 H 
ATOM     19  H   UNL     1     -49.874  30.126  21.415  1.00  0.00     0.046 H 
ATOM     20  H   UNL     1     -50.645  28.576  21.703  1.00  0.00     0.046 H 
ENDBRANCH  16  17
BRANCH  16  21
ATOM     21  C   UNL     1     -49.336  27.887  23.943  1.00  0.00     0.033 C 
ATOM     22  H   UNL     1     -48.938  26.949  23.534  1.00  0.00     0.050 H 
ATOM     23  H   UNL     1     -50.411  27.705  24.068  1.00  0.00     0.050 H 
BRANCH  21  24
ATOM     24  C   UNL     1     -48.684  28.182  25.283  1.00  0.00     0.067 C 
ATOM     25  H   UNL     1     -47.836  28.865  25.165  1.00  0.00     0.045 H 
ATOM     26  H   UNL     1     -49.399  28.624  25.984  1.00  0.00     0.045 H 
BRANCH  24  27
ATOM     27  S   UNL     1     -48.075  26.683  26.010  1.00  0.00     0.149 S 
ATOM     28  O   UNL     1     -47.837  26.928  27.420  1.00  0.00    -0.229 OA
ATOM     29  O   UNL     1     -47.026  26.162  25.155  1.00  0.00    -0.229 OA
BRANCH  27  30
ATOM     30  C   UNL     1     -49.466  25.588  25.883  1.00  0.00     0.039 C 
ATOM     31  H   UNL     1     -49.117  24.558  25.988  1.00  0.00     0.040 H 
ATOM     32  H   UNL     1     -50.184  25.836  26.666  1.00  0.00     0.040 H 
ATOM     33  H   UNL     1     -49.921  25.729  24.899  1.00  0.00     0.040 H 
ENDBRANCH  27  30
ENDBRANCH  24  27
ENDBRANCH  21  24
ENDBRANCH  16  21
ENDBRANCH   1  16
BRANCH   7  34
ATOM     34  O   UNL     1     -48.683  34.606  27.292  1.00  0.00    -0.489 OA
BRANCH  34  35
ATOM     35  C   UNL     1     -48.653  36.033  27.208  1.00  0.00     0.115 C 
ATOM     36  H   UNL     1     -49.602  36.388  27.630  1.00  0.00     0.076 H 
ATOM     37  H   UNL     1     -48.644  36.363  26.162  1.00  0.00     0.076 H 
BRANCH  35  38
ATOM     38  C   UNL     1     -47.542  36.656  28.014  1.00  0.00     0.010 A 
ATOM     39  C   UNL     1     -47.145  36.082  29.214  1.00  0.00     0.034 A 
ATOM     40  C   UNL     1     -46.837  37.787  27.571  1.00  0.00    -0.028 A 
ATOM     41  N   UNL     1     -46.152  36.566  29.987  1.00  0.00    -0.262 NA
ATOM     42  H   UNL     1     -47.630  35.193  29.606  1.00  0.00     0.084 H 
ATOM     43  C   UNL     1     -45.797  38.322  28.339  1.00  0.00     0.066 A 
ATOM     44  H   UNL     1     -47.148  38.237  26.634  1.00  0.00     0.065 H 
ATOM     45  C   UNL     1     -45.505  37.670  29.534  1.00  0.00     0.051 A 
ATOM     46  H   UNL     1     -44.709  37.981  30.200  1.00  0.00     0.086 H 
BRANCH  43  47
ATOM     47  N   UNL     1     -45.060  39.483  27.935  1.00  0.00    -0.299 N 
ATOM     48  C   UNL     1     -45.359  40.263  26.829  1.00  0.00     0.021 A 
ATOM     49  C   UNL     1     -43.935  40.044  28.541  1.00  0.00     0.150 A 
ATOM     50  C   UNL     1     -44.437  41.283  26.719  1.00  0.00     0.033 A 
ATOM     51  H   UNL     1     -46.174  40.017  26.166  1.00  0.00     0.083 H 
ATOM     52  C   UNL     1     -43.540  41.169  27.816  1.00  0.00     0.071 A 
ATOM     53  N   UNL     1     -43.330  39.598  29.662  1.00  0.00    -0.218 NA
ATOM     54  C   UNL     1     -42.429  41.879  28.310  1.00  0.00     0.137 A 
ATOM     55  C   UNL     1     -42.273  40.336  30.015  1.00  0.00     0.120 A 
ATOM     56  N   UNL     1     -41.793  41.429  29.407  1.00  0.00    -0.219 NA
ATOM     57  H   UNL     1     -41.738  40.011  30.902  1.00  0.00     0.106 H 
BRANCH  50  58
ATOM     58  C   UNL     1     -44.390  42.286  25.649  1.00  0.00     0.095 A 
ATOM     59  C   UNL     1     -45.498  43.053  25.221  1.00  0.00    -0.016 A 
ATOM     60  N   UNL     1     -43.292  42.563  24.933  1.00  0.00    -0.173 NA
ATOM     61  C   UNL     1     -45.016  43.838  24.199  1.00  0.00     0.025 A 
ATOM     62  H   UNL     1     -46.507  43.045  25.605  1.00  0.00     0.066 H 
ATOM     63  N   UNL     1     -43.700  43.510  24.067  1.00  0.00    -0.275 N 
ATOM     64  H   UNL     1     -45.491  44.581  23.574  1.00  0.00     0.084 H 
BRANCH  63  65
ATOM     65  C   UNL     1     -42.757  44.066  23.128  1.00  0.00     0.030 C 
ATOM     66  H   UNL     1     -42.853  43.526  22.182  1.00  0.00     0.048 H 
ATOM     67  H   UNL     1     -42.990  45.125  22.991  1.00  0.00     0.048 H 
ATOM     68  H   UNL     1     -41.743  43.954  23.519  1.00  0.00     0.048 H 
ENDBRANCH  63  65
ENDBRANCH  50  58
BRANCH  54  69
ATOM     69  N   UNL     1     -41.927  43.038  27.737  1.00  0.00    -0.383 N 
ATOM     70  H   UNL     1     -41.788  42.947  26.727  1.00  0.00     0.158 HD
ATOM     71  H   UNL     1     -41.152  43.406  28.270  1.00  0.00     0.158 HD
ENDBRANCH  54  69
ENDBRANCH  43  47
ENDBRANCH  35  38
ENDBRANCH  34  35
ENDBRANCH   7  34
TORSDOF 13
ENDMDL
MODEL 3
REMARK VINA RESULT:      -9.9      4.379     13.066
REMARK SMILES CN(CCS(C)(=O)=O)c1ccc2ccc(OCc3cncc(-n4cc(-c5ccn(C)n5)c5c(N)ncnc54)c3)cc2n1
REMARK SMILES IDX 9 1 10 2 11 3 12 4 13 5 14 6 15 7 40 8 41 9 42 10 2 16 1 17
REMARK SMILES IDX 3 21 4 24 5 27 7 28 8 29 6 30 16 34 17 35 18 38 19 39 39 40
REMARK SMILES IDX 20 41 22 43 21 45 23 47 24 48 38 49 25 50 32 52 37 53 33 54
REMARK SMILES IDX 36 55 35 56 26 58 27 59 31 60 28 61 29 63 30 65 34 69
REMARK H PARENT 10 11 11 12 13 13 14 14 40 15 1 18 1 19 1 20 3 22 3 23 4 25
REMARK H PARENT 4 26 6 31 6 32 6 33 17 36 17 37 19 42 39 44 21 46 24 51 36 57
REMARK H PARENT 27 62 28 64 30 66 30 67 30 68 34 70 34 71
REMARK Flexibility Score: inf
ROOT
ATOM      1  C   UNL     1     -48.752  28.895  24.207  1.00  0.00     0.129 A 
ATOM      2  C   UNL     1     -47.752  29.040  23.247  1.00  0.00    -0.019 A 
ATOM      3  C   UNL     1     -46.931  30.164  23.260  1.00  0.00    -0.049 A 
ATOM      4  C   UNL     1     -47.125  31.147  24.231  1.00  0.00     0.001 A 
ATOM      5  C   UNL     1     -46.326  32.299  24.296  1.00  0.00    -0.049 A 
ATOM      6  C   UNL     1     -46.554  33.264  25.278  1.00  0.00    -0.019 A 
ATOM      7  C   UNL     1     -47.582  33.083  26.196  1.00  0.00     0.122 A 
ATOM      8  C   UNL     1     -48.367  31.925  26.123  1.00  0.00     0.007 A 
ATOM      9  C   UNL     1     -48.162  30.950  25.157  1.00  0.00     0.076 A 
ATOM     10  N   UNL     1     -48.952  29.859  25.134  1.00  0.00    -0.231 NA
ATOM     11  H   UNL     1     -47.609  28.294  22.473  1.00  0.00     0.066 H 
ATOM     12  H   UNL     1     -46.151  30.265  22.511  1.00  0.00     0.063 H 
ATOM     13  H   UNL     1     -45.517  32.449  23.584  1.00  0.00     0.063 H 
ATOM     14  H   UNL     1     -45.902  34.130  25.301  1.00  0.00     0.066 H 
ATOM     15  H   UNL     1     -49.166  31.778  26.847  1.00  0.00     0.069 H 
ENDROOT
BRANCH   1  16
ATOM     16  N   UNL     1     -49.600  27.775  24.192  1.00  0.00    -0.359 N 
BRANCH  16  17
ATOM     17  C   UNL     1     -51.020  28.108  24.315  1.00  0.00     0.008 C 
ATOM     18  H   UNL     1     -51.531  27.445  25.023  1.00  0.00     0.046 H 
ATOM     19  H   UNL     1     -51.161  29.151  24.623  1.00  0.00     0.046 H 
ATOM     20  H   UNL     1     -51.514  28.003  23.342  1.00  0.00     0.046 H 
ENDBRANCH  16  17
BRANCH  16  21
ATOM     21  C   UNL     1     -49.160  26.605  24.972  1.00  0.00     0.033 C 
ATOM     22  H   UNL     1     -48.548  25.945  24.344  1.00  0.00     0.050 H 
ATOM     23  H   UNL     1     -50.000  25.979  25.303  1.00  0.00     0.050 H 
BRANCH  21  24
ATOM     24  C   UNL     1     -48.348  27.082  26.163  1.00  0.00     0.067 C 
ATOM     25  H   UNL     1     -48.083  28.139  26.060  1.00  0.00     0.045 H 
ATOM     26  H   UNL     1     -48.896  26.944  27.100  1.00  0.00     0.045 H 
BRANCH  24  27
ATOM     27  S   UNL     1     -46.838  26.156  26.284  1.00  0.00     0.149 S 
ATOM     28  O   UNL     1     -46.118  26.616  27.456  1.00  0.00    -0.229 OA
ATOM     29  O   UNL     1     -46.210  26.147  24.976  1.00  0.00    -0.229 OA
BRANCH  27  30
ATOM     30  C   UNL     1     -47.411  24.509  26.616  1.00  0.00     0.039 C 
ATOM     31  H   UNL     1     -47.436  24.354  27.697  1.00  0.00     0.040 H 
ATOM     32  H   UNL     1     -48.405  24.387  26.185  1.00  0.00     0.040 H 
ATOM     33  H   UNL     1     -46.714  23.806  26.154  1.00  0.00     0.040 H 
ENDBRANCH  27  30
ENDBRANCH  24  27
ENDBRANCH  21  24
ENDBRANCH  16  21
ENDBRANCH   1  16
BRANCH   7  34
ATOM     34  O   UNL     1     -47.918  33.931  27.216  1.00  0.00    -0.489 OA
BRANCH  34  35
ATOM     35  C   UNL     1     -48.292  35.274  26.901  1.00  0.00     0.115 C 
ATOM     36  H   UNL     1     -49.280  35.435  27.351  1.00  0.00     0.076 H 
ATOM     37  H   UNL     1     -48.428  35.398  25.819  1.00  0.00     0.076 H 
BRANCH  35  38
ATOM     38  C   UNL     1     -47.360  36.306  27.482  1.00  0.00     0.010 A 
ATOM     39  C   UNL     1     -46.619  36.014  28.619  1.00  0.00     0.034 A 
ATOM     40  C   UNL     1     -47.160  37.560  26.883  1.00  0.00    -0.028 A 
ATOM     41  N   UNL     1     -45.753  36.872  29.193  1.00  0.00    -0.262 NA
ATOM     42  H   UNL     1     -46.704  35.055  29.122  1.00  0.00     0.084 H 
ATOM     43  C   UNL     1     -46.270  38.482  27.442  1.00  0.00     0.066 A 
ATOM     44  H   UNL     1     -47.740  37.789  25.994  1.00  0.00     0.065 H 
ATOM     45  C   UNL     1     -45.600  38.080  28.595  1.00  0.00     0.051 A 
ATOM     46  H   UNL     1     -44.872  38.702  29.104  1.00  0.00     0.086 H 
BRANCH  43  47
ATOM     47  N   UNL     1     -46.045  39.778  26.874  1.00  0.00    -0.299 N 
ATOM     48  C   UNL     1     -44.840  40.212  26.345  1.00  0.00     0.021 A 
ATOM     49  C   UNL     1     -46.953  40.830  26.742  1.00  0.00     0.150 A 
ATOM     50  C   UNL     1     -44.967  41.514  25.907  1.00  0.00     0.033 A 
ATOM     51  H   UNL     1     -43.959  39.589  26.359  1.00  0.00     0.083 H 
ATOM     52  C   UNL     1     -46.313  41.911  26.131  1.00  0.00     0.071 A 
ATOM     53  N   UNL     1     -48.250  40.813  27.114  1.00  0.00    -0.218 NA
ATOM     54  C   UNL     1     -47.099  43.055  25.893  1.00  0.00     0.137 A 
ATOM     55  C   UNL     1     -48.882  41.965  26.864  1.00  0.00     0.120 A 
ATOM     56  N   UNL     1     -48.384  43.068  26.289  1.00  0.00    -0.219 NA
ATOM     57  H   UNL     1     -49.925  42.012  27.159  1.00  0.00     0.106 H 
BRANCH  50  58
ATOM     58  C   UNL     1     -43.895  42.334  25.333  1.00  0.00     0.095 A 
ATOM     59  C   UNL     1     -42.746  42.760  26.040  1.00  0.00    -0.016 A 
ATOM     60  N   UNL     1     -43.903  42.800  24.078  1.00  0.00    -0.173 NA
ATOM     61  C   UNL     1     -42.030  43.512  25.137  1.00  0.00     0.025 A 
ATOM     62  H   UNL     1     -42.469  42.544  27.061  1.00  0.00     0.066 H 
ATOM     63  N   UNL     1     -42.759  43.505  23.985  1.00  0.00    -0.275 N 
ATOM     64  H   UNL     1     -41.088  44.036  25.221  1.00  0.00     0.084 H 
BRANCH  63  65
ATOM     65  C   UNL     1     -42.423  44.154  22.742  1.00  0.00     0.030 C 
ATOM     66  H   UNL     1     -42.805  43.544  21.920  1.00  0.00     0.048 H 
ATOM     67  H   UNL     1     -42.887  45.144  22.734  1.00  0.00     0.048 H 
ATOM     68  H   UNL     1     -41.337  44.250  22.663  1.00  0.00     0.048 H 
ENDBRANCH  63  65
ENDBRANCH  50  58
BRANCH  54  69
ATOM     69  N   UNL     1     -46.635  44.201  25.263  1.00  0.00    -0.383 N 
ATOM     70  H   UNL     1     -45.622  44.320  25.364  1.00  0.00     0.158 HD
ATOM     71  H   UNL     1     -47.210  45.000  25.485  1.00  0.00     0.158 HD
ENDBRANCH  54  69
ENDBRANCH  43  47
ENDBRANCH  35  38
ENDBRANCH  34  35
ENDBRANCH   7  34
TORSDOF 13
ENDMDL
MODEL 4
REMARK VINA RESULT:      -9.6      1.848      2.465
REMARK SMILES CN(CCS(C)(=O)=O)c1ccc2ccc(OCc3cncc(-n4cc(-c5ccn(C)n5)c5c(N)ncnc54)c3)cc2n1
REMARK SMILES IDX 9 1 10 2 11 3 12 4 13 5 14 6 15 7 40 8 41 9 42 10 2 16 1 17
REMARK SMILES IDX 3 21 4 24 5 27 7 28 8 29 6 30 16 34 17 35 18 38 19 39 39 40
REMARK SMILES IDX 20 41 22 43 21 45 23 47 24 48 38 49 25 50 32 52 37 53 33 54
REMARK SMILES IDX 36 55 35 56 26 58 27 59 31 60 28 61 29 63 30 65 34 69
REMARK H PARENT 10 11 11 12 13 13 14 14 40 15 1 18 1 19 1 20 3 22 3 23 4 25
REMARK H PARENT 4 26 6 31 6 32 6 33 17 36 17 37 19 42 39 44 21 46 24 51 36 57
REMARK H PARENT 27 62 28 64 30 66 30 67 30 68 34 70 34 71
REMARK Flexibility Score: inf
ROOT
ATOM      1  C   UNL     1     -43.198  41.768  27.054  1.00  0.00     0.129 A 
ATOM      2  C   UNL     1     -42.454  41.875  28.228  1.00  0.00    -0.019 A 
ATOM      3  C   UNL     1     -42.618  40.940  29.246  1.00  0.00    -0.049 A 
ATOM      4  C   UNL     1     -43.540  39.905  29.087  1.00  0.00     0.001 A 
ATOM      5  C   UNL     1     -43.745  38.931  30.077  1.00  0.00    -0.049 A 
ATOM      6  C   UNL     1     -44.681  37.913  29.885  1.00  0.00    -0.019 A 
ATOM      7  C   UNL     1     -45.416  37.867  28.705  1.00  0.00     0.122 A 
ATOM      8  C   UNL     1     -45.196  38.842  27.724  1.00  0.00     0.007 A 
ATOM      9  C   UNL     1     -44.271  39.864  27.889  1.00  0.00     0.076 A 
ATOM     10  N   UNL     1     -44.106  40.776  26.912  1.00  0.00    -0.231 NA
ATOM     11  H   UNL     1     -41.753  42.690  28.372  1.00  0.00     0.066 H 
ATOM     12  H   UNL     1     -42.029  41.029  30.153  1.00  0.00     0.063 H 
ATOM     13  H   UNL     1     -43.173  38.956  31.001  1.00  0.00     0.063 H 
ATOM     14  H   UNL     1     -44.794  37.173  30.668  1.00  0.00     0.066 H 
ATOM     15  H   UNL     1     -45.764  38.801  26.797  1.00  0.00     0.069 H 
ENDROOT
BRANCH   1  16
ATOM     16  N   UNL     1     -43.056  42.718  26.029  1.00  0.00    -0.359 N 
BRANCH  16  17
ATOM     17  C   UNL     1     -41.663  43.015  25.691  1.00  0.00     0.008 C 
ATOM     18  H   UNL     1     -41.403  44.054  25.926  1.00  0.00     0.046 H 
ATOM     19  H   UNL     1     -40.972  42.339  26.208  1.00  0.00     0.046 H 
ATOM     20  H   UNL     1     -41.498  42.864  24.618  1.00  0.00     0.046 H 
ENDBRANCH  16  17
BRANCH  16  21
ATOM     21  C   UNL     1     -43.952  43.886  26.083  1.00  0.00     0.033 C 
ATOM     22  H   UNL     1     -43.378  44.806  25.908  1.00  0.00     0.050 H 
ATOM     23  H   UNL     1     -44.406  44.023  27.073  1.00  0.00     0.050 H 
BRANCH  21  24
ATOM     24  C   UNL     1     -45.023  43.736  25.018  1.00  0.00     0.067 C 
ATOM     25  H   UNL     1     -44.853  42.841  24.412  1.00  0.00     0.045 H 
ATOM     26  H   UNL     1     -46.022  43.677  25.463  1.00  0.00     0.045 H 
BRANCH  24  27
ATOM     27  S   UNL     1     -45.004  45.138  23.930  1.00  0.00     0.149 S 
ATOM     28  O   UNL     1     -43.784  45.883  24.175  1.00  0.00    -0.229 OA
ATOM     29  O   UNL     1     -46.301  45.783  24.005  1.00  0.00    -0.229 OA
BRANCH  27  30
ATOM     30  C   UNL     1     -44.867  44.392  22.325  1.00  0.00     0.039 C 
ATOM     31  H   UNL     1     -45.867  44.156  21.958  1.00  0.00     0.040 H 
ATOM     32  H   UNL     1     -44.361  45.088  21.654  1.00  0.00     0.040 H 
ATOM     33  H   UNL     1     -44.280  43.476  22.426  1.00  0.00     0.040 H 
ENDBRANCH  27  30
ENDBRANCH  24  27
ENDBRANCH  21  24
ENDBRANCH  16  21
ENDBRANCH   1  16
BRANCH   7  34
ATOM     34  O   UNL     1     -46.356  36.931  28.371  1.00  0.00    -0.489 OA
BRANCH  34  35
ATOM     35  C   UNL     1     -46.039  35.964  27.367  1.00  0.00     0.115 C 
ATOM     36  H   UNL     1     -45.266  35.313  27.796  1.00  0.00     0.076 H 
ATOM     37  H   UNL     1     -45.581  36.444  26.494  1.00  0.00     0.076 H 
BRANCH  35  38
ATOM     38  C   UNL     1     -47.206  35.088  26.991  1.00  0.00     0.010 A 
ATOM     39  C   UNL     1     -48.505  35.543  27.172  1.00  0.00     0.034 A 
ATOM     40  C   UNL     1     -47.038  33.825  26.402  1.00  0.00    -0.028 A 
ATOM     41  N   UNL     1     -49.604  34.831  26.849  1.00  0.00    -0.262 NA
ATOM     42  H   UNL     1     -48.711  36.520  27.600  1.00  0.00     0.084 H 
ATOM     43  C   UNL     1     -48.148  33.051  26.048  1.00  0.00     0.066 A 
ATOM     44  H   UNL     1     -46.022  33.468  26.262  1.00  0.00     0.065 H 
ATOM     45  C   UNL     1     -49.400  33.607  26.298  1.00  0.00     0.051 A 
ATOM     46  H   UNL     1     -50.331  33.110  26.047  1.00  0.00     0.086 H 
BRANCH  43  47
ATOM     47  N   UNL     1     -48.025  31.751  25.459  1.00  0.00    -0.299 N 
ATOM     48  C   UNL     1     -48.615  30.599  25.955  1.00  0.00     0.021 A 
ATOM     49  C   UNL     1     -47.314  31.387  24.315  1.00  0.00     0.150 A 
ATOM     50  C   UNL     1     -48.273  29.523  25.163  1.00  0.00     0.033 A 
ATOM     51  H   UNL     1     -49.197  30.607  26.865  1.00  0.00     0.083 H 
ATOM     52  C   UNL     1     -47.465  30.015  24.101  1.00  0.00     0.071 A 
ATOM     53  N   UNL     1     -46.611  32.218  23.517  1.00  0.00    -0.218 NA
ATOM     54  C   UNL     1     -46.832  29.482  22.962  1.00  0.00     0.137 A 
ATOM     55  C   UNL     1     -46.033  31.591  22.487  1.00  0.00     0.120 A 
ATOM     56  N   UNL     1     -46.099  30.290  22.175  1.00  0.00    -0.219 NA
ATOM     57  H   UNL     1     -45.440  32.211  21.822  1.00  0.00     0.106 H 
BRANCH  50  58
ATOM     58  C   UNL     1     -48.662  28.128  25.394  1.00  0.00     0.095 A 
ATOM     59  C   UNL     1     -49.934  27.591  25.089  1.00  0.00    -0.016 A 
ATOM     60  N   UNL     1     -47.860  27.213  25.953  1.00  0.00    -0.173 NA
ATOM     61  C   UNL     1     -49.868  26.274  25.483  1.00  0.00     0.025 A 
ATOM     62  H   UNL     1     -50.781  28.086  24.638  1.00  0.00     0.066 H 
ATOM     63  N   UNL     1     -48.615  26.098  25.988  1.00  0.00    -0.275 N 
ATOM     64  H   UNL     1     -50.593  25.472  25.444  1.00  0.00     0.084 H 
BRANCH  63  65
ATOM     65  C   UNL     1     -48.061  24.881  26.529  1.00  0.00     0.030 C 
ATOM     66  H   UNL     1     -48.884  24.247  26.867  1.00  0.00     0.048 H 
ATOM     67  H   UNL     1     -47.490  24.383  25.741  1.00  0.00     0.048 H 
ATOM     68  H   UNL     1     -47.405  25.121  27.370  1.00  0.00     0.048 H 
ENDBRANCH  63  65
ENDBRANCH  50  58
BRANCH  54  69
ATOM     69  N   UNL     1     -46.910  28.151  22.579  1.00  0.00    -0.383 N 
ATOM     70  H   UNL     1     -45.999  27.766  22.314  1.00  0.00     0.158 HD
ATOM     71  H   UNL     1     -47.673  27.999  21.933  1.00  0.00     0.158 HD
ENDBRANCH  54  69
ENDBRANCH  43  47
ENDBRANCH  35  38
ENDBRANCH  34  35
ENDBRANCH   7  34
TORSDOF 13
ENDMDL
MODEL 5
REMARK VINA RESULT:      -9.3      4.258     13.195
REMARK SMILES CN(CCS(C)(=O)=O)c1ccc2ccc(OCc3cncc(-n4cc(-c5ccn(C)n5)c5c(N)ncnc54)c3)cc2n1
REMARK SMILES IDX 9 1 10 2 11 3 12 4 13 5 14 6 15 7 40 8 41 9 42 10 2 16 1 17
REMARK SMILES IDX 3 21 4 24 5 27 7 28 8 29 6 30 16 34 17 35 18 38 19 39 39 40
REMARK SMILES IDX 20 41 22 43 21 45 23 47 24 48 38 49 25 50 32 52 37 53 33 54
REMARK SMILES IDX 36 55 35 56 26 58 27 59 31 60 28 61 29 63 30 65 34 69
REMARK H PARENT 10 11 11 12 13 13 14 14 40 15 1 18 1 19 1 20 3 22 3 23 4 25
REMARK H PARENT 4 26 6 31 6 32 6 33 17 36 17 37 19 42 39 44 21 46 24 51 36 57
REMARK H PARENT 27 62 28 64 30 66 30 67 30 68 34 70 34 71
REMARK Flexibility Score: inf
ROOT
ATOM      1  C   UNL     1     -47.222  30.804  23.933  1.00  0.00     0.129 A 
ATOM      2  C   UNL     1     -48.606  30.852  24.099  1.00  0.00    -0.019 A 
ATOM      3  C   UNL     1     -49.179  31.844  24.890  1.00  0.00    -0.049 A 
ATOM      4  C   UNL     1     -48.360  32.778  25.524  1.00  0.00     0.001 A 
ATOM      5  C   UNL     1     -48.882  33.802  26.329  1.00  0.00    -0.049 A 
ATOM      6  C   UNL     1     -48.031  34.716  26.952  1.00  0.00    -0.019 A 
ATOM      7  C   UNL     1     -46.656  34.608  26.775  1.00  0.00     0.122 A 
ATOM      8  C   UNL     1     -46.150  33.585  25.963  1.00  0.00     0.007 A 
ATOM      9  C   UNL     1     -46.974  32.663  25.332  1.00  0.00     0.076 A 
ATOM     10  N   UNL     1     -46.429  31.698  24.566  1.00  0.00    -0.231 NA
ATOM     11  H   UNL     1     -49.249  30.115  23.631  1.00  0.00     0.066 H 
ATOM     12  H   UNL     1     -50.258  31.875  25.008  1.00  0.00     0.063 H 
ATOM     13  H   UNL     1     -49.956  33.897  26.472  1.00  0.00     0.063 H 
ATOM     14  H   UNL     1     -48.478  35.501  27.552  1.00  0.00     0.066 H 
ATOM     15  H   UNL     1     -45.075  33.505  25.816  1.00  0.00     0.069 H 
ENDROOT
BRANCH   1  16
ATOM     16  N   UNL     1     -46.631  29.796  23.154  1.00  0.00    -0.359 N 
BRANCH  16  17
ATOM     17  C   UNL     1     -46.069  30.281  21.892  1.00  0.00     0.008 C 
ATOM     18  H   UNL     1     -45.052  29.903  21.732  1.00  0.00     0.046 H 
ATOM     19  H   UNL     1     -46.700  30.004  21.040  1.00  0.00     0.046 H 
ATOM     20  H   UNL     1     -46.021  31.376  21.900  1.00  0.00     0.046 H 
ENDBRANCH  16  17
BRANCH  16  21
ATOM     21  C   UNL     1     -47.358  28.518  23.067  1.00  0.00     0.033 C 
ATOM     22  H   UNL     1     -47.154  28.037  22.101  1.00  0.00     0.050 H 
ATOM     23  H   UNL     1     -48.448  28.650  23.090  1.00  0.00     0.050 H 
BRANCH  21  24
ATOM     24  C   UNL     1     -46.904  27.614  24.200  1.00  0.00     0.067 C 
ATOM     25  H   UNL     1     -46.409  26.718  23.814  1.00  0.00     0.045 H 
ATOM     26  H   UNL     1     -46.216  28.135  24.873  1.00  0.00     0.045 H 
BRANCH  24  27
ATOM     27  S   UNL     1     -48.301  27.090  25.161  1.00  0.00     0.149 S 
ATOM     28  O   UNL     1     -48.554  28.095  26.175  1.00  0.00    -0.229 OA
ATOM     29  O   UNL     1     -48.102  25.699  25.520  1.00  0.00    -0.229 OA
BRANCH  27  30
ATOM     30  C   UNL     1     -49.634  27.158  23.991  1.00  0.00     0.039 C 
ATOM     31  H   UNL     1     -50.467  26.563  24.369  1.00  0.00     0.040 H 
ATOM     32  H   UNL     1     -49.931  28.199  23.854  1.00  0.00     0.040 H 
ATOM     33  H   UNL     1     -49.277  26.744  23.044  1.00  0.00     0.040 H 
ENDBRANCH  27  30
ENDBRANCH  24  27
ENDBRANCH  21  24
ENDBRANCH  16  21
ENDBRANCH   1  16
BRANCH   7  34
ATOM     34  O   UNL     1     -45.702  35.430  27.309  1.00  0.00    -0.489 OA
BRANCH  34  35
ATOM     35  C   UNL     1     -46.025  36.199  28.470  1.00  0.00     0.115 C 
ATOM     36  H   UNL     1     -45.089  36.328  29.027  1.00  0.00     0.076 H 
ATOM     37  H   UNL     1     -46.697  35.640  29.133  1.00  0.00     0.076 H 
BRANCH  35  38
ATOM     38  C   UNL     1     -46.552  37.574  28.149  1.00  0.00     0.010 A 
ATOM     39  C   UNL     1     -47.869  37.901  28.441  1.00  0.00     0.034 A 
ATOM     40  C   UNL     1     -45.739  38.581  27.604  1.00  0.00    -0.028 A 
ATOM     41  N   UNL     1     -48.415  39.110  28.202  1.00  0.00    -0.262 NA
ATOM     42  H   UNL     1     -48.549  37.179  28.886  1.00  0.00     0.084 H 
ATOM     43  C   UNL     1     -46.262  39.851  27.341  1.00  0.00     0.066 A 
ATOM     44  H   UNL     1     -44.710  38.325  27.375  1.00  0.00     0.065 H 
ATOM     45  C   UNL     1     -47.603  40.052  27.658  1.00  0.00     0.051 A 
ATOM     46  H   UNL     1     -48.109  41.000  27.517  1.00  0.00     0.086 H 
BRANCH  43  47
ATOM     47  N   UNL     1     -45.474  40.904  26.772  1.00  0.00    -0.299 N 
ATOM     48  C   UNL     1     -45.899  41.751  25.760  1.00  0.00     0.021 A 
ATOM     49  C   UNL     1     -44.170  41.280  27.100  1.00  0.00     0.150 A 
ATOM     50  C   UNL     1     -44.887  42.631  25.435  1.00  0.00     0.033 A 
ATOM     51  H   UNL     1     -46.871  41.644  25.303  1.00  0.00     0.083 H 
ATOM     52  C   UNL     1     -43.791  42.358  26.298  1.00  0.00     0.071 A 
ATOM     53  N   UNL     1     -43.398  40.721  28.055  1.00  0.00    -0.218 NA
ATOM     54  C   UNL     1     -42.505  42.886  26.520  1.00  0.00     0.137 A 
ATOM     55  C   UNL     1     -42.192  41.289  28.152  1.00  0.00     0.120 A 
ATOM     56  N   UNL     1     -41.709  42.318  27.444  1.00  0.00    -0.219 NA
ATOM     57  H   UNL     1     -41.522  40.866  28.894  1.00  0.00     0.106 H 
BRANCH  50  58
ATOM     58  C   UNL     1     -44.940  43.646  24.378  1.00  0.00     0.095 A 
ATOM     59  C   UNL     1     -44.241  43.562  23.151  1.00  0.00    -0.016 A 
ATOM     60  N   UNL     1     -45.635  44.787  24.473  1.00  0.00    -0.173 NA
ATOM     61  C   UNL     1     -44.557  44.721  22.480  1.00  0.00     0.025 A 
ATOM     62  H   UNL     1     -43.603  42.766  22.796  1.00  0.00     0.066 H 
ATOM     63  N   UNL     1     -45.388  45.415  23.307  1.00  0.00    -0.275 N 
ATOM     64  H   UNL     1     -44.264  45.095  21.509  1.00  0.00     0.084 H 
BRANCH  63  65
ATOM     65  C   UNL     1     -45.995  46.698  23.050  1.00  0.00     0.030 C 
ATOM     66  H   UNL     1     -47.016  46.681  23.439  1.00  0.00     0.048 H 
ATOM     67  H   UNL     1     -45.404  47.466  23.553  1.00  0.00     0.048 H 
ATOM     68  H   UNL     1     -46.010  46.884  21.973  1.00  0.00     0.048 H 
ENDBRANCH  63  65
ENDBRANCH  50  58
BRANCH  54  69
ATOM     69  N   UNL     1     -41.983  43.977  25.841  1.00  0.00    -0.383 N 
ATOM     70  H   UNL     1     -41.541  44.655  26.469  1.00  0.00     0.158 HD
ATOM     71  H   UNL     1     -42.644  44.343  25.170  1.00  0.00     0.158 HD
ENDBRANCH  54  69
ENDBRANCH  43  47
ENDBRANCH  35  38
ENDBRANCH  34  35
ENDBRANCH   7  34
TORSDOF 13
ENDMDL
MODEL 6
REMARK VINA RESULT:      -9.0      3.828     12.811
REMARK SMILES CN(CCS(C)(=O)=O)c1ccc2ccc(OCc3cncc(-n4cc(-c5ccn(C)n5)c5c(N)ncnc54)c3)cc2n1
REMARK SMILES IDX 9 1 10 2 11 3 12 4 13 5 14 6 15 7 40 8 41 9 42 10 2 16 1 17
REMARK SMILES IDX 3 21 4 24 5 27 7 28 8 29 6 30 16 34 17 35 18 38 19 39 39 40
REMARK SMILES IDX 20 41 22 43 21 45 23 47 24 48 38 49 25 50 32 52 37 53 33 54
REMARK SMILES IDX 36 55 35 56 26 58 27 59 31 60 28 61 29 63 30 65 34 69
REMARK H PARENT 10 11 11 12 13 13 14 14 40 15 1 18 1 19 1 20 3 22 3 23 4 25
REMARK H PARENT 4 26 6 31 6 32 6 33 17 36 17 37 19 42 39 44 21 46 24 51 36 57
REMARK H PARENT 27 62 28 64 30 66 30 67 30 68 34 70 34 71
REMARK Flexibility Score: inf
ROOT
ATOM      1  C   UNL     1     -48.498  29.626  24.134  1.00  0.00     0.129 A 
ATOM      2  C   UNL     1     -47.321  29.776  23.402  1.00  0.00    -0.019 A 
ATOM      3  C   UNL     1     -46.529  30.907  23.580  1.00  0.00    -0.049 A 
ATOM      4  C   UNL     1     -46.928  31.892  24.484  1.00  0.00     0.001 A 
ATOM      5  C   UNL     1     -46.168  33.051  24.708  1.00  0.00    -0.049 A 
ATOM      6  C   UNL     1     -46.602  34.017  25.617  1.00  0.00    -0.019 A 
ATOM      7  C   UNL     1     -47.798  33.830  26.302  1.00  0.00     0.122 A 
ATOM      8  C   UNL     1     -48.542  32.665  26.073  1.00  0.00     0.007 A 
ATOM      9  C   UNL     1     -48.133  31.689  25.176  1.00  0.00     0.076 A 
ATOM     10  N   UNL     1     -48.892  30.591  24.995  1.00  0.00    -0.231 NA
ATOM     11  H   UNL     1     -47.015  29.029  22.678  1.00  0.00     0.066 H 
ATOM     12  H   UNL     1     -45.611  31.012  23.009  1.00  0.00     0.063 H 
ATOM     13  H   UNL     1     -45.230  33.205  24.179  1.00  0.00     0.063 H 
ATOM     14  H   UNL     1     -45.976  34.888  25.770  1.00  0.00     0.066 H 
ATOM     15  H   UNL     1     -49.472  32.514  26.617  1.00  0.00     0.069 H 
ENDROOT
BRANCH   1  16
ATOM     16  N   UNL     1     -49.315  28.499  23.949  1.00  0.00    -0.359 N 
BRANCH  16  17
ATOM     17  C   UNL     1     -48.732  27.257  24.461  1.00  0.00     0.008 C 
ATOM     18  H   UNL     1     -48.184  26.716  23.681  1.00  0.00     0.046 H 
ATOM     19  H   UNL     1     -48.065  27.449  25.310  1.00  0.00     0.046 H 
ATOM     20  H   UNL     1     -49.524  26.597  24.832  1.00  0.00     0.046 H 
ENDBRANCH  16  17
BRANCH  16  21
ATOM     21  C   UNL     1     -49.993  28.383  22.646  1.00  0.00     0.033 C 
ATOM     22  H   UNL     1     -50.537  27.431  22.591  1.00  0.00     0.050 H 
ATOM     23  H   UNL     1     -49.287  28.351  21.805  1.00  0.00     0.050 H 
BRANCH  21  24
ATOM     24  C   UNL     1     -50.962  29.541  22.489  1.00  0.00     0.067 C 
ATOM     25  H   UNL     1     -51.979  29.181  22.304  1.00  0.00     0.045 H 
ATOM     26  H   UNL     1     -50.968  30.178  23.379  1.00  0.00     0.045 H 
BRANCH  24  27
ATOM     27  S   UNL     1     -50.487  30.552  21.110  1.00  0.00     0.149 S 
ATOM     28  O   UNL     1     -49.776  31.709  21.621  1.00  0.00    -0.229 OA
ATOM     29  O   UNL     1     -51.642  30.706  20.247  1.00  0.00    -0.229 OA
BRANCH  27  30
ATOM     30  C   UNL     1     -49.311  29.531  20.257  1.00  0.00     0.039 C 
ATOM     31  H   UNL     1     -49.249  29.856  19.216  1.00  0.00     0.040 H 
ATOM     32  H   UNL     1     -48.342  29.622  20.750  1.00  0.00     0.040 H 
ATOM     33  H   UNL     1     -49.660  28.497  20.306  1.00  0.00     0.040 H 
ENDBRANCH  27  30
ENDBRANCH  24  27
ENDBRANCH  21  24
ENDBRANCH  16  21
ENDBRANCH   1  16
BRANCH   7  34
ATOM     34  O   UNL     1     -48.344  34.678  27.226  1.00  0.00    -0.489 OA
BRANCH  34  35
ATOM     35  C   UNL     1     -47.473  35.420  28.082  1.00  0.00     0.115 C 
ATOM     36  H   UNL     1     -46.449  35.162  27.782  1.00  0.00     0.076 H 
ATOM     37  H   UNL     1     -47.576  35.092  29.123  1.00  0.00     0.076 H 
BRANCH  35  38
ATOM     38  C   UNL     1     -47.620  36.913  27.936  1.00  0.00     0.010 A 
ATOM     39  C   UNL     1     -48.861  37.511  28.111  1.00  0.00     0.034 A 
ATOM     40  C   UNL     1     -46.526  37.754  27.678  1.00  0.00    -0.028 A 
ATOM     41  N   UNL     1     -49.076  38.838  28.015  1.00  0.00    -0.262 NA
ATOM     42  H   UNL     1     -49.747  36.925  28.337  1.00  0.00     0.084 H 
ATOM     43  C   UNL     1     -46.702  39.137  27.571  1.00  0.00     0.066 A 
ATOM     44  H   UNL     1     -45.556  37.287  27.539  1.00  0.00     0.065 H 
ATOM     45  C   UNL     1     -47.998  39.616  27.746  1.00  0.00     0.051 A 
ATOM     46  H   UNL     1     -48.250  40.670  27.706  1.00  0.00     0.086 H 
BRANCH  43  47
ATOM     47  N   UNL     1     -45.617  40.032  27.293  1.00  0.00    -0.299 N 
ATOM     48  C   UNL     1     -45.557  40.888  26.205  1.00  0.00     0.021 A 
ATOM     49  C   UNL     1     -44.445  40.220  28.028  1.00  0.00     0.150 A 
ATOM     50  C   UNL     1     -44.369  41.588  26.229  1.00  0.00     0.033 A 
ATOM     51  H   UNL     1     -46.336  40.909  25.457  1.00  0.00     0.083 H 
ATOM     52  C   UNL     1     -43.663  41.190  27.397  1.00  0.00     0.071 A 
ATOM     53  N   UNL     1     -44.117  39.593  29.176  1.00  0.00    -0.218 NA
ATOM     54  C   UNL     1     -42.449  41.526  28.027  1.00  0.00     0.137 A 
ATOM     55  C   UNL     1     -42.931  39.974  29.661  1.00  0.00     0.120 A 
ATOM     56  N   UNL     1     -42.090  40.886  29.154  1.00  0.00    -0.219 NA
ATOM     57  H   UNL     1     -42.609  39.488  30.576  1.00  0.00     0.106 H 
BRANCH  50  58
ATOM     58  C   UNL     1     -43.919  42.551  25.219  1.00  0.00     0.095 A 
ATOM     59  C   UNL     1     -42.580  42.977  25.058  1.00  0.00    -0.016 A 
ATOM     60  N   UNL     1     -44.739  43.161  24.353  1.00  0.00    -0.173 NA
ATOM     61  C   UNL     1     -42.616  43.884  24.023  1.00  0.00     0.025 A 
ATOM     62  H   UNL     1     -41.706  42.663  25.608  1.00  0.00     0.066 H 
ATOM     63  N   UNL     1     -43.921  43.958  23.638  1.00  0.00    -0.275 N 
ATOM     64  H   UNL     1     -41.839  44.465  23.546  1.00  0.00     0.084 H 
BRANCH  63  65
ATOM     65  C   UNL     1     -44.469  44.775  22.583  1.00  0.00     0.030 C 
ATOM     66  H   UNL     1     -45.505  45.015  22.836  1.00  0.00     0.048 H 
ATOM     67  H   UNL     1     -43.871  45.686  22.507  1.00  0.00     0.048 H 
ATOM     68  H   UNL     1     -44.433  44.224  21.640  1.00  0.00     0.048 H 
ENDBRANCH  63  65
ENDBRANCH  50  58
BRANCH  54  69
ATOM     69  N   UNL     1     -41.571  42.494  27.559  1.00  0.00    -0.383 N 
ATOM     70  H   UNL     1     -41.915  43.444  27.723  1.00  0.00     0.158 HD
ATOM     71  H   UNL     1     -41.252  42.280  26.625  1.00  0.00     0.158 HD
ENDBRANCH  54  69
ENDBRANCH  43  47
ENDBRANCH  35  38
ENDBRANCH  34  35
ENDBRANCH   7  34
TORSDOF 13
ENDMDL
MODEL 7
REMARK VINA RESULT:      -8.6      4.306     13.159
REMARK SMILES CN(CCS(C)(=O)=O)c1ccc2ccc(OCc3cncc(-n4cc(-c5ccn(C)n5)c5c(N)ncnc54)c3)cc2n1
REMARK SMILES IDX 9 1 10 2 11 3 12 4 13 5 14 6 15 7 40 8 41 9 42 10 2 16 1 17
REMARK SMILES IDX 3 21 4 24 5 27 7 28 8 29 6 30 16 34 17 35 18 38 19 39 39 40
REMARK SMILES IDX 20 41 22 43 21 45 23 47 24 48 38 49 25 50 32 52 37 53 33 54
REMARK SMILES IDX 36 55 35 56 26 58 27 59 31 60 28 61 29 63 30 65 34 69
REMARK H PARENT 10 11 11 12 13 13 14 14 40 15 1 18 1 19 1 20 3 22 3 23 4 25
REMARK H PARENT 4 26 6 31 6 32 6 33 17 36 17 37 19 42 39 44 21 46 24 51 36 57
REMARK H PARENT 27 62 28 64 30 66 30 67 30 68 34 70 34 71
REMARK Flexibility Score: inf
ROOT
ATOM      1  C   UNL     1     -48.808  28.450  23.947  1.00  0.00     0.129 A 
ATOM      2  C   UNL     1     -48.193  28.244  22.714  1.00  0.00    -0.019 A 
ATOM      3  C   UNL     1     -47.304  29.190  22.210  1.00  0.00    -0.049 A 
ATOM      4  C   UNL     1     -47.046  30.349  22.942  1.00  0.00     0.001 A 
ATOM      5  C   UNL     1     -46.156  31.335  22.487  1.00  0.00    -0.049 A 
ATOM      6  C   UNL     1     -45.927  32.485  23.245  1.00  0.00    -0.019 A 
ATOM      7  C   UNL     1     -46.587  32.654  24.457  1.00  0.00     0.122 A 
ATOM      8  C   UNL     1     -47.466  31.658  24.901  1.00  0.00     0.007 A 
ATOM      9  C   UNL     1     -47.712  30.506  24.168  1.00  0.00     0.076 A 
ATOM     10  N   UNL     1     -48.572  29.584  24.645  1.00  0.00    -0.231 NA
ATOM     11  H   UNL     1     -48.406  27.359  22.125  1.00  0.00     0.066 H 
ATOM     12  H   UNL     1     -46.826  29.016  21.251  1.00  0.00     0.063 H 
ATOM     13  H   UNL     1     -45.633  31.211  21.542  1.00  0.00     0.063 H 
ATOM     14  H   UNL     1     -45.220  33.212  22.863  1.00  0.00     0.066 H 
ATOM     15  H   UNL     1     -47.976  31.785  25.854  1.00  0.00     0.069 H 
ENDROOT
BRANCH   1  16
ATOM     16  N   UNL     1     -49.722  27.512  24.456  1.00  0.00    -0.359 N 
BRANCH  16  17
ATOM     17  C   UNL     1     -50.461  27.985  25.628  1.00  0.00     0.008 C 
ATOM     18  H   UNL     1     -51.101  28.841  25.383  1.00  0.00     0.046 H 
ATOM     19  H   UNL     1     -51.070  27.186  26.066  1.00  0.00     0.046 H 
ATOM     20  H   UNL     1     -49.760  28.304  26.408  1.00  0.00     0.046 H 
ENDBRANCH  16  17
BRANCH  16  21
ATOM     21  C   UNL     1     -49.261  26.115  24.526  1.00  0.00     0.033 C 
ATOM     22  H   UNL     1     -48.241  26.037  24.128  1.00  0.00     0.050 H 
ATOM     23  H   UNL     1     -49.859  25.442  23.897  1.00  0.00     0.050 H 
BRANCH  21  24
ATOM     24  C   UNL     1     -49.287  25.658  25.974  1.00  0.00     0.067 C 
ATOM     25  H   UNL     1     -49.975  26.269  26.566  1.00  0.00     0.045 H 
ATOM     26  H   UNL     1     -49.586  24.609  26.055  1.00  0.00     0.045 H 
BRANCH  24  27
ATOM     27  S   UNL     1     -47.671  25.812  26.691  1.00  0.00     0.149 S 
ATOM     28  O   UNL     1     -47.292  24.520  27.231  1.00  0.00    -0.229 OA
ATOM     29  O   UNL     1     -47.659  27.001  27.521  1.00  0.00    -0.229 OA
BRANCH  27  30
ATOM     30  C   UNL     1     -46.641  26.129  25.281  1.00  0.00     0.039 C 
ATOM     31  H   UNL     1     -46.241  25.182  24.914  1.00  0.00     0.040 H 
ATOM     32  H   UNL     1     -47.237  26.622  24.512  1.00  0.00     0.040 H 
ATOM     33  H   UNL     1     -45.823  26.782  25.597  1.00  0.00     0.040 H 
ENDBRANCH  27  30
ENDBRANCH  24  27
ENDBRANCH  21  24
ENDBRANCH  16  21
ENDBRANCH   1  16
BRANCH   7  34
ATOM     34  O   UNL     1     -46.458  33.716  25.310  1.00  0.00    -0.489 OA
BRANCH  34  35
ATOM     35  C   UNL     1     -47.239  33.738  26.507  1.00  0.00     0.115 C 
ATOM     36  H   UNL     1     -46.610  33.308  27.296  1.00  0.00     0.076 H 
ATOM     37  H   UNL     1     -48.109  33.075  26.417  1.00  0.00     0.076 H 
BRANCH  35  38
ATOM     38  C   UNL     1     -47.623  35.129  26.945  1.00  0.00     0.010 A 
ATOM     39  C   UNL     1     -48.923  35.397  27.352  1.00  0.00     0.034 A 
ATOM     40  C   UNL     1     -46.693  36.178  27.012  1.00  0.00    -0.028 A 
ATOM     41  N   UNL     1     -49.345  36.606  27.773  1.00  0.00    -0.262 NA
ATOM     42  H   UNL     1     -49.690  34.627  27.349  1.00  0.00     0.084 H 
ATOM     43  C   UNL     1     -47.085  37.449  27.444  1.00  0.00     0.066 A 
ATOM     44  H   UNL     1     -45.677  35.969  26.692  1.00  0.00     0.065 H 
ATOM     45  C   UNL     1     -48.421  37.599  27.808  1.00  0.00     0.051 A 
ATOM     46  H   UNL     1     -48.833  38.531  28.177  1.00  0.00     0.086 H 
BRANCH  43  47
ATOM     47  N   UNL     1     -46.174  38.553  27.515  1.00  0.00    -0.299 N 
ATOM     48  C   UNL     1     -46.160  39.624  26.636  1.00  0.00     0.021 A 
ATOM     49  C   UNL     1     -45.153  38.771  28.443  1.00  0.00     0.150 A 
ATOM     50  C   UNL     1     -45.144  40.492  26.977  1.00  0.00     0.033 A 
ATOM     51  H   UNL     1     -46.837  39.676  25.796  1.00  0.00     0.083 H 
ATOM     52  C   UNL     1     -44.512  39.973  28.140  1.00  0.00     0.071 A 
ATOM     53  N   UNL     1     -44.842  37.972  29.484  1.00  0.00    -0.218 NA
ATOM     54  C   UNL     1     -43.468  40.363  29.001  1.00  0.00     0.137 A 
ATOM     55  C   UNL     1     -43.818  38.433  30.210  1.00  0.00     0.120 A 
ATOM     56  N   UNL     1     -43.121  39.562  30.024  1.00  0.00    -0.219 NA
ATOM     57  H   UNL     1     -43.513  37.819  31.052  1.00  0.00     0.106 H 
BRANCH  50  58
ATOM     58  C   UNL     1     -44.781  41.715  26.254  1.00  0.00     0.095 A 
ATOM     59  C   UNL     1     -43.883  41.763  25.162  1.00  0.00    -0.016 A 
ATOM     60  N   UNL     1     -45.238  42.933  26.571  1.00  0.00    -0.173 NA
ATOM     61  C   UNL     1     -43.821  43.092  24.810  1.00  0.00     0.025 A 
ATOM     62  H   UNL     1     -43.359  40.947  24.688  1.00  0.00     0.066 H 
ATOM     63  N   UNL     1     -44.644  43.746  25.676  1.00  0.00    -0.275 N 
ATOM     64  H   UNL     1     -43.272  43.608  24.034  1.00  0.00     0.084 H 
BRANCH  63  65
ATOM     65  C   UNL     1     -44.919  45.162  25.711  1.00  0.00     0.030 C 
ATOM     66  H   UNL     1     -45.660  45.388  24.941  1.00  0.00     0.048 H 
ATOM     67  H   UNL     1     -45.304  45.414  26.702  1.00  0.00     0.048 H 
ATOM     68  H   UNL     1     -43.998  45.716  25.515  1.00  0.00     0.048 H 
ENDBRANCH  63  65
ENDBRANCH  50  58
BRANCH  54  69
ATOM     69  N   UNL     1     -42.751  41.544  28.870  1.00  0.00    -0.383 N 
ATOM     70  H   UNL     1     -43.358  42.357  28.732  1.00  0.00     0.158 HD
ATOM     71  H   UNL     1     -41.981  41.437  28.225  1.00  0.00     0.158 HD
ENDBRANCH  54  69
ENDBRANCH  43  47
ENDBRANCH  35  38
ENDBRANCH  34  35
ENDBRANCH   7  34
TORSDOF 13
ENDMDL
