MODEL 1
REMARK VINA RESULT:     -10.4      0.000      0.000
REMARK SMILES CNc1ncnc2c1ccn2[C@@H]1C[C@H](CCc2ccc3ccc(N)nc3c2)[C@@H](O)[C@H]1O
REMARK SMILES IDX 12 1 13 2 14 3 28 4 30 5 11 12 3 13 4 14 8 15 5 16 7 17 9 18
REMARK SMILES IDX 6 19 10 21 2 24 1 26 31 30 15 32 16 35 17 38 18 39 27 40
REMARK SMILES IDX 19 41 26 43 20 45 25 47 21 48 23 49 22 50 24 53 29 56
REMARK H PARENT 12 6 13 7 13 8 14 9 28 10 30 11 5 20 9 22 10 23 2 25 1 27 1 28
REMARK H PARENT 1 29 31 31 15 33 15 34 16 36 16 37 18 42 27 44 19 46 21 51
REMARK H PARENT 22 52 24 54 24 55 29 57
REMARK Flexibility Score: inf
ROOT
ATOM      1  C   UNL     1     -45.714  39.080  28.613  1.00  0.00     0.064 C 
ATOM      2  C   UNL     1     -45.254  37.617  28.777  1.00  0.00    -0.024 C 
ATOM      3  C   UNL     1     -46.544  36.794  28.770  1.00  0.00    -0.010 C 
ATOM      4  C   UNL     1     -47.395  37.541  27.738  1.00  0.00     0.085 C 
ATOM      5  C   UNL     1     -47.162  39.018  28.086  1.00  0.00     0.101 C 
ATOM      6  H   UNL     1     -45.718  39.550  29.607  1.00  0.00     0.056 H 
ATOM      7  H   UNL     1     -44.590  37.303  27.963  1.00  0.00     0.029 H 
ATOM      8  H   UNL     1     -44.697  37.487  29.712  1.00  0.00     0.029 H 
ATOM      9  H   UNL     1     -47.034  36.857  29.751  1.00  0.00     0.033 H 
ATOM     10  H   UNL     1     -47.062  37.309  26.720  1.00  0.00     0.063 H 
ATOM     11  H   UNL     1     -47.371  39.674  27.237  1.00  0.00     0.065 H 
ENDROOT
BRANCH   1  12
ATOM     12  N   UNL     1     -44.813  39.873  27.792  1.00  0.00    -0.327 N 
ATOM     13  C   UNL     1     -41.851  41.773  27.325  1.00  0.00     0.138 A 
ATOM     14  N   UNL     1     -41.292  41.694  28.556  1.00  0.00    -0.219 NA
ATOM     15  C   UNL     1     -43.082  41.121  27.120  1.00  0.00     0.061 A 
ATOM     16  C   UNL     1     -41.929  40.998  29.516  1.00  0.00     0.120 A 
ATOM     17  C   UNL     1     -43.625  40.432  28.197  1.00  0.00     0.145 A 
ATOM     18  C   UNL     1     -43.989  40.965  26.035  1.00  0.00    -0.031 A 
ATOM     19  N   UNL     1     -43.091  40.330  29.427  1.00  0.00    -0.218 NA
ATOM     20  H   UNL     1     -41.438  40.973  30.484  1.00  0.00     0.106 H 
ATOM     21  C   UNL     1     -45.042  40.194  26.474  1.00  0.00     0.007 A 
ATOM     22  H   UNL     1     -43.886  41.379  25.040  1.00  0.00     0.065 H 
ATOM     23  H   UNL     1     -45.931  39.850  25.959  1.00  0.00     0.082 H 
BRANCH  13  24
ATOM     24  N   UNL     1     -41.221  42.493  26.307  1.00  0.00    -0.372 N 
ATOM     25  H   UNL     1     -40.297  42.803  26.585  1.00  0.00     0.161 HD
BRANCH  24  26
ATOM     26  C   UNL     1     -42.036  43.505  25.666  1.00  0.00     0.005 C 
ATOM     27  H   UNL     1     -43.072  43.172  25.544  1.00  0.00     0.045 H 
ATOM     28  H   UNL     1     -41.638  43.705  24.666  1.00  0.00     0.045 H 
ATOM     29  H   UNL     1     -42.017  44.446  26.226  1.00  0.00     0.045 H 
ENDBRANCH  24  26
ENDBRANCH  13  24
ENDBRANCH   1  12
BRANCH   5  30
ATOM     30  O   UNL     1     -48.064  39.410  29.138  1.00  0.00    -0.388 OA
ATOM     31  H   UNL     1     -48.717  40.009  28.718  1.00  0.00     0.211 HD
ENDBRANCH   5  30
BRANCH   3  32
ATOM     32  C   UNL     1     -46.350  35.317  28.406  1.00  0.00    -0.044 C 
ATOM     33  H   UNL     1     -47.285  34.772  28.596  1.00  0.00     0.027 H 
ATOM     34  H   UNL     1     -45.601  34.879  29.077  1.00  0.00     0.027 H 
BRANCH  32  35
ATOM     35  C   UNL     1     -45.947  35.068  26.946  1.00  0.00    -0.027 C 
ATOM     36  H   UNL     1     -45.999  36.016  26.396  1.00  0.00     0.032 H 
ATOM     37  H   UNL     1     -44.896  34.759  26.896  1.00  0.00     0.032 H 
BRANCH  35  38
ATOM     38  C   UNL     1     -46.820  34.067  26.230  1.00  0.00    -0.046 A 
ATOM     39  C   UNL     1     -48.160  33.902  26.588  1.00  0.00    -0.058 A 
ATOM     40  C   UNL     1     -46.294  33.280  25.191  1.00  0.00    -0.033 A 
ATOM     41  C   UNL     1     -48.954  32.977  25.912  1.00  0.00    -0.053 A 
ATOM     42  H   UNL     1     -48.596  34.492  27.391  1.00  0.00     0.063 H 
ATOM     43  C   UNL     1     -47.063  32.349  24.503  1.00  0.00     0.073 A 
ATOM     44  H   UNL     1     -45.252  33.391  24.901  1.00  0.00     0.065 H 
ATOM     45  C   UNL     1     -48.413  32.201  24.874  1.00  0.00     0.000 A 
ATOM     46  H   UNL     1     -49.996  32.863  26.201  1.00  0.00     0.063 H 
ATOM     47  N   UNL     1     -46.503  31.624  23.518  1.00  0.00    -0.231 NA
ATOM     48  C   UNL     1     -49.181  31.264  24.175  1.00  0.00    -0.049 A 
ATOM     49  C   UNL     1     -47.255  30.729  22.859  1.00  0.00     0.124 A 
ATOM     50  C   UNL     1     -48.594  30.520  23.156  1.00  0.00    -0.019 A 
ATOM     51  H   UNL     1     -50.228  31.109  24.418  1.00  0.00     0.063 H 
ATOM     52  H   UNL     1     -49.182  29.793  22.608  1.00  0.00     0.066 H 
BRANCH  49  53
ATOM     53  N   UNL     1     -46.643  29.994  21.838  1.00  0.00    -0.384 N 
ATOM     54  H   UNL     1     -47.223  30.024  21.005  1.00  0.00     0.158 HD
ATOM     55  H   UNL     1     -46.547  29.026  22.126  1.00  0.00     0.158 HD
ENDBRANCH  49  53
ENDBRANCH  35  38
ENDBRANCH  32  35
ENDBRANCH   3  32
BRANCH   4  56
ATOM     56  O   UNL     1     -48.773  37.209  27.866  1.00  0.00    -0.390 OA
ATOM     57  H   UNL     1     -49.279  38.023  27.697  1.00  0.00     0.211 HD
ENDBRANCH   4  56
TORSDOF 9
ENDMDL
MODEL 2
REMARK VINA RESULT:     -10.1      2.006     10.170
REMARK SMILES CNc1ncnc2c1ccn2[C@@H]1C[C@H](CCc2ccc3ccc(N)nc3c2)[C@@H](O)[C@H]1O
REMARK SMILES IDX 12 1 13 2 14 3 28 4 30 5 11 12 3 13 4 14 8 15 5 16 7 17 9 18
REMARK SMILES IDX 6 19 10 21 2 24 1 26 31 30 15 32 16 35 17 38 18 39 27 40
REMARK SMILES IDX 19 41 26 43 20 45 25 47 21 48 23 49 22 50 24 53 29 56
REMARK H PARENT 12 6 13 7 13 8 14 9 28 10 30 11 5 20 9 22 10 23 2 25 1 27 1 28
REMARK H PARENT 1 29 31 31 15 33 15 34 16 36 16 37 18 42 27 44 19 46 21 51
REMARK H PARENT 22 52 24 54 24 55 29 57
REMARK Flexibility Score: inf
ROOT
ATOM      1  C   UNL     1     -47.467  32.540  26.151  1.00  0.00     0.064 C 
ATOM      2  C   UNL     1     -48.223  33.884  26.155  1.00  0.00    -0.024 C 
ATOM      3  C   UNL     1     -47.467  34.758  27.158  1.00  0.00    -0.010 C 
ATOM      4  C   UNL     1     -46.013  34.347  26.910  1.00  0.00     0.085 C 
ATOM      5  C   UNL     1     -46.091  32.818  26.787  1.00  0.00     0.101 C 
ATOM      6  H   UNL     1     -48.018  31.836  26.791  1.00  0.00     0.056 H 
ATOM      7  H   UNL     1     -48.232  34.351  25.163  1.00  0.00     0.029 H 
ATOM      8  H   UNL     1     -49.268  33.741  26.451  1.00  0.00     0.029 H 
ATOM      9  H   UNL     1     -47.748  34.480  28.183  1.00  0.00     0.033 H 
ATOM     10  H   UNL     1     -45.632  34.807  25.991  1.00  0.00     0.063 H 
ATOM     11  H   UNL     1     -45.239  32.410  26.237  1.00  0.00     0.065 H 
ENDROOT
BRANCH   1  12
ATOM     12  N   UNL     1     -47.404  31.925  24.834  1.00  0.00    -0.327 N 
ATOM     13  C   UNL     1     -48.909  30.334  22.041  1.00  0.00     0.138 A 
ATOM     14  N   UNL     1     -50.208  30.307  22.424  1.00  0.00    -0.219 NA
ATOM     15  C   UNL     1     -47.976  30.908  22.926  1.00  0.00     0.061 A 
ATOM     16  C   UNL     1     -50.545  30.829  23.617  1.00  0.00     0.120 A 
ATOM     17  C   UNL     1     -48.463  31.416  24.123  1.00  0.00     0.145 A 
ATOM     18  C   UNL     1     -46.569  31.123  22.931  1.00  0.00    -0.031 A 
ATOM     19  N   UNL     1     -49.746  31.409  24.527  1.00  0.00    -0.218 NA
ATOM     20  H   UNL     1     -51.598  30.774  23.874  1.00  0.00     0.106 H 
ATOM     21  C   UNL     1     -46.245  31.750  24.114  1.00  0.00     0.007 A 
ATOM     22  H   UNL     1     -45.868  30.842  22.156  1.00  0.00     0.065 H 
ATOM     23  H   UNL     1     -45.288  32.083  24.499  1.00  0.00     0.082 H 
BRANCH  13  24
ATOM     24  N   UNL     1     -48.522  29.795  20.811  1.00  0.00    -0.372 N 
ATOM     25  H   UNL     1     -47.584  29.413  20.850  1.00  0.00     0.161 HD
BRANCH  24  26
ATOM     26  C   UNL     1     -48.794  30.625  19.656  1.00  0.00     0.005 C 
ATOM     27  H   UNL     1     -49.857  30.616  19.393  1.00  0.00     0.045 H 
ATOM     28  H   UNL     1     -48.243  30.233  18.795  1.00  0.00     0.045 H 
ATOM     29  H   UNL     1     -48.466  31.658  19.818  1.00  0.00     0.045 H 
ENDBRANCH  24  26
ENDBRANCH  13  24
ENDBRANCH   1  12
BRANCH   5  30
ATOM     30  O   UNL     1     -46.050  32.230  28.100  1.00  0.00    -0.388 OA
ATOM     31  H   UNL     1     -45.274  31.630  28.098  1.00  0.00     0.211 HD
ENDBRANCH   5  30
BRANCH   3  32
ATOM     32  C   UNL     1     -47.686  36.265  26.975  1.00  0.00    -0.044 C 
ATOM     33  H   UNL     1     -48.745  36.452  26.754  1.00  0.00     0.027 H 
ATOM     34  H   UNL     1     -47.127  36.604  26.095  1.00  0.00     0.027 H 
BRANCH  32  35
ATOM     35  C   UNL     1     -47.301  37.116  28.193  1.00  0.00    -0.027 C 
ATOM     36  H   UNL     1     -48.207  37.575  28.608  1.00  0.00     0.032 H 
ATOM     37  H   UNL     1     -46.909  36.472  28.990  1.00  0.00     0.032 H 
BRANCH  35  38
ATOM     38  C   UNL     1     -46.319  38.220  27.885  1.00  0.00    -0.046 A 
ATOM     39  C   UNL     1     -46.403  38.937  26.689  1.00  0.00    -0.058 A 
ATOM     40  C   UNL     1     -45.300  38.542  28.798  1.00  0.00    -0.033 A 
ATOM     41  C   UNL     1     -45.492  39.958  26.422  1.00  0.00    -0.053 A 
ATOM     42  H   UNL     1     -47.176  38.709  25.959  1.00  0.00     0.063 H 
ATOM     43  C   UNL     1     -44.378  39.553  28.556  1.00  0.00     0.073 A 
ATOM     44  H   UNL     1     -45.216  37.991  29.733  1.00  0.00     0.065 H 
ATOM     45  C   UNL     1     -44.482  40.268  27.348  1.00  0.00     0.000 A 
ATOM     46  H   UNL     1     -45.572  40.508  25.488  1.00  0.00     0.063 H 
ATOM     47  N   UNL     1     -43.425  39.813  29.468  1.00  0.00    -0.231 NA
ATOM     48  C   UNL     1     -43.551  41.286  27.113  1.00  0.00    -0.049 A 
ATOM     49  C   UNL     1     -42.540  40.792  29.225  1.00  0.00     0.124 A 
ATOM     50  C   UNL     1     -42.570  41.550  28.063  1.00  0.00    -0.019 A 
ATOM     51  H   UNL     1     -43.585  41.871  26.198  1.00  0.00     0.063 H 
ATOM     52  H   UNL     1     -41.846  42.338  27.889  1.00  0.00     0.066 H 
BRANCH  49  53
ATOM     53  N   UNL     1     -41.564  41.041  30.195  1.00  0.00    -0.384 N 
ATOM     54  H   UNL     1     -41.792  41.895  30.695  1.00  0.00     0.158 HD
ATOM     55  H   UNL     1     -40.662  41.164  29.747  1.00  0.00     0.158 HD
ENDBRANCH  49  53
ENDBRANCH  35  38
ENDBRANCH  32  35
ENDBRANCH   3  32
BRANCH   4  56
ATOM     56  O   UNL     1     -45.176  34.719  28.000  1.00  0.00    -0.390 OA
ATOM     57  H   UNL     1     -45.726  34.689  28.803  1.00  0.00     0.211 HD
ENDBRANCH   4  56
TORSDOF 9
ENDMDL
MODEL 3
REMARK VINA RESULT:      -9.7      2.198      9.912
REMARK SMILES CNc1ncnc2c1ccn2[C@@H]1C[C@H](CCc2ccc3ccc(N)nc3c2)[C@@H](O)[C@H]1O
REMARK SMILES IDX 12 1 13 2 14 3 28 4 30 5 11 12 3 13 4 14 8 15 5 16 7 17 9 18
REMARK SMILES IDX 6 19 10 21 2 24 1 26 31 30 15 32 16 35 17 38 18 39 27 40
REMARK SMILES IDX 19 41 26 43 20 45 25 47 21 48 23 49 22 50 24 53 29 56
REMARK H PARENT 12 6 13 7 13 8 14 9 28 10 30 11 5 20 9 22 10 23 2 25 1 27 1 28
REMARK H PARENT 1 29 31 31 15 33 15 34 16 36 16 37 18 42 27 44 19 46 21 51
REMARK H PARENT 22 52 24 54 24 55 29 57
REMARK Flexibility Score: inf
ROOT
ATOM      1  C   UNL     1     -48.181  32.396  26.018  1.00  0.00     0.064 C 
ATOM      2  C   UNL     1     -48.879  33.742  26.302  1.00  0.00    -0.024 C 
ATOM      3  C   UNL     1     -47.816  34.600  26.993  1.00  0.00    -0.010 C 
ATOM      4  C   UNL     1     -46.540  34.189  26.253  1.00  0.00     0.085 C 
ATOM      5  C   UNL     1     -46.667  32.663  26.144  1.00  0.00     0.101 C 
ATOM      6  H   UNL     1     -48.482  31.685  26.800  1.00  0.00     0.056 H 
ATOM      7  H   UNL     1     -49.226  34.225  25.380  1.00  0.00     0.029 H 
ATOM      8  H   UNL     1     -49.758  33.598  26.938  1.00  0.00     0.029 H 
ATOM      9  H   UNL     1     -47.728  34.306  28.049  1.00  0.00     0.033 H 
ATOM     10  H   UNL     1     -46.497  34.662  25.265  1.00  0.00     0.063 H 
ATOM     11  H   UNL     1     -46.061  32.261  25.328  1.00  0.00     0.065 H 
ENDROOT
BRANCH   1  12
ATOM     12  N   UNL     1     -48.580  31.802  24.753  1.00  0.00    -0.327 N 
ATOM     13  C   UNL     1     -47.841  30.256  21.644  1.00  0.00     0.138 A 
ATOM     14  N   UNL     1     -46.489  30.197  21.695  1.00  0.00    -0.219 NA
ATOM     15  C   UNL     1     -48.515  30.830  22.738  1.00  0.00     0.061 A 
ATOM     16  C   UNL     1     -45.859  30.680  22.781  1.00  0.00     0.120 A 
ATOM     17  C   UNL     1     -47.739  31.283  23.798  1.00  0.00     0.145 A 
ATOM     18  C   UNL     1     -49.871  31.097  23.080  1.00  0.00    -0.031 A 
ATOM     19  N   UNL     1     -46.399  31.231  23.880  1.00  0.00    -0.218 NA
ATOM     20  H   UNL     1     -44.775  30.612  22.765  1.00  0.00     0.106 H 
ATOM     21  C   UNL     1     -49.882  31.692  24.322  1.00  0.00     0.007 A 
ATOM     22  H   UNL     1     -50.745  30.883  22.478  1.00  0.00     0.065 H 
ATOM     23  H   UNL     1     -50.706  32.045  24.931  1.00  0.00     0.082 H 
BRANCH  13  24
ATOM     24  N   UNL     1     -48.529  29.771  20.529  1.00  0.00    -0.372 N 
ATOM     25  H   UNL     1     -48.122  28.909  20.184  1.00  0.00     0.161 HD
BRANCH  24  26
ATOM     26  C   UNL     1     -48.827  30.754  19.507  1.00  0.00     0.005 C 
ATOM     27  H   UNL     1     -47.945  30.987  18.901  1.00  0.00     0.045 H 
ATOM     28  H   UNL     1     -49.147  31.684  19.986  1.00  0.00     0.045 H 
ATOM     29  H   UNL     1     -49.641  30.418  18.855  1.00  0.00     0.045 H 
ENDBRANCH  24  26
ENDBRANCH  13  24
ENDBRANCH   1  12
BRANCH   5  30
ATOM     30  O   UNL     1     -46.180  32.054  27.354  1.00  0.00    -0.388 OA
ATOM     31  H   UNL     1     -45.455  32.633  27.669  1.00  0.00     0.211 HD
ENDBRANCH   5  30
BRANCH   3  32
ATOM     32  C   UNL     1     -48.074  36.109  26.918  1.00  0.00    -0.044 C 
ATOM     33  H   UNL     1     -49.102  36.284  26.575  1.00  0.00     0.027 H 
ATOM     34  H   UNL     1     -47.420  36.547  26.154  1.00  0.00     0.027 H 
BRANCH  32  35
ATOM     35  C   UNL     1     -47.888  36.854  28.248  1.00  0.00    -0.027 C 
ATOM     36  H   UNL     1     -48.805  37.410  28.476  1.00  0.00     0.032 H 
ATOM     37  H   UNL     1     -47.773  36.133  29.066  1.00  0.00     0.032 H 
BRANCH  35  38
ATOM     38  C   UNL     1     -46.738  37.831  28.248  1.00  0.00    -0.046 A 
ATOM     39  C   UNL     1     -45.711  37.726  29.189  1.00  0.00    -0.058 A 
ATOM     40  C   UNL     1     -46.685  38.868  27.301  1.00  0.00    -0.033 A 
ATOM     41  C   UNL     1     -44.654  38.633  29.172  1.00  0.00    -0.053 A 
ATOM     42  H   UNL     1     -45.725  36.938  29.939  1.00  0.00     0.063 H 
ATOM     43  C   UNL     1     -45.644  39.787  27.263  1.00  0.00     0.073 A 
ATOM     44  H   UNL     1     -47.478  38.968  26.563  1.00  0.00     0.065 H 
ATOM     45  C   UNL     1     -44.615  39.661  28.216  1.00  0.00     0.000 A 
ATOM     46  H   UNL     1     -43.860  38.535  29.910  1.00  0.00     0.063 H 
ATOM     47  N   UNL     1     -45.649  40.757  26.332  1.00  0.00    -0.231 NA
ATOM     48  C   UNL     1     -43.569  40.589  28.170  1.00  0.00    -0.049 A 
ATOM     49  C   UNL     1     -44.638  41.639  26.304  1.00  0.00     0.124 A 
ATOM     50  C   UNL     1     -43.581  41.588  27.202  1.00  0.00    -0.019 A 
ATOM     51  H   UNL     1     -42.748  40.539  28.879  1.00  0.00     0.063 H 
ATOM     52  H   UNL     1     -42.774  42.310  27.158  1.00  0.00     0.066 H 
BRANCH  49  53
ATOM     53  N   UNL     1     -44.671  42.634  25.322  1.00  0.00    -0.384 N 
ATOM     54  H   UNL     1     -44.047  42.382  24.562  1.00  0.00     0.158 HD
ATOM     55  H   UNL     1     -44.355  43.513  25.717  1.00  0.00     0.158 HD
ENDBRANCH  49  53
ENDBRANCH  35  38
ENDBRANCH  32  35
ENDBRANCH   3  32
BRANCH   4  56
ATOM     56  O   UNL     1     -45.377  34.542  26.992  1.00  0.00    -0.390 OA
ATOM     57  H   UNL     1     -45.666  34.741  27.900  1.00  0.00     0.211 HD
ENDBRANCH   4  56
TORSDOF 9
ENDMDL
MODEL 4
REMARK VINA RESULT:      -9.4      1.937      2.842
REMARK SMILES CNc1ncnc2c1ccn2[C@@H]1C[C@H](CCc2ccc3ccc(N)nc3c2)[C@@H](O)[C@H]1O
REMARK SMILES IDX 12 1 13 2 14 3 28 4 30 5 11 12 3 13 4 14 8 15 5 16 7 17 9 18
REMARK SMILES IDX 6 19 10 21 2 24 1 26 31 30 15 32 16 35 17 38 18 39 27 40
REMARK SMILES IDX 19 41 26 43 20 45 25 47 21 48 23 49 22 50 24 53 29 56
REMARK H PARENT 12 6 13 7 13 8 14 9 28 10 30 11 5 20 9 22 10 23 2 25 1 27 1 28
REMARK H PARENT 1 29 31 31 15 33 15 34 16 36 16 37 18 42 27 44 19 46 21 51
REMARK H PARENT 22 52 24 54 24 55 29 57
REMARK Flexibility Score: inf
ROOT
ATOM      1  C   UNL     1     -46.723  36.981  28.298  1.00  0.00     0.064 C 
ATOM      2  C   UNL     1     -45.913  35.693  28.048  1.00  0.00    -0.024 C 
ATOM      3  C   UNL     1     -46.961  34.623  27.732  1.00  0.00    -0.010 C 
ATOM      4  C   UNL     1     -47.993  35.414  26.924  1.00  0.00     0.085 C 
ATOM      5  C   UNL     1     -48.123  36.731  27.702  1.00  0.00     0.101 C 
ATOM      6  H   UNL     1     -46.819  37.118  29.384  1.00  0.00     0.056 H 
ATOM      7  H   UNL     1     -45.212  35.806  27.213  1.00  0.00     0.029 H 
ATOM      8  H   UNL     1     -45.320  35.429  28.930  1.00  0.00     0.029 H 
ATOM      9  H   UNL     1     -47.428  34.271  28.662  1.00  0.00     0.033 H 
ATOM     10  H   UNL     1     -47.638  35.583  25.901  1.00  0.00     0.063 H 
ATOM     11  H   UNL     1     -48.507  37.540  27.074  1.00  0.00     0.065 H 
ENDROOT
BRANCH   1  12
ATOM     12  N   UNL     1     -46.064  38.176  27.795  1.00  0.00    -0.327 N 
ATOM     13  C   UNL     1     -43.632  40.751  28.031  1.00  0.00     0.138 A 
ATOM     14  N   UNL     1     -43.012  40.419  29.189  1.00  0.00    -0.219 NA
ATOM     15  C   UNL     1     -44.693  39.933  27.598  1.00  0.00     0.061 A 
ATOM     16  C   UNL     1     -43.429  39.331  29.861  1.00  0.00     0.120 A 
ATOM     17  C   UNL     1     -45.015  38.836  28.387  1.00  0.00     0.145 A 
ATOM     18  C   UNL     1     -45.593  39.923  26.495  1.00  0.00    -0.031 A 
ATOM     19  N   UNL     1     -44.413  38.478  29.535  1.00  0.00    -0.218 NA
ATOM     20  H   UNL     1     -42.899  39.117  30.785  1.00  0.00     0.106 H 
ATOM     21  C   UNL     1     -46.423  38.833  26.640  1.00  0.00     0.007 A 
ATOM     22  H   UNL     1     -45.634  40.640  25.686  1.00  0.00     0.065 H 
ATOM     23  H   UNL     1     -47.236  38.474  26.020  1.00  0.00     0.082 H 
BRANCH  13  24
ATOM     24  N   UNL     1     -43.231  41.878  27.311  1.00  0.00    -0.372 N 
ATOM     25  H   UNL     1     -42.545  41.644  26.602  1.00  0.00     0.161 HD
BRANCH  24  26
ATOM     26  C   UNL     1     -42.907  43.043  28.108  1.00  0.00     0.005 C 
ATOM     27  H   UNL     1     -43.695  43.801  28.056  1.00  0.00     0.045 H 
ATOM     28  H   UNL     1     -41.991  43.500  27.720  1.00  0.00     0.045 H 
ATOM     29  H   UNL     1     -42.727  42.774  29.155  1.00  0.00     0.045 H 
ENDBRANCH  24  26
ENDBRANCH  13  24
ENDBRANCH   1  12
BRANCH   5  30
ATOM     30  O   UNL     1     -49.069  36.562  28.775  1.00  0.00    -0.388 OA
ATOM     31  H   UNL     1     -49.013  37.383  29.309  1.00  0.00     0.211 HD
ENDBRANCH   5  30
BRANCH   3  32
ATOM     32  C   UNL     1     -46.418  33.414  26.961  1.00  0.00    -0.044 C 
ATOM     33  H   UNL     1     -46.969  32.514  27.265  1.00  0.00     0.027 H 
ATOM     34  H   UNL     1     -45.374  33.245  27.249  1.00  0.00     0.027 H 
BRANCH  32  35
ATOM     35  C   UNL     1     -46.521  33.535  25.434  1.00  0.00    -0.027 C 
ATOM     36  H   UNL     1     -47.304  34.262  25.186  1.00  0.00     0.032 H 
ATOM     37  H   UNL     1     -45.592  33.957  25.030  1.00  0.00     0.032 H 
BRANCH  35  38
ATOM     38  C   UNL     1     -46.851  32.239  24.736  1.00  0.00    -0.046 A 
ATOM     39  C   UNL     1     -46.152  31.845  23.592  1.00  0.00    -0.058 A 
ATOM     40  C   UNL     1     -47.873  31.408  25.225  1.00  0.00    -0.033 A 
ATOM     41  C   UNL     1     -46.466  30.641  22.963  1.00  0.00    -0.053 A 
ATOM     42  H   UNL     1     -45.359  32.468  23.185  1.00  0.00     0.063 H 
ATOM     43  C   UNL     1     -48.208  30.204  24.616  1.00  0.00     0.073 A 
ATOM     44  H   UNL     1     -48.432  31.700  26.112  1.00  0.00     0.065 H 
ATOM     45  C   UNL     1     -47.488  29.821  23.468  1.00  0.00     0.000 A 
ATOM     46  H   UNL     1     -45.910  30.348  22.075  1.00  0.00     0.063 H 
ATOM     47  N   UNL     1     -49.197  29.453  25.131  1.00  0.00    -0.231 NA
ATOM     48  C   UNL     1     -47.829  28.607  22.862  1.00  0.00    -0.049 A 
ATOM     49  C   UNL     1     -49.510  28.292  24.536  1.00  0.00     0.124 A 
ATOM     50  C   UNL     1     -48.852  27.835  23.403  1.00  0.00    -0.019 A 
ATOM     51  H   UNL     1     -47.307  28.261  21.975  1.00  0.00     0.063 H 
ATOM     52  H   UNL     1     -49.121  26.892  22.941  1.00  0.00     0.066 H 
BRANCH  49  53
ATOM     53  N   UNL     1     -50.541  27.531  25.098  1.00  0.00    -0.384 N 
ATOM     54  H   UNL     1     -50.808  27.931  25.992  1.00  0.00     0.158 HD
ATOM     55  H   UNL     1     -50.217  26.583  25.256  1.00  0.00     0.158 HD
ENDBRANCH  49  53
ENDBRANCH  35  38
ENDBRANCH  32  35
ENDBRANCH   3  32
BRANCH   4  56
ATOM     56  O   UNL     1     -49.244  34.736  26.877  1.00  0.00    -0.390 OA
ATOM     57  H   UNL     1     -49.060  33.790  27.015  1.00  0.00     0.211 HD
ENDBRANCH   4  56
TORSDOF 9
ENDMDL
MODEL 5
REMARK VINA RESULT:      -9.3      2.440      3.439
REMARK SMILES CNc1ncnc2c1ccn2[C@@H]1C[C@H](CCc2ccc3ccc(N)nc3c2)[C@@H](O)[C@H]1O
REMARK SMILES IDX 12 1 13 2 14 3 28 4 30 5 11 12 3 13 4 14 8 15 5 16 7 17 9 18
REMARK SMILES IDX 6 19 10 21 2 24 1 26 31 30 15 32 16 35 17 38 18 39 27 40
REMARK SMILES IDX 19 41 26 43 20 45 25 47 21 48 23 49 22 50 24 53 29 56
REMARK H PARENT 12 6 13 7 13 8 14 9 28 10 30 11 5 20 9 22 10 23 2 25 1 27 1 28
REMARK H PARENT 1 29 31 31 15 33 15 34 16 36 16 37 18 42 27 44 19 46 21 51
REMARK H PARENT 22 52 24 54 24 55 29 57
REMARK Flexibility Score: inf
ROOT
ATOM      1  C   UNL     1     -45.945  38.711  28.393  1.00  0.00     0.064 C 
ATOM      2  C   UNL     1     -45.773  37.547  27.397  1.00  0.00    -0.024 C 
ATOM      3  C   UNL     1     -45.527  36.314  28.269  1.00  0.00    -0.010 C 
ATOM      4  C   UNL     1     -46.451  36.576  29.462  1.00  0.00     0.085 C 
ATOM      5  C   UNL     1     -46.230  38.065  29.764  1.00  0.00     0.101 C 
ATOM      6  H   UNL     1     -44.993  39.256  28.449  1.00  0.00     0.056 H 
ATOM      7  H   UNL     1     -46.664  37.408  26.772  1.00  0.00     0.029 H 
ATOM      8  H   UNL     1     -44.933  37.736  26.719  1.00  0.00     0.029 H 
ATOM      9  H   UNL     1     -44.486  36.304  28.618  1.00  0.00     0.033 H 
ATOM     10  H   UNL     1     -47.494  36.368  29.198  1.00  0.00     0.063 H 
ATOM     11  H   UNL     1     -47.071  38.498  30.311  1.00  0.00     0.065 H 
ENDROOT
BRANCH   1  12
ATOM     12  N   UNL     1     -46.944  39.681  27.972  1.00  0.00    -0.327 N 
ATOM     13  C   UNL     1     -47.909  42.667  26.313  1.00  0.00     0.138 A 
ATOM     14  N   UNL     1     -46.718  43.095  25.830  1.00  0.00    -0.219 NA
ATOM     15  C   UNL     1     -47.924  41.471  27.056  1.00  0.00     0.061 A 
ATOM     16  C   UNL     1     -45.616  42.363  26.075  1.00  0.00     0.120 A 
ATOM     17  C   UNL     1     -46.713  40.813  27.227  1.00  0.00     0.145 A 
ATOM     18  C   UNL     1     -48.910  40.699  27.732  1.00  0.00    -0.031 A 
ATOM     19  N   UNL     1     -45.519  41.208  26.754  1.00  0.00    -0.218 NA
ATOM     20  H   UNL     1     -44.689  42.757  25.669  1.00  0.00     0.106 H 
ATOM     21  C   UNL     1     -48.281  39.604  28.284  1.00  0.00     0.007 A 
ATOM     22  H   UNL     1     -49.966  40.923  27.812  1.00  0.00     0.065 H 
ATOM     23  H   UNL     1     -48.675  38.783  28.870  1.00  0.00     0.082 H 
BRANCH  13  24
ATOM     24  N   UNL     1     -49.072  43.406  26.084  1.00  0.00    -0.372 N 
ATOM     25  H   UNL     1     -49.577  43.067  25.272  1.00  0.00     0.161 HD
BRANCH  24  26
ATOM     26  C   UNL     1     -48.917  44.845  26.147  1.00  0.00     0.005 C 
ATOM     27  H   UNL     1     -49.691  45.309  26.767  1.00  0.00     0.045 H 
ATOM     28  H   UNL     1     -49.015  45.261  25.139  1.00  0.00     0.045 H 
ATOM     29  H   UNL     1     -47.928  45.124  26.526  1.00  0.00     0.045 H 
ENDBRANCH  24  26
ENDBRANCH  13  24
ENDBRANCH   1  12
BRANCH   5  30
ATOM     30  O   UNL     1     -45.072  38.216  30.606  1.00  0.00    -0.388 OA
ATOM     31  H   UNL     1     -45.383  38.700  31.400  1.00  0.00     0.211 HD
ENDBRANCH   5  30
BRANCH   3  32
ATOM     32  C   UNL     1     -45.831  34.979  27.578  1.00  0.00    -0.044 C 
ATOM     33  H   UNL     1     -46.365  34.322  28.277  1.00  0.00     0.027 H 
ATOM     34  H   UNL     1     -44.887  34.473  27.345  1.00  0.00     0.027 H 
BRANCH  32  35
ATOM     35  C   UNL     1     -46.681  35.101  26.305  1.00  0.00    -0.027 C 
ATOM     36  H   UNL     1     -47.570  35.705  26.527  1.00  0.00     0.032 H 
ATOM     37  H   UNL     1     -46.130  35.662  25.541  1.00  0.00     0.032 H 
BRANCH  35  38
ATOM     38  C   UNL     1     -47.145  33.778  25.747  1.00  0.00    -0.046 A 
ATOM     39  C   UNL     1     -48.366  33.225  26.140  1.00  0.00    -0.058 A 
ATOM     40  C   UNL     1     -46.350  33.077  24.824  1.00  0.00    -0.033 A 
ATOM     41  C   UNL     1     -48.782  32.005  25.610  1.00  0.00    -0.053 A 
ATOM     42  H   UNL     1     -49.002  33.740  26.856  1.00  0.00     0.063 H 
ATOM     43  C   UNL     1     -46.740  31.859  24.282  1.00  0.00     0.073 A 
ATOM     44  H   UNL     1     -45.393  33.490  24.509  1.00  0.00     0.065 H 
ATOM     45  C   UNL     1     -47.977  31.320  24.685  1.00  0.00     0.000 A 
ATOM     46  H   UNL     1     -49.737  31.590  25.924  1.00  0.00     0.063 H 
ATOM     47  N   UNL     1     -45.935  31.236  23.403  1.00  0.00    -0.231 NA
ATOM     48  C   UNL     1     -48.363  30.094  24.134  1.00  0.00    -0.049 A 
ATOM     49  C   UNL     1     -46.322  30.060  22.885  1.00  0.00     0.124 A 
ATOM     50  C   UNL     1     -47.526  29.458  23.223  1.00  0.00    -0.019 A 
ATOM     51  H   UNL     1     -49.308  29.633  24.408  1.00  0.00     0.063 H 
ATOM     52  H   UNL     1     -47.818  28.509  22.790  1.00  0.00     0.066 H 
BRANCH  49  53
ATOM     53  N   UNL     1     -45.465  29.440  21.971  1.00  0.00    -0.384 N 
ATOM     54  H   UNL     1     -45.439  29.978  21.110  1.00  0.00     0.158 HD
ATOM     55  H   UNL     1     -45.810  28.510  21.756  1.00  0.00     0.158 HD
ENDBRANCH  49  53
ENDBRANCH  35  38
ENDBRANCH  32  35
ENDBRANCH   3  32
BRANCH   4  56
ATOM     56  O   UNL     1     -46.086  35.779  30.584  1.00  0.00    -0.390 OA
ATOM     57  H   UNL     1     -46.629  36.078  31.335  1.00  0.00     0.211 HD
ENDBRANCH   4  56
TORSDOF 9
ENDMDL
MODEL 6
REMARK VINA RESULT:      -9.3      1.757      2.091
REMARK SMILES CNc1ncnc2c1ccn2[C@@H]1C[C@H](CCc2ccc3ccc(N)nc3c2)[C@@H](O)[C@H]1O
REMARK SMILES IDX 12 1 13 2 14 3 28 4 30 5 11 12 3 13 4 14 8 15 5 16 7 17 9 18
REMARK SMILES IDX 6 19 10 21 2 24 1 26 31 30 15 32 16 35 17 38 18 39 27 40
REMARK SMILES IDX 19 41 26 43 20 45 25 47 21 48 23 49 22 50 24 53 29 56
REMARK H PARENT 12 6 13 7 13 8 14 9 28 10 30 11 5 20 9 22 10 23 2 25 1 27 1 28
REMARK H PARENT 1 29 31 31 15 33 15 34 16 36 16 37 18 42 27 44 19 46 21 51
REMARK H PARENT 22 52 24 54 24 55 29 57
REMARK Flexibility Score: inf
ROOT
ATOM      1  C   UNL     1     -44.664  38.746  28.092  1.00  0.00     0.064 C 
ATOM      2  C   UNL     1     -45.395  37.508  27.535  1.00  0.00    -0.024 C 
ATOM      3  C   UNL     1     -45.772  36.684  28.768  1.00  0.00    -0.010 C 
ATOM      4  C   UNL     1     -46.130  37.773  29.784  1.00  0.00     0.085 C 
ATOM      5  C   UNL     1     -45.023  38.819  29.590  1.00  0.00     0.101 C 
ATOM      6  H   UNL     1     -43.582  38.577  27.995  1.00  0.00     0.056 H 
ATOM      7  H   UNL     1     -46.290  37.784  26.965  1.00  0.00     0.029 H 
ATOM      8  H   UNL     1     -44.744  36.945  26.857  1.00  0.00     0.029 H 
ATOM      9  H   UNL     1     -44.895  36.130  29.130  1.00  0.00     0.033 H 
ATOM     10  H   UNL     1     -47.121  38.190  29.572  1.00  0.00     0.063 H 
ATOM     11  H   UNL     1     -45.331  39.807  29.942  1.00  0.00     0.065 H 
ENDROOT
BRANCH   1  12
ATOM     12  N   UNL     1     -44.953  39.963  27.349  1.00  0.00    -0.327 N 
ATOM     13  C   UNL     1     -44.036  43.137  26.054  1.00  0.00     0.138 A 
ATOM     14  N   UNL     1     -42.754  43.234  26.479  1.00  0.00    -0.219 NA
ATOM     15  C   UNL     1     -44.754  41.974  26.391  1.00  0.00     0.061 A 
ATOM     16  C   UNL     1     -42.229  42.222  27.194  1.00  0.00     0.120 A 
ATOM     17  C   UNL     1     -44.085  41.005  27.128  1.00  0.00     0.145 A 
ATOM     18  C   UNL     1     -46.073  41.486  26.172  1.00  0.00    -0.031 A 
ATOM     19  N   UNL     1     -42.813  41.069  27.557  1.00  0.00    -0.218 NA
ATOM     20  H   UNL     1     -41.200  42.356  27.513  1.00  0.00     0.106 H 
ATOM     21  C   UNL     1     -46.168  40.248  26.770  1.00  0.00     0.007 A 
ATOM     22  H   UNL     1     -46.870  41.990  25.641  1.00  0.00     0.065 H 
ATOM     23  H   UNL     1     -46.996  39.553  26.829  1.00  0.00     0.082 H 
BRANCH  13  24
ATOM     24  N   UNL     1     -44.616  44.172  25.316  1.00  0.00    -0.372 N 
ATOM     25  H   UNL     1     -44.536  44.011  24.318  1.00  0.00     0.161 HD
BRANCH  24  26
ATOM     26  C   UNL     1     -44.270  45.512  25.746  1.00  0.00     0.005 C 
ATOM     27  H   UNL     1     -44.998  45.907  26.462  1.00  0.00     0.045 H 
ATOM     28  H   UNL     1     -44.273  46.179  24.878  1.00  0.00     0.045 H 
ATOM     29  H   UNL     1     -43.268  45.544  26.187  1.00  0.00     0.045 H 
ENDBRANCH  24  26
ENDBRANCH  13  24
ENDBRANCH   1  12
BRANCH   5  30
ATOM     30  O   UNL     1     -43.871  38.447  30.370  1.00  0.00    -0.388 OA
ATOM     31  H   UNL     1     -44.145  37.663  30.890  1.00  0.00     0.211 HD
ENDBRANCH   5  30
BRANCH   3  32
ATOM     32  C   UNL     1     -46.924  35.697  28.541  1.00  0.00    -0.044 C 
ATOM     33  H   UNL     1     -47.663  35.812  29.345  1.00  0.00     0.027 H 
ATOM     34  H   UNL     1     -46.539  34.673  28.626  1.00  0.00     0.027 H 
BRANCH  32  35
ATOM     35  C   UNL     1     -47.653  35.868  27.201  1.00  0.00    -0.027 C 
ATOM     36  H   UNL     1     -48.621  36.352  27.382  1.00  0.00     0.032 H 
ATOM     37  H   UNL     1     -47.096  36.559  26.558  1.00  0.00     0.032 H 
BRANCH  35  38
ATOM     38  C   UNL     1     -47.910  34.571  26.473  1.00  0.00    -0.046 A 
ATOM     39  C   UNL     1     -49.157  33.946  26.545  1.00  0.00    -0.058 A 
ATOM     40  C   UNL     1     -46.894  33.969  25.711  1.00  0.00    -0.033 A 
ATOM     41  C   UNL     1     -49.380  32.753  25.861  1.00  0.00    -0.053 A 
ATOM     42  H   UNL     1     -49.963  34.384  27.130  1.00  0.00     0.063 H 
ATOM     43  C   UNL     1     -47.088  32.779  25.022  1.00  0.00     0.073 A 
ATOM     44  H   UNL     1     -45.914  34.439  25.647  1.00  0.00     0.065 H 
ATOM     45  C   UNL     1     -48.354  32.167  25.101  1.00  0.00     0.000 A 
ATOM     46  H   UNL     1     -50.358  32.280  25.925  1.00  0.00     0.063 H 
ATOM     47  N   UNL     1     -46.076  32.252  24.310  1.00  0.00    -0.231 NA
ATOM     48  C   UNL     1     -48.542  30.970  24.402  1.00  0.00    -0.049 A 
ATOM     49  C   UNL     1     -46.275  31.102  23.647  1.00  0.00     0.124 A 
ATOM     50  C   UNL     1     -47.491  30.433  23.667  1.00  0.00    -0.019 A 
ATOM     51  H   UNL     1     -49.498  30.455  24.427  1.00  0.00     0.063 H 
ATOM     52  H   UNL     1     -47.629  29.506  23.122  1.00  0.00     0.066 H 
BRANCH  49  53
ATOM     53  N   UNL     1     -45.204  30.582  22.914  1.00  0.00    -0.384 N 
ATOM     54  H   UNL     1     -45.105  29.592  23.115  1.00  0.00     0.158 HD
ATOM     55  H   UNL     1     -44.346  31.051  23.184  1.00  0.00     0.158 HD
ENDBRANCH  49  53
ENDBRANCH  35  38
ENDBRANCH  32  35
ENDBRANCH   3  32
BRANCH   4  56
ATOM     56  O   UNL     1     -46.112  37.266  31.114  1.00  0.00    -0.390 OA
ATOM     57  H   UNL     1     -47.028  37.296  31.443  1.00  0.00     0.211 HD
ENDBRANCH   4  56
TORSDOF 9
ENDMDL
MODEL 7
REMARK VINA RESULT:      -9.3      1.607      2.452
REMARK SMILES CNc1ncnc2c1ccn2[C@@H]1C[C@H](CCc2ccc3ccc(N)nc3c2)[C@@H](O)[C@H]1O
REMARK SMILES IDX 12 1 13 2 14 3 28 4 30 5 11 12 3 13 4 14 8 15 5 16 7 17 9 18
REMARK SMILES IDX 6 19 10 21 2 24 1 26 31 30 15 32 16 35 17 38 18 39 27 40
REMARK SMILES IDX 19 41 26 43 20 45 25 47 21 48 23 49 22 50 24 53 29 56
REMARK H PARENT 12 6 13 7 13 8 14 9 28 10 30 11 5 20 9 22 10 23 2 25 1 27 1 28
REMARK H PARENT 1 29 31 31 15 33 15 34 16 36 16 37 18 42 27 44 19 46 21 51
REMARK H PARENT 22 52 24 54 24 55 29 57
REMARK Flexibility Score: inf
ROOT
ATOM      1  C   UNL     1     -44.893  38.037  29.064  1.00  0.00     0.064 C 
ATOM      2  C   UNL     1     -44.976  37.109  27.835  1.00  0.00    -0.024 C 
ATOM      3  C   UNL     1     -46.379  36.501  27.895  1.00  0.00    -0.010 C 
ATOM      4  C   UNL     1     -47.216  37.675  28.410  1.00  0.00     0.085 C 
ATOM      5  C   UNL     1     -46.345  38.272  29.525  1.00  0.00     0.101 C 
ATOM      6  H   UNL     1     -44.350  37.504  29.858  1.00  0.00     0.056 H 
ATOM      7  H   UNL     1     -44.832  37.658  26.897  1.00  0.00     0.029 H 
ATOM      8  H   UNL     1     -44.200  36.337  27.877  1.00  0.00     0.029 H 
ATOM      9  H   UNL     1     -46.404  35.690  28.636  1.00  0.00     0.033 H 
ATOM     10  H   UNL     1     -47.400  38.400  27.609  1.00  0.00     0.063 H 
ATOM     11  H   UNL     1     -46.601  39.316  29.726  1.00  0.00     0.065 H 
ENDROOT
BRANCH   1  12
ATOM     12  N   UNL     1     -44.143  39.256  28.809  1.00  0.00    -0.327 N 
ATOM     13  C   UNL     1     -43.366  42.104  26.837  1.00  0.00     0.138 A 
ATOM     14  N   UNL     1     -44.232  41.954  25.807  1.00  0.00    -0.219 NA
ATOM     15  C   UNL     1     -43.378  41.129  27.853  1.00  0.00     0.061 A 
ATOM     16  C   UNL     1     -45.061  40.894  25.805  1.00  0.00     0.120 A 
ATOM     17  C   UNL     1     -44.291  40.090  27.726  1.00  0.00     0.145 A 
ATOM     18  C   UNL     1     -42.657  40.897  29.058  1.00  0.00    -0.031 A 
ATOM     19  N   UNL     1     -45.167  39.919  26.722  1.00  0.00    -0.218 NA
ATOM     20  H   UNL     1     -45.729  40.822  24.952  1.00  0.00     0.106 H 
ATOM     21  C   UNL     1     -43.148  39.742  29.626  1.00  0.00     0.007 A 
ATOM     22  H   UNL     1     -41.859  41.506  29.463  1.00  0.00     0.065 H 
ATOM     23  H   UNL     1     -42.871  39.229  30.539  1.00  0.00     0.082 H 
BRANCH  13  24
ATOM     24  N   UNL     1     -42.486  43.189  26.870  1.00  0.00    -0.372 N 
ATOM     25  H   UNL     1     -42.817  43.921  27.488  1.00  0.00     0.161 HD
BRANCH  24  26
ATOM     26  C   UNL     1     -42.019  43.649  25.578  1.00  0.00     0.005 C 
ATOM     27  H   UNL     1     -42.671  44.426  25.166  1.00  0.00     0.045 H 
ATOM     28  H   UNL     1     -42.027  42.811  24.874  1.00  0.00     0.045 H 
ATOM     29  H   UNL     1     -40.992  44.026  25.634  1.00  0.00     0.045 H 
ENDBRANCH  24  26
ENDBRANCH  13  24
ENDBRANCH   1  12
BRANCH   5  30
ATOM     30  O   UNL     1     -46.574  37.550  30.750  1.00  0.00    -0.388 OA
ATOM     31  H   UNL     1     -46.420  38.197  31.471  1.00  0.00     0.211 HD
ENDBRANCH   5  30
BRANCH   3  32
ATOM     32  C   UNL     1     -46.893  35.962  26.554  1.00  0.00    -0.044 C 
ATOM     33  H   UNL     1     -46.050  35.555  25.981  1.00  0.00     0.027 H 
ATOM     34  H   UNL     1     -47.290  36.796  25.962  1.00  0.00     0.027 H 
BRANCH  32  35
ATOM     35  C   UNL     1     -47.956  34.861  26.676  1.00  0.00    -0.027 C 
ATOM     36  H   UNL     1     -48.035  34.558  27.727  1.00  0.00     0.032 H 
ATOM     37  H   UNL     1     -48.942  35.264  26.414  1.00  0.00     0.032 H 
BRANCH  35  38
ATOM     38  C   UNL     1     -47.661  33.629  25.856  1.00  0.00    -0.046 A 
ATOM     39  C   UNL     1     -46.458  33.508  25.157  1.00  0.00    -0.058 A 
ATOM     40  C   UNL     1     -48.598  32.584  25.780  1.00  0.00    -0.033 A 
ATOM     41  C   UNL     1     -46.199  32.361  24.409  1.00  0.00    -0.053 A 
ATOM     42  H   UNL     1     -45.715  34.301  25.191  1.00  0.00     0.063 H 
ATOM     43  C   UNL     1     -48.366  31.431  25.040  1.00  0.00     0.073 A 
ATOM     44  H   UNL     1     -49.543  32.663  26.315  1.00  0.00     0.065 H 
ATOM     45  C   UNL     1     -47.145  31.324  24.347  1.00  0.00     0.000 A 
ATOM     46  H   UNL     1     -45.256  32.280  23.873  1.00  0.00     0.063 H 
ATOM     47  N   UNL     1     -49.301  30.466  25.006  1.00  0.00    -0.231 NA
ATOM     48  C   UNL     1     -46.918  30.159  23.607  1.00  0.00    -0.049 A 
ATOM     49  C   UNL     1     -49.066  29.356  24.290  1.00  0.00     0.124 A 
ATOM     50  C   UNL     1     -47.890  29.164  23.579  1.00  0.00    -0.019 A 
ATOM     51  H   UNL     1     -45.993  30.022  23.054  1.00  0.00     0.063 H 
ATOM     52  H   UNL     1     -47.721  28.258  23.009  1.00  0.00     0.066 H 
BRANCH  49  53
ATOM     53  N   UNL     1     -50.057  28.369  24.277  1.00  0.00    -0.384 N 
ATOM     54  H   UNL     1     -49.954  27.795  23.447  1.00  0.00     0.158 HD
ATOM     55  H   UNL     1     -50.973  28.806  24.252  1.00  0.00     0.158 HD
ENDBRANCH  49  53
ENDBRANCH  35  38
ENDBRANCH  32  35
ENDBRANCH   3  32
BRANCH   4  56
ATOM     56  O   UNL     1     -48.463  37.231  28.934  1.00  0.00    -0.390 OA
ATOM     57  H   UNL     1     -48.918  38.015  29.291  1.00  0.00     0.211 HD
ENDBRANCH   4  56
TORSDOF 9
ENDMDL
