MODEL 1
REMARK VINA RESULT:     -10.3      0.000      0.000
REMARK SMILES C[C@H]1CCN1Cc1cc2ccc(CNC(=O)c3cc(=O)n4ccccc4n3)cc2[nH]1
REMARK SMILES IDX 7 1 8 2 9 3 10 4 11 5 12 6 28 7 29 8 30 9 6 15 5 18 2 19
REMARK SMILES IDX 3 20 4 22 1 27 13 31 14 34 15 35 16 37 17 38 18 39 27 40
REMARK SMILES IDX 19 41 26 43 20 44 21 45 25 46 22 47 24 48 23 50
REMARK H PARENT 8 10 10 11 11 12 28 13 30 14 6 16 6 17 2 21 3 23 3 24 4 25
REMARK H PARENT 4 26 1 28 1 29 1 30 13 32 13 33 14 36 18 42 25 49 22 51 24 52
REMARK H PARENT 23 53
REMARK Flexibility Score: inf
ROOT
ATOM      1  C   UNL     1     -48.310  30.779  24.610  1.00  0.00     0.030 A 
ATOM      2  C   UNL     1     -47.105  31.432  24.439  1.00  0.00    -0.032 A 
ATOM      3  C   UNL     1     -47.180  32.678  25.120  1.00  0.00    -0.000 A 
ATOM      4  C   UNL     1     -46.284  33.748  25.305  1.00  0.00    -0.052 A 
ATOM      5  C   UNL     1     -46.687  34.860  26.056  1.00  0.00    -0.057 A 
ATOM      6  C   UNL     1     -47.967  34.927  26.621  1.00  0.00    -0.027 A 
ATOM      7  C   UNL     1     -48.866  33.859  26.452  1.00  0.00    -0.033 A 
ATOM      8  C   UNL     1     -48.445  32.759  25.696  1.00  0.00     0.046 A 
ATOM      9  N   UNL     1     -49.109  31.599  25.371  1.00  0.00    -0.357 N 
ATOM     10  H   UNL     1     -46.257  31.056  23.882  1.00  0.00     0.065 H 
ATOM     11  H   UNL     1     -45.289  33.713  24.871  1.00  0.00     0.063 H 
ATOM     12  H   UNL     1     -45.984  35.678  26.199  1.00  0.00     0.063 H 
ATOM     13  H   UNL     1     -49.856  33.886  26.896  1.00  0.00     0.065 H 
ATOM     14  H   UNL     1     -50.044  31.354  25.667  1.00  0.00     0.166 HD
ENDROOT
BRANCH   1  15
ATOM     15  C   UNL     1     -48.794  29.457  24.108  1.00  0.00     0.039 C 
ATOM     16  H   UNL     1     -49.690  29.643  23.503  1.00  0.00     0.050 H 
ATOM     17  H   UNL     1     -48.035  29.029  23.440  1.00  0.00     0.050 H 
BRANCH  15  18
ATOM     18  N   UNL     1     -49.142  28.578  25.224  1.00  0.00    -0.295 NA
ATOM     19  C   UNL     1     -50.179  27.555  24.909  1.00  0.00     0.008 C 
ATOM     20  C   UNL     1     -49.321  26.552  25.720  1.00  0.00    -0.025 C 
ATOM     21  H   UNL     1     -51.142  27.775  25.387  1.00  0.00     0.046 H 
ATOM     22  C   UNL     1     -48.144  27.495  25.402  1.00  0.00     0.000 C 
ATOM     23  H   UNL     1     -49.578  26.509  26.787  1.00  0.00     0.030 H 
ATOM     24  H   UNL     1     -49.241  25.534  25.331  1.00  0.00     0.030 H 
ATOM     25  H   UNL     1     -47.441  27.650  26.224  1.00  0.00     0.043 H 
ATOM     26  H   UNL     1     -47.580  27.205  24.506  1.00  0.00     0.043 H 
BRANCH  19  27
ATOM     27  C   UNL     1     -50.405  27.167  23.452  1.00  0.00    -0.049 C 
ATOM     28  H   UNL     1     -50.155  26.110  23.307  1.00  0.00     0.025 H 
ATOM     29  H   UNL     1     -49.787  27.744  22.758  1.00  0.00     0.025 H 
ATOM     30  H   UNL     1     -51.456  27.291  23.171  1.00  0.00     0.025 H 
ENDBRANCH  19  27
ENDBRANCH  15  18
ENDBRANCH   1  15
BRANCH   6  31
ATOM     31  C   UNL     1     -48.366  36.117  27.453  1.00  0.00     0.043 C 
ATOM     32  H   UNL     1     -48.550  35.821  28.494  1.00  0.00     0.054 H 
ATOM     33  H   UNL     1     -49.298  36.560  27.083  1.00  0.00     0.054 H 
BRANCH  31  34
ATOM     34  N   UNL     1     -47.340  37.125  27.430  1.00  0.00    -0.347 N 
ATOM     35  C   UNL     1     -46.526  37.363  28.506  1.00  0.00     0.270 C 
ATOM     36  H   UNL     1     -47.231  37.726  26.619  1.00  0.00     0.164 HD
ATOM     37  O   UNL     1     -46.573  36.735  29.557  1.00  0.00    -0.268 OA
BRANCH  35  38
ATOM     38  C   UNL     1     -45.557  38.494  28.258  1.00  0.00     0.136 A 
ATOM     39  C   UNL     1     -45.723  39.183  27.128  1.00  0.00     0.035 A 
ATOM     40  N   UNL     1     -44.578  38.743  29.193  1.00  0.00    -0.225 NA
ATOM     41  C   UNL     1     -44.802  40.292  26.847  1.00  0.00     0.258 A 
ATOM     42  H   UNL     1     -46.497  38.977  26.399  1.00  0.00     0.071 H 
ATOM     43  C   UNL     1     -43.766  39.724  28.941  1.00  0.00     0.140 A 
ATOM     44  O   UNL     1     -44.948  40.932  25.807  1.00  0.00    -0.269 OA
ATOM     45  N   UNL     1     -43.825  40.522  27.804  1.00  0.00    -0.268 N 
ATOM     46  C   UNL     1     -42.689  40.030  29.926  1.00  0.00    -0.019 A 
ATOM     47  C   UNL     1     -42.915  41.556  27.609  1.00  0.00     0.014 A 
ATOM     48  C   UNL     1     -41.838  41.035  29.694  1.00  0.00    -0.057 A 
ATOM     49  H   UNL     1     -42.637  39.414  30.815  1.00  0.00     0.066 H 
ATOM     50  C   UNL     1     -41.951  41.826  28.497  1.00  0.00    -0.045 A 
ATOM     51  H   UNL     1     -43.020  42.140  26.697  1.00  0.00     0.082 H 
ATOM     52  H   UNL     1     -41.048  41.273  30.399  1.00  0.00     0.062 H 
ATOM     53  H   UNL     1     -41.247  42.635  28.334  1.00  0.00     0.064 H 
ENDBRANCH  35  38
ENDBRANCH  31  34
ENDBRANCH   6  31
TORSDOF 6
ENDMDL
MODEL 2
REMARK VINA RESULT:     -10.2      2.417      3.504
REMARK SMILES C[C@H]1CCN1Cc1cc2ccc(CNC(=O)c3cc(=O)n4ccccc4n3)cc2[nH]1
REMARK SMILES IDX 7 1 8 2 9 3 10 4 11 5 12 6 28 7 29 8 30 9 6 15 5 18 2 19
REMARK SMILES IDX 3 20 4 22 1 27 13 31 14 34 15 35 16 37 17 38 18 39 27 40
REMARK SMILES IDX 19 41 26 43 20 44 21 45 25 46 22 47 24 48 23 50
REMARK H PARENT 8 10 10 11 11 12 28 13 30 14 6 16 6 17 2 21 3 23 3 24 4 25
REMARK H PARENT 4 26 1 28 1 29 1 30 13 32 13 33 14 36 18 42 25 49 22 51 24 52
REMARK H PARENT 23 53
REMARK Flexibility Score: inf
ROOT
ATOM      1  C   UNL     1     -47.035  32.424  25.380  1.00  0.00     0.030 A 
ATOM      2  C   UNL     1     -48.142  33.243  25.487  1.00  0.00    -0.032 A 
ATOM      3  C   UNL     1     -47.886  34.196  26.511  1.00  0.00    -0.000 A 
ATOM      4  C   UNL     1     -48.620  35.266  27.057  1.00  0.00    -0.052 A 
ATOM      5  C   UNL     1     -48.055  36.032  28.086  1.00  0.00    -0.057 A 
ATOM      6  C   UNL     1     -46.777  35.746  28.583  1.00  0.00    -0.027 A 
ATOM      7  C   UNL     1     -46.031  34.687  28.037  1.00  0.00    -0.033 A 
ATOM      8  C   UNL     1     -46.614  33.933  27.011  1.00  0.00     0.046 A 
ATOM      9  N   UNL     1     -46.122  32.856  26.313  1.00  0.00    -0.357 N 
ATOM     10  H   UNL     1     -49.044  33.166  24.893  1.00  0.00     0.065 H 
ATOM     11  H   UNL     1     -49.613  35.498  26.685  1.00  0.00     0.063 H 
ATOM     12  H   UNL     1     -48.627  36.861  28.496  1.00  0.00     0.063 H 
ATOM     13  H   UNL     1     -45.032  34.461  28.398  1.00  0.00     0.065 H 
ATOM     14  H   UNL     1     -45.206  32.444  26.433  1.00  0.00     0.166 HD
ENDROOT
BRANCH   1  15
ATOM     15  C   UNL     1     -46.757  31.254  24.491  1.00  0.00     0.039 C 
ATOM     16  H   UNL     1     -45.668  31.123  24.453  1.00  0.00     0.050 H 
ATOM     17  H   UNL     1     -47.177  30.350  24.949  1.00  0.00     0.050 H 
BRANCH  15  18
ATOM     18  N   UNL     1     -47.257  31.503  23.139  1.00  0.00    -0.295 NA
ATOM     19  C   UNL     1     -46.491  30.823  22.058  1.00  0.00     0.008 C 
ATOM     20  C   UNL     1     -47.857  30.500  21.403  1.00  0.00    -0.025 C 
ATOM     21  H   UNL     1     -45.891  31.526  21.465  1.00  0.00     0.046 H 
ATOM     22  C   UNL     1     -48.432  30.655  22.824  1.00  0.00     0.000 C 
ATOM     23  H   UNL     1     -48.204  31.266  20.698  1.00  0.00     0.030 H 
ATOM     24  H   UNL     1     -47.970  29.515  20.944  1.00  0.00     0.030 H 
ATOM     25  H   UNL     1     -49.396  31.168  22.879  1.00  0.00     0.043 H 
ATOM     26  H   UNL     1     -48.507  29.707  23.373  1.00  0.00     0.043 H 
BRANCH  19  27
ATOM     27  C   UNL     1     -45.650  29.602  22.413  1.00  0.00    -0.049 C 
ATOM     28  H   UNL     1     -45.374  29.637  23.473  1.00  0.00     0.025 H 
ATOM     29  H   UNL     1     -44.720  29.546  21.839  1.00  0.00     0.025 H 
ATOM     30  H   UNL     1     -46.214  28.677  22.257  1.00  0.00     0.025 H 
ENDBRANCH  19  27
ENDBRANCH  15  18
ENDBRANCH   1  15
BRANCH   6  31
ATOM     31  C   UNL     1     -46.177  36.604  29.666  1.00  0.00     0.043 C 
ATOM     32  H   UNL     1     -45.485  36.021  30.287  1.00  0.00     0.054 H 
ATOM     33  H   UNL     1     -46.955  36.988  30.337  1.00  0.00     0.054 H 
BRANCH  31  34
ATOM     34  N   UNL     1     -45.469  37.720  29.101  1.00  0.00    -0.347 N 
ATOM     35  C   UNL     1     -44.509  38.406  29.798  1.00  0.00     0.270 C 
ATOM     36  H   UNL     1     -45.706  38.062  28.174  1.00  0.00     0.164 HD
ATOM     37  O   UNL     1     -44.150  38.122  30.935  1.00  0.00    -0.268 OA
BRANCH  35  38
ATOM     38  C   UNL     1     -43.937  39.561  29.013  1.00  0.00     0.136 A 
ATOM     39  C   UNL     1     -42.875  40.172  29.540  1.00  0.00     0.035 A 
ATOM     40  N   UNL     1     -44.534  39.911  27.822  1.00  0.00    -0.225 NA
ATOM     41  C   UNL     1     -42.287  41.301  28.809  1.00  0.00     0.258 A 
ATOM     42  H   UNL     1     -42.415  39.888  30.478  1.00  0.00     0.071 H 
ATOM     43  C   UNL     1     -44.012  40.909  27.179  1.00  0.00     0.140 A 
ATOM     44  O   UNL     1     -41.308  41.870  29.288  1.00  0.00    -0.269 OA
ATOM     45  N   UNL     1     -42.907  41.634  27.613  1.00  0.00    -0.268 N 
ATOM     46  C   UNL     1     -44.624  41.324  25.885  1.00  0.00    -0.019 A 
ATOM     47  C   UNL     1     -42.407  42.693  26.863  1.00  0.00     0.014 A 
ATOM     48  C   UNL     1     -44.108  42.350  25.199  1.00  0.00    -0.057 A 
ATOM     49  H   UNL     1     -45.485  40.765  25.539  1.00  0.00     0.066 H 
ATOM     50  C   UNL     1     -42.962  43.060  25.701  1.00  0.00    -0.045 A 
ATOM     51  H   UNL     1     -41.540  43.215  27.262  1.00  0.00     0.082 H 
ATOM     52  H   UNL     1     -44.540  42.666  24.255  1.00  0.00     0.062 H 
ATOM     53  H   UNL     1     -42.563  43.888  25.124  1.00  0.00     0.064 H 
ENDBRANCH  35  38
ENDBRANCH  31  34
ENDBRANCH   6  31
TORSDOF 6
ENDMDL
MODEL 3
REMARK VINA RESULT:      -9.6      2.853     11.090
REMARK SMILES C[C@H]1CCN1Cc1cc2ccc(CNC(=O)c3cc(=O)n4ccccc4n3)cc2[nH]1
REMARK SMILES IDX 7 1 8 2 9 3 10 4 11 5 12 6 28 7 29 8 30 9 6 15 5 18 2 19
REMARK SMILES IDX 3 20 4 22 1 27 13 31 14 34 15 35 16 37 17 38 18 39 27 40
REMARK SMILES IDX 19 41 26 43 20 44 21 45 25 46 22 47 24 48 23 50
REMARK H PARENT 8 10 10 11 11 12 28 13 30 14 6 16 6 17 2 21 3 23 3 24 4 25
REMARK H PARENT 4 26 1 28 1 29 1 30 13 32 13 33 14 36 18 42 25 49 22 51 24 52
REMARK H PARENT 23 53
REMARK Flexibility Score: inf
ROOT
ATOM      1  C   UNL     1     -45.825  38.272  27.685  1.00  0.00     0.030 A 
ATOM      2  C   UNL     1     -45.132  37.110  27.959  1.00  0.00    -0.032 A 
ATOM      3  C   UNL     1     -45.957  36.009  27.598  1.00  0.00    -0.000 A 
ATOM      4  C   UNL     1     -45.797  34.611  27.640  1.00  0.00    -0.052 A 
ATOM      5  C   UNL     1     -46.838  33.788  27.191  1.00  0.00    -0.057 A 
ATOM      6  C   UNL     1     -48.036  34.331  26.708  1.00  0.00    -0.027 A 
ATOM      7  C   UNL     1     -48.201  35.727  26.652  1.00  0.00    -0.033 A 
ATOM      8  C   UNL     1     -47.150  36.532  27.107  1.00  0.00     0.046 A 
ATOM      9  N   UNL     1     -47.046  37.901  27.172  1.00  0.00    -0.357 N 
ATOM     10  H   UNL     1     -44.135  37.054  28.377  1.00  0.00     0.065 H 
ATOM     11  H   UNL     1     -44.877  34.174  28.014  1.00  0.00     0.063 H 
ATOM     12  H   UNL     1     -46.702  32.709  27.220  1.00  0.00     0.063 H 
ATOM     13  H   UNL     1     -49.115  36.166  26.265  1.00  0.00     0.065 H 
ATOM     14  H   UNL     1     -47.748  38.561  26.862  1.00  0.00     0.166 HD
ENDROOT
BRANCH   1  15
ATOM     15  C   UNL     1     -45.457  39.708  27.875  1.00  0.00     0.039 C 
ATOM     16  H   UNL     1     -46.202  40.312  27.344  1.00  0.00     0.050 H 
ATOM     17  H   UNL     1     -45.536  39.959  28.941  1.00  0.00     0.050 H 
BRANCH  15  18
ATOM     18  N   UNL     1     -44.133  39.979  27.315  1.00  0.00    -0.295 NA
ATOM     19  C   UNL     1     -44.124  40.945  26.181  1.00  0.00     0.008 C 
ATOM     20  C   UNL     1     -42.855  41.562  26.821  1.00  0.00    -0.025 C 
ATOM     21  H   UNL     1     -43.920  40.457  25.219  1.00  0.00     0.046 H 
ATOM     22  C   UNL     1     -43.378  40.957  28.138  1.00  0.00     0.000 C 
ATOM     23  H   UNL     1     -41.917  41.114  26.469  1.00  0.00     0.030 H 
ATOM     24  H   UNL     1     -42.762  42.651  26.795  1.00  0.00     0.030 H 
ATOM     25  H   UNL     1     -42.611  40.518  28.782  1.00  0.00     0.043 H 
ATOM     26  H   UNL     1     -43.981  41.655  28.733  1.00  0.00     0.043 H 
BRANCH  19  27
ATOM     27  C   UNL     1     -45.295  41.909  26.030  1.00  0.00    -0.049 C 
ATOM     28  H   UNL     1     -45.166  42.510  25.123  1.00  0.00     0.025 H 
ATOM     29  H   UNL     1     -45.382  42.605  26.870  1.00  0.00     0.025 H 
ATOM     30  H   UNL     1     -46.240  41.366  25.927  1.00  0.00     0.025 H 
ENDBRANCH  19  27
ENDBRANCH  15  18
ENDBRANCH   1  15
BRANCH   6  31
ATOM     31  C   UNL     1     -49.127  33.426  26.199  1.00  0.00     0.043 C 
ATOM     32  H   UNL     1     -49.557  33.820  25.270  1.00  0.00     0.054 H 
ATOM     33  H   UNL     1     -49.948  33.358  26.923  1.00  0.00     0.054 H 
BRANCH  31  34
ATOM     34  N   UNL     1     -48.621  32.103  25.954  1.00  0.00    -0.347 N 
ATOM     35  C   UNL     1     -49.105  31.311  24.946  1.00  0.00     0.270 C 
ATOM     36  H   UNL     1     -47.918  31.701  26.567  1.00  0.00     0.164 HD
ATOM     37  O   UNL     1     -49.975  31.658  24.156  1.00  0.00    -0.268 OA
BRANCH  35  38
ATOM     38  C   UNL     1     -48.448  29.952  24.913  1.00  0.00     0.136 A 
ATOM     39  C   UNL     1     -47.491  29.775  24.001  1.00  0.00     0.035 A 
ATOM     40  N   UNL     1     -48.869  28.993  25.807  1.00  0.00    -0.225 NA
ATOM     41  C   UNL     1     -46.826  28.468  23.934  1.00  0.00     0.258 A 
ATOM     42  H   UNL     1     -47.169  30.538  23.302  1.00  0.00     0.071 H 
ATOM     43  C   UNL     1     -48.279  27.839  25.745  1.00  0.00     0.140 A 
ATOM     44  O   UNL     1     -45.943  28.296  23.096  1.00  0.00    -0.269 OA
ATOM     45  N   UNL     1     -47.268  27.519  24.845  1.00  0.00    -0.268 N 
ATOM     46  C   UNL     1     -48.701  26.769  26.693  1.00  0.00    -0.019 A 
ATOM     47  C   UNL     1     -46.686  26.256  24.843  1.00  0.00     0.014 A 
ATOM     48  C   UNL     1     -48.111  25.570  26.653  1.00  0.00    -0.057 A 
ATOM     49  H   UNL     1     -49.487  27.010  27.399  1.00  0.00     0.066 H 
ATOM     50  C   UNL     1     -47.069  25.300  25.698  1.00  0.00    -0.045 A 
ATOM     51  H   UNL     1     -45.900  26.076  24.112  1.00  0.00     0.082 H 
ATOM     52  H   UNL     1     -48.404  24.778  27.336  1.00  0.00     0.062 H 
ATOM     53  H   UNL     1     -46.608  24.318  25.688  1.00  0.00     0.064 H 
ENDBRANCH  35  38
ENDBRANCH  31  34
ENDBRANCH   6  31
TORSDOF 6
ENDMDL
MODEL 4
REMARK VINA RESULT:      -9.6      1.340      2.085
REMARK SMILES C[C@H]1CCN1Cc1cc2ccc(CNC(=O)c3cc(=O)n4ccccc4n3)cc2[nH]1
REMARK SMILES IDX 7 1 8 2 9 3 10 4 11 5 12 6 28 7 29 8 30 9 6 15 5 18 2 19
REMARK SMILES IDX 3 20 4 22 1 27 13 31 14 34 15 35 16 37 17 38 18 39 27 40
REMARK SMILES IDX 19 41 26 43 20 44 21 45 25 46 22 47 24 48 23 50
REMARK H PARENT 8 10 10 11 11 12 28 13 30 14 6 16 6 17 2 21 3 23 3 24 4 25
REMARK H PARENT 4 26 1 28 1 29 1 30 13 32 13 33 14 36 18 42 25 49 22 51 24 52
REMARK H PARENT 23 53
REMARK Flexibility Score: inf
ROOT
ATOM      1  C   UNL     1     -48.144  31.046  24.587  1.00  0.00     0.030 A 
ATOM      2  C   UNL     1     -46.929  31.698  24.517  1.00  0.00    -0.032 A 
ATOM      3  C   UNL     1     -47.046  32.925  25.227  1.00  0.00    -0.000 A 
ATOM      4  C   UNL     1     -46.161  33.984  25.501  1.00  0.00    -0.052 A 
ATOM      5  C   UNL     1     -46.610  35.076  26.255  1.00  0.00    -0.057 A 
ATOM      6  C   UNL     1     -47.926  35.134  26.734  1.00  0.00    -0.027 A 
ATOM      7  C   UNL     1     -48.815  34.075  26.476  1.00  0.00    -0.033 A 
ATOM      8  C   UNL     1     -48.347  32.994  25.718  1.00  0.00     0.046 A 
ATOM      9  N   UNL     1     -48.991  31.848  25.316  1.00  0.00    -0.357 N 
ATOM     10  H   UNL     1     -46.046  31.333  24.008  1.00  0.00     0.065 H 
ATOM     11  H   UNL     1     -45.140  33.957  25.134  1.00  0.00     0.063 H 
ATOM     12  H   UNL     1     -45.917  35.887  26.469  1.00  0.00     0.063 H 
ATOM     13  H   UNL     1     -49.832  34.094  26.853  1.00  0.00     0.065 H 
ATOM     14  H   UNL     1     -49.944  31.598  25.542  1.00  0.00     0.166 HD
ENDROOT
BRANCH   1  15
ATOM     15  C   UNL     1     -48.597  29.740  24.016  1.00  0.00     0.039 C 
ATOM     16  H   UNL     1     -48.552  29.827  22.924  1.00  0.00     0.050 H 
ATOM     17  H   UNL     1     -47.887  28.957  24.310  1.00  0.00     0.050 H 
BRANCH  15  18
ATOM     18  N   UNL     1     -49.974  29.452  24.419  1.00  0.00    -0.295 NA
ATOM     19  C   UNL     1     -50.953  29.409  23.296  1.00  0.00     0.008 C 
ATOM     20  C   UNL     1     -51.572  28.169  23.990  1.00  0.00    -0.025 C 
ATOM     21  H   UNL     1     -51.626  30.276  23.296  1.00  0.00     0.046 H 
ATOM     22  C   UNL     1     -50.187  28.001  24.645  1.00  0.00     0.000 C 
ATOM     23  H   UNL     1     -52.372  28.411  24.701  1.00  0.00     0.030 H 
ATOM     24  H   UNL     1     -51.902  27.350  23.347  1.00  0.00     0.030 H 
ATOM     25  H   UNL     1     -50.206  27.699  25.696  1.00  0.00     0.043 H 
ATOM     26  H   UNL     1     -49.521  27.323  24.096  1.00  0.00     0.043 H 
BRANCH  19  27
ATOM     27  C   UNL     1     -50.437  29.157  21.884  1.00  0.00    -0.049 C 
ATOM     28  H   UNL     1     -50.834  29.918  21.203  1.00  0.00     0.025 H 
ATOM     29  H   UNL     1     -50.739  28.182  21.490  1.00  0.00     0.025 H 
ATOM     30  H   UNL     1     -49.345  29.227  21.846  1.00  0.00     0.025 H 
ENDBRANCH  19  27
ENDBRANCH  15  18
ENDBRANCH   1  15
BRANCH   6  31
ATOM     31  C   UNL     1     -48.376  36.302  27.572  1.00  0.00     0.043 C 
ATOM     32  H   UNL     1     -48.974  35.961  28.426  1.00  0.00     0.054 H 
ATOM     33  H   UNL     1     -49.015  36.977  26.990  1.00  0.00     0.054 H 
BRANCH  31  34
ATOM     34  N   UNL     1     -47.247  37.046  28.061  1.00  0.00    -0.347 N 
ATOM     35  C   UNL     1     -46.850  38.228  27.492  1.00  0.00     0.270 C 
ATOM     36  H   UNL     1     -46.680  36.678  28.819  1.00  0.00     0.164 HD
ATOM     37  O   UNL     1     -47.423  38.766  26.552  1.00  0.00    -0.268 OA
BRANCH  35  38
ATOM     38  C   UNL     1     -45.618  38.800  28.150  1.00  0.00     0.136 A 
ATOM     39  C   UNL     1     -45.258  38.258  29.315  1.00  0.00     0.035 A 
ATOM     40  N   UNL     1     -44.951  39.829  27.524  1.00  0.00    -0.225 NA
ATOM     41  C   UNL     1     -44.065  38.784  29.989  1.00  0.00     0.258 A 
ATOM     42  H   UNL     1     -45.791  37.448  29.798  1.00  0.00     0.071 H 
ATOM     43  C   UNL     1     -43.897  40.292  28.123  1.00  0.00     0.140 A 
ATOM     44  O   UNL     1     -43.727  38.290  31.063  1.00  0.00    -0.269 OA
ATOM     45  N   UNL     1     -43.412  39.821  29.338  1.00  0.00    -0.268 N 
ATOM     46  C   UNL     1     -43.143  41.407  27.482  1.00  0.00    -0.019 A 
ATOM     47  C   UNL     1     -42.273  40.372  29.915  1.00  0.00     0.014 A 
ATOM     48  C   UNL     1     -42.054  41.905  28.076  1.00  0.00    -0.057 A 
ATOM     49  H   UNL     1     -43.514  41.780  26.535  1.00  0.00     0.066 H 
ATOM     50  C   UNL     1     -41.601  41.373  29.334  1.00  0.00    -0.045 A 
ATOM     51  H   UNL     1     -41.949  39.954  30.866  1.00  0.00     0.082 H 
ATOM     52  H   UNL     1     -41.491  42.716  27.624  1.00  0.00     0.062 H 
ATOM     53  H   UNL     1     -40.713  41.796  29.793  1.00  0.00     0.064 H 
ENDBRANCH  35  38
ENDBRANCH  31  34
ENDBRANCH   6  31
TORSDOF 6
ENDMDL
MODEL 5
REMARK VINA RESULT:      -9.2      2.104      3.355
REMARK SMILES C[C@H]1CCN1Cc1cc2ccc(CNC(=O)c3cc(=O)n4ccccc4n3)cc2[nH]1
REMARK SMILES IDX 7 1 8 2 9 3 10 4 11 5 12 6 28 7 29 8 30 9 6 15 5 18 2 19
REMARK SMILES IDX 3 20 4 22 1 27 13 31 14 34 15 35 16 37 17 38 18 39 27 40
REMARK SMILES IDX 19 41 26 43 20 44 21 45 25 46 22 47 24 48 23 50
REMARK H PARENT 8 10 10 11 11 12 28 13 30 14 6 16 6 17 2 21 3 23 3 24 4 25
REMARK H PARENT 4 26 1 28 1 29 1 30 13 32 13 33 14 36 18 42 25 49 22 51 24 52
REMARK H PARENT 23 53
REMARK Flexibility Score: inf
ROOT
ATOM      1  C   UNL     1     -48.235  32.558  25.619  1.00  0.00     0.030 A 
ATOM      2  C   UNL     1     -46.882  32.716  25.846  1.00  0.00    -0.032 A 
ATOM      3  C   UNL     1     -46.694  33.933  26.556  1.00  0.00    -0.000 A 
ATOM      4  C   UNL     1     -45.567  34.608  27.060  1.00  0.00    -0.052 A 
ATOM      5  C   UNL     1     -45.739  35.824  27.735  1.00  0.00    -0.057 A 
ATOM      6  C   UNL     1     -47.013  36.382  27.909  1.00  0.00    -0.027 A 
ATOM      7  C   UNL     1     -48.147  35.710  27.420  1.00  0.00    -0.033 A 
ATOM      8  C   UNL     1     -47.953  34.498  26.747  1.00  0.00     0.046 A 
ATOM      9  N   UNL     1     -48.866  33.648  26.169  1.00  0.00    -0.357 N 
ATOM     10  H   UNL     1     -46.105  32.029  25.534  1.00  0.00     0.065 H 
ATOM     11  H   UNL     1     -44.573  34.192  26.930  1.00  0.00     0.063 H 
ATOM     12  H   UNL     1     -44.862  36.335  28.127  1.00  0.00     0.063 H 
ATOM     13  H   UNL     1     -49.143  36.118  27.560  1.00  0.00     0.065 H 
ATOM     14  H   UNL     1     -49.870  33.775  26.167  1.00  0.00     0.166 HD
ENDROOT
BRANCH   1  15
ATOM     15  C   UNL     1     -48.997  31.482  24.913  1.00  0.00     0.039 C 
ATOM     16  H   UNL     1     -48.617  30.519  25.276  1.00  0.00     0.050 H 
ATOM     17  H   UNL     1     -50.053  31.543  25.204  1.00  0.00     0.050 H 
BRANCH  15  18
ATOM     18  N   UNL     1     -48.790  31.567  23.468  1.00  0.00    -0.295 NA
ATOM     19  C   UNL     1     -47.811  30.585  22.922  1.00  0.00     0.008 C 
ATOM     20  C   UNL     1     -48.792  30.385  21.740  1.00  0.00    -0.025 C 
ATOM     21  H   UNL     1     -46.869  31.060  22.617  1.00  0.00     0.046 H 
ATOM     22  C   UNL     1     -49.873  30.886  22.717  1.00  0.00     0.000 C 
ATOM     23  H   UNL     1     -48.612  31.061  20.894  1.00  0.00     0.030 H 
ATOM     24  H   UNL     1     -48.919  29.367  21.363  1.00  0.00     0.030 H 
ATOM     25  H   UNL     1     -50.618  31.556  22.279  1.00  0.00     0.043 H 
ATOM     26  H   UNL     1     -50.395  30.078  23.246  1.00  0.00     0.043 H 
BRANCH  19  27
ATOM     27  C   UNL     1     -47.515  29.323  23.724  1.00  0.00    -0.049 C 
ATOM     28  H   UNL     1     -48.436  28.952  24.186  1.00  0.00     0.025 H 
ATOM     29  H   UNL     1     -46.794  29.492  24.530  1.00  0.00     0.025 H 
ATOM     30  H   UNL     1     -47.134  28.526  23.077  1.00  0.00     0.025 H 
ENDBRANCH  19  27
ENDBRANCH  15  18
ENDBRANCH   1  15
BRANCH   6  31
ATOM     31  C   UNL     1     -47.176  37.673  28.668  1.00  0.00     0.043 C 
ATOM     32  H   UNL     1     -47.087  37.504  29.748  1.00  0.00     0.054 H 
ATOM     33  H   UNL     1     -48.170  38.104  28.497  1.00  0.00     0.054 H 
BRANCH  31  34
ATOM     34  N   UNL     1     -46.185  38.633  28.263  1.00  0.00    -0.347 N 
ATOM     35  C   UNL     1     -46.407  39.530  27.252  1.00  0.00     0.270 C 
ATOM     36  H   UNL     1     -45.265  38.631  28.693  1.00  0.00     0.164 HD
ATOM     37  O   UNL     1     -47.458  39.617  26.628  1.00  0.00    -0.268 OA
BRANCH  35  38
ATOM     38  C   UNL     1     -45.207  40.405  26.982  1.00  0.00     0.136 A 
ATOM     39  C   UNL     1     -44.220  40.356  27.878  1.00  0.00     0.035 A 
ATOM     40  N   UNL     1     -45.201  41.189  25.850  1.00  0.00    -0.225 NA
ATOM     41  C   UNL     1     -43.034  41.192  27.655  1.00  0.00     0.258 A 
ATOM     42  H   UNL     1     -44.236  39.736  28.766  1.00  0.00     0.071 H 
ATOM     43  C   UNL     1     -44.151  41.926  25.656  1.00  0.00     0.140 A 
ATOM     44  O   UNL     1     -42.120  41.152  28.477  1.00  0.00    -0.269 OA
ATOM     45  N   UNL     1     -43.053  41.972  26.508  1.00  0.00    -0.268 N 
ATOM     46  C   UNL     1     -44.100  42.791  24.443  1.00  0.00    -0.019 A 
ATOM     47  C   UNL     1     -41.964  42.790  26.227  1.00  0.00     0.014 A 
ATOM     48  C   UNL     1     -43.031  43.562  24.215  1.00  0.00    -0.057 A 
ATOM     49  H   UNL     1     -44.951  42.761  23.773  1.00  0.00     0.066 H 
ATOM     50  C   UNL     1     -41.925  43.564  25.136  1.00  0.00    -0.045 A 
ATOM     51  H   UNL     1     -41.140  42.776  26.937  1.00  0.00     0.082 H 
ATOM     52  H   UNL     1     -42.976  44.198  23.338  1.00  0.00     0.062 H 
ATOM     53  H   UNL     1     -41.070  44.199  24.927  1.00  0.00     0.064 H 
ENDBRANCH  35  38
ENDBRANCH  31  34
ENDBRANCH   6  31
TORSDOF 6
ENDMDL
MODEL 6
REMARK VINA RESULT:      -9.1      2.028      2.525
REMARK SMILES C[C@H]1CCN1Cc1cc2ccc(CNC(=O)c3cc(=O)n4ccccc4n3)cc2[nH]1
REMARK SMILES IDX 7 1 8 2 9 3 10 4 11 5 12 6 28 7 29 8 30 9 6 15 5 18 2 19
REMARK SMILES IDX 3 20 4 22 1 27 13 31 14 34 15 35 16 37 17 38 18 39 27 40
REMARK SMILES IDX 19 41 26 43 20 44 21 45 25 46 22 47 24 48 23 50
REMARK H PARENT 8 10 10 11 11 12 28 13 30 14 6 16 6 17 2 21 3 23 3 24 4 25
REMARK H PARENT 4 26 1 28 1 29 1 30 13 32 13 33 14 36 18 42 25 49 22 51 24 52
REMARK H PARENT 23 53
REMARK Flexibility Score: inf
ROOT
ATOM      1  C   UNL     1     -47.865  31.984  25.411  1.00  0.00     0.030 A 
ATOM      2  C   UNL     1     -46.752  32.147  26.212  1.00  0.00    -0.032 A 
ATOM      3  C   UNL     1     -46.868  33.400  26.876  1.00  0.00    -0.000 A 
ATOM      4  C   UNL     1     -46.065  34.095  27.800  1.00  0.00    -0.052 A 
ATOM      5  C   UNL     1     -46.487  35.345  28.271  1.00  0.00    -0.057 A 
ATOM      6  C   UNL     1     -47.688  35.918  27.832  1.00  0.00    -0.027 A 
ATOM      7  C   UNL     1     -48.503  35.226  26.918  1.00  0.00    -0.033 A 
ATOM      8  C   UNL     1     -48.063  33.979  26.457  1.00  0.00     0.046 A 
ATOM      9  N   UNL     1     -48.645  33.105  25.571  1.00  0.00    -0.357 N 
ATOM     10  H   UNL     1     -45.937  31.442  26.312  1.00  0.00     0.065 H 
ATOM     11  H   UNL     1     -45.130  33.667  28.147  1.00  0.00     0.063 H 
ATOM     12  H   UNL     1     -45.864  35.871  28.991  1.00  0.00     0.063 H 
ATOM     13  H   UNL     1     -49.445  35.646  26.579  1.00  0.00     0.065 H 
ATOM     14  H   UNL     1     -49.538  33.237  25.114  1.00  0.00     0.166 HD
ENDROOT
BRANCH   1  15
ATOM     15  C   UNL     1     -48.261  30.876  24.488  1.00  0.00     0.039 C 
ATOM     16  H   UNL     1     -47.579  30.037  24.671  1.00  0.00     0.050 H 
ATOM     17  H   UNL     1     -49.271  30.537  24.751  1.00  0.00     0.050 H 
BRANCH  15  18
ATOM     18  N   UNL     1     -48.139  31.299  23.093  1.00  0.00    -0.295 NA
ATOM     19  C   UNL     1     -47.000  30.684  22.356  1.00  0.00     0.008 C 
ATOM     20  C   UNL     1     -47.966  30.525  21.156  1.00  0.00    -0.025 C 
ATOM     21  H   UNL     1     -46.193  31.402  22.159  1.00  0.00     0.046 H 
ATOM     22  C   UNL     1     -49.086  30.571  22.214  1.00  0.00     0.000 C 
ATOM     23  H   UNL     1     -47.969  31.383  20.471  1.00  0.00     0.030 H 
ATOM     24  H   UNL     1     -47.892  29.604  20.573  1.00  0.00     0.030 H 
ATOM     25  H   UNL     1     -49.973  31.140  21.924  1.00  0.00     0.043 H 
ATOM     26  H   UNL     1     -49.403  29.578  22.560  1.00  0.00     0.043 H 
BRANCH  19  27
ATOM     27  C   UNL     1     -46.410  29.378  22.876  1.00  0.00    -0.049 C 
ATOM     28  H   UNL     1     -46.411  29.381  23.972  1.00  0.00     0.025 H 
ATOM     29  H   UNL     1     -45.376  29.221  22.553  1.00  0.00     0.025 H 
ATOM     30  H   UNL     1     -47.010  28.520  22.555  1.00  0.00     0.025 H 
ENDBRANCH  19  27
ENDBRANCH  15  18
ENDBRANCH   1  15
BRANCH   6  31
ATOM     31  C   UNL     1     -48.137  37.247  28.378  1.00  0.00     0.043 C 
ATOM     32  H   UNL     1     -48.510  37.141  29.405  1.00  0.00     0.054 H 
ATOM     33  H   UNL     1     -48.964  37.656  27.784  1.00  0.00     0.054 H 
BRANCH  31  34
ATOM     34  N   UNL     1     -47.056  38.195  28.371  1.00  0.00    -0.347 N 
ATOM     35  C   UNL     1     -46.600  38.775  27.216  1.00  0.00     0.270 C 
ATOM     36  H   UNL     1     -46.565  38.419  29.231  1.00  0.00     0.164 HD
ATOM     37  O   UNL     1     -47.079  38.567  26.107  1.00  0.00    -0.268 OA
BRANCH  35  38
ATOM     38  C   UNL     1     -45.433  39.702  27.456  1.00  0.00     0.136 A 
ATOM     39  C   UNL     1     -45.290  40.713  26.597  1.00  0.00     0.035 A 
ATOM     40  N   UNL     1     -44.600  39.454  28.523  1.00  0.00    -0.225 NA
ATOM     41  C   UNL     1     -44.168  41.639  26.793  1.00  0.00     0.258 A 
ATOM     42  H   UNL     1     -45.952  40.897  25.760  1.00  0.00     0.071 H 
ATOM     43  C   UNL     1     -43.610  40.275  28.693  1.00  0.00     0.140 A 
ATOM     44  O   UNL     1     -44.028  42.574  26.006  1.00  0.00    -0.269 OA
ATOM     45  N   UNL     1     -43.344  41.367  27.876  1.00  0.00    -0.268 N 
ATOM     46  C   UNL     1     -42.681  40.046  29.837  1.00  0.00    -0.019 A 
ATOM     47  C   UNL     1     -42.259  42.201  28.127  1.00  0.00     0.014 A 
ATOM     48  C   UNL     1     -41.651  40.875  30.038  1.00  0.00    -0.057 A 
ATOM     49  H   UNL     1     -42.881  39.197  30.480  1.00  0.00     0.066 H 
ATOM     50  C   UNL     1     -41.429  41.990  29.156  1.00  0.00    -0.045 A 
ATOM     51  H   UNL     1     -42.111  43.037  27.447  1.00  0.00     0.082 H 
ATOM     52  H   UNL     1     -40.965  40.725  30.865  1.00  0.00     0.062 H 
ATOM     53  H   UNL     1     -40.586  42.646  29.342  1.00  0.00     0.064 H 
ENDBRANCH  35  38
ENDBRANCH  31  34
ENDBRANCH   6  31
TORSDOF 6
ENDMDL
MODEL 7
REMARK VINA RESULT:      -9.1      2.599     10.901
REMARK SMILES C[C@H]1CCN1Cc1cc2ccc(CNC(=O)c3cc(=O)n4ccccc4n3)cc2[nH]1
REMARK SMILES IDX 7 1 8 2 9 3 10 4 11 5 12 6 28 7 29 8 30 9 6 15 5 18 2 19
REMARK SMILES IDX 3 20 4 22 1 27 13 31 14 34 15 35 16 37 17 38 18 39 27 40
REMARK SMILES IDX 19 41 26 43 20 44 21 45 25 46 22 47 24 48 23 50
REMARK H PARENT 8 10 10 11 11 12 28 13 30 14 6 16 6 17 2 21 3 23 3 24 4 25
REMARK H PARENT 4 26 1 28 1 29 1 30 13 32 13 33 14 36 18 42 25 49 22 51 24 52
REMARK H PARENT 23 53
REMARK Flexibility Score: inf
ROOT
ATOM      1  C   UNL     1     -44.819  40.600  26.260  1.00  0.00     0.030 A 
ATOM      2  C   UNL     1     -44.192  39.976  27.320  1.00  0.00    -0.032 A 
ATOM      3  C   UNL     1     -44.994  38.872  27.718  1.00  0.00    -0.000 A 
ATOM      4  C   UNL     1     -44.875  37.883  28.713  1.00  0.00    -0.052 A 
ATOM      5  C   UNL     1     -45.874  36.908  28.836  1.00  0.00    -0.057 A 
ATOM      6  C   UNL     1     -46.992  36.906  27.991  1.00  0.00    -0.027 A 
ATOM      7  C   UNL     1     -47.115  37.882  26.986  1.00  0.00    -0.033 A 
ATOM      8  C   UNL     1     -46.107  38.848  26.881  1.00  0.00     0.046 A 
ATOM      9  N   UNL     1     -45.978  39.905  26.011  1.00  0.00    -0.357 N 
ATOM     10  H   UNL     1     -43.253  40.280  27.766  1.00  0.00     0.065 H 
ATOM     11  H   UNL     1     -44.017  37.873  29.377  1.00  0.00     0.063 H 
ATOM     12  H   UNL     1     -45.769  36.144  29.603  1.00  0.00     0.063 H 
ATOM     13  H   UNL     1     -47.966  37.886  26.312  1.00  0.00     0.065 H 
ATOM     14  H   UNL     1     -46.621  40.135  25.265  1.00  0.00     0.166 HD
ENDROOT
BRANCH   1  15
ATOM     15  C   UNL     1     -44.440  41.808  25.463  1.00  0.00     0.039 C 
ATOM     16  H   UNL     1     -43.421  41.650  25.092  1.00  0.00     0.050 H 
ATOM     17  H   UNL     1     -45.097  41.877  24.587  1.00  0.00     0.050 H 
BRANCH  15  18
ATOM     18  N   UNL     1     -44.466  43.007  26.301  1.00  0.00    -0.295 NA
ATOM     19  C   UNL     1     -43.146  43.678  26.465  1.00  0.00     0.008 C 
ATOM     20  C   UNL     1     -43.899  45.022  26.296  1.00  0.00    -0.025 C 
ATOM     21  H   UNL     1     -42.734  43.546  27.474  1.00  0.00     0.046 H 
ATOM     22  C   UNL     1     -44.961  44.188  25.553  1.00  0.00     0.000 C 
ATOM     23  H   UNL     1     -44.255  45.454  27.240  1.00  0.00     0.030 H 
ATOM     24  H   UNL     1     -43.403  45.801  25.711  1.00  0.00     0.030 H 
ATOM     25  H   UNL     1     -45.997  44.465  25.765  1.00  0.00     0.043 H 
ATOM     26  H   UNL     1     -44.819  44.167  24.464  1.00  0.00     0.043 H 
BRANCH  19  27
ATOM     27  C   UNL     1     -42.060  43.421  25.428  1.00  0.00    -0.049 C 
ATOM     28  H   UNL     1     -41.580  44.366  25.150  1.00  0.00     0.025 H 
ATOM     29  H   UNL     1     -42.449  42.974  24.508  1.00  0.00     0.025 H 
ATOM     30  H   UNL     1     -41.278  42.768  25.830  1.00  0.00     0.025 H 
ENDBRANCH  19  27
ENDBRANCH  15  18
ENDBRANCH   1  15
BRANCH   6  31
ATOM     31  C   UNL     1     -48.036  35.828  28.120  1.00  0.00     0.043 C 
ATOM     32  H   UNL     1     -49.034  36.223  27.890  1.00  0.00     0.054 H 
ATOM     33  H   UNL     1     -48.078  35.446  29.147  1.00  0.00     0.054 H 
BRANCH  31  34
ATOM     34  N   UNL     1     -47.753  34.732  27.234  1.00  0.00    -0.347 N 
ATOM     35  C   UNL     1     -48.745  34.016  26.618  1.00  0.00     0.270 C 
ATOM     36  H   UNL     1     -46.795  34.429  27.084  1.00  0.00     0.164 HD
ATOM     37  O   UNL     1     -49.941  34.253  26.738  1.00  0.00    -0.268 OA
BRANCH  35  38
ATOM     38  C   UNL     1     -48.204  32.889  25.771  1.00  0.00     0.136 A 
ATOM     39  C   UNL     1     -47.237  33.206  24.907  1.00  0.00     0.035 A 
ATOM     40  N   UNL     1     -48.729  31.628  25.934  1.00  0.00    -0.225 NA
ATOM     41  C   UNL     1     -46.681  32.140  24.063  1.00  0.00     0.258 A 
ATOM     42  H   UNL     1     -46.831  34.203  24.788  1.00  0.00     0.071 H 
ATOM     43  C   UNL     1     -48.236  30.689  25.186  1.00  0.00     0.140 A 
ATOM     44  O   UNL     1     -45.790  32.423  23.264  1.00  0.00    -0.269 OA
ATOM     45  N   UNL     1     -47.228  30.879  24.247  1.00  0.00    -0.268 N 
ATOM     46  C   UNL     1     -48.775  29.306  25.327  1.00  0.00    -0.019 A 
ATOM     47  C   UNL     1     -46.754  29.817  23.483  1.00  0.00     0.014 A 
ATOM     48  C   UNL     1     -48.286  28.318  24.571  1.00  0.00    -0.057 A 
ATOM     49  H   UNL     1     -49.560  29.149  26.057  1.00  0.00     0.066 H 
ATOM     50  C   UNL     1     -47.242  28.578  23.616  1.00  0.00    -0.045 A 
ATOM     51  H   UNL     1     -45.964  30.038  22.768  1.00  0.00     0.082 H 
ATOM     52  H   UNL     1     -48.665  27.304  24.660  1.00  0.00     0.062 H 
ATOM     53  H   UNL     1     -46.864  27.757  23.015  1.00  0.00     0.064 H 
ENDBRANCH  35  38
ENDBRANCH  31  34
ENDBRANCH   6  31
TORSDOF 6
ENDMDL
