MODEL 1
REMARK VINA RESULT:      -7.3      0.000      0.000
REMARK SMILES CN[C@H]1CC[C@@](O)(Cn2cnc3c(N)ncnc32)[C@H](O)C1
REMARK SMILES IDX 3 1 4 2 5 3 6 4 19 5 21 6 2 15 1 17 20 21 7 23 8 25 9 28
REMARK SMILES IDX 10 29 18 30 11 31 12 33 17 34 13 35 16 36 15 37 14 39
REMARK H PARENT 3 7 4 8 4 9 5 10 5 11 19 12 21 13 21 14 2 16 1 18 1 19 1 20
REMARK H PARENT 20 22 7 24 8 26 8 27 10 32 16 38 14 40 14 41
REMARK Flexibility Score: inf
ROOT
ATOM      1  C   UNL     1     -46.975  34.238  26.903  1.00  0.00     0.009 C 
ATOM      2  C   UNL     1     -46.581  35.445  26.035  1.00  0.00    -0.035 C 
ATOM      3  C   UNL     1     -46.997  36.784  26.660  1.00  0.00    -0.018 C 
ATOM      4  C   UNL     1     -46.420  36.952  28.079  1.00  0.00     0.108 C 
ATOM      5  C   UNL     1     -46.835  35.739  28.959  1.00  0.00     0.086 C 
ATOM      6  C   UNL     1     -46.405  34.413  28.321  1.00  0.00    -0.009 C 
ATOM      7  H   UNL     1     -46.540  33.325  26.477  1.00  0.00     0.047 H 
ATOM      8  H   UNL     1     -47.006  35.366  25.029  1.00  0.00     0.028 H 
ATOM      9  H   UNL     1     -45.492  35.435  25.893  1.00  0.00     0.028 H 
ATOM     10  H   UNL     1     -46.634  37.589  26.009  1.00  0.00     0.030 H 
ATOM     11  H   UNL     1     -48.091  36.851  26.676  1.00  0.00     0.030 H 
ATOM     12  H   UNL     1     -47.924  35.719  29.087  1.00  0.00     0.063 H 
ATOM     13  H   UNL     1     -46.709  33.578  28.967  1.00  0.00     0.031 H 
ATOM     14  H   UNL     1     -45.308  34.354  28.288  1.00  0.00     0.031 H 
ENDROOT
BRANCH   1  15
ATOM     15  N   UNL     1     -48.439  34.080  26.995  1.00  0.00    -0.317 NA
ATOM     16  H   UNL     1     -48.685  33.843  27.958  1.00  0.00     0.122 HD
BRANCH  15  17
ATOM     17  C   UNL     1     -48.951  33.022  26.131  1.00  0.00    -0.016 C 
ATOM     18  H   UNL     1     -49.570  33.469  25.346  1.00  0.00     0.039 H 
ATOM     19  H   UNL     1     -49.577  32.316  26.686  1.00  0.00     0.039 H 
ATOM     20  H   UNL     1     -48.147  32.478  25.630  1.00  0.00     0.039 H 
ENDBRANCH  15  17
ENDBRANCH   1  15
BRANCH   5  21
ATOM     21  O   UNL     1     -46.261  35.809  30.268  1.00  0.00    -0.390 OA
ATOM     22  H   UNL     1     -46.896  35.384  30.880  1.00  0.00     0.211 HD
ENDBRANCH   5  21
BRANCH   4  23
ATOM     23  O   UNL     1     -44.977  36.948  27.947  1.00  0.00    -0.385 OA
ATOM     24  H   UNL     1     -44.705  36.156  27.454  1.00  0.00     0.211 HD
ENDBRANCH   4  23
BRANCH   4  25
ATOM     25  C   UNL     1     -46.793  38.311  28.710  1.00  0.00     0.057 C 
ATOM     26  H   UNL     1     -47.795  38.261  29.156  1.00  0.00     0.053 H 
ATOM     27  H   UNL     1     -46.123  38.524  29.555  1.00  0.00     0.053 H 
BRANCH  25  28
ATOM     28  N   UNL     1     -46.758  39.458  27.836  1.00  0.00    -0.312 N 
ATOM     29  C   UNL     1     -47.829  40.021  27.196  1.00  0.00     0.097 A 
ATOM     30  C   UNL     1     -45.634  40.114  27.414  1.00  0.00     0.165 A 
ATOM     31  N   UNL     1     -47.469  41.016  26.413  1.00  0.00    -0.231 NA
ATOM     32  H   UNL     1     -48.845  39.670  27.334  1.00  0.00     0.104 H 
ATOM     33  C   UNL     1     -46.096  41.090  26.546  1.00  0.00     0.150 A 
ATOM     34  N   UNL     1     -44.359  39.874  27.771  1.00  0.00    -0.217 NA
ATOM     35  C   UNL     1     -45.128  41.930  25.970  1.00  0.00     0.155 A 
ATOM     36  C   UNL     1     -43.523  40.732  27.145  1.00  0.00     0.120 A 
ATOM     37  N   UNL     1     -43.828  41.720  26.277  1.00  0.00    -0.217 NA
ATOM     38  H   UNL     1     -42.466  40.610  27.368  1.00  0.00     0.106 H 
BRANCH  35  39
ATOM     39  N   UNL     1     -45.438  42.952  25.082  1.00  0.00    -0.382 N 
ATOM     40  H   UNL     1     -45.168  42.753  24.126  1.00  0.00     0.158 HD
ATOM     41  H   UNL     1     -45.217  43.864  25.457  1.00  0.00     0.158 HD
ENDBRANCH  35  39
ENDBRANCH  25  28
ENDBRANCH   4  25
TORSDOF 7
ENDMDL
MODEL 2
REMARK VINA RESULT:      -7.1      1.663      2.346
REMARK SMILES CN[C@H]1CC[C@@](O)(Cn2cnc3c(N)ncnc32)[C@H](O)C1
REMARK SMILES IDX 3 1 4 2 5 3 6 4 19 5 21 6 2 15 1 17 20 21 7 23 8 25 9 28
REMARK SMILES IDX 10 29 18 30 11 31 12 33 17 34 13 35 16 36 15 37 14 39
REMARK H PARENT 3 7 4 8 4 9 5 10 5 11 19 12 21 13 21 14 2 16 1 18 1 19 1 20
REMARK H PARENT 20 22 7 24 8 26 8 27 10 32 16 38 14 40 14 41
REMARK Flexibility Score: inf
ROOT
ATOM      1  C   UNL     1     -46.615  33.047  26.624  1.00  0.00     0.009 C 
ATOM      2  C   UNL     1     -46.326  34.175  25.618  1.00  0.00    -0.035 C 
ATOM      3  C   UNL     1     -46.944  35.516  26.039  1.00  0.00    -0.018 C 
ATOM      4  C   UNL     1     -46.475  35.939  27.446  1.00  0.00     0.108 C 
ATOM      5  C   UNL     1     -46.785  34.804  28.463  1.00  0.00     0.086 C 
ATOM      6  C   UNL     1     -46.155  33.476  28.028  1.00  0.00    -0.009 C 
ATOM      7  H   UNL     1     -46.044  32.153  26.342  1.00  0.00     0.047 H 
ATOM      8  H   UNL     1     -46.678  33.912  24.615  1.00  0.00     0.028 H 
ATOM      9  H   UNL     1     -45.238  34.291  25.524  1.00  0.00     0.028 H 
ATOM     10  H   UNL     1     -46.647  36.272  25.302  1.00  0.00     0.030 H 
ATOM     11  H   UNL     1     -48.036  35.438  26.001  1.00  0.00     0.030 H 
ATOM     12  H   UNL     1     -47.868  34.656  28.547  1.00  0.00     0.063 H 
ATOM     13  H   UNL     1     -46.389  32.698  28.766  1.00  0.00     0.031 H 
ATOM     14  H   UNL     1     -45.059  33.560  28.048  1.00  0.00     0.031 H 
ENDROOT
BRANCH   1  15
ATOM     15  N   UNL     1     -48.050  32.710  26.675  1.00  0.00    -0.317 NA
ATOM     16  H   UNL     1     -48.361  32.740  27.649  1.00  0.00     0.122 HD
BRANCH  15  17
ATOM     17  C   UNL     1     -48.339  31.378  26.156  1.00  0.00    -0.016 C 
ATOM     18  H   UNL     1     -47.707  30.648  26.672  1.00  0.00     0.039 H 
ATOM     19  H   UNL     1     -48.123  31.306  25.085  1.00  0.00     0.039 H 
ATOM     20  H   UNL     1     -49.376  31.084  26.337  1.00  0.00     0.039 H 
ENDBRANCH  15  17
ENDBRANCH   1  15
BRANCH   5  21
ATOM     21  O   UNL     1     -46.303  35.117  29.773  1.00  0.00    -0.390 OA
ATOM     22  H   UNL     1     -46.881  34.648  30.409  1.00  0.00     0.211 HD
ENDBRANCH   5  21
BRANCH   4  23
ATOM     23  O   UNL     1     -45.039  36.109  27.376  1.00  0.00    -0.385 OA
ATOM     24  H   UNL     1     -44.607  35.262  27.576  1.00  0.00     0.211 HD
ENDBRANCH   4  23
BRANCH   4  25
ATOM     25  C   UNL     1     -47.053  37.306  27.873  1.00  0.00     0.057 C 
ATOM     26  H   UNL     1     -47.943  37.546  27.276  1.00  0.00     0.053 H 
ATOM     27  H   UNL     1     -47.419  37.247  28.907  1.00  0.00     0.053 H 
BRANCH  25  28
ATOM     28  N   UNL     1     -46.157  38.435  27.799  1.00  0.00    -0.312 N 
ATOM     29  C   UNL     1     -46.105  39.362  26.793  1.00  0.00     0.097 A 
ATOM     30  C   UNL     1     -45.138  38.712  28.669  1.00  0.00     0.165 A 
ATOM     31  N   UNL     1     -45.136  40.234  26.977  1.00  0.00    -0.231 NA
ATOM     32  H   UNL     1     -46.791  39.356  25.954  1.00  0.00     0.104 H 
ATOM     33  C   UNL     1     -44.527  39.843  28.153  1.00  0.00     0.150 A 
ATOM     34  N   UNL     1     -44.808  38.042  29.787  1.00  0.00    -0.217 NA
ATOM     35  C   UNL     1     -43.437  40.354  28.876  1.00  0.00     0.155 A 
ATOM     36  C   UNL     1     -43.741  38.616  30.386  1.00  0.00     0.120 A 
ATOM     37  N   UNL     1     -43.046  39.707  29.998  1.00  0.00    -0.217 NA
ATOM     38  H   UNL     1     -43.395  38.139  31.299  1.00  0.00     0.106 H 
BRANCH  35  39
ATOM     39  N   UNL     1     -42.724  41.480  28.484  1.00  0.00    -0.382 N 
ATOM     40  H   UNL     1     -42.897  41.753  27.524  1.00  0.00     0.158 HD
ATOM     41  H   UNL     1     -41.766  41.457  28.805  1.00  0.00     0.158 HD
ENDBRANCH  35  39
ENDBRANCH  25  28
ENDBRANCH   4  25
TORSDOF 7
ENDMDL
MODEL 3
REMARK VINA RESULT:      -7.0      2.097      3.166
REMARK SMILES CN[C@H]1CC[C@@](O)(Cn2cnc3c(N)ncnc32)[C@H](O)C1
REMARK SMILES IDX 3 1 4 2 5 3 6 4 19 5 21 6 2 15 1 17 20 21 7 23 8 25 9 28
REMARK SMILES IDX 10 29 18 30 11 31 12 33 17 34 13 35 16 36 15 37 14 39
REMARK H PARENT 3 7 4 8 4 9 5 10 5 11 19 12 21 13 21 14 2 16 1 18 1 19 1 20
REMARK H PARENT 20 22 7 24 8 26 8 27 10 32 16 38 14 40 14 41
REMARK Flexibility Score: inf
ROOT
ATOM      1  C   UNL     1     -46.827  33.945  26.920  1.00  0.00     0.009 C 
ATOM      2  C   UNL     1     -45.767  34.352  27.958  1.00  0.00    -0.035 C 
ATOM      3  C   UNL     1     -45.514  35.867  27.983  1.00  0.00    -0.018 C 
ATOM      4  C   UNL     1     -46.816  36.655  28.231  1.00  0.00     0.108 C 
ATOM      5  C   UNL     1     -47.879  36.254  27.169  1.00  0.00     0.086 C 
ATOM      6  C   UNL     1     -48.122  34.740  27.165  1.00  0.00    -0.009 C 
ATOM      7  H   UNL     1     -47.061  32.879  27.038  1.00  0.00     0.047 H 
ATOM      8  H   UNL     1     -44.821  33.829  27.786  1.00  0.00     0.028 H 
ATOM      9  H   UNL     1     -46.104  34.025  28.951  1.00  0.00     0.028 H 
ATOM     10  H   UNL     1     -44.792  36.076  28.781  1.00  0.00     0.030 H 
ATOM     11  H   UNL     1     -45.050  36.171  27.038  1.00  0.00     0.030 H 
ATOM     12  H   UNL     1     -47.545  36.549  26.167  1.00  0.00     0.063 H 
ATOM     13  H   UNL     1     -48.878  34.491  26.408  1.00  0.00     0.031 H 
ATOM     14  H   UNL     1     -48.570  34.432  28.119  1.00  0.00     0.031 H 
ENDROOT
BRANCH   1  15
ATOM     15  N   UNL     1     -46.370  34.193  25.540  1.00  0.00    -0.317 NA
ATOM     16  H   UNL     1     -46.979  34.893  25.111  1.00  0.00     0.122 HD
BRANCH  15  17
ATOM     17  C   UNL     1     -46.411  32.996  24.705  1.00  0.00    -0.016 C 
ATOM     18  H   UNL     1     -46.248  32.115  25.335  1.00  0.00     0.039 H 
ATOM     19  H   UNL     1     -45.626  33.009  23.943  1.00  0.00     0.039 H 
ATOM     20  H   UNL     1     -47.382  32.867  24.224  1.00  0.00     0.039 H 
ENDBRANCH  15  17
ENDBRANCH   1  15
BRANCH   5  21
ATOM     21  O   UNL     1     -49.133  36.904  27.399  1.00  0.00    -0.390 OA
ATOM     22  H   UNL     1     -49.783  36.203  27.610  1.00  0.00     0.211 HD
ENDBRANCH   5  21
BRANCH   4  23
ATOM     23  O   UNL     1     -47.303  36.260  29.536  1.00  0.00    -0.385 OA
ATOM     24  H   UNL     1     -47.088  35.324  29.687  1.00  0.00     0.211 HD
ENDBRANCH   4  23
BRANCH   4  25
ATOM     25  C   UNL     1     -46.578  38.179  28.300  1.00  0.00     0.057 C 
ATOM     26  H   UNL     1     -46.616  38.617  27.294  1.00  0.00     0.053 H 
ATOM     27  H   UNL     1     -47.403  38.658  28.843  1.00  0.00     0.053 H 
BRANCH  25  28
ATOM     28  N   UNL     1     -45.349  38.610  28.921  1.00  0.00    -0.312 N 
ATOM     29  C   UNL     1     -44.804  38.106  30.072  1.00  0.00     0.097 A 
ATOM     30  C   UNL     1     -44.572  39.664  28.524  1.00  0.00     0.165 A 
ATOM     31  N   UNL     1     -43.711  38.751  30.422  1.00  0.00    -0.231 NA
ATOM     32  H   UNL     1     -45.240  37.275  30.612  1.00  0.00     0.104 H 
ATOM     33  C   UNL     1     -43.550  39.725  29.457  1.00  0.00     0.150 A 
ATOM     34  N   UNL     1     -44.752  40.461  27.455  1.00  0.00    -0.217 NA
ATOM     35  C   UNL     1     -42.587  40.730  29.270  1.00  0.00     0.155 A 
ATOM     36  C   UNL     1     -43.777  41.394  27.390  1.00  0.00     0.120 A 
ATOM     37  N   UNL     1     -42.731  41.575  28.224  1.00  0.00    -0.217 NA
ATOM     38  H   UNL     1     -43.842  42.091  26.558  1.00  0.00     0.106 H 
BRANCH  35  39
ATOM     39  N   UNL     1     -41.506  40.916  30.122  1.00  0.00    -0.382 N 
ATOM     40  H   UNL     1     -41.036  41.804  29.992  1.00  0.00     0.158 HD
ATOM     41  H   UNL     1     -40.935  40.085  30.202  1.00  0.00     0.158 HD
ENDBRANCH  35  39
ENDBRANCH  25  28
ENDBRANCH   4  25
TORSDOF 7
ENDMDL
MODEL 4
REMARK VINA RESULT:      -6.9      1.716      2.502
REMARK SMILES CN[C@H]1CC[C@@](O)(Cn2cnc3c(N)ncnc32)[C@H](O)C1
REMARK SMILES IDX 3 1 4 2 5 3 6 4 19 5 21 6 2 15 1 17 20 21 7 23 8 25 9 28
REMARK SMILES IDX 10 29 18 30 11 31 12 33 17 34 13 35 16 36 15 37 14 39
REMARK H PARENT 3 7 4 8 4 9 5 10 5 11 19 12 21 13 21 14 2 16 1 18 1 19 1 20
REMARK H PARENT 20 22 7 24 8 26 8 27 10 32 16 38 14 40 14 41
REMARK Flexibility Score: inf
ROOT
ATOM      1  C   UNL     1     -46.793  35.133  28.293  1.00  0.00     0.009 C 
ATOM      2  C   UNL     1     -45.991  35.769  27.145  1.00  0.00    -0.035 C 
ATOM      3  C   UNL     1     -46.181  37.290  27.063  1.00  0.00    -0.018 C 
ATOM      4  C   UNL     1     -45.822  37.980  28.394  1.00  0.00     0.108 C 
ATOM      5  C   UNL     1     -46.647  37.346  29.550  1.00  0.00     0.086 C 
ATOM      6  C   UNL     1     -46.439  35.828  29.619  1.00  0.00    -0.009 C 
ATOM      7  H   UNL     1     -46.518  34.074  28.386  1.00  0.00     0.047 H 
ATOM      8  H   UNL     1     -46.250  35.318  26.181  1.00  0.00     0.028 H 
ATOM      9  H   UNL     1     -44.926  35.545  27.294  1.00  0.00     0.028 H 
ATOM     10  H   UNL     1     -45.538  37.669  26.259  1.00  0.00     0.030 H 
ATOM     11  H   UNL     1     -47.216  37.510  26.779  1.00  0.00     0.030 H 
ATOM     12  H   UNL     1     -47.717  37.537  29.400  1.00  0.00     0.063 H 
ATOM     13  H   UNL     1     -47.031  35.413  30.444  1.00  0.00     0.031 H 
ATOM     14  H   UNL     1     -45.396  35.607  29.885  1.00  0.00     0.031 H 
ENDROOT
BRANCH   1  15
ATOM     15  N   UNL     1     -48.247  35.238  28.073  1.00  0.00    -0.317 NA
ATOM     16  H   UNL     1     -48.731  34.725  28.813  1.00  0.00     0.122 HD
BRANCH  15  17
ATOM     17  C   UNL     1     -48.670  34.678  26.793  1.00  0.00    -0.016 C 
ATOM     18  H   UNL     1     -49.672  34.249  26.905  1.00  0.00     0.039 H 
ATOM     19  H   UNL     1     -48.001  33.878  26.462  1.00  0.00     0.039 H 
ATOM     20  H   UNL     1     -48.736  35.441  26.015  1.00  0.00     0.039 H 
ENDBRANCH  15  17
ENDBRANCH   1  15
BRANCH   5  21
ATOM     21  O   UNL     1     -46.297  37.901  30.821  1.00  0.00    -0.390 OA
ATOM     22  H   UNL     1     -46.468  38.863  30.768  1.00  0.00     0.211 HD
ENDBRANCH   5  21
BRANCH   4  23
ATOM     23  O   UNL     1     -44.419  37.715  28.638  1.00  0.00    -0.385 OA
ATOM     24  H   UNL     1     -44.246  36.768  28.507  1.00  0.00     0.211 HD
ENDBRANCH   4  23
BRANCH   4  25
ATOM     25  C   UNL     1     -45.967  39.515  28.320  1.00  0.00     0.057 C 
ATOM     26  H   UNL     1     -46.917  39.785  27.842  1.00  0.00     0.053 H 
ATOM     27  H   UNL     1     -46.040  39.929  29.335  1.00  0.00     0.053 H 
BRANCH  25  28
ATOM     28  N   UNL     1     -44.914  40.229  27.641  1.00  0.00    -0.312 N 
ATOM     29  C   UNL     1     -44.909  40.603  26.323  1.00  0.00     0.097 A 
ATOM     30  C   UNL     1     -43.697  40.563  28.169  1.00  0.00     0.165 A 
ATOM     31  N   UNL     1     -43.777  41.182  25.980  1.00  0.00    -0.231 NA
ATOM     32  H   UNL     1     -45.749  40.430  25.662  1.00  0.00     0.104 H 
ATOM     33  C   UNL     1     -43.011  41.170  27.129  1.00  0.00     0.150 A 
ATOM     34  N   UNL     1     -43.262  40.359  29.425  1.00  0.00    -0.217 NA
ATOM     35  C   UNL     1     -41.714  41.628  27.413  1.00  0.00     0.155 A 
ATOM     36  C   UNL     1     -42.003  40.826  29.573  1.00  0.00     0.120 A 
ATOM     37  N   UNL     1     -41.217  41.429  28.655  1.00  0.00    -0.217 NA
ATOM     38  H   UNL     1     -41.562  40.699  30.558  1.00  0.00     0.106 H 
BRANCH  35  39
ATOM     39  N   UNL     1     -40.906  42.255  26.473  1.00  0.00    -0.382 N 
ATOM     40  H   UNL     1     -40.791  41.723  25.619  1.00  0.00     0.158 HD
ATOM     41  H   UNL     1     -40.082  42.665  26.891  1.00  0.00     0.158 HD
ENDBRANCH  35  39
ENDBRANCH  25  28
ENDBRANCH   4  25
TORSDOF 7
ENDMDL
MODEL 5
REMARK VINA RESULT:      -6.9      7.073     11.512
REMARK SMILES CN[C@H]1CC[C@@](O)(Cn2cnc3c(N)ncnc32)[C@H](O)C1
REMARK SMILES IDX 3 1 4 2 5 3 6 4 19 5 21 6 2 15 1 17 20 21 7 23 8 25 9 28
REMARK SMILES IDX 10 29 18 30 11 31 12 33 17 34 13 35 16 36 15 37 14 39
REMARK H PARENT 3 7 4 8 4 9 5 10 5 11 19 12 21 13 21 14 2 16 1 18 1 19 1 20
REMARK H PARENT 20 22 7 24 8 26 8 27 10 32 16 38 14 40 14 41
REMARK Flexibility Score: inf
ROOT
ATOM      1  C   UNL     1     -47.571  32.637  25.479  1.00  0.00     0.009 C 
ATOM      2  C   UNL     1     -46.600  32.432  24.304  1.00  0.00    -0.035 C 
ATOM      3  C   UNL     1     -46.563  30.977  23.814  1.00  0.00    -0.018 C 
ATOM      4  C   UNL     1     -47.967  30.474  23.424  1.00  0.00     0.108 C 
ATOM      5  C   UNL     1     -48.942  30.667  24.621  1.00  0.00     0.086 C 
ATOM      6  C   UNL     1     -48.969  32.126  25.090  1.00  0.00    -0.009 C 
ATOM      7  H   UNL     1     -47.655  33.709  25.699  1.00  0.00     0.047 H 
ATOM      8  H   UNL     1     -45.586  32.752  24.566  1.00  0.00     0.028 H 
ATOM      9  H   UNL     1     -46.907  33.084  23.476  1.00  0.00     0.028 H 
ATOM     10  H   UNL     1     -45.893  30.928  22.948  1.00  0.00     0.030 H 
ATOM     11  H   UNL     1     -46.127  30.344  24.596  1.00  0.00     0.030 H 
ATOM     12  H   UNL     1     -48.632  30.042  25.467  1.00  0.00     0.063 H 
ATOM     13  H   UNL     1     -49.667  32.228  25.932  1.00  0.00     0.031 H 
ATOM     14  H   UNL     1     -49.389  32.764  24.300  1.00  0.00     0.031 H 
ENDROOT
BRANCH   1  15
ATOM     15  N   UNL     1     -47.125  31.926  26.693  1.00  0.00    -0.317 NA
ATOM     16  H   UNL     1     -47.945  31.684  27.253  1.00  0.00     0.122 HD
BRANCH  15  17
ATOM     17  C   UNL     1     -46.238  32.730  27.527  1.00  0.00    -0.016 C 
ATOM     18  H   UNL     1     -46.500  32.576  28.579  1.00  0.00     0.039 H 
ATOM     19  H   UNL     1     -46.339  33.798  27.312  1.00  0.00     0.039 H 
ATOM     20  H   UNL     1     -45.192  32.435  27.414  1.00  0.00     0.039 H 
ENDBRANCH  15  17
ENDBRANCH   1  15
BRANCH   5  21
ATOM     21  O   UNL     1     -50.279  30.282  24.285  1.00  0.00    -0.390 OA
ATOM     22  H   UNL     1     -50.264  29.988  23.352  1.00  0.00     0.211 HD
ENDBRANCH   5  21
BRANCH   4  23
ATOM     23  O   UNL     1     -48.420  31.305  22.328  1.00  0.00    -0.385 OA
ATOM     24  H   UNL     1     -47.731  31.956  22.116  1.00  0.00     0.211 HD
ENDBRANCH   4  23
BRANCH   4  25
ATOM     25  C   UNL     1     -47.947  29.025  22.890  1.00  0.00     0.057 C 
ATOM     26  H   UNL     1     -48.941  28.740  22.522  1.00  0.00     0.053 H 
ATOM     27  H   UNL     1     -47.296  28.966  22.007  1.00  0.00     0.053 H 
BRANCH  25  28
ATOM     28  N   UNL     1     -47.511  28.005  23.813  1.00  0.00    -0.312 N 
ATOM     29  C   UNL     1     -46.231  27.544  23.963  1.00  0.00     0.097 A 
ATOM     30  C   UNL     1     -48.318  27.253  24.622  1.00  0.00     0.165 A 
ATOM     31  N   UNL     1     -46.160  26.563  24.839  1.00  0.00    -0.231 NA
ATOM     32  H   UNL     1     -45.391  27.953  23.415  1.00  0.00     0.104 H 
ATOM     33  C   UNL     1     -47.461  26.375  25.265  1.00  0.00     0.150 A 
ATOM     34  N   UNL     1     -49.652  27.349  24.770  1.00  0.00    -0.217 NA
ATOM     35  C   UNL     1     -48.043  25.483  26.179  1.00  0.00     0.155 A 
ATOM     36  C   UNL     1     -50.097  26.434  25.660  1.00  0.00     0.120 A 
ATOM     37  N   UNL     1     -49.384  25.520  26.352  1.00  0.00    -0.217 NA
ATOM     38  H   UNL     1     -51.168  26.432  25.842  1.00  0.00     0.106 H 
BRANCH  35  39
ATOM     39  N   UNL     1     -47.313  24.545  26.898  1.00  0.00    -0.382 N 
ATOM     40  H   UNL     1     -46.386  24.865  27.154  1.00  0.00     0.158 HD
ATOM     41  H   UNL     1     -47.404  23.614  26.516  1.00  0.00     0.158 HD
ENDBRANCH  35  39
ENDBRANCH  25  28
ENDBRANCH   4  25
TORSDOF 7
ENDMDL
MODEL 6
REMARK VINA RESULT:      -6.8      2.183      6.687
REMARK SMILES CN[C@H]1CC[C@@](O)(Cn2cnc3c(N)ncnc32)[C@H](O)C1
REMARK SMILES IDX 3 1 4 2 5 3 6 4 19 5 21 6 2 15 1 17 20 21 7 23 8 25 9 28
REMARK SMILES IDX 10 29 18 30 11 31 12 33 17 34 13 35 16 36 15 37 14 39
REMARK H PARENT 3 7 4 8 4 9 5 10 5 11 19 12 21 13 21 14 2 16 1 18 1 19 1 20
REMARK H PARENT 20 22 7 24 8 26 8 27 10 32 16 38 14 40 14 41
REMARK Flexibility Score: inf
ROOT
ATOM      1  C   UNL     1     -44.481  42.115  26.178  1.00  0.00     0.009 C 
ATOM      2  C   UNL     1     -43.979  40.687  26.448  1.00  0.00    -0.035 C 
ATOM      3  C   UNL     1     -44.834  39.945  27.485  1.00  0.00    -0.018 C 
ATOM      4  C   UNL     1     -46.320  39.907  27.073  1.00  0.00     0.108 C 
ATOM      5  C   UNL     1     -46.828  41.354  26.818  1.00  0.00     0.086 C 
ATOM      6  C   UNL     1     -45.965  42.075  25.776  1.00  0.00    -0.009 C 
ATOM      7  H   UNL     1     -43.918  42.547  25.341  1.00  0.00     0.047 H 
ATOM      8  H   UNL     1     -42.933  40.688  26.774  1.00  0.00     0.028 H 
ATOM      9  H   UNL     1     -43.989  40.127  25.503  1.00  0.00     0.028 H 
ATOM     10  H   UNL     1     -44.445  38.924  27.578  1.00  0.00     0.030 H 
ATOM     11  H   UNL     1     -44.715  40.427  28.462  1.00  0.00     0.030 H 
ATOM     12  H   UNL     1     -46.797  41.936  27.747  1.00  0.00     0.063 H 
ATOM     13  H   UNL     1     -46.352  43.090  25.617  1.00  0.00     0.031 H 
ATOM     14  H   UNL     1     -46.070  41.581  24.800  1.00  0.00     0.031 H 
ENDROOT
BRANCH   1  15
ATOM     15  N   UNL     1     -44.332  42.984  27.361  1.00  0.00    -0.317 NA
ATOM     16  H   UNL     1     -44.569  43.943  27.098  1.00  0.00     0.122 HD
BRANCH  15  17
ATOM     17  C   UNL     1     -42.973  42.991  27.893  1.00  0.00    -0.016 C 
ATOM     18  H   UNL     1     -42.263  42.972  27.059  1.00  0.00     0.039 H 
ATOM     19  H   UNL     1     -42.778  42.112  28.515  1.00  0.00     0.039 H 
ATOM     20  H   UNL     1     -42.763  43.895  28.468  1.00  0.00     0.039 H 
ENDBRANCH  15  17
ENDBRANCH   1  15
BRANCH   5  21
ATOM     21  O   UNL     1     -48.184  41.370  26.360  1.00  0.00    -0.390 OA
ATOM     22  H   UNL     1     -48.595  40.533  26.661  1.00  0.00     0.211 HD
ENDBRANCH   5  21
BRANCH   4  23
ATOM     23  O   UNL     1     -46.389  39.173  25.826  1.00  0.00    -0.385 OA
ATOM     24  H   UNL     1     -46.833  39.721  25.158  1.00  0.00     0.211 HD
ENDBRANCH   4  23
BRANCH   4  25
ATOM     25  C   UNL     1     -47.192  39.130  28.083  1.00  0.00     0.057 C 
ATOM     26  H   UNL     1     -47.359  39.733  28.985  1.00  0.00     0.053 H 
ATOM     27  H   UNL     1     -48.195  38.974  27.663  1.00  0.00     0.053 H 
BRANCH  25  28
ATOM     28  N   UNL     1     -46.697  37.840  28.501  1.00  0.00    -0.312 N 
ATOM     29  C   UNL     1     -45.836  37.602  29.539  1.00  0.00     0.097 A 
ATOM     30  C   UNL     1     -46.921  36.648  27.868  1.00  0.00     0.165 A 
ATOM     31  N   UNL     1     -45.517  36.328  29.631  1.00  0.00    -0.231 NA
ATOM     32  H   UNL     1     -45.475  38.386  30.193  1.00  0.00     0.104 H 
ATOM     33  C   UNL     1     -46.196  35.718  28.594  1.00  0.00     0.150 A 
ATOM     34  N   UNL     1     -47.687  36.424  26.785  1.00  0.00    -0.217 NA
ATOM     35  C   UNL     1     -46.265  34.385  28.155  1.00  0.00     0.155 A 
ATOM     36  C   UNL     1     -47.663  35.115  26.451  1.00  0.00     0.120 A 
ATOM     37  N   UNL     1     -47.002  34.105  27.057  1.00  0.00    -0.217 NA
ATOM     38  H   UNL     1     -48.251  34.837  25.580  1.00  0.00     0.106 H 
BRANCH  35  39
ATOM     39  N   UNL     1     -45.592  33.343  28.780  1.00  0.00    -0.382 N 
ATOM     40  H   UNL     1     -45.301  32.610  28.144  1.00  0.00     0.158 HD
ATOM     41  H   UNL     1     -46.033  33.069  29.648  1.00  0.00     0.158 HD
ENDBRANCH  35  39
ENDBRANCH  25  28
ENDBRANCH   4  25
TORSDOF 7
ENDMDL
MODEL 7
REMARK VINA RESULT:      -6.7      3.388      8.161
REMARK SMILES CN[C@H]1CC[C@@](O)(Cn2cnc3c(N)ncnc32)[C@H](O)C1
REMARK SMILES IDX 3 1 4 2 5 3 6 4 19 5 21 6 2 15 1 17 20 21 7 23 8 25 9 28
REMARK SMILES IDX 10 29 18 30 11 31 12 33 17 34 13 35 16 36 15 37 14 39
REMARK H PARENT 3 7 4 8 4 9 5 10 5 11 19 12 21 13 21 14 2 16 1 18 1 19 1 20
REMARK H PARENT 20 22 7 24 8 26 8 27 10 32 16 38 14 40 14 41
REMARK Flexibility Score: inf
ROOT
ATOM      1  C   UNL     1     -46.614  36.806  28.506  1.00  0.00     0.009 C 
ATOM      2  C   UNL     1     -47.484  36.795  27.237  1.00  0.00    -0.035 C 
ATOM      3  C   UNL     1     -46.945  35.846  26.158  1.00  0.00    -0.018 C 
ATOM      4  C   UNL     1     -46.786  34.409  26.695  1.00  0.00     0.108 C 
ATOM      5  C   UNL     1     -45.892  34.422  27.966  1.00  0.00     0.086 C 
ATOM      6  C   UNL     1     -46.450  35.370  29.033  1.00  0.00    -0.009 C 
ATOM      7  H   UNL     1     -47.114  37.395  29.286  1.00  0.00     0.047 H 
ATOM      8  H   UNL     1     -47.588  37.801  26.818  1.00  0.00     0.028 H 
ATOM      9  H   UNL     1     -48.502  36.489  27.513  1.00  0.00     0.028 H 
ATOM     10  H   UNL     1     -47.647  35.857  25.316  1.00  0.00     0.030 H 
ATOM     11  H   UNL     1     -45.988  36.229  25.786  1.00  0.00     0.030 H 
ATOM     12  H   UNL     1     -44.877  34.754  27.713  1.00  0.00     0.063 H 
ATOM     13  H   UNL     1     -45.799  35.354  29.917  1.00  0.00     0.031 H 
ATOM     14  H   UNL     1     -47.419  34.997  29.393  1.00  0.00     0.031 H 
ENDROOT
BRANCH   1  15
ATOM     15  N   UNL     1     -45.277  37.376  28.251  1.00  0.00    -0.317 NA
ATOM     16  H   UNL     1     -44.658  37.121  29.024  1.00  0.00     0.122 HD
BRANCH  15  17
ATOM     17  C   UNL     1     -45.290  38.831  28.151  1.00  0.00    -0.016 C 
ATOM     18  H   UNL     1     -45.131  39.259  29.146  1.00  0.00     0.039 H 
ATOM     19  H   UNL     1     -46.250  39.202  27.779  1.00  0.00     0.039 H 
ATOM     20  H   UNL     1     -44.485  39.204  27.513  1.00  0.00     0.039 H 
ENDBRANCH  15  17
ENDBRANCH   1  15
BRANCH   5  21
ATOM     21  O   UNL     1     -45.773  33.120  28.547  1.00  0.00    -0.390 OA
ATOM     22  H   UNL     1     -44.912  32.756  28.256  1.00  0.00     0.211 HD
ENDBRANCH   5  21
BRANCH   4  23
ATOM     23  O   UNL     1     -48.109  33.954  27.072  1.00  0.00    -0.385 OA
ATOM     24  H   UNL     1     -48.324  33.149  26.571  1.00  0.00     0.211 HD
ENDBRANCH   4  23
BRANCH   4  25
ATOM     25  C   UNL     1     -46.283  33.429  25.612  1.00  0.00     0.057 C 
ATOM     26  H   UNL     1     -46.114  33.960  24.667  1.00  0.00     0.053 H 
ATOM     27  H   UNL     1     -45.295  33.042  25.895  1.00  0.00     0.053 H 
BRANCH  25  28
ATOM     28  N   UNL     1     -47.126  32.291  25.333  1.00  0.00    -0.312 N 
ATOM     29  C   UNL     1     -48.004  31.702  26.203  1.00  0.00     0.097 A 
ATOM     30  C   UNL     1     -47.115  31.543  24.188  1.00  0.00     0.165 A 
ATOM     31  N   UNL     1     -48.580  30.641  25.678  1.00  0.00    -0.231 NA
ATOM     32  H   UNL     1     -48.186  32.084  27.200  1.00  0.00     0.104 H 
ATOM     33  C   UNL     1     -48.037  30.534  24.413  1.00  0.00     0.150 A 
ATOM     34  N   UNL     1     -46.379  31.746  23.081  1.00  0.00    -0.217 NA
ATOM     35  C   UNL     1     -48.233  29.616  23.368  1.00  0.00     0.155 A 
ATOM     36  C   UNL     1     -46.642  30.796  22.156  1.00  0.00     0.120 A 
ATOM     37  N   UNL     1     -47.503  29.759  22.238  1.00  0.00    -0.217 NA
ATOM     38  H   UNL     1     -46.087  30.874  21.225  1.00  0.00     0.106 H 
BRANCH  35  39
ATOM     39  N   UNL     1     -49.123  28.552  23.446  1.00  0.00    -0.382 N 
ATOM     40  H   UNL     1     -49.916  28.732  24.051  1.00  0.00     0.158 HD
ATOM     41  H   UNL     1     -48.649  27.663  23.538  1.00  0.00     0.158 HD
ENDBRANCH  35  39
ENDBRANCH  25  28
ENDBRANCH   4  25
TORSDOF 7
ENDMDL
