MODEL 1
REMARK VINA RESULT:     -11.3      0.000      0.000
REMARK SMILES Nc1ncnc2c1c(Cl)cn2-c1cncc(COc2ccc3ccc(NCC4CC4)nc3c2)c1
REMARK SMILES IDX 18 1 17 2 16 5 12 6 13 7 34 8 14 9 15 12 11 14 2 15 3 16
REMARK SMILES IDX 7 17 4 18 6 19 8 20 5 21 9 23 10 24 1 26 19 29 20 30 33 31
REMARK SMILES IDX 21 32 32 34 22 36 31 38 23 39 25 40 24 41 26 44 27 46 28 49
REMARK SMILES IDX 29 50 30 51
REMARK H PARENT 17 3 17 4 13 10 34 11 15 13 4 22 10 25 1 27 1 28 20 33 33 35
REMARK H PARENT 21 37 23 42 24 43 26 45 27 47 27 48 28 52 29 53 29 54 30 55
REMARK H PARENT 30 56
REMARK Flexibility Score: inf
ROOT
ATOM      1  O   UNL     1     -48.563  34.549  27.420  1.00  0.00    -0.489 OA
ENDROOT
BRANCH   1   2
ATOM      2  C   UNL     1     -48.556  35.969  27.240  1.00  0.00     0.115 C 
ATOM      3  H   UNL     1     -49.492  36.339  27.675  1.00  0.00     0.076 H 
ATOM      4  H   UNL     1     -48.590  36.226  26.174  1.00  0.00     0.076 H 
BRANCH   2   5
ATOM      5  C   UNL     1     -47.423  36.657  27.956  1.00  0.00     0.010 A 
ATOM      6  C   UNL     1     -45.675  38.350  28.107  1.00  0.00     0.066 A 
ATOM      7  C   UNL     1     -45.336  37.787  29.332  1.00  0.00     0.051 A 
ATOM      8  C   UNL     1     -46.738  37.754  27.412  1.00  0.00    -0.028 A 
ATOM      9  N   UNL     1     -45.964  36.713  29.879  1.00  0.00    -0.262 NA
ATOM     10  H   UNL     1     -44.547  38.168  29.969  1.00  0.00     0.086 H 
ATOM     11  H   UNL     1     -47.058  38.112  26.438  1.00  0.00     0.065 H 
ATOM     12  C   UNL     1     -46.983  36.173  29.179  1.00  0.00     0.034 A 
ATOM     13  H   UNL     1     -47.447  35.312  29.653  1.00  0.00     0.084 H 
BRANCH   6  14
ATOM     14  N   UNL     1     -44.986  39.487  27.574  1.00  0.00    -0.298 N 
ATOM     15  C   UNL     1     -42.518  42.074  27.702  1.00  0.00     0.137 A 
ATOM     16  N   UNL     1     -41.901  41.821  28.870  1.00  0.00    -0.219 NA
ATOM     17  C   UNL     1     -43.570  41.240  27.291  1.00  0.00     0.080 A 
ATOM     18  C   UNL     1     -42.330  40.784  29.606  1.00  0.00     0.120 A 
ATOM     19  C   UNL     1     -43.928  40.199  28.146  1.00  0.00     0.151 A 
ATOM     20  C   UNL     1     -44.425  41.156  26.171  1.00  0.00     0.072 A 
ATOM     21  N   UNL     1     -43.322  39.931  29.321  1.00  0.00    -0.218 NA
ATOM     22  H   UNL     1     -41.808  40.617  30.543  1.00  0.00     0.106 H 
ATOM     23  Cl  UNL     1     -44.413  42.184  24.816  1.00  0.00    -0.082 Cl
ATOM     24  C   UNL     1     -45.270  40.089  26.359  1.00  0.00     0.031 A 
ATOM     25  H   UNL     1     -46.062  39.739  25.716  1.00  0.00     0.084 H 
BRANCH  15  26
ATOM     26  N   UNL     1     -42.053  43.155  26.973  1.00  0.00    -0.383 N 
ATOM     27  H   UNL     1     -42.144  44.061  27.413  1.00  0.00     0.158 HD
ATOM     28  H   UNL     1     -42.302  43.086  25.993  1.00  0.00     0.158 HD
ENDBRANCH  15  26
ENDBRANCH   6  14
ENDBRANCH   2   5
ENDBRANCH   1   2
BRANCH   1  29
ATOM     29  C   UNL     1     -47.980  33.761  26.466  1.00  0.00     0.122 A 
ATOM     30  C   UNL     1     -46.908  34.110  25.649  1.00  0.00    -0.019 A 
ATOM     31  C   UNL     1     -48.536  32.481  26.355  1.00  0.00     0.007 A 
ATOM     32  C   UNL     1     -46.410  33.186  24.730  1.00  0.00    -0.049 A 
ATOM     33  H   UNL     1     -46.428  35.080  25.704  1.00  0.00     0.066 H 
ATOM     34  C   UNL     1     -48.058  31.542  25.452  1.00  0.00     0.076 A 
ATOM     35  H   UNL     1     -49.370  32.205  26.995  1.00  0.00     0.069 H 
ATOM     36  C   UNL     1     -46.979  31.905  24.628  1.00  0.00     0.001 A 
ATOM     37  H   UNL     1     -45.572  33.467  24.097  1.00  0.00     0.063 H 
ATOM     38  N   UNL     1     -48.633  30.327  25.394  1.00  0.00    -0.231 NA
ATOM     39  C   UNL     1     -46.508  30.956  23.719  1.00  0.00    -0.049 A 
ATOM     40  C   UNL     1     -48.158  29.406  24.531  1.00  0.00     0.126 A 
ATOM     41  C   UNL     1     -47.108  29.702  23.668  1.00  0.00    -0.019 A 
ATOM     42  H   UNL     1     -45.685  31.183  23.048  1.00  0.00     0.063 H 
ATOM     43  H   UNL     1     -46.761  28.966  22.951  1.00  0.00     0.066 H 
BRANCH  40  44
ATOM     44  N   UNL     1     -48.762  28.146  24.419  1.00  0.00    -0.370 N 
ATOM     45  H   UNL     1     -48.379  27.653  23.619  1.00  0.00     0.162 HD
BRANCH  44  46
ATOM     46  C   UNL     1     -48.776  27.312  25.614  1.00  0.00     0.019 C 
ATOM     47  H   UNL     1     -48.720  27.889  26.544  1.00  0.00     0.049 H 
ATOM     48  H   UNL     1     -49.747  26.802  25.642  1.00  0.00     0.049 H 
BRANCH  46  49
ATOM     49  C   UNL     1     -47.716  26.252  25.528  1.00  0.00    -0.024 C 
ATOM     50  C   UNL     1     -47.733  25.085  26.484  1.00  0.00    -0.048 C 
ATOM     51  C   UNL     1     -46.648  26.120  26.586  1.00  0.00    -0.048 C 
ATOM     52  H   UNL     1     -47.441  26.035  24.502  1.00  0.00     0.032 H 
ATOM     53  H   UNL     1     -48.482  25.064  27.269  1.00  0.00     0.027 H 
ATOM     54  H   UNL     1     -47.467  24.108  26.099  1.00  0.00     0.027 H 
ATOM     55  H   UNL     1     -46.671  26.796  27.434  1.00  0.00     0.027 H 
ATOM     56  H   UNL     1     -45.648  25.849  26.265  1.00  0.00     0.027 H 
ENDBRANCH  46  49
ENDBRANCH  44  46
ENDBRANCH  40  44
ENDBRANCH   1  29
TORSDOF 8
ENDMDL
MODEL 2
REMARK VINA RESULT:     -11.1      1.239      1.834
REMARK SMILES Nc1ncnc2c1c(Cl)cn2-c1cncc(COc2ccc3ccc(NCC4CC4)nc3c2)c1
REMARK SMILES IDX 18 1 17 2 16 5 12 6 13 7 34 8 14 9 15 12 11 14 2 15 3 16
REMARK SMILES IDX 7 17 4 18 6 19 8 20 5 21 9 23 10 24 1 26 19 29 20 30 33 31
REMARK SMILES IDX 21 32 32 34 22 36 31 38 23 39 25 40 24 41 26 44 27 46 28 49
REMARK SMILES IDX 29 50 30 51
REMARK H PARENT 17 3 17 4 13 10 34 11 15 13 4 22 10 25 1 27 1 28 20 33 33 35
REMARK H PARENT 21 37 23 42 24 43 26 45 27 47 27 48 28 52 29 53 29 54 30 55
REMARK H PARENT 30 56
REMARK Flexibility Score: inf
ROOT
ATOM      1  O   UNL     1     -48.384  34.845  27.208  1.00  0.00    -0.489 OA
ENDROOT
BRANCH   1   2
ATOM      2  C   UNL     1     -48.053  36.228  27.052  1.00  0.00     0.115 C 
ATOM      3  H   UNL     1     -48.991  36.784  27.178  1.00  0.00     0.076 H 
ATOM      4  H   UNL     1     -47.710  36.433  26.031  1.00  0.00     0.076 H 
BRANCH   2   5
ATOM      5  C   UNL     1     -47.086  36.733  28.092  1.00  0.00     0.010 A 
ATOM      6  C   UNL     1     -45.323  38.235  28.852  1.00  0.00     0.066 A 
ATOM      7  C   UNL     1     -45.328  37.521  30.044  1.00  0.00     0.051 A 
ATOM      8  C   UNL     1     -46.221  37.813  27.860  1.00  0.00    -0.028 A 
ATOM      9  N   UNL     1     -46.137  36.459  30.294  1.00  0.00    -0.262 NA
ATOM     10  H   UNL     1     -44.695  37.761  30.889  1.00  0.00     0.086 H 
ATOM     11  H   UNL     1     -46.271  38.296  26.889  1.00  0.00     0.065 H 
ATOM     12  C   UNL     1     -46.988  36.088  29.316  1.00  0.00     0.034 A 
ATOM     13  H   UNL     1     -47.608  35.229  29.560  1.00  0.00     0.084 H 
BRANCH   6  14
ATOM     14  N   UNL     1     -44.454  39.353  28.636  1.00  0.00    -0.298 N 
ATOM     15  C   UNL     1     -43.333  42.221  26.815  1.00  0.00     0.137 A 
ATOM     16  N   UNL     1     -44.224  42.286  25.809  1.00  0.00    -0.219 NA
ATOM     17  C   UNL     1     -43.455  41.200  27.770  1.00  0.00     0.080 A 
ATOM     18  C   UNL     1     -45.189  41.355  25.752  1.00  0.00     0.120 A 
ATOM     19  C   UNL     1     -44.496  40.289  27.599  1.00  0.00     0.151 A 
ATOM     20  C   UNL     1     -42.768  40.813  28.941  1.00  0.00     0.072 A 
ATOM     21  N   UNL     1     -45.398  40.337  26.596  1.00  0.00    -0.218 NA
ATOM     22  H   UNL     1     -45.884  41.441  24.923  1.00  0.00     0.106 H 
ATOM     23  Cl  UNL     1     -41.413  41.590  29.616  1.00  0.00    -0.082 Cl
ATOM     24  C   UNL     1     -43.388  39.699  29.451  1.00  0.00     0.031 A 
ATOM     25  H   UNL     1     -43.125  39.125  30.326  1.00  0.00     0.084 H 
BRANCH  15  26
ATOM     26  N   UNL     1     -42.348  43.193  26.838  1.00  0.00    -0.383 N 
ATOM     27  H   UNL     1     -41.464  42.923  27.250  1.00  0.00     0.158 HD
ATOM     28  H   UNL     1     -42.719  44.103  27.087  1.00  0.00     0.158 HD
ENDBRANCH  15  26
ENDBRANCH   6  14
ENDBRANCH   2   5
ENDBRANCH   1   2
BRANCH   1  29
ATOM     29  C   UNL     1     -47.865  33.939  26.324  1.00  0.00     0.122 A 
ATOM     30  C   UNL     1     -46.756  34.129  25.504  1.00  0.00    -0.019 A 
ATOM     31  C   UNL     1     -48.536  32.710  26.295  1.00  0.00     0.007 A 
ATOM     32  C   UNL     1     -46.335  33.098  24.663  1.00  0.00    -0.049 A 
ATOM     33  H   UNL     1     -46.189  35.052  25.499  1.00  0.00     0.066 H 
ATOM     34  C   UNL     1     -48.136  31.668  25.469  1.00  0.00     0.076 A 
ATOM     35  H   UNL     1     -49.400  32.559  26.937  1.00  0.00     0.069 H 
ATOM     36  C   UNL     1     -47.019  31.871  24.642  1.00  0.00     0.001 A 
ATOM     37  H   UNL     1     -45.467  33.255  24.026  1.00  0.00     0.063 H 
ATOM     38  N   UNL     1     -48.820  30.510  25.487  1.00  0.00    -0.231 NA
ATOM     39  C   UNL     1     -46.627  30.819  23.812  1.00  0.00    -0.049 A 
ATOM     40  C   UNL     1     -48.423  29.490  24.702  1.00  0.00     0.126 A 
ATOM     41  C   UNL     1     -47.340  29.624  23.839  1.00  0.00    -0.019 A 
ATOM     42  H   UNL     1     -45.778  30.920  23.141  1.00  0.00     0.063 H 
ATOM     43  H   UNL     1     -47.054  28.810  23.183  1.00  0.00     0.066 H 
BRANCH  40  44
ATOM     44  N   UNL     1     -49.139  28.285  24.668  1.00  0.00    -0.370 N 
ATOM     45  H   UNL     1     -48.934  27.788  23.809  1.00  0.00     0.162 HD
BRANCH  44  46
ATOM     46  C   UNL     1     -49.029  27.419  25.835  1.00  0.00     0.019 C 
ATOM     47  H   UNL     1     -48.702  27.949  26.737  1.00  0.00     0.049 H 
ATOM     48  H   UNL     1     -50.036  27.048  26.061  1.00  0.00     0.049 H 
BRANCH  46  49
ATOM     49  C   UNL     1     -48.171  26.226  25.525  1.00  0.00    -0.024 C 
ATOM     50  C   UNL     1     -47.936  25.169  26.576  1.00  0.00    -0.048 C 
ATOM     51  C   UNL     1     -46.804  26.058  26.142  1.00  0.00    -0.048 C 
ATOM     52  H   UNL     1     -48.314  25.877  24.508  1.00  0.00     0.032 H 
ATOM     53  H   UNL     1     -48.342  25.322  27.570  1.00  0.00     0.027 H 
ATOM     54  H   UNL     1     -47.917  24.132  26.259  1.00  0.00     0.027 H 
ATOM     55  H   UNL     1     -46.454  26.810  26.841  1.00  0.00     0.027 H 
ATOM     56  H   UNL     1     -46.021  25.629  25.528  1.00  0.00     0.027 H 
ENDBRANCH  46  49
ENDBRANCH  44  46
ENDBRANCH  40  44
ENDBRANCH   1  29
TORSDOF 8
ENDMDL
MODEL 3
REMARK VINA RESULT:     -10.1      2.836     11.531
REMARK SMILES Nc1ncnc2c1c(Cl)cn2-c1cncc(COc2ccc3ccc(NCC4CC4)nc3c2)c1
REMARK SMILES IDX 18 1 17 2 16 5 12 6 13 7 34 8 14 9 15 12 11 14 2 15 3 16
REMARK SMILES IDX 7 17 4 18 6 19 8 20 5 21 9 23 10 24 1 26 19 29 20 30 33 31
REMARK SMILES IDX 21 32 32 34 22 36 31 38 23 39 25 40 24 41 26 44 27 46 28 49
REMARK SMILES IDX 29 50 30 51
REMARK H PARENT 17 3 17 4 13 10 34 11 15 13 4 22 10 25 1 27 1 28 20 33 33 35
REMARK H PARENT 21 37 23 42 24 43 26 45 27 47 27 48 28 52 29 53 29 54 30 55
REMARK H PARENT 30 56
REMARK Flexibility Score: inf
ROOT
ATOM      1  O   UNL     1     -46.662  37.238  27.876  1.00  0.00    -0.489 OA
ENDROOT
BRANCH   1   2
ATOM      2  C   UNL     1     -46.364  36.502  26.685  1.00  0.00     0.115 C 
ATOM      3  H   UNL     1     -45.339  36.129  26.803  1.00  0.00     0.076 H 
ATOM      4  H   UNL     1     -46.351  37.165  25.811  1.00  0.00     0.076 H 
BRANCH   2   5
ATOM      5  C   UNL     1     -47.259  35.307  26.481  1.00  0.00     0.010 A 
ATOM      6  C   UNL     1     -47.753  33.117  25.532  1.00  0.00     0.066 A 
ATOM      7  C   UNL     1     -49.001  33.216  26.136  1.00  0.00     0.051 A 
ATOM      8  C   UNL     1     -46.878  34.199  25.710  1.00  0.00    -0.028 A 
ATOM      9  N   UNL     1     -49.409  34.283  26.873  1.00  0.00    -0.262 NA
ATOM     10  H   UNL     1     -49.755  32.440  26.086  1.00  0.00     0.086 H 
ATOM     11  H   UNL     1     -45.892  34.219  25.256  1.00  0.00     0.065 H 
ATOM     12  C   UNL     1     -48.536  35.300  27.022  1.00  0.00     0.034 A 
ATOM     13  H   UNL     1     -48.911  36.132  27.611  1.00  0.00     0.084 H 
BRANCH   6  14
ATOM     14  N   UNL     1     -47.365  31.969  24.768  1.00  0.00    -0.298 N 
ATOM     15  C   UNL     1     -47.494  28.489  23.945  1.00  0.00     0.137 A 
ATOM     16  N   UNL     1     -48.419  28.027  24.806  1.00  0.00    -0.219 NA
ATOM     17  C   UNL     1     -47.168  29.855  23.962  1.00  0.00     0.080 A 
ATOM     18  C   UNL     1     -48.984  28.895  25.660  1.00  0.00     0.120 A 
ATOM     19  C   UNL     1     -47.819  30.653  24.900  1.00  0.00     0.151 A 
ATOM     20  C   UNL     1     -46.304  30.704  23.237  1.00  0.00     0.072 A 
ATOM     21  N   UNL     1     -48.747  30.208  25.772  1.00  0.00    -0.218 NA
ATOM     22  H   UNL     1     -49.721  28.480  26.340  1.00  0.00     0.106 H 
ATOM     23  Cl  UNL     1     -45.277  30.245  21.961  1.00  0.00    -0.082 Cl
ATOM     24  C   UNL     1     -46.440  31.977  23.736  1.00  0.00     0.031 A 
ATOM     25  H   UNL     1     -45.924  32.875  23.435  1.00  0.00     0.084 H 
BRANCH  15  26
ATOM     26  N   UNL     1     -46.929  27.566  23.083  1.00  0.00    -0.383 N 
ATOM     27  H   UNL     1     -45.986  27.271  23.301  1.00  0.00     0.158 HD
ATOM     28  H   UNL     1     -47.138  27.774  22.114  1.00  0.00     0.158 HD
ENDBRANCH  15  26
ENDBRANCH   6  14
ENDBRANCH   2   5
ENDBRANCH   1   2
BRANCH   1  29
ATOM     29  C   UNL     1     -45.653  37.919  28.500  1.00  0.00     0.122 A 
ATOM     30  C   UNL     1     -45.115  37.631  29.751  1.00  0.00    -0.019 A 
ATOM     31  C   UNL     1     -45.130  38.985  27.758  1.00  0.00     0.007 A 
ATOM     32  C   UNL     1     -44.070  38.410  30.249  1.00  0.00    -0.049 A 
ATOM     33  H   UNL     1     -45.469  36.808  30.360  1.00  0.00     0.066 H 
ATOM     34  C   UNL     1     -44.089  39.774  28.230  1.00  0.00     0.076 A 
ATOM     35  H   UNL     1     -45.547  39.209  26.779  1.00  0.00     0.069 H 
ATOM     36  C   UNL     1     -43.556  39.479  29.495  1.00  0.00     0.001 A 
ATOM     37  H   UNL     1     -43.655  38.178  31.228  1.00  0.00     0.063 H 
ATOM     38  N   UNL     1     -43.628  40.784  27.469  1.00  0.00    -0.231 NA
ATOM     39  C   UNL     1     -42.514  40.281  29.963  1.00  0.00    -0.049 A 
ATOM     40  C   UNL     1     -42.606  41.539  27.916  1.00  0.00     0.126 A 
ATOM     41  C   UNL     1     -42.042  41.322  29.169  1.00  0.00    -0.019 A 
ATOM     42  H   UNL     1     -42.069  40.109  30.939  1.00  0.00     0.063 H 
ATOM     43  H   UNL     1     -41.246  41.962  29.533  1.00  0.00     0.066 H 
BRANCH  40  44
ATOM     44  N   UNL     1     -42.129  42.623  27.165  1.00  0.00    -0.370 N 
ATOM     45  H   UNL     1     -41.350  42.325  26.589  1.00  0.00     0.162 HD
BRANCH  44  46
ATOM     46  C   UNL     1     -43.112  43.379  26.399  1.00  0.00     0.019 C 
ATOM     47  H   UNL     1     -44.146  43.097  26.626  1.00  0.00     0.049 H 
ATOM     48  H   UNL     1     -43.020  44.429  26.699  1.00  0.00     0.049 H 
BRANCH  46  49
ATOM     49  C   UNL     1     -42.804  43.304  24.930  1.00  0.00    -0.024 C 
ATOM     50  C   UNL     1     -43.314  44.372  23.994  1.00  0.00    -0.048 C 
ATOM     51  C   UNL     1     -43.874  42.979  23.918  1.00  0.00    -0.048 C 
ATOM     52  H   UNL     1     -41.802  42.933  24.745  1.00  0.00     0.032 H 
ATOM     53  H   UNL     1     -43.956  45.150  24.391  1.00  0.00     0.027 H 
ATOM     54  H   UNL     1     -42.661  44.700  23.194  1.00  0.00     0.027 H 
ATOM     55  H   UNL     1     -44.888  42.821  24.267  1.00  0.00     0.027 H 
ATOM     56  H   UNL     1     -43.599  42.361  23.070  1.00  0.00     0.027 H 
ENDBRANCH  46  49
ENDBRANCH  44  46
ENDBRANCH  40  44
ENDBRANCH   1  29
TORSDOF 8
ENDMDL
MODEL 4
REMARK VINA RESULT:     -10.0      1.700      2.461
REMARK SMILES Nc1ncnc2c1c(Cl)cn2-c1cncc(COc2ccc3ccc(NCC4CC4)nc3c2)c1
REMARK SMILES IDX 18 1 17 2 16 5 12 6 13 7 34 8 14 9 15 12 11 14 2 15 3 16
REMARK SMILES IDX 7 17 4 18 6 19 8 20 5 21 9 23 10 24 1 26 19 29 20 30 33 31
REMARK SMILES IDX 21 32 32 34 22 36 31 38 23 39 25 40 24 41 26 44 27 46 28 49
REMARK SMILES IDX 29 50 30 51
REMARK H PARENT 17 3 17 4 13 10 34 11 15 13 4 22 10 25 1 27 1 28 20 33 33 35
REMARK H PARENT 21 37 23 42 24 43 26 45 27 47 27 48 28 52 29 53 29 54 30 55
REMARK H PARENT 30 56
REMARK Flexibility Score: inf
ROOT
ATOM      1  O   UNL     1     -47.217  34.069  27.056  1.00  0.00    -0.489 OA
ENDROOT
BRANCH   1   2
ATOM      2  C   UNL     1     -46.038  34.306  27.833  1.00  0.00     0.115 C 
ATOM      3  H   UNL     1     -45.197  34.281  27.129  1.00  0.00     0.076 H 
ATOM      4  H   UNL     1     -45.869  33.486  28.543  1.00  0.00     0.076 H 
BRANCH   2   5
ATOM      5  C   UNL     1     -46.026  35.655  28.504  1.00  0.00     0.010 A 
ATOM      6  C   UNL     1     -45.772  38.079  28.475  1.00  0.00     0.066 A 
ATOM      7  C   UNL     1     -45.969  38.044  29.850  1.00  0.00     0.051 A 
ATOM      8  C   UNL     1     -45.794  36.848  27.803  1.00  0.00    -0.028 A 
ATOM      9  N   UNL     1     -46.175  36.906  30.563  1.00  0.00    -0.262 NA
ATOM     10  H   UNL     1     -45.991  38.928  30.475  1.00  0.00     0.086 H 
ATOM     11  H   UNL     1     -45.627  36.775  26.733  1.00  0.00     0.065 H 
ATOM     12  C   UNL     1     -46.193  35.744  29.879  1.00  0.00     0.034 A 
ATOM     13  H   UNL     1     -46.353  34.862  30.492  1.00  0.00     0.084 H 
BRANCH   6  14
ATOM     14  N   UNL     1     -45.563  39.305  27.766  1.00  0.00    -0.298 N 
ATOM     15  C   UNL     1     -46.693  42.278  26.126  1.00  0.00     0.137 A 
ATOM     16  N   UNL     1     -48.026  42.202  26.285  1.00  0.00    -0.219 NA
ATOM     17  C   UNL     1     -45.882  41.263  26.659  1.00  0.00     0.080 A 
ATOM     18  C   UNL     1     -48.530  41.143  26.938  1.00  0.00     0.120 A 
ATOM     19  C   UNL     1     -46.525  40.212  27.310  1.00  0.00     0.151 A 
ATOM     20  C   UNL     1     -44.498  40.994  26.725  1.00  0.00     0.072 A 
ATOM     21  N   UNL     1     -47.860  40.117  27.478  1.00  0.00    -0.218 NA
ATOM     22  H   UNL     1     -49.610  41.118  27.040  1.00  0.00     0.106 H 
ATOM     23  Cl  UNL     1     -43.252  41.965  26.091  1.00  0.00    -0.082 Cl
ATOM     24  C   UNL     1     -44.325  39.811  27.400  1.00  0.00     0.031 A 
ATOM     25  H   UNL     1     -43.405  39.292  27.622  1.00  0.00     0.084 H 
BRANCH  15  26
ATOM     26  N   UNL     1     -46.209  43.380  25.443  1.00  0.00    -0.383 N 
ATOM     27  H   UNL     1     -45.850  44.136  26.012  1.00  0.00     0.158 HD
ATOM     28  H   UNL     1     -46.799  43.629  24.658  1.00  0.00     0.158 HD
ENDBRANCH  15  26
ENDBRANCH   6  14
ENDBRANCH   2   5
ENDBRANCH   1   2
BRANCH   1  29
ATOM     29  C   UNL     1     -47.173  33.134  26.059  1.00  0.00     0.122 A 
ATOM     30  C   UNL     1     -46.449  33.226  24.874  1.00  0.00    -0.019 A 
ATOM     31  C   UNL     1     -47.926  31.981  26.314  1.00  0.00     0.007 A 
ATOM     32  C   UNL     1     -46.491  32.175  23.956  1.00  0.00    -0.049 A 
ATOM     33  H   UNL     1     -45.836  34.086  24.632  1.00  0.00     0.066 H 
ATOM     34  C   UNL     1     -47.983  30.921  25.419  1.00  0.00     0.076 A 
ATOM     35  H   UNL     1     -48.489  31.906  27.241  1.00  0.00     0.069 H 
ATOM     36  C   UNL     1     -47.253  31.025  24.223  1.00  0.00     0.001 A 
ATOM     37  H   UNL     1     -45.922  32.255  23.032  1.00  0.00     0.063 H 
ATOM     38  N   UNL     1     -48.723  29.840  25.721  1.00  0.00    -0.231 NA
ATOM     39  C   UNL     1     -47.319  29.957  23.327  1.00  0.00    -0.049 A 
ATOM     40  C   UNL     1     -48.765  28.801  24.864  1.00  0.00     0.126 A 
ATOM     41  C   UNL     1     -48.087  28.841  23.649  1.00  0.00    -0.019 A 
ATOM     42  H   UNL     1     -46.787  29.984  22.381  1.00  0.00     0.063 H 
ATOM     43  H   UNL     1     -48.160  28.015  22.950  1.00  0.00     0.066 H 
BRANCH  40  44
ATOM     44  N   UNL     1     -49.559  27.677  25.131  1.00  0.00    -0.370 N 
ATOM     45  H   UNL     1     -49.710  27.153  24.277  1.00  0.00     0.162 HD
BRANCH  44  46
ATOM     46  C   UNL     1     -49.135  26.815  26.228  1.00  0.00     0.019 C 
ATOM     47  H   UNL     1     -49.032  27.347  27.181  1.00  0.00     0.049 H 
ATOM     48  H   UNL     1     -49.931  26.078  26.388  1.00  0.00     0.049 H 
BRANCH  46  49
ATOM     49  C   UNL     1     -47.893  26.059  25.852  1.00  0.00    -0.024 C 
ATOM     50  C   UNL     1     -47.519  24.800  26.595  1.00  0.00    -0.048 C 
ATOM     51  C   UNL     1     -46.682  26.039  26.752  1.00  0.00    -0.048 C 
ATOM     52  H   UNL     1     -47.728  26.058  24.780  1.00  0.00     0.032 H 
ATOM     53  H   UNL     1     -48.125  24.494  27.440  1.00  0.00     0.027 H 
ATOM     54  H   UNL     1     -47.104  23.977  26.025  1.00  0.00     0.027 H 
ATOM     55  H   UNL     1     -46.730  26.566  27.698  1.00  0.00     0.027 H 
ATOM     56  H   UNL     1     -45.704  26.060  26.285  1.00  0.00     0.027 H 
ENDBRANCH  46  49
ENDBRANCH  44  46
ENDBRANCH  40  44
ENDBRANCH   1  29
TORSDOF 8
ENDMDL
MODEL 5
REMARK VINA RESULT:      -9.9      1.324      2.022
REMARK SMILES Nc1ncnc2c1c(Cl)cn2-c1cncc(COc2ccc3ccc(NCC4CC4)nc3c2)c1
REMARK SMILES IDX 18 1 17 2 16 5 12 6 13 7 34 8 14 9 15 12 11 14 2 15 3 16
REMARK SMILES IDX 7 17 4 18 6 19 8 20 5 21 9 23 10 24 1 26 19 29 20 30 33 31
REMARK SMILES IDX 21 32 32 34 22 36 31 38 23 39 25 40 24 41 26 44 27 46 28 49
REMARK SMILES IDX 29 50 30 51
REMARK H PARENT 17 3 17 4 13 10 34 11 15 13 4 22 10 25 1 27 1 28 20 33 33 35
REMARK H PARENT 21 37 23 42 24 43 26 45 27 47 27 48 28 52 29 53 29 54 30 55
REMARK H PARENT 30 56
REMARK Flexibility Score: inf
ROOT
ATOM      1  O   UNL     1     -46.800  33.883  25.455  1.00  0.00    -0.489 OA
ENDROOT
BRANCH   1   2
ATOM      2  C   UNL     1     -47.578  34.018  26.648  1.00  0.00     0.115 C 
ATOM      3  H   UNL     1     -46.997  33.546  27.450  1.00  0.00     0.076 H 
ATOM      4  H   UNL     1     -48.512  33.448  26.569  1.00  0.00     0.076 H 
BRANCH   2   5
ATOM      5  C   UNL     1     -47.817  35.452  27.047  1.00  0.00     0.010 A 
ATOM      6  C   UNL     1     -47.059  37.731  27.466  1.00  0.00     0.066 A 
ATOM      7  C   UNL     1     -48.364  38.017  27.850  1.00  0.00     0.051 A 
ATOM      8  C   UNL     1     -46.794  36.412  27.068  1.00  0.00    -0.028 A 
ATOM      9  N   UNL     1     -49.373  37.107  27.861  1.00  0.00    -0.262 NA
ATOM     10  H   UNL     1     -48.696  39.000  28.159  1.00  0.00     0.086 H 
ATOM     11  H   UNL     1     -45.799  36.091  26.774  1.00  0.00     0.065 H 
ATOM     12  C   UNL     1     -49.077  35.852  27.468  1.00  0.00     0.034 A 
ATOM     13  H   UNL     1     -49.913  35.159  27.502  1.00  0.00     0.084 H 
BRANCH   6  14
ATOM     14  N   UNL     1     -46.029  38.726  27.465  1.00  0.00    -0.298 N 
ATOM     15  C   UNL     1     -43.218  40.411  28.899  1.00  0.00     0.137 A 
ATOM     16  N   UNL     1     -43.019  39.719  30.035  1.00  0.00    -0.219 NA
ATOM     17  C   UNL     1     -44.261  40.030  28.040  1.00  0.00     0.080 A 
ATOM     18  C   UNL     1     -43.842  38.694  30.308  1.00  0.00     0.120 A 
ATOM     19  C   UNL     1     -45.050  38.952  28.438  1.00  0.00     0.151 A 
ATOM     20  C   UNL     1     -44.765  40.464  26.795  1.00  0.00     0.072 A 
ATOM     21  N   UNL     1     -44.868  38.247  29.573  1.00  0.00    -0.218 NA
ATOM     22  H   UNL     1     -43.650  38.164  31.236  1.00  0.00     0.106 H 
ATOM     23  Cl  UNL     1     -44.161  41.748  25.857  1.00  0.00    -0.082 Cl
ATOM     24  C   UNL     1     -45.829  39.662  26.464  1.00  0.00     0.031 A 
ATOM     25  H   UNL     1     -46.464  39.715  25.592  1.00  0.00     0.084 H 
BRANCH  15  26
ATOM     26  N   UNL     1     -42.354  41.464  28.653  1.00  0.00    -0.383 N 
ATOM     27  H   UNL     1     -41.366  41.249  28.687  1.00  0.00     0.158 HD
ATOM     28  H   UNL     1     -42.660  42.319  29.104  1.00  0.00     0.158 HD
ENDBRANCH  15  26
ENDBRANCH   6  14
ENDBRANCH   2   5
ENDBRANCH   1   2
BRANCH   1  29
ATOM     29  C   UNL     1     -46.852  32.704  24.763  1.00  0.00     0.122 A 
ATOM     30  C   UNL     1     -46.085  32.365  23.653  1.00  0.00    -0.019 A 
ATOM     31  C   UNL     1     -47.763  31.773  25.277  1.00  0.00     0.007 A 
ATOM     32  C   UNL     1     -46.239  31.109  23.064  1.00  0.00    -0.049 A 
ATOM     33  H   UNL     1     -45.352  33.039  23.224  1.00  0.00     0.066 H 
ATOM     34  C   UNL     1     -47.934  30.516  24.711  1.00  0.00     0.076 A 
ATOM     35  H   UNL     1     -48.359  32.034  26.147  1.00  0.00     0.069 H 
ATOM     36  C   UNL     1     -47.159  30.185  23.588  1.00  0.00     0.001 A 
ATOM     37  H   UNL     1     -45.635  30.852  22.196  1.00  0.00     0.063 H 
ATOM     38  N   UNL     1     -48.824  29.664  25.251  1.00  0.00    -0.231 NA
ATOM     39  C   UNL     1     -47.341  28.921  23.023  1.00  0.00    -0.049 A 
ATOM     40  C   UNL     1     -48.979  28.437  24.717  1.00  0.00     0.126 A 
ATOM     41  C   UNL     1     -48.263  28.046  23.589  1.00  0.00    -0.019 A 
ATOM     42  H   UNL     1     -46.780  28.612  22.146  1.00  0.00     0.063 H 
ATOM     43  H   UNL     1     -48.426  27.070  23.145  1.00  0.00     0.066 H 
BRANCH  40  44
ATOM     44  N   UNL     1     -49.927  27.541  25.232  1.00  0.00    -0.370 N 
ATOM     45  H   UNL     1     -50.771  27.575  24.671  1.00  0.00     0.162 HD
BRANCH  44  46
ATOM     46  C   UNL     1     -49.484  26.172  25.463  1.00  0.00     0.019 C 
ATOM     47  H   UNL     1     -50.036  25.668  26.264  1.00  0.00     0.049 H 
ATOM     48  H   UNL     1     -49.702  25.602  24.552  1.00  0.00     0.049 H 
BRANCH  46  49
ATOM     49  C   UNL     1     -47.997  26.129  25.673  1.00  0.00    -0.024 C 
ATOM     50  C   UNL     1     -47.359  24.931  26.332  1.00  0.00    -0.048 C 
ATOM     51  C   UNL     1     -47.393  26.251  27.050  1.00  0.00    -0.048 C 
ATOM     52  H   UNL     1     -47.458  26.571  24.842  1.00  0.00     0.032 H 
ATOM     53  H   UNL     1     -48.000  24.140  26.706  1.00  0.00     0.027 H 
ATOM     54  H   UNL     1     -46.406  24.587  25.948  1.00  0.00     0.027 H 
ATOM     55  H   UNL     1     -48.058  26.348  27.901  1.00  0.00     0.027 H 
ATOM     56  H   UNL     1     -46.466  26.805  27.149  1.00  0.00     0.027 H 
ENDBRANCH  46  49
ENDBRANCH  44  46
ENDBRANCH  40  44
ENDBRANCH   1  29
TORSDOF 8
ENDMDL
MODEL 6
REMARK VINA RESULT:      -9.9      1.770      2.616
REMARK SMILES Nc1ncnc2c1c(Cl)cn2-c1cncc(COc2ccc3ccc(NCC4CC4)nc3c2)c1
REMARK SMILES IDX 18 1 17 2 16 5 12 6 13 7 34 8 14 9 15 12 11 14 2 15 3 16
REMARK SMILES IDX 7 17 4 18 6 19 8 20 5 21 9 23 10 24 1 26 19 29 20 30 33 31
REMARK SMILES IDX 21 32 32 34 22 36 31 38 23 39 25 40 24 41 26 44 27 46 28 49
REMARK SMILES IDX 29 50 30 51
REMARK H PARENT 17 3 17 4 13 10 34 11 15 13 4 22 10 25 1 27 1 28 20 33 33 35
REMARK H PARENT 21 37 23 42 24 43 26 45 27 47 27 48 28 52 29 53 29 54 30 55
REMARK H PARENT 30 56
REMARK Flexibility Score: inf
ROOT
ATOM      1  O   UNL     1     -46.070  34.886  26.685  1.00  0.00    -0.489 OA
ENDROOT
BRANCH   1   2
ATOM      2  C   UNL     1     -46.201  35.445  27.996  1.00  0.00     0.115 C 
ATOM      3  H   UNL     1     -45.249  35.256  28.507  1.00  0.00     0.076 H 
ATOM      4  H   UNL     1     -46.969  34.912  28.572  1.00  0.00     0.076 H 
BRANCH   2   5
ATOM      5  C   UNL     1     -46.423  36.935  27.991  1.00  0.00     0.010 A 
ATOM      6  C   UNL     1     -45.623  39.237  27.903  1.00  0.00     0.066 A 
ATOM      7  C   UNL     1     -46.949  39.626  28.054  1.00  0.00     0.051 A 
ATOM      8  C   UNL     1     -45.371  37.857  27.883  1.00  0.00    -0.028 A 
ATOM      9  N   UNL     1     -47.989  38.761  28.181  1.00  0.00    -0.262 NA
ATOM     10  H   UNL     1     -47.272  40.660  28.066  1.00  0.00     0.086 H 
ATOM     11  H   UNL     1     -44.364  37.460  27.793  1.00  0.00     0.065 H 
ATOM     12  C   UNL     1     -47.703  37.444  28.154  1.00  0.00     0.034 A 
ATOM     13  H   UNL     1     -48.565  36.793  28.268  1.00  0.00     0.084 H 
BRANCH   6  14
ATOM     14  N   UNL     1     -44.560  40.187  27.767  1.00  0.00    -0.298 N 
ATOM     15  C   UNL     1     -42.832  42.822  26.074  1.00  0.00     0.137 A 
ATOM     16  N   UNL     1     -43.623  43.045  25.010  1.00  0.00    -0.219 NA
ATOM     17  C   UNL     1     -43.196  41.834  27.002  1.00  0.00     0.080 A 
ATOM     18  C   UNL     1     -44.729  42.297  24.871  1.00  0.00     0.120 A 
ATOM     19  C   UNL     1     -44.365  41.120  26.744  1.00  0.00     0.151 A 
ATOM     20  C   UNL     1     -42.673  41.330  28.212  1.00  0.00     0.072 A 
ATOM     21  N   UNL     1     -45.170  41.328  25.682  1.00  0.00    -0.218 NA
ATOM     22  H   UNL     1     -45.337  42.506  23.996  1.00  0.00     0.106 H 
ATOM     23  Cl  UNL     1     -41.255  41.856  28.993  1.00  0.00    -0.082 Cl
ATOM     24  C   UNL     1     -43.512  40.339  28.660  1.00  0.00     0.031 A 
ATOM     25  H   UNL     1     -43.415  39.724  29.542  1.00  0.00     0.084 H 
BRANCH  15  26
ATOM     26  N   UNL     1     -41.697  43.608  26.182  1.00  0.00    -0.383 N 
ATOM     27  H   UNL     1     -41.378  43.805  27.122  1.00  0.00     0.158 HD
ATOM     28  H   UNL     1     -41.704  44.377  25.522  1.00  0.00     0.158 HD
ENDBRANCH  15  26
ENDBRANCH   6  14
ENDBRANCH   2   5
ENDBRANCH   1   2
BRANCH   1  29
ATOM     29  C   UNL     1     -47.026  34.012  26.243  1.00  0.00     0.122 A 
ATOM     30  C   UNL     1     -48.394  34.095  26.485  1.00  0.00    -0.019 A 
ATOM     31  C   UNL     1     -46.531  32.965  25.456  1.00  0.00     0.007 A 
ATOM     32  C   UNL     1     -49.249  33.132  25.947  1.00  0.00    -0.049 A 
ATOM     33  H   UNL     1     -48.833  34.892  27.072  1.00  0.00     0.066 H 
ATOM     34  C   UNL     1     -47.361  31.997  24.907  1.00  0.00     0.076 A 
ATOM     35  H   UNL     1     -45.463  32.902  25.262  1.00  0.00     0.069 H 
ATOM     36  C   UNL     1     -48.739  32.085  25.161  1.00  0.00     0.001 A 
ATOM     37  H   UNL     1     -50.317  33.205  26.141  1.00  0.00     0.063 H 
ATOM     38  N   UNL     1     -46.826  31.016  24.157  1.00  0.00    -0.231 NA
ATOM     39  C   UNL     1     -49.565  31.104  24.610  1.00  0.00    -0.049 A 
ATOM     40  C   UNL     1     -47.630  30.085  23.607  1.00  0.00     0.126 A 
ATOM     41  C   UNL     1     -49.003  30.094  23.834  1.00  0.00    -0.019 A 
ATOM     42  H   UNL     1     -50.638  31.112  24.781  1.00  0.00     0.063 H 
ATOM     43  H   UNL     1     -49.635  29.317  23.418  1.00  0.00     0.066 H 
BRANCH  40  44
ATOM     44  N   UNL     1     -47.100  29.028  22.854  1.00  0.00    -0.370 N 
ATOM     45  H   UNL     1     -46.799  29.370  21.949  1.00  0.00     0.162 HD
BRANCH  44  46
ATOM     46  C   UNL     1     -46.077  28.211  23.493  1.00  0.00     0.019 C 
ATOM     47  H   UNL     1     -45.197  28.046  22.860  1.00  0.00     0.049 H 
ATOM     48  H   UNL     1     -45.712  28.769  24.364  1.00  0.00     0.049 H 
BRANCH  46  49
ATOM     49  C   UNL     1     -46.671  26.927  24.001  1.00  0.00    -0.024 C 
ATOM     50  C   UNL     1     -47.632  26.946  25.163  1.00  0.00    -0.048 C 
ATOM     51  C   UNL     1     -46.265  26.346  25.333  1.00  0.00    -0.048 C 
ATOM     52  H   UNL     1     -46.896  26.239  23.195  1.00  0.00     0.032 H 
ATOM     53  H   UNL     1     -47.831  27.890  25.661  1.00  0.00     0.027 H 
ATOM     54  H   UNL     1     -48.481  26.274  25.132  1.00  0.00     0.027 H 
ATOM     55  H   UNL     1     -45.545  26.886  25.938  1.00  0.00     0.027 H 
ATOM     56  H   UNL     1     -46.184  25.267  25.411  1.00  0.00     0.027 H 
ENDBRANCH  46  49
ENDBRANCH  44  46
ENDBRANCH  40  44
ENDBRANCH   1  29
TORSDOF 8
ENDMDL
MODEL 7
REMARK VINA RESULT:      -9.8      3.451     11.531
REMARK SMILES Nc1ncnc2c1c(Cl)cn2-c1cncc(COc2ccc3ccc(NCC4CC4)nc3c2)c1
REMARK SMILES IDX 18 1 17 2 16 5 12 6 13 7 34 8 14 9 15 12 11 14 2 15 3 16
REMARK SMILES IDX 7 17 4 18 6 19 8 20 5 21 9 23 10 24 1 26 19 29 20 30 33 31
REMARK SMILES IDX 21 32 32 34 22 36 31 38 23 39 25 40 24 41 26 44 27 46 28 49
REMARK SMILES IDX 29 50 30 51
REMARK H PARENT 17 3 17 4 13 10 34 11 15 13 4 22 10 25 1 27 1 28 20 33 33 35
REMARK H PARENT 21 37 23 42 24 43 26 45 27 47 27 48 28 52 29 53 29 54 30 55
REMARK H PARENT 30 56
REMARK Flexibility Score: inf
ROOT
ATOM      1  O   UNL     1     -46.658  37.452  26.761  1.00  0.00    -0.489 OA
ENDROOT
BRANCH   1   2
ATOM      2  C   UNL     1     -47.590  36.565  27.388  1.00  0.00     0.115 C 
ATOM      3  H   UNL     1     -48.560  36.754  26.914  1.00  0.00     0.076 H 
ATOM      4  H   UNL     1     -47.712  36.816  28.449  1.00  0.00     0.076 H 
BRANCH   2   5
ATOM      5  C   UNL     1     -47.261  35.109  27.180  1.00  0.00     0.010 A 
ATOM      6  C   UNL     1     -47.511  32.985  26.010  1.00  0.00     0.066 A 
ATOM      7  C   UNL     1     -46.628  32.451  26.942  1.00  0.00     0.051 A 
ATOM      8  C   UNL     1     -47.832  34.343  26.153  1.00  0.00    -0.028 A 
ATOM      9  N   UNL     1     -46.073  33.159  27.961  1.00  0.00    -0.262 NA
ATOM     10  H   UNL     1     -46.291  31.422  26.926  1.00  0.00     0.086 H 
ATOM     11  H   UNL     1     -48.530  34.840  25.486  1.00  0.00     0.065 H 
ATOM     12  C   UNL     1     -46.406  34.462  28.059  1.00  0.00     0.034 A 
ATOM     13  H   UNL     1     -45.944  34.982  28.894  1.00  0.00     0.084 H 
BRANCH   6  14
ATOM     14  N   UNL     1     -48.066  32.200  24.949  1.00  0.00    -0.298 N 
ATOM     15  C   UNL     1     -47.821  30.179  22.007  1.00  0.00     0.137 A 
ATOM     16  N   UNL     1     -46.492  30.110  21.819  1.00  0.00    -0.219 NA
ATOM     17  C   UNL     1     -48.320  30.903  23.102  1.00  0.00     0.080 A 
ATOM     18  C   UNL     1     -45.692  30.753  22.684  1.00  0.00     0.120 A 
ATOM     19  C   UNL     1     -47.388  31.533  23.925  1.00  0.00     0.151 A 
ATOM     20  C   UNL     1     -49.593  31.187  23.641  1.00  0.00     0.072 A 
ATOM     21  N   UNL     1     -46.051  31.476  23.752  1.00  0.00    -0.218 NA
ATOM     22  H   UNL     1     -44.626  30.676  22.493  1.00  0.00     0.106 H 
ATOM     23  Cl  UNL     1     -51.088  30.653  23.028  1.00  0.00    -0.082 Cl
ATOM     24  C   UNL     1     -49.419  31.968  24.757  1.00  0.00     0.031 A 
ATOM     25  H   UNL     1     -50.171  32.386  25.409  1.00  0.00     0.084 H 
BRANCH  15  26
ATOM     26  N   UNL     1     -48.616  29.509  21.093  1.00  0.00    -0.383 N 
ATOM     27  H   UNL     1     -48.288  28.597  20.801  1.00  0.00     0.158 HD
ATOM     28  H   UNL     1     -48.972  30.127  20.374  1.00  0.00     0.158 HD
ENDBRANCH  15  26
ENDBRANCH   6  14
ENDBRANCH   2   5
ENDBRANCH   1   2
BRANCH   1  29
ATOM     29  C   UNL     1     -45.750  38.115  27.542  1.00  0.00     0.122 A 
ATOM     30  C   UNL     1     -45.354  37.759  28.827  1.00  0.00    -0.019 A 
ATOM     31  C   UNL     1     -45.177  39.239  26.935  1.00  0.00     0.007 A 
ATOM     32  C   UNL     1     -44.399  38.528  29.494  1.00  0.00    -0.049 A 
ATOM     33  H   UNL     1     -45.751  36.890  29.339  1.00  0.00     0.066 H 
ATOM     34  C   UNL     1     -44.224  40.020  27.574  1.00  0.00     0.076 A 
ATOM     35  H   UNL     1     -45.483  39.515  25.929  1.00  0.00     0.069 H 
ATOM     36  C   UNL     1     -43.833  39.655  28.873  1.00  0.00     0.001 A 
ATOM     37  H   UNL     1     -44.094  38.242  30.498  1.00  0.00     0.063 H 
ATOM     38  N   UNL     1     -43.708  41.087  26.938  1.00  0.00    -0.231 NA
ATOM     39  C   UNL     1     -42.878  40.449  29.511  1.00  0.00    -0.049 A 
ATOM     40  C   UNL     1     -42.769  41.836  27.548  1.00  0.00     0.126 A 
ATOM     41  C   UNL     1     -42.349  41.550  28.844  1.00  0.00    -0.019 A 
ATOM     42  H   UNL     1     -42.545  40.225  30.520  1.00  0.00     0.063 H 
ATOM     43  H   UNL     1     -41.621  42.184  29.338  1.00  0.00     0.066 H 
BRANCH  40  44
ATOM     44  N   UNL     1     -42.241  42.977  26.927  1.00  0.00    -0.370 N 
ATOM     45  H   UNL     1     -41.424  42.724  26.384  1.00  0.00     0.162 HD
BRANCH  44  46
ATOM     46  C   UNL     1     -43.169  43.801  26.163  1.00  0.00     0.019 C 
ATOM     47  H   UNL     1     -42.667  44.498  25.481  1.00  0.00     0.049 H 
ATOM     48  H   UNL     1     -43.747  43.127  25.520  1.00  0.00     0.049 H 
BRANCH  46  49
ATOM     49  C   UNL     1     -44.139  44.489  27.080  1.00  0.00    -0.024 C 
ATOM     50  C   UNL     1     -45.387  45.126  26.521  1.00  0.00    -0.048 C 
ATOM     51  C   UNL     1     -44.292  45.990  27.080  1.00  0.00    -0.048 C 
ATOM     52  H   UNL     1     -44.241  43.969  28.026  1.00  0.00     0.032 H 
ATOM     53  H   UNL     1     -45.533  45.133  25.446  1.00  0.00     0.027 H 
ATOM     54  H   UNL     1     -46.304  45.036  27.092  1.00  0.00     0.027 H 
ATOM     55  H   UNL     1     -43.700  46.572  26.383  1.00  0.00     0.027 H 
ATOM     56  H   UNL     1     -44.461  46.481  28.032  1.00  0.00     0.027 H 
ENDBRANCH  46  49
ENDBRANCH  44  46
ENDBRANCH  40  44
ENDBRANCH   1  29
TORSDOF 8
ENDMDL
