MODEL 1
REMARK VINA RESULT:     -10.8      0.000      0.000
REMARK SMILES Nc1ccc2ccc(CC[C@H]3C[C@@H](n4cc(C5CCCC5)c5c(N)ncnc54)[C@H](O)[C@@H]3O)cc2n1
REMARK SMILES IDX 10 1 9 4 8 7 2 8 3 9 35 10 4 11 34 13 5 14 33 16 6 17 7 19
REMARK SMILES IDX 1 22 11 25 12 26 31 27 13 29 29 32 32 36 14 38 15 39 28 40
REMARK SMILES IDX 16 41 22 43 27 44 23 45 26 46 25 47 17 49 18 50 21 51 19 53
REMARK SMILES IDX 20 56 24 63 30 66
REMARK H PARENT 10 2 10 3 9 5 9 6 3 12 4 15 33 18 6 20 7 21 1 23 1 24 11 28
REMARK H PARENT 12 30 12 31 31 33 13 34 29 35 32 37 15 42 26 48 17 52 18 54
REMARK H PARENT 18 55 21 57 21 58 19 59 19 60 20 61 20 62 24 64 24 65 30 67
REMARK Flexibility Score: inf
ROOT
ATOM      1  C   UNL     1     -47.840  35.899  27.239  1.00  0.00    -0.044 C 
ATOM      2  H   UNL     1     -48.144  35.174  28.005  1.00  0.00     0.027 H 
ATOM      3  H   UNL     1     -48.752  36.125  26.670  1.00  0.00     0.027 H 
ENDROOT
BRANCH   1   4
ATOM      4  C   UNL     1     -46.868  35.236  26.250  1.00  0.00    -0.027 C 
ATOM      5  H   UNL     1     -45.863  35.212  26.688  1.00  0.00     0.032 H 
ATOM      6  H   UNL     1     -46.778  35.884  25.367  1.00  0.00     0.032 H 
BRANCH   4   7
ATOM      7  C   UNL     1     -47.258  33.865  25.758  1.00  0.00    -0.046 A 
ATOM      8  C   UNL     1     -46.334  30.099  22.991  1.00  0.00     0.124 A 
ATOM      9  C   UNL     1     -47.496  29.450  23.382  1.00  0.00    -0.019 A 
ATOM     10  N   UNL     1     -45.987  31.305  23.467  1.00  0.00    -0.231 NA
ATOM     11  C   UNL     1     -48.337  30.074  24.297  1.00  0.00    -0.049 A 
ATOM     12  H   UNL     1     -47.754  28.475  22.984  1.00  0.00     0.066 H 
ATOM     13  C   UNL     1     -46.791  31.912  24.357  1.00  0.00     0.073 A 
ATOM     14  C   UNL     1     -47.994  31.332  24.803  1.00  0.00     0.000 A 
ATOM     15  H   UNL     1     -49.252  29.578  24.608  1.00  0.00     0.063 H 
ATOM     16  C   UNL     1     -46.442  33.161  24.855  1.00  0.00    -0.033 A 
ATOM     17  C   UNL     1     -48.807  32.006  25.726  1.00  0.00    -0.053 A 
ATOM     18  H   UNL     1     -45.507  33.600  24.512  1.00  0.00     0.065 H 
ATOM     19  C   UNL     1     -48.438  33.263  26.203  1.00  0.00    -0.058 A 
ATOM     20  H   UNL     1     -49.734  31.557  26.079  1.00  0.00     0.063 H 
ATOM     21  H   UNL     1     -49.083  33.770  26.919  1.00  0.00     0.063 H 
BRANCH   8  22
ATOM     22  N   UNL     1     -45.473  29.495  22.069  1.00  0.00    -0.384 N 
ATOM     23  H   UNL     1     -45.738  29.766  21.128  1.00  0.00     0.158 HD
ATOM     24  H   UNL     1     -44.521  29.804  22.236  1.00  0.00     0.158 HD
ENDBRANCH   8  22
ENDBRANCH   4   7
ENDBRANCH   1   4
BRANCH   1  25
ATOM     25  C   UNL     1     -47.411  37.199  27.939  1.00  0.00    -0.010 C 
ATOM     26  C   UNL     1     -46.000  37.690  27.622  1.00  0.00    -0.024 C 
ATOM     27  C   UNL     1     -48.252  38.441  27.652  1.00  0.00     0.085 C 
ATOM     28  H   UNL     1     -47.459  36.988  29.019  1.00  0.00     0.033 H 
ATOM     29  C   UNL     1     -45.955  39.066  28.300  1.00  0.00     0.064 C 
ATOM     30  H   UNL     1     -45.229  37.018  28.011  1.00  0.00     0.029 H 
ATOM     31  H   UNL     1     -45.854  37.790  26.546  1.00  0.00     0.029 H 
ATOM     32  C   UNL     1     -47.389  39.625  28.132  1.00  0.00     0.101 C 
ATOM     33  H   UNL     1     -48.437  38.557  26.580  1.00  0.00     0.063 H 
ATOM     34  H   UNL     1     -45.739  38.915  29.367  1.00  0.00     0.056 H 
ATOM     35  H   UNL     1     -47.451  40.443  27.407  1.00  0.00     0.065 H 
BRANCH  27  36
ATOM     36  O   UNL     1     -49.505  38.380  28.318  1.00  0.00    -0.390 OA
ATOM     37  H   UNL     1     -49.481  37.538  28.824  1.00  0.00     0.211 HD
ENDBRANCH  27  36
BRANCH  29  38
ATOM     38  N   UNL     1     -44.933  39.989  27.834  1.00  0.00    -0.326 N 
ATOM     39  C   UNL     1     -44.931  40.712  26.671  1.00  0.00     0.010 A 
ATOM     40  C   UNL     1     -43.766  40.233  28.520  1.00  0.00     0.146 A 
ATOM     41  C   UNL     1     -43.771  41.469  26.608  1.00  0.00    -0.014 A 
ATOM     42  H   UNL     1     -45.752  40.651  25.967  1.00  0.00     0.082 H 
ATOM     43  C   UNL     1     -43.013  41.143  27.788  1.00  0.00     0.065 A 
ATOM     44  N   UNL     1     -43.436  39.679  29.702  1.00  0.00    -0.218 NA
ATOM     45  C   UNL     1     -41.773  41.505  28.343  1.00  0.00     0.136 A 
ATOM     46  C   UNL     1     -42.236  40.110  30.128  1.00  0.00     0.120 A 
ATOM     47  N   UNL     1     -41.401  40.973  29.523  1.00  0.00    -0.219 NA
ATOM     48  H   UNL     1     -41.895  39.711  31.078  1.00  0.00     0.106 H 
BRANCH  41  49
ATOM     49  C   UNL     1     -43.371  42.438  25.523  1.00  0.00    -0.014 C 
ATOM     50  C   UNL     1     -43.246  43.899  25.972  1.00  0.00    -0.046 C 
ATOM     51  C   UNL     1     -44.407  42.527  24.401  1.00  0.00    -0.046 C 
ATOM     52  H   UNL     1     -42.403  42.113  25.124  1.00  0.00     0.035 H 
ATOM     53  C   UNL     1     -44.618  44.538  25.745  1.00  0.00    -0.053 C 
ATOM     54  H   UNL     1     -42.901  44.018  27.005  1.00  0.00     0.027 H 
ATOM     55  H   UNL     1     -42.515  44.411  25.333  1.00  0.00     0.027 H 
ATOM     56  C   UNL     1     -45.416  43.557  24.890  1.00  0.00    -0.053 C 
ATOM     57  H   UNL     1     -44.885  41.570  24.164  1.00  0.00     0.027 H 
ATOM     58  H   UNL     1     -43.927  42.896  23.486  1.00  0.00     0.027 H 
ATOM     59  H   UNL     1     -44.510  45.504  25.243  1.00  0.00     0.027 H 
ATOM     60  H   UNL     1     -45.133  44.722  26.694  1.00  0.00     0.027 H 
ATOM     61  H   UNL     1     -45.924  44.057  24.060  1.00  0.00     0.027 H 
ATOM     62  H   UNL     1     -46.186  43.072  25.501  1.00  0.00     0.027 H 
ENDBRANCH  41  49
BRANCH  45  63
ATOM     63  N   UNL     1     -40.864  42.371  27.745  1.00  0.00    -0.383 N 
ATOM     64  H   UNL     1     -41.364  43.059  27.192  1.00  0.00     0.158 HD
ATOM     65  H   UNL     1     -40.176  42.746  28.383  1.00  0.00     0.158 HD
ENDBRANCH  45  63
ENDBRANCH  29  38
BRANCH  32  66
ATOM     66  O   UNL     1     -47.891  40.114  29.386  1.00  0.00    -0.388 OA
ATOM     67  H   UNL     1     -47.409  40.957  29.542  1.00  0.00     0.211 HD
ENDBRANCH  32  66
ENDBRANCH   1  25
TORSDOF 9
ENDMDL
MODEL 2
REMARK VINA RESULT:     -10.2      3.008     11.378
REMARK SMILES Nc1ccc2ccc(CC[C@H]3C[C@@H](n4cc(C5CCCC5)c5c(N)ncnc54)[C@H](O)[C@@H]3O)cc2n1
REMARK SMILES IDX 10 1 9 4 8 7 2 8 3 9 35 10 4 11 34 13 5 14 33 16 6 17 7 19
REMARK SMILES IDX 1 22 11 25 12 26 31 27 13 29 29 32 32 36 14 38 15 39 28 40
REMARK SMILES IDX 16 41 22 43 27 44 23 45 26 46 25 47 17 49 18 50 21 51 19 53
REMARK SMILES IDX 20 56 24 63 30 66
REMARK H PARENT 10 2 10 3 9 5 9 6 3 12 4 15 33 18 6 20 7 21 1 23 1 24 11 28
REMARK H PARENT 12 30 12 31 31 33 13 34 29 35 32 37 15 42 26 48 17 52 18 54
REMARK H PARENT 18 55 21 57 21 58 19 59 19 60 20 61 20 62 24 64 24 65 30 67
REMARK Flexibility Score: inf
ROOT
ATOM      1  C   UNL     1     -48.496  35.361  27.091  1.00  0.00    -0.044 C 
ATOM      2  H   UNL     1     -48.500  36.032  26.222  1.00  0.00     0.027 H 
ATOM      3  H   UNL     1     -49.552  35.220  27.359  1.00  0.00     0.027 H 
ENDROOT
BRANCH   1   4
ATOM      4  C   UNL     1     -47.838  36.064  28.289  1.00  0.00    -0.027 C 
ATOM      5  H   UNL     1     -47.298  35.326  28.893  1.00  0.00     0.032 H 
ATOM      6  H   UNL     1     -48.633  36.443  28.946  1.00  0.00     0.032 H 
BRANCH   4   7
ATOM      7  C   UNL     1     -46.939  37.229  27.960  1.00  0.00    -0.046 A 
ATOM      8  C   UNL     1     -43.292  40.046  29.167  1.00  0.00     0.124 A 
ATOM      9  C   UNL     1     -43.443  40.830  28.032  1.00  0.00    -0.019 A 
ATOM     10  N   UNL     1     -44.080  38.991  29.424  1.00  0.00    -0.231 NA
ATOM     11  C   UNL     1     -44.453  40.516  27.129  1.00  0.00    -0.049 A 
ATOM     12  H   UNL     1     -42.791  41.676  27.846  1.00  0.00     0.066 H 
ATOM     13  C   UNL     1     -45.055  38.677  28.553  1.00  0.00     0.073 A 
ATOM     14  C   UNL     1     -45.287  39.422  27.381  1.00  0.00     0.000 A 
ATOM     15  H   UNL     1     -44.584  41.123  26.239  1.00  0.00     0.063 H 
ATOM     16  C   UNL     1     -45.879  37.588  28.811  1.00  0.00    -0.033 A 
ATOM     17  C   UNL     1     -46.322  39.062  26.504  1.00  0.00    -0.053 A 
ATOM     18  H   UNL     1     -45.689  37.012  29.715  1.00  0.00     0.065 H 
ATOM     19  C   UNL     1     -47.140  37.970  26.792  1.00  0.00    -0.058 A 
ATOM     20  H   UNL     1     -46.498  39.630  25.594  1.00  0.00     0.063 H 
ATOM     21  H   UNL     1     -47.937  37.708  26.100  1.00  0.00     0.063 H 
BRANCH   8  22
ATOM     22  N   UNL     1     -42.286  40.344  30.092  1.00  0.00    -0.384 N 
ATOM     23  H   UNL     1     -42.577  40.046  31.018  1.00  0.00     0.158 HD
ATOM     24  H   UNL     1     -41.437  39.844  29.847  1.00  0.00     0.158 HD
ENDBRANCH   8  22
ENDBRANCH   4   7
ENDBRANCH   1   4
BRANCH   1  25
ATOM     25  C   UNL     1     -47.956  33.991  26.649  1.00  0.00    -0.010 C 
ATOM     26  C   UNL     1     -48.999  32.998  26.143  1.00  0.00    -0.024 C 
ATOM     27  C   UNL     1     -46.938  33.991  25.510  1.00  0.00     0.085 C 
ATOM     28  H   UNL     1     -47.480  33.555  27.541  1.00  0.00     0.033 H 
ATOM     29  C   UNL     1     -48.142  31.840  25.612  1.00  0.00     0.064 C 
ATOM     30  H   UNL     1     -49.680  32.671  26.935  1.00  0.00     0.029 H 
ATOM     31  H   UNL     1     -49.595  33.431  25.338  1.00  0.00     0.029 H 
ATOM     32  C   UNL     1     -46.888  32.529  25.022  1.00  0.00     0.101 C 
ATOM     33  H   UNL     1     -47.269  34.623  24.681  1.00  0.00     0.063 H 
ATOM     34  H   UNL     1     -47.852  31.209  26.465  1.00  0.00     0.056 H 
ATOM     35  H   UNL     1     -46.858  32.508  23.928  1.00  0.00     0.065 H 
BRANCH  27  36
ATOM     36  O   UNL     1     -45.672  34.458  25.951  1.00  0.00    -0.390 OA
ATOM     37  H   UNL     1     -45.393  35.112  25.274  1.00  0.00     0.211 HD
ENDBRANCH  27  36
BRANCH  29  38
ATOM     38  N   UNL     1     -48.781  30.934  24.672  1.00  0.00    -0.326 N 
ATOM     39  C   UNL     1     -49.337  31.247  23.460  1.00  0.00     0.010 A 
ATOM     40  C   UNL     1     -48.948  29.590  24.912  1.00  0.00     0.146 A 
ATOM     41  C   UNL     1     -49.840  30.092  22.879  1.00  0.00    -0.014 A 
ATOM     42  H   UNL     1     -49.335  32.262  23.084  1.00  0.00     0.082 H 
ATOM     43  C   UNL     1     -49.608  29.032  23.824  1.00  0.00     0.065 A 
ATOM     44  N   UNL     1     -48.526  28.946  26.017  1.00  0.00    -0.218 NA
ATOM     45  C   UNL     1     -49.871  27.652  23.903  1.00  0.00     0.136 A 
ATOM     46  C   UNL     1     -48.829  27.637  25.968  1.00  0.00     0.120 A 
ATOM     47  N   UNL     1     -49.469  26.969  24.992  1.00  0.00    -0.219 NA
ATOM     48  H   UNL     1     -48.522  27.044  26.824  1.00  0.00     0.106 H 
BRANCH  41  49
ATOM     49  C   UNL     1     -50.505  29.964  21.531  1.00  0.00    -0.014 C 
ATOM     50  C   UNL     1     -49.750  29.096  20.516  1.00  0.00    -0.046 C 
ATOM     51  C   UNL     1     -50.617  31.303  20.799  1.00  0.00    -0.046 C 
ATOM     52  H   UNL     1     -51.500  29.530  21.687  1.00  0.00     0.035 H 
ATOM     53  C   UNL     1     -48.832  30.043  19.739  1.00  0.00    -0.053 C 
ATOM     54  H   UNL     1     -49.199  28.264  20.967  1.00  0.00     0.027 H 
ATOM     55  H   UNL     1     -50.469  28.657  19.813  1.00  0.00     0.027 H 
ATOM     56  C   UNL     1     -49.284  31.461  20.080  1.00  0.00    -0.053 C 
ATOM     57  H   UNL     1     -50.825  32.152  21.460  1.00  0.00     0.027 H 
ATOM     58  H   UNL     1     -51.424  31.250  20.058  1.00  0.00     0.027 H 
ATOM     59  H   UNL     1     -48.908  29.851  18.664  1.00  0.00     0.027 H 
ATOM     60  H   UNL     1     -47.784  29.901  20.020  1.00  0.00     0.027 H 
ATOM     61  H   UNL     1     -49.373  32.088  19.188  1.00  0.00     0.027 H 
ATOM     62  H   UNL     1     -48.550  31.936  20.743  1.00  0.00     0.027 H 
ENDBRANCH  41  49
BRANCH  45  63
ATOM     63  N   UNL     1     -50.550  26.923  22.935  1.00  0.00    -0.383 N 
ATOM     64  H   UNL     1     -51.322  26.424  23.366  1.00  0.00     0.158 HD
ATOM     65  H   UNL     1     -50.787  27.457  22.111  1.00  0.00     0.158 HD
ENDBRANCH  45  63
ENDBRANCH  29  38
BRANCH  32  66
ATOM     66  O   UNL     1     -45.691  31.899  25.504  1.00  0.00    -0.388 OA
ATOM     67  H   UNL     1     -45.776  30.955  25.241  1.00  0.00     0.211 HD
ENDBRANCH  32  66
ENDBRANCH   1  25
TORSDOF 9
ENDMDL
MODEL 3
REMARK VINA RESULT:     -10.2      2.606     10.599
REMARK SMILES Nc1ccc2ccc(CC[C@H]3C[C@@H](n4cc(C5CCCC5)c5c(N)ncnc54)[C@H](O)[C@@H]3O)cc2n1
REMARK SMILES IDX 10 1 9 4 8 7 2 8 3 9 35 10 4 11 34 13 5 14 33 16 6 17 7 19
REMARK SMILES IDX 1 22 11 25 12 26 31 27 13 29 29 32 32 36 14 38 15 39 28 40
REMARK SMILES IDX 16 41 22 43 27 44 23 45 26 46 25 47 17 49 18 50 21 51 19 53
REMARK SMILES IDX 20 56 24 63 30 66
REMARK H PARENT 10 2 10 3 9 5 9 6 3 12 4 15 33 18 6 20 7 21 1 23 1 24 11 28
REMARK H PARENT 12 30 12 31 31 33 13 34 29 35 32 37 15 42 26 48 17 52 18 54
REMARK H PARENT 18 55 21 57 21 58 19 59 19 60 20 61 20 62 24 64 24 65 30 67
REMARK Flexibility Score: inf
ROOT
ATOM      1  C   UNL     1     -47.716  36.572  27.793  1.00  0.00    -0.044 C 
ATOM      2  H   UNL     1     -48.782  36.831  27.800  1.00  0.00     0.027 H 
ATOM      3  H   UNL     1     -47.359  36.767  28.814  1.00  0.00     0.027 H 
ENDROOT
BRANCH   1   4
ATOM      4  C   UNL     1     -46.949  37.540  26.878  1.00  0.00    -0.027 C 
ATOM      5  H   UNL     1     -47.662  38.199  26.367  1.00  0.00     0.032 H 
ATOM      6  H   UNL     1     -46.476  36.957  26.076  1.00  0.00     0.032 H 
BRANCH   4   7
ATOM      7  C   UNL     1     -45.864  38.354  27.536  1.00  0.00    -0.046 A 
ATOM      8  C   UNL     1     -42.819  42.012  27.356  1.00  0.00     0.124 A 
ATOM      9  C   UNL     1     -42.282  41.706  28.598  1.00  0.00    -0.019 A 
ATOM     10  N   UNL     1     -43.809  41.296  26.802  1.00  0.00    -0.231 NA
ATOM     11  C   UNL     1     -42.784  40.611  29.293  1.00  0.00    -0.049 A 
ATOM     12  H   UNL     1     -41.483  42.301  29.025  1.00  0.00     0.066 H 
ATOM     13  C   UNL     1     -44.304  40.241  27.471  1.00  0.00     0.073 A 
ATOM     14  C   UNL     1     -43.814  39.851  28.732  1.00  0.00     0.000 A 
ATOM     15  H   UNL     1     -42.370  40.358  30.265  1.00  0.00     0.063 H 
ATOM     16  C   UNL     1     -45.329  39.491  26.906  1.00  0.00    -0.033 A 
ATOM     17  C   UNL     1     -44.356  38.736  29.390  1.00  0.00    -0.053 A 
ATOM     18  H   UNL     1     -45.708  39.802  25.934  1.00  0.00     0.065 H 
ATOM     19  C   UNL     1     -45.377  37.995  28.796  1.00  0.00    -0.058 A 
ATOM     20  H   UNL     1     -43.985  38.437  30.368  1.00  0.00     0.063 H 
ATOM     21  H   UNL     1     -45.783  37.134  29.323  1.00  0.00     0.063 H 
BRANCH   8  22
ATOM     22  N   UNL     1     -42.329  43.106  26.634  1.00  0.00    -0.384 N 
ATOM     23  H   UNL     1     -41.430  43.388  27.013  1.00  0.00     0.158 HD
ATOM     24  H   UNL     1     -42.199  42.845  25.662  1.00  0.00     0.158 HD
ENDBRANCH   8  22
ENDBRANCH   4   7
ENDBRANCH   1   4
BRANCH   1  25
ATOM     25  C   UNL     1     -47.581  35.059  27.549  1.00  0.00    -0.010 C 
ATOM     26  C   UNL     1     -48.548  34.464  26.528  1.00  0.00    -0.024 C 
ATOM     27  C   UNL     1     -46.230  34.566  27.035  1.00  0.00     0.085 C 
ATOM     28  H   UNL     1     -47.780  34.581  28.520  1.00  0.00     0.033 H 
ATOM     29  C   UNL     1     -48.039  33.024  26.374  1.00  0.00     0.064 C 
ATOM     30  H   UNL     1     -49.586  34.495  26.871  1.00  0.00     0.029 H 
ATOM     31  H   UNL     1     -48.487  34.993  25.576  1.00  0.00     0.029 H 
ATOM     32  C   UNL     1     -46.502  33.142  26.510  1.00  0.00     0.101 C 
ATOM     33  H   UNL     1     -45.873  35.181  26.204  1.00  0.00     0.063 H 
ATOM     34  H   UNL     1     -48.440  32.428  27.206  1.00  0.00     0.056 H 
ATOM     35  H   UNL     1     -45.972  32.992  25.563  1.00  0.00     0.065 H 
BRANCH  27  36
ATOM     36  O   UNL     1     -45.250  34.587  28.061  1.00  0.00    -0.390 OA
ATOM     37  H   UNL     1     -44.471  34.129  27.676  1.00  0.00     0.211 HD
ENDBRANCH  27  36
BRANCH  29  38
ATOM     38  N   UNL     1     -48.445  32.315  25.171  1.00  0.00    -0.326 N 
ATOM     39  C   UNL     1     -49.721  32.081  24.731  1.00  0.00     0.010 A 
ATOM     40  C   UNL     1     -47.553  31.727  24.303  1.00  0.00     0.146 A 
ATOM     41  C   UNL     1     -49.669  31.369  23.542  1.00  0.00    -0.014 A 
ATOM     42  H   UNL     1     -50.581  32.440  25.282  1.00  0.00     0.082 H 
ATOM     43  C   UNL     1     -48.275  31.124  23.280  1.00  0.00     0.065 A 
ATOM     44  N   UNL     1     -46.213  31.756  24.437  1.00  0.00    -0.218 NA
ATOM     45  C   UNL     1     -47.517  30.464  22.296  1.00  0.00     0.136 A 
ATOM     46  C   UNL     1     -45.606  31.100  23.434  1.00  0.00     0.120 A 
ATOM     47  N   UNL     1     -46.173  30.465  22.393  1.00  0.00    -0.219 NA
ATOM     48  H   UNL     1     -44.521  31.076  23.467  1.00  0.00     0.106 H 
BRANCH  41  49
ATOM     49  C   UNL     1     -50.834  30.929  22.691  1.00  0.00    -0.014 C 
ATOM     50  C   UNL     1     -50.896  31.567  21.297  1.00  0.00    -0.046 C 
ATOM     51  C   UNL     1     -52.185  31.321  23.293  1.00  0.00    -0.046 C 
ATOM     52  H   UNL     1     -50.771  29.841  22.573  1.00  0.00     0.035 H 
ATOM     53  C   UNL     1     -51.748  32.830  21.440  1.00  0.00    -0.053 C 
ATOM     54  H   UNL     1     -49.913  31.779  20.862  1.00  0.00     0.027 H 
ATOM     55  H   UNL     1     -51.406  30.880  20.610  1.00  0.00     0.027 H 
ATOM     56  C   UNL     1     -52.423  32.745  22.807  1.00  0.00    -0.053 C 
ATOM     57  H   UNL     1     -52.219  31.253  24.385  1.00  0.00     0.027 H 
ATOM     58  H   UNL     1     -52.969  30.667  22.892  1.00  0.00     0.027 H 
ATOM     59  H   UNL     1     -52.490  32.882  20.636  1.00  0.00     0.027 H 
ATOM     60  H   UNL     1     -51.135  33.734  21.375  1.00  0.00     0.027 H 
ATOM     61  H   UNL     1     -53.489  32.985  22.754  1.00  0.00     0.027 H 
ATOM     62  H   UNL     1     -51.959  33.462  23.495  1.00  0.00     0.027 H 
ENDBRANCH  41  49
BRANCH  45  63
ATOM     63  N   UNL     1     -48.056  29.773  21.218  1.00  0.00    -0.383 N 
ATOM     64  H   UNL     1     -48.839  30.294  20.837  1.00  0.00     0.158 HD
ATOM     65  H   UNL     1     -47.369  29.470  20.542  1.00  0.00     0.158 HD
ENDBRANCH  45  63
ENDBRANCH  29  38
BRANCH  32  66
ATOM     66  O   UNL     1     -46.001  32.177  27.448  1.00  0.00    -0.388 OA
ATOM     67  H   UNL     1     -46.794  31.867  27.941  1.00  0.00     0.211 HD
ENDBRANCH  32  66
ENDBRANCH   1  25
TORSDOF 9
ENDMDL
MODEL 4
REMARK VINA RESULT:     -10.1      2.690     10.807
REMARK SMILES Nc1ccc2ccc(CC[C@H]3C[C@@H](n4cc(C5CCCC5)c5c(N)ncnc54)[C@H](O)[C@@H]3O)cc2n1
REMARK SMILES IDX 10 1 9 4 8 7 2 8 3 9 35 10 4 11 34 13 5 14 33 16 6 17 7 19
REMARK SMILES IDX 1 22 11 25 12 26 31 27 13 29 29 32 32 36 14 38 15 39 28 40
REMARK SMILES IDX 16 41 22 43 27 44 23 45 26 46 25 47 17 49 18 50 21 51 19 53
REMARK SMILES IDX 20 56 24 63 30 66
REMARK H PARENT 10 2 10 3 9 5 9 6 3 12 4 15 33 18 6 20 7 21 1 23 1 24 11 28
REMARK H PARENT 12 30 12 31 31 33 13 34 29 35 32 37 15 42 26 48 17 52 18 54
REMARK H PARENT 18 55 21 57 21 58 19 59 19 60 20 61 20 62 24 64 24 65 30 67
REMARK Flexibility Score: inf
ROOT
ATOM      1  C   UNL     1     -47.704  36.621  27.620  1.00  0.00    -0.044 C 
ATOM      2  H   UNL     1     -48.747  36.934  27.479  1.00  0.00     0.027 H 
ATOM      3  H   UNL     1     -47.462  36.866  28.663  1.00  0.00     0.027 H 
ENDROOT
BRANCH   1   4
ATOM      4  C   UNL     1     -46.778  37.486  26.749  1.00  0.00    -0.027 C 
ATOM      5  H   UNL     1     -47.385  38.140  26.111  1.00  0.00     0.032 H 
ATOM      6  H   UNL     1     -46.244  36.826  26.052  1.00  0.00     0.032 H 
BRANCH   4   7
ATOM      7  C   UNL     1     -45.739  38.291  27.486  1.00  0.00    -0.046 A 
ATOM      8  C   UNL     1     -42.657  41.924  27.532  1.00  0.00     0.124 A 
ATOM      9  C   UNL     1     -42.217  41.613  28.811  1.00  0.00    -0.019 A 
ATOM     10  N   UNL     1     -43.610  41.215  26.906  1.00  0.00    -0.231 NA
ATOM     11  C   UNL     1     -42.779  40.524  29.468  1.00  0.00    -0.049 A 
ATOM     12  H   UNL     1     -41.447  42.203  29.296  1.00  0.00     0.066 H 
ATOM     13  C   UNL     1     -44.162  40.164  27.537  1.00  0.00     0.073 A 
ATOM     14  C   UNL     1     -43.771  39.772  28.831  1.00  0.00     0.000 A 
ATOM     15  H   UNL     1     -42.441  40.268  30.468  1.00  0.00     0.063 H 
ATOM     16  C   UNL     1     -45.148  39.423  26.897  1.00  0.00    -0.033 A 
ATOM     17  C   UNL     1     -44.370  38.662  29.447  1.00  0.00    -0.053 A 
ATOM     18  H   UNL     1     -45.451  39.736  25.900  1.00  0.00     0.065 H 
ATOM     19  C   UNL     1     -45.349  37.929  28.779  1.00  0.00    -0.058 A 
ATOM     20  H   UNL     1     -44.075  38.361  30.451  1.00  0.00     0.063 H 
ATOM     21  H   UNL     1     -45.801  37.072  29.274  1.00  0.00     0.063 H 
BRANCH   8  22
ATOM     22  N   UNL     1     -42.106  43.012  26.849  1.00  0.00    -0.384 N 
ATOM     23  H   UNL     1     -41.270  42.716  26.355  1.00  0.00     0.158 HD
ATOM     24  H   UNL     1     -42.773  43.364  26.170  1.00  0.00     0.158 HD
ENDBRANCH   8  22
ENDBRANCH   4   7
ENDBRANCH   1   4
BRANCH   1  25
ATOM     25  C   UNL     1     -47.630  35.091  27.486  1.00  0.00    -0.010 C 
ATOM     26  C   UNL     1     -48.532  34.474  26.419  1.00  0.00    -0.024 C 
ATOM     27  C   UNL     1     -46.267  34.500  27.133  1.00  0.00     0.085 C 
ATOM     28  H   UNL     1     -47.941  34.690  28.463  1.00  0.00     0.033 H 
ATOM     29  C   UNL     1     -48.089  33.004  26.406  1.00  0.00     0.064 C 
ATOM     30  H   UNL     1     -49.594  34.578  26.661  1.00  0.00     0.029 H 
ATOM     31  H   UNL     1     -48.357  34.933  25.446  1.00  0.00     0.029 H 
ATOM     32  C   UNL     1     -46.566  33.057  26.677  1.00  0.00     0.101 C 
ATOM     33  H   UNL     1     -45.804  35.038  26.301  1.00  0.00     0.063 H 
ATOM     34  H   UNL     1     -48.595  32.486  27.233  1.00  0.00     0.056 H 
ATOM     35  H   UNL     1     -45.962  32.818  25.796  1.00  0.00     0.065 H 
BRANCH  27  36
ATOM     36  O   UNL     1     -45.383  34.544  28.243  1.00  0.00    -0.390 OA
ATOM     37  H   UNL     1     -45.123  33.610  28.396  1.00  0.00     0.211 HD
ENDBRANCH  27  36
BRANCH  29  38
ATOM     38  N   UNL     1     -48.422  32.234  25.219  1.00  0.00    -0.326 N 
ATOM     39  C   UNL     1     -47.581  31.461  24.463  1.00  0.00     0.010 A 
ATOM     40  C   UNL     1     -49.678  32.217  24.657  1.00  0.00     0.146 A 
ATOM     41  C   UNL     1     -48.298  30.897  23.418  1.00  0.00    -0.014 A 
ATOM     42  H   UNL     1     -46.535  31.353  24.717  1.00  0.00     0.082 H 
ATOM     43  C   UNL     1     -49.641  31.403  23.532  1.00  0.00     0.065 A 
ATOM     44  N   UNL     1     -50.748  32.878  25.140  1.00  0.00    -0.218 NA
ATOM     45  C   UNL     1     -50.849  31.274  22.823  1.00  0.00     0.136 A 
ATOM     46  C   UNL     1     -51.837  32.668  24.381  1.00  0.00     0.120 A 
ATOM     47  N   UNL     1     -51.944  31.920  23.269  1.00  0.00    -0.219 NA
ATOM     48  H   UNL     1     -52.747  33.166  24.704  1.00  0.00     0.106 H 
BRANCH  41  49
ATOM     49  C   UNL     1     -47.781  29.950  22.364  1.00  0.00    -0.014 C 
ATOM     50  C   UNL     1     -46.473  29.233  22.721  1.00  0.00    -0.046 C 
ATOM     51  C   UNL     1     -47.420  30.662  21.058  1.00  0.00    -0.046 C 
ATOM     52  H   UNL     1     -48.555  29.194  22.184  1.00  0.00     0.035 H 
ATOM     53  C   UNL     1     -45.341  30.112  22.187  1.00  0.00    -0.053 C 
ATOM     54  H   UNL     1     -46.363  29.020  23.790  1.00  0.00     0.027 H 
ATOM     55  H   UNL     1     -46.439  28.268  22.200  1.00  0.00     0.027 H 
ATOM     56  C   UNL     1     -45.989  31.143  21.266  1.00  0.00    -0.053 C 
ATOM     57  H   UNL     1     -48.093  31.487  20.803  1.00  0.00     0.027 H 
ATOM     58  H   UNL     1     -47.442  29.943  20.230  1.00  0.00     0.027 H 
ATOM     59  H   UNL     1     -44.609  29.504  21.646  1.00  0.00     0.027 H 
ATOM     60  H   UNL     1     -44.807  30.612  23.001  1.00  0.00     0.027 H 
ATOM     61  H   UNL     1     -45.451  31.243  20.320  1.00  0.00     0.027 H 
ATOM     62  H   UNL     1     -45.988  32.127  21.751  1.00  0.00     0.027 H 
ENDBRANCH  41  49
BRANCH  45  63
ATOM     63  N   UNL     1     -51.003  30.536  21.656  1.00  0.00    -0.383 N 
ATOM     64  H   UNL     1     -51.048  31.164  20.860  1.00  0.00     0.158 HD
ATOM     65  H   UNL     1     -50.349  29.771  21.566  1.00  0.00     0.158 HD
ENDBRANCH  45  63
ENDBRANCH  29  38
BRANCH  32  66
ATOM     66  O   UNL     1     -46.205  32.136  27.718  1.00  0.00    -0.388 OA
ATOM     67  H   UNL     1     -45.229  32.036  27.641  1.00  0.00     0.211 HD
ENDBRANCH  32  66
ENDBRANCH   1  25
TORSDOF 9
ENDMDL
MODEL 5
REMARK VINA RESULT:     -10.0      2.410     11.066
REMARK SMILES Nc1ccc2ccc(CC[C@H]3C[C@@H](n4cc(C5CCCC5)c5c(N)ncnc54)[C@H](O)[C@@H]3O)cc2n1
REMARK SMILES IDX 10 1 9 4 8 7 2 8 3 9 35 10 4 11 34 13 5 14 33 16 6 17 7 19
REMARK SMILES IDX 1 22 11 25 12 26 31 27 13 29 29 32 32 36 14 38 15 39 28 40
REMARK SMILES IDX 16 41 22 43 27 44 23 45 26 46 25 47 17 49 18 50 21 51 19 53
REMARK SMILES IDX 20 56 24 63 30 66
REMARK H PARENT 10 2 10 3 9 5 9 6 3 12 4 15 33 18 6 20 7 21 1 23 1 24 11 28
REMARK H PARENT 12 30 12 31 31 33 13 34 29 35 32 37 15 42 26 48 17 52 18 54
REMARK H PARENT 18 55 21 57 21 58 19 59 19 60 20 61 20 62 24 64 24 65 30 67
REMARK Flexibility Score: inf
ROOT
ATOM      1  C   UNL     1     -47.781  36.335  27.390  1.00  0.00    -0.044 C 
ATOM      2  H   UNL     1     -48.803  36.584  27.076  1.00  0.00     0.027 H 
ATOM      3  H   UNL     1     -47.708  36.662  28.436  1.00  0.00     0.027 H 
ENDROOT
BRANCH   1   4
ATOM      4  C   UNL     1     -46.772  37.186  26.602  1.00  0.00    -0.027 C 
ATOM      5  H   UNL     1     -47.312  37.845  25.911  1.00  0.00     0.032 H 
ATOM      6  H   UNL     1     -46.185  36.518  25.958  1.00  0.00     0.032 H 
BRANCH   4   7
ATOM      7  C   UNL     1     -45.793  37.983  27.427  1.00  0.00    -0.046 A 
ATOM      8  C   UNL     1     -42.788  41.663  27.778  1.00  0.00     0.124 A 
ATOM      9  C   UNL     1     -42.419  41.317  29.069  1.00  0.00    -0.019 A 
ATOM     10  N   UNL     1     -43.688  40.961  27.072  1.00  0.00    -0.231 NA
ATOM     11  C   UNL     1     -42.998  40.196  29.655  1.00  0.00    -0.049 A 
ATOM     12  H   UNL     1     -41.691  41.902  29.619  1.00  0.00     0.066 H 
ATOM     13  C   UNL     1     -44.257  39.880  27.634  1.00  0.00     0.073 A 
ATOM     14  C   UNL     1     -43.937  39.450  28.936  1.00  0.00     0.000 A 
ATOM     15  H   UNL     1     -42.716  39.913  30.664  1.00  0.00     0.063 H 
ATOM     16  C   UNL     1     -45.190  39.144  26.912  1.00  0.00    -0.033 A 
ATOM     17  C   UNL     1     -44.550  38.310  29.478  1.00  0.00    -0.053 A 
ATOM     18  H   UNL     1     -45.439  39.486  25.909  1.00  0.00     0.065 H 
ATOM     19  C   UNL     1     -45.474  37.584  28.728  1.00  0.00    -0.058 A 
ATOM     20  H   UNL     1     -44.310  37.980  30.486  1.00  0.00     0.063 H 
ATOM     21  H   UNL     1     -45.939  36.703  29.167  1.00  0.00     0.063 H 
BRANCH   8  22
ATOM     22  N   UNL     1     -42.217  42.783  27.165  1.00  0.00    -0.384 N 
ATOM     23  H   UNL     1     -42.664  43.626  27.513  1.00  0.00     0.158 HD
ATOM     24  H   UNL     1     -41.228  42.829  27.388  1.00  0.00     0.158 HD
ENDBRANCH   8  22
ENDBRANCH   4   7
ENDBRANCH   1   4
BRANCH   1  25
ATOM     25  C   UNL     1     -47.625  34.806  27.382  1.00  0.00    -0.010 C 
ATOM     26  C   UNL     1     -48.451  34.060  26.335  1.00  0.00    -0.024 C 
ATOM     27  C   UNL     1     -46.221  34.262  27.126  1.00  0.00     0.085 C 
ATOM     28  H   UNL     1     -47.955  34.466  28.376  1.00  0.00     0.033 H 
ATOM     29  C   UNL     1     -47.935  32.619  26.456  1.00  0.00     0.064 C 
ATOM     30  H   UNL     1     -49.525  34.126  26.530  1.00  0.00     0.029 H 
ATOM     31  H   UNL     1     -48.260  34.451  25.335  1.00  0.00     0.029 H 
ATOM     32  C   UNL     1     -46.429  32.774  26.776  1.00  0.00     0.101 C 
ATOM     33  H   UNL     1     -45.752  34.758  26.271  1.00  0.00     0.063 H 
ATOM     34  H   UNL     1     -48.447  32.141  27.303  1.00  0.00     0.056 H 
ATOM     35  H   UNL     1     -45.778  32.499  25.939  1.00  0.00     0.065 H 
BRANCH  27  36
ATOM     36  O   UNL     1     -45.386  34.440  28.260  1.00  0.00    -0.390 OA
ATOM     37  H   UNL     1     -45.396  33.572  28.720  1.00  0.00     0.211 HD
ENDBRANCH  27  36
BRANCH  29  38
ATOM     38  N   UNL     1     -48.181  31.742  25.322  1.00  0.00    -0.326 N 
ATOM     39  C   UNL     1     -49.129  30.759  25.220  1.00  0.00     0.010 A 
ATOM     40  C   UNL     1     -47.430  31.768  24.170  1.00  0.00     0.146 A 
ATOM     41  C   UNL     1     -49.028  30.158  23.974  1.00  0.00    -0.014 A 
ATOM     42  H   UNL     1     -49.817  30.553  26.029  1.00  0.00     0.082 H 
ATOM     43  C   UNL     1     -47.921  30.794  23.309  1.00  0.00     0.065 A 
ATOM     44  N   UNL     1     -46.406  32.610  23.935  1.00  0.00    -0.218 NA
ATOM     45  C   UNL     1     -47.261  30.675  22.072  1.00  0.00     0.136 A 
ATOM     46  C   UNL     1     -45.867  32.402  22.722  1.00  0.00     0.120 A 
ATOM     47  N   UNL     1     -46.229  31.495  21.797  1.00  0.00    -0.219 NA
ATOM     48  H   UNL     1     -45.032  33.042  22.454  1.00  0.00     0.106 H 
BRANCH  41  49
ATOM     49  C   UNL     1     -49.895  29.055  23.420  1.00  0.00    -0.014 C 
ATOM     50  C   UNL     1     -51.037  28.604  24.339  1.00  0.00    -0.046 C 
ATOM     51  C   UNL     1     -49.120  27.754  23.195  1.00  0.00    -0.046 C 
ATOM     52  H   UNL     1     -50.327  29.409  22.476  1.00  0.00     0.035 H 
ATOM     53  C   UNL     1     -50.480  27.457  25.184  1.00  0.00    -0.053 C 
ATOM     54  H   UNL     1     -51.453  29.407  24.955  1.00  0.00     0.027 H 
ATOM     55  H   UNL     1     -51.860  28.215  23.725  1.00  0.00     0.027 H 
ATOM     56  C   UNL     1     -49.157  27.048  24.543  1.00  0.00    -0.053 C 
ATOM     57  H   UNL     1     -48.095  27.906  22.842  1.00  0.00     0.027 H 
ATOM     58  H   UNL     1     -49.643  27.140  22.451  1.00  0.00     0.027 H 
ATOM     59  H   UNL     1     -51.186  26.619  25.203  1.00  0.00     0.027 H 
ATOM     60  H   UNL     1     -50.320  27.768  26.222  1.00  0.00     0.027 H 
ATOM     61  H   UNL     1     -49.070  25.963  24.438  1.00  0.00     0.027 H 
ATOM     62  H   UNL     1     -48.321  27.384  25.169  1.00  0.00     0.027 H 
ENDBRANCH  41  49
BRANCH  45  63
ATOM     63  N   UNL     1     -47.580  29.739  21.096  1.00  0.00    -0.383 N 
ATOM     64  H   UNL     1     -47.127  29.990  20.223  1.00  0.00     0.158 HD
ATOM     65  H   UNL     1     -47.450  28.781  21.389  1.00  0.00     0.158 HD
ENDBRANCH  45  63
ENDBRANCH  29  38
BRANCH  32  66
ATOM     66  O   UNL     1     -46.064  31.957  27.899  1.00  0.00    -0.388 OA
ATOM     67  H   UNL     1     -46.908  31.556  28.207  1.00  0.00     0.211 HD
ENDBRANCH  32  66
ENDBRANCH   1  25
TORSDOF 9
ENDMDL
MODEL 6
REMARK VINA RESULT:      -9.6      2.234      3.325
REMARK SMILES Nc1ccc2ccc(CC[C@H]3C[C@@H](n4cc(C5CCCC5)c5c(N)ncnc54)[C@H](O)[C@@H]3O)cc2n1
REMARK SMILES IDX 10 1 9 4 8 7 2 8 3 9 35 10 4 11 34 13 5 14 33 16 6 17 7 19
REMARK SMILES IDX 1 22 11 25 12 26 31 27 13 29 29 32 32 36 14 38 15 39 28 40
REMARK SMILES IDX 16 41 22 43 27 44 23 45 26 46 25 47 17 49 18 50 21 51 19 53
REMARK SMILES IDX 20 56 24 63 30 66
REMARK H PARENT 10 2 10 3 9 5 9 6 3 12 4 15 33 18 6 20 7 21 1 23 1 24 11 28
REMARK H PARENT 12 30 12 31 31 33 13 34 29 35 32 37 15 42 26 48 17 52 18 54
REMARK H PARENT 18 55 21 57 21 58 19 59 19 60 20 61 20 62 24 64 24 65 30 67
REMARK Flexibility Score: inf
ROOT
ATOM      1  C   UNL     1     -46.661  34.692  27.677  1.00  0.00    -0.044 C 
ATOM      2  H   UNL     1     -45.894  33.908  27.678  1.00  0.00     0.027 H 
ATOM      3  H   UNL     1     -47.340  34.441  28.504  1.00  0.00     0.027 H 
ENDROOT
BRANCH   1   4
ATOM      4  C   UNL     1     -47.499  34.600  26.390  1.00  0.00    -0.027 C 
ATOM      5  H   UNL     1     -47.102  35.301  25.646  1.00  0.00     0.032 H 
ATOM      6  H   UNL     1     -48.512  34.963  26.611  1.00  0.00     0.032 H 
BRANCH   4   7
ATOM      7  C   UNL     1     -47.640  33.224  25.791  1.00  0.00    -0.046 A 
ATOM      8  C   UNL     1     -46.094  29.925  22.721  1.00  0.00     0.124 A 
ATOM      9  C   UNL     1     -47.109  29.044  23.063  1.00  0.00    -0.019 A 
ATOM     10  N   UNL     1     -45.965  31.133  23.293  1.00  0.00    -0.231 NA
ATOM     11  C   UNL     1     -48.032  29.427  24.030  1.00  0.00    -0.049 A 
ATOM     12  H   UNL     1     -47.190  28.072  22.589  1.00  0.00     0.066 H 
ATOM     13  C   UNL     1     -46.849  31.508  24.232  1.00  0.00     0.073 A 
ATOM     14  C   UNL     1     -47.916  30.682  24.636  1.00  0.00     0.000 A 
ATOM     15  H   UNL     1     -48.834  28.747  24.305  1.00  0.00     0.063 H 
ATOM     16  C   UNL     1     -46.727  32.757  24.829  1.00  0.00    -0.033 A 
ATOM     17  C   UNL     1     -48.821  31.119  25.615  1.00  0.00    -0.053 A 
ATOM     18  H   UNL     1     -45.895  33.387  24.519  1.00  0.00     0.065 H 
ATOM     19  C   UNL     1     -48.681  32.381  26.190  1.00  0.00    -0.058 A 
ATOM     20  H   UNL     1     -49.642  30.480  25.934  1.00  0.00     0.063 H 
ATOM     21  H   UNL     1     -49.393  32.701  26.948  1.00  0.00     0.063 H 
BRANCH   8  22
ATOM     22  N   UNL     1     -45.155  29.565  21.749  1.00  0.00    -0.384 N 
ATOM     23  H   UNL     1     -45.593  28.966  21.058  1.00  0.00     0.158 HD
ATOM     24  H   UNL     1     -44.812  30.397  21.280  1.00  0.00     0.158 HD
ENDBRANCH   8  22
ENDBRANCH   4   7
ENDBRANCH   1   4
BRANCH   1  25
ATOM     25  C   UNL     1     -45.994  36.031  28.031  1.00  0.00    -0.010 C 
ATOM     26  C   UNL     1     -46.131  37.138  26.987  1.00  0.00    -0.024 C 
ATOM     27  C   UNL     1     -46.485  36.727  29.299  1.00  0.00     0.085 C 
ATOM     28  H   UNL     1     -44.922  35.810  28.148  1.00  0.00     0.033 H 
ATOM     29  C   UNL     1     -45.547  38.362  27.707  1.00  0.00     0.064 C 
ATOM     30  H   UNL     1     -45.588  36.909  26.065  1.00  0.00     0.029 H 
ATOM     31  H   UNL     1     -47.178  37.309  26.733  1.00  0.00     0.029 H 
ATOM     32  C   UNL     1     -45.962  38.174  29.186  1.00  0.00     0.101 C 
ATOM     33  H   UNL     1     -47.577  36.754  29.340  1.00  0.00     0.063 H 
ATOM     34  H   UNL     1     -44.452  38.319  27.620  1.00  0.00     0.056 H 
ATOM     35  H   UNL     1     -46.742  38.872  29.508  1.00  0.00     0.065 H 
BRANCH  27  36
ATOM     36  O   UNL     1     -46.009  36.069  30.464  1.00  0.00    -0.390 OA
ATOM     37  H   UNL     1     -46.784  36.031  31.066  1.00  0.00     0.211 HD
ENDBRANCH  27  36
BRANCH  29  38
ATOM     38  N   UNL     1     -45.917  39.665  27.180  1.00  0.00    -0.326 N 
ATOM     39  C   UNL     1     -45.114  40.556  26.518  1.00  0.00     0.010 A 
ATOM     40  C   UNL     1     -47.173  40.209  27.322  1.00  0.00     0.146 A 
ATOM     41  C   UNL     1     -45.857  41.678  26.186  1.00  0.00    -0.014 A 
ATOM     42  H   UNL     1     -44.073  40.335  26.318  1.00  0.00     0.082 H 
ATOM     43  C   UNL     1     -47.175  41.463  26.723  1.00  0.00     0.065 A 
ATOM     44  N   UNL     1     -48.210  39.605  27.933  1.00  0.00    -0.218 NA
ATOM     45  C   UNL     1     -48.388  42.171  26.780  1.00  0.00     0.136 A 
ATOM     46  C   UNL     1     -49.309  40.378  27.913  1.00  0.00     0.120 A 
ATOM     47  N   UNL     1     -49.451  41.606  27.384  1.00  0.00    -0.219 NA
ATOM     48  H   UNL     1     -50.194  39.963  28.387  1.00  0.00     0.106 H 
BRANCH  41  49
ATOM     49  C   UNL     1     -45.386  42.891  25.421  1.00  0.00    -0.014 C 
ATOM     50  C   UNL     1     -44.089  42.693  24.627  1.00  0.00    -0.046 C 
ATOM     51  C   UNL     1     -45.036  44.065  26.337  1.00  0.00    -0.046 C 
ATOM     52  H   UNL     1     -46.182  43.177  24.723  1.00  0.00     0.035 H 
ATOM     53  C   UNL     1     -42.947  43.099  25.561  1.00  0.00    -0.053 C 
ATOM     54  H   UNL     1     -43.960  41.680  24.233  1.00  0.00     0.027 H 
ATOM     55  H   UNL     1     -44.089  43.372  23.764  1.00  0.00     0.027 H 
ATOM     56  C   UNL     1     -43.590  43.815  26.746  1.00  0.00    -0.053 C 
ATOM     57  H   UNL     1     -45.694  44.159  27.207  1.00  0.00     0.027 H 
ATOM     58  H   UNL     1     -45.093  45.003  25.771  1.00  0.00     0.027 H 
ATOM     59  H   UNL     1     -42.242  43.754  25.039  1.00  0.00     0.027 H 
ATOM     60  H   UNL     1     -42.384  42.225  25.905  1.00  0.00     0.027 H 
ATOM     61  H   UNL     1     -43.070  44.744  26.996  1.00  0.00     0.027 H 
ATOM     62  H   UNL     1     -43.554  43.170  27.634  1.00  0.00     0.027 H 
ENDBRANCH  41  49
BRANCH  45  63
ATOM     63  N   UNL     1     -48.578  43.451  26.272  1.00  0.00    -0.383 N 
ATOM     64  H   UNL     1     -48.859  43.391  25.298  1.00  0.00     0.158 HD
ATOM     65  H   UNL     1     -49.157  44.040  26.853  1.00  0.00     0.158 HD
ENDBRANCH  45  63
ENDBRANCH  29  38
BRANCH  32  66
ATOM     66  O   UNL     1     -44.832  38.349  30.054  1.00  0.00    -0.388 OA
ATOM     67  H   UNL     1     -44.372  37.480  30.052  1.00  0.00     0.211 HD
ENDBRANCH  32  66
ENDBRANCH   1  25
TORSDOF 9
ENDMDL
MODEL 7
REMARK VINA RESULT:      -9.6      2.400      3.904
REMARK SMILES Nc1ccc2ccc(CC[C@H]3C[C@@H](n4cc(C5CCCC5)c5c(N)ncnc54)[C@H](O)[C@@H]3O)cc2n1
REMARK SMILES IDX 10 1 9 4 8 7 2 8 3 9 35 10 4 11 34 13 5 14 33 16 6 17 7 19
REMARK SMILES IDX 1 22 11 25 12 26 31 27 13 29 29 32 32 36 14 38 15 39 28 40
REMARK SMILES IDX 16 41 22 43 27 44 23 45 26 46 25 47 17 49 18 50 21 51 19 53
REMARK SMILES IDX 20 56 24 63 30 66
REMARK H PARENT 10 2 10 3 9 5 9 6 3 12 4 15 33 18 6 20 7 21 1 23 1 24 11 28
REMARK H PARENT 12 30 12 31 31 33 13 34 29 35 32 37 15 42 26 48 17 52 18 54
REMARK H PARENT 18 55 21 57 21 58 19 59 19 60 20 61 20 62 24 64 24 65 30 67
REMARK Flexibility Score: inf
ROOT
ATOM      1  C   UNL     1     -46.298  34.974  27.281  1.00  0.00    -0.044 C 
ATOM      2  H   UNL     1     -45.372  34.441  27.032  1.00  0.00     0.027 H 
ATOM      3  H   UNL     1     -46.717  34.445  28.148  1.00  0.00     0.027 H 
ENDROOT
BRANCH   1   4
ATOM      4  C   UNL     1     -47.317  34.808  26.142  1.00  0.00    -0.027 C 
ATOM      5  H   UNL     1     -47.050  35.475  25.314  1.00  0.00     0.032 H 
ATOM      6  H   UNL     1     -48.293  35.168  26.495  1.00  0.00     0.032 H 
BRANCH   4   7
ATOM      7  C   UNL     1     -47.519  33.402  25.635  1.00  0.00    -0.046 A 
ATOM      8  C   UNL     1     -46.104  29.829  22.821  1.00  0.00     0.124 A 
ATOM      9  C   UNL     1     -47.165  29.023  23.208  1.00  0.00    -0.019 A 
ATOM     10  N   UNL     1     -45.921  31.065  23.310  1.00  0.00    -0.231 NA
ATOM     11  C   UNL     1     -48.079  29.516  24.132  1.00  0.00    -0.049 A 
ATOM     12  H   UNL     1     -47.289  28.026  22.799  1.00  0.00     0.066 H 
ATOM     13  C   UNL     1     -46.797  31.546  24.209  1.00  0.00     0.073 A 
ATOM     14  C   UNL     1     -47.908  30.803  24.652  1.00  0.00     0.000 A 
ATOM     15  H   UNL     1     -48.916  28.897  24.441  1.00  0.00     0.063 H 
ATOM     16  C   UNL     1     -46.619  32.826  24.721  1.00  0.00    -0.033 A 
ATOM     17  C   UNL     1     -48.801  31.349  25.586  1.00  0.00    -0.053 A 
ATOM     18  H   UNL     1     -45.755  33.392  24.381  1.00  0.00     0.065 H 
ATOM     19  C   UNL     1     -48.605  32.640  26.076  1.00  0.00    -0.058 A 
ATOM     20  H   UNL     1     -49.656  30.774  25.936  1.00  0.00     0.063 H 
ATOM     21  H   UNL     1     -49.309  33.046  26.800  1.00  0.00     0.063 H 
BRANCH   8  22
ATOM     22  N   UNL     1     -45.173  29.357  21.889  1.00  0.00    -0.384 N 
ATOM     23  H   UNL     1     -44.987  30.078  21.200  1.00  0.00     0.158 HD
ATOM     24  H   UNL     1     -44.302  29.132  22.359  1.00  0.00     0.158 HD
ENDBRANCH   8  22
ENDBRANCH   4   7
ENDBRANCH   1   4
BRANCH   1  25
ATOM     25  C   UNL     1     -45.936  36.393  27.749  1.00  0.00    -0.010 C 
ATOM     26  C   UNL     1     -46.404  37.530  26.843  1.00  0.00    -0.024 C 
ATOM     27  C   UNL     1     -46.479  36.825  29.109  1.00  0.00     0.085 C 
ATOM     28  H   UNL     1     -44.836  36.424  27.787  1.00  0.00     0.033 H 
ATOM     29  C   UNL     1     -46.068  38.783  27.665  1.00  0.00     0.064 C 
ATOM     30  H   UNL     1     -45.893  37.528  25.875  1.00  0.00     0.029 H 
ATOM     31  H   UNL     1     -47.478  37.469  26.662  1.00  0.00     0.029 H 
ATOM     32  C   UNL     1     -46.317  38.359  29.132  1.00  0.00     0.101 C 
ATOM     33  H   UNL     1     -47.542  36.586  29.207  1.00  0.00     0.063 H 
ATOM     34  H   UNL     1     -45.003  39.012  27.520  1.00  0.00     0.056 H 
ATOM     35  H   UNL     1     -47.212  38.816  29.568  1.00  0.00     0.065 H 
BRANCH  27  36
ATOM     36  O   UNL     1     -45.778  36.191  30.168  1.00  0.00    -0.390 OA
ATOM     37  H   UNL     1     -45.158  35.572  29.726  1.00  0.00     0.211 HD
ENDBRANCH  27  36
BRANCH  29  38
ATOM     38  N   UNL     1     -46.770  40.005  27.306  1.00  0.00    -0.326 N 
ATOM     39  C   UNL     1     -48.076  40.323  27.567  1.00  0.00     0.010 A 
ATOM     40  C   UNL     1     -46.190  41.026  26.589  1.00  0.00     0.146 A 
ATOM     41  C   UNL     1     -48.348  41.582  27.054  1.00  0.00    -0.014 A 
ATOM     42  H   UNL     1     -48.725  39.644  28.105  1.00  0.00     0.082 H 
ATOM     43  C   UNL     1     -47.140  42.023  26.406  1.00  0.00     0.065 A 
ATOM     44  N   UNL     1     -44.914  41.038  26.159  1.00  0.00    -0.218 NA
ATOM     45  C   UNL     1     -46.718  43.152  25.682  1.00  0.00     0.136 A 
ATOM     46  C   UNL     1     -44.633  42.170  25.490  1.00  0.00     0.120 A 
ATOM     47  N   UNL     1     -45.450  43.205  25.229  1.00  0.00    -0.219 NA
ATOM     48  H   UNL     1     -43.621  42.260  25.108  1.00  0.00     0.106 H 
BRANCH  41  49
ATOM     49  C   UNL     1     -49.648  42.343  27.144  1.00  0.00    -0.014 C 
ATOM     50  C   UNL     1     -49.656  43.494  28.158  1.00  0.00    -0.046 C 
ATOM     51  C   UNL     1     -50.809  41.471  27.625  1.00  0.00    -0.046 C 
ATOM     52  H   UNL     1     -49.866  42.754  26.150  1.00  0.00     0.035 H 
ATOM     53  C   UNL     1     -50.155  42.900  29.477  1.00  0.00    -0.053 C 
ATOM     54  H   UNL     1     -48.688  43.994  28.270  1.00  0.00     0.027 H 
ATOM     55  H   UNL     1     -50.372  44.258  27.829  1.00  0.00     0.027 H 
ATOM     56  C   UNL     1     -50.723  41.523  29.145  1.00  0.00    -0.053 C 
ATOM     57  H   UNL     1     -50.775  40.443  27.250  1.00  0.00     0.027 H 
ATOM     58  H   UNL     1     -51.759  41.914  27.302  1.00  0.00     0.027 H 
ATOM     59  H   UNL     1     -50.920  43.546  29.921  1.00  0.00     0.027 H 
ATOM     60  H   UNL     1     -49.344  42.811  30.206  1.00  0.00     0.027 H 
ATOM     61  H   UNL     1     -51.697  41.356  29.614  1.00  0.00     0.027 H 
ATOM     62  H   UNL     1     -50.044  40.743  29.512  1.00  0.00     0.027 H 
ENDBRANCH  41  49
BRANCH  45  63
ATOM     63  N   UNL     1     -47.530  44.234  25.365  1.00  0.00    -0.383 N 
ATOM     64  H   UNL     1     -47.619  44.841  26.174  1.00  0.00     0.158 HD
ATOM     65  H   UNL     1     -47.276  44.698  24.504  1.00  0.00     0.158 HD
ENDBRANCH  45  63
ENDBRANCH  29  38
BRANCH  32  66
ATOM     66  O   UNL     1     -45.198  38.715  29.958  1.00  0.00    -0.388 OA
ATOM     67  H   UNL     1     -44.404  38.467  29.432  1.00  0.00     0.211 HD
ENDBRANCH  32  66
ENDBRANCH   1  25
TORSDOF 9
ENDMDL
