MODEL 1
REMARK VINA RESULT:     -10.4      0.000      0.000
REMARK SMILES Nc1ncnc2c1ccn2[C@@H]1C[C@H](CCc2ccc3[nH]ncc3c2)[C@@H](O)[C@H]1O
REMARK SMILES IDX 11 1 12 2 13 3 25 4 27 5 10 12 2 13 3 14 7 15 4 16 6 17 8 18
REMARK SMILES IDX 5 19 9 21 1 24 28 27 14 29 15 32 16 35 17 36 24 37 18 38
REMARK SMILES IDX 23 40 19 42 22 44 20 45 21 46 26 49
REMARK H PARENT 11 6 12 7 12 8 13 9 25 10 27 11 4 20 8 22 9 23 1 25 1 26 28 28
REMARK H PARENT 14 30 14 31 15 33 15 34 17 39 24 41 18 43 22 47 20 48 26 50
REMARK Flexibility Score: inf
ROOT
ATOM      1  C   UNL     1     -45.776  39.097  28.204  1.00  0.00     0.064 C 
ATOM      2  C   UNL     1     -45.826  37.645  27.675  1.00  0.00    -0.024 C 
ATOM      3  C   UNL     1     -47.231  37.154  28.014  1.00  0.00    -0.010 C 
ATOM      4  C   UNL     1     -48.070  38.366  27.634  1.00  0.00     0.085 C 
ATOM      5  C   UNL     1     -47.264  39.550  28.196  1.00  0.00     0.101 C 
ATOM      6  H   UNL     1     -45.402  39.079  29.237  1.00  0.00     0.056 H 
ATOM      7  H   UNL     1     -45.674  37.635  26.596  1.00  0.00     0.029 H 
ATOM      8  H   UNL     1     -45.055  37.020  28.137  1.00  0.00     0.029 H 
ATOM      9  H   UNL     1     -47.288  37.009  29.103  1.00  0.00     0.033 H 
ATOM     10  H   UNL     1     -48.162  38.466  26.548  1.00  0.00     0.063 H 
ATOM     11  H   UNL     1     -47.464  40.443  27.595  1.00  0.00     0.065 H 
ENDROOT
BRANCH   1  12
ATOM     12  N   UNL     1     -44.883  40.017  27.505  1.00  0.00    -0.327 N 
ATOM     13  C   UNL     1     -41.914  41.934  27.207  1.00  0.00     0.136 A 
ATOM     14  N   UNL     1     -41.316  41.720  28.393  1.00  0.00    -0.219 NA
ATOM     15  C   UNL     1     -43.160  41.343  26.956  1.00  0.00     0.061 A 
ATOM     16  C   UNL     1     -41.956  40.953  29.297  1.00  0.00     0.120 A 
ATOM     17  C   UNL     1     -43.698  40.551  27.964  1.00  0.00     0.145 A 
ATOM     18  C   UNL     1     -44.094  41.346  25.887  1.00  0.00    -0.031 A 
ATOM     19  N   UNL     1     -43.143  40.342  29.170  1.00  0.00    -0.218 NA
ATOM     20  H   UNL     1     -41.445  40.813  30.246  1.00  0.00     0.106 H 
ATOM     21  C   UNL     1     -45.164  40.567  26.270  1.00  0.00     0.007 A 
ATOM     22  H   UNL     1     -44.005  41.879  24.950  1.00  0.00     0.065 H 
ATOM     23  H   UNL     1     -46.093  40.348  25.757  1.00  0.00     0.082 H 
BRANCH  13  24
ATOM     24  N   UNL     1     -41.255  42.757  26.303  1.00  0.00    -0.383 N 
ATOM     25  H   UNL     1     -40.882  42.203  25.541  1.00  0.00     0.158 HD
ATOM     26  H   UNL     1     -40.614  43.411  26.730  1.00  0.00     0.158 HD
ENDBRANCH  13  24
ENDBRANCH   1  12
BRANCH   5  27
ATOM     27  O   UNL     1     -47.686  39.844  29.536  1.00  0.00    -0.388 OA
ATOM     28  H   UNL     1     -47.627  39.003  30.034  1.00  0.00     0.211 HD
ENDBRANCH   5  27
BRANCH   3  29
ATOM     29  C   UNL     1     -47.652  35.812  27.389  1.00  0.00    -0.044 C 
ATOM     30  H   UNL     1     -48.703  35.914  27.086  1.00  0.00     0.027 H 
ATOM     31  H   UNL     1     -47.646  35.045  28.174  1.00  0.00     0.027 H 
BRANCH  29  32
ATOM     32  C   UNL     1     -46.894  35.300  26.151  1.00  0.00    -0.027 C 
ATOM     33  H   UNL     1     -47.127  35.962  25.306  1.00  0.00     0.032 H 
ATOM     34  H   UNL     1     -45.814  35.409  26.308  1.00  0.00     0.032 H 
BRANCH  32  35
ATOM     35  C   UNL     1     -47.227  33.893  25.722  1.00  0.00    -0.047 A 
ATOM     36  C   UNL     1     -48.406  33.277  26.171  1.00  0.00    -0.057 A 
ATOM     37  C   UNL     1     -46.366  33.196  24.852  1.00  0.00    -0.048 A 
ATOM     38  C   UNL     1     -48.783  32.000  25.736  1.00  0.00    -0.036 A 
ATOM     39  H   UNL     1     -49.066  33.801  26.861  1.00  0.00     0.063 H 
ATOM     40  C   UNL     1     -46.734  31.916  24.400  1.00  0.00     0.020 A 
ATOM     41  H   UNL     1     -45.441  33.646  24.506  1.00  0.00     0.063 H 
ATOM     42  C   UNL     1     -47.927  31.357  24.840  1.00  0.00     0.065 A 
ATOM     43  H   UNL     1     -49.710  31.544  26.070  1.00  0.00     0.065 H 
ATOM     44  C   UNL     1     -46.189  30.947  23.531  1.00  0.00     0.057 A 
ATOM     45  N   UNL     1     -48.012  30.143  24.208  1.00  0.00    -0.278 N 
ATOM     46  N   UNL     1     -46.968  29.870  23.401  1.00  0.00    -0.183 NA
ATOM     47  H   UNL     1     -45.260  30.991  22.979  1.00  0.00     0.087 H 
ATOM     48  H   UNL     1     -48.761  29.465  24.273  1.00  0.00     0.190 HD
ENDBRANCH  32  35
ENDBRANCH  29  32
ENDBRANCH   3  29
BRANCH   4  49
ATOM     49  O   UNL     1     -49.366  38.303  28.213  1.00  0.00    -0.390 OA
ATOM     50  H   UNL     1     -49.949  37.860  27.570  1.00  0.00     0.211 HD
ENDBRANCH   4  49
TORSDOF 7
ENDMDL
MODEL 2
REMARK VINA RESULT:      -9.7      1.926      9.315
REMARK SMILES Nc1ncnc2c1ccn2[C@@H]1C[C@H](CCc2ccc3[nH]ncc3c2)[C@@H](O)[C@H]1O
REMARK SMILES IDX 11 1 12 2 13 3 25 4 27 5 10 12 2 13 3 14 7 15 4 16 6 17 8 18
REMARK SMILES IDX 5 19 9 21 1 24 28 27 14 29 15 32 16 35 17 36 24 37 18 38
REMARK SMILES IDX 23 40 19 42 22 44 20 45 21 46 26 49
REMARK H PARENT 11 6 12 7 12 8 13 9 25 10 27 11 4 20 8 22 9 23 1 25 1 26 28 28
REMARK H PARENT 14 30 14 31 15 33 15 34 17 39 24 41 18 43 22 47 20 48 26 50
REMARK Flexibility Score: inf
ROOT
ATOM      1  C   UNL     1     -47.300  34.745  27.363  1.00  0.00     0.064 C 
ATOM      2  C   UNL     1     -47.613  36.197  26.934  1.00  0.00    -0.024 C 
ATOM      3  C   UNL     1     -47.033  37.067  28.047  1.00  0.00    -0.010 C 
ATOM      4  C   UNL     1     -45.695  36.383  28.292  1.00  0.00     0.085 C 
ATOM      5  C   UNL     1     -46.049  34.886  28.277  1.00  0.00     0.101 C 
ATOM      6  H   UNL     1     -48.146  34.366  27.951  1.00  0.00     0.056 H 
ATOM      7  H   UNL     1     -47.123  36.422  25.987  1.00  0.00     0.029 H 
ATOM      8  H   UNL     1     -48.689  36.360  26.812  1.00  0.00     0.029 H 
ATOM      9  H   UNL     1     -47.664  36.944  28.940  1.00  0.00     0.033 H 
ATOM     10  H   UNL     1     -44.981  36.600  27.491  1.00  0.00     0.063 H 
ATOM     11  H   UNL     1     -45.179  34.310  27.948  1.00  0.00     0.065 H 
ENDROOT
BRANCH   1  12
ATOM     12  N   UNL     1     -47.130  33.770  26.289  1.00  0.00    -0.327 N 
ATOM     13  C   UNL     1     -48.348  31.465  23.884  1.00  0.00     0.136 A 
ATOM     14  N   UNL     1     -49.673  31.479  24.122  1.00  0.00    -0.219 NA
ATOM     15  C   UNL     1     -47.506  32.257  24.678  1.00  0.00     0.061 A 
ATOM     16  C   UNL     1     -50.128  32.246  25.130  1.00  0.00     0.120 A 
ATOM     17  C   UNL     1     -48.109  33.025  25.667  1.00  0.00     0.145 A 
ATOM     18  C   UNL     1     -46.108  32.491  24.763  1.00  0.00    -0.031 A 
ATOM     19  N   UNL     1     -49.422  33.038  25.951  1.00  0.00    -0.218 NA
ATOM     20  H   UNL     1     -51.202  32.221  25.297  1.00  0.00     0.106 H 
ATOM     21  C   UNL     1     -45.901  33.383  25.792  1.00  0.00     0.007 A 
ATOM     22  H   UNL     1     -45.337  32.039  24.155  1.00  0.00     0.065 H 
ATOM     23  H   UNL     1     -44.980  33.786  26.199  1.00  0.00     0.082 H 
BRANCH  13  24
ATOM     24  N   UNL     1     -47.894  30.639  22.865  1.00  0.00    -0.383 N 
ATOM     25  H   UNL     1     -48.569  30.622  22.108  1.00  0.00     0.158 HD
ATOM     26  H   UNL     1     -47.560  29.739  23.180  1.00  0.00     0.158 HD
ENDBRANCH  13  24
ENDBRANCH   1  12
BRANCH   5  27
ATOM     27  O   UNL     1     -46.369  34.440  29.603  1.00  0.00    -0.388 OA
ATOM     28  H   UNL     1     -46.158  33.484  29.630  1.00  0.00     0.211 HD
ENDBRANCH   5  27
BRANCH   3  29
ATOM     29  C   UNL     1     -46.983  38.580  27.773  1.00  0.00    -0.044 C 
ATOM     30  H   UNL     1     -46.542  39.054  28.660  1.00  0.00     0.027 H 
ATOM     31  H   UNL     1     -48.012  38.959  27.719  1.00  0.00     0.027 H 
BRANCH  29  32
ATOM     32  C   UNL     1     -46.174  39.089  26.566  1.00  0.00    -0.027 C 
ATOM     33  H   UNL     1     -45.795  38.220  26.013  1.00  0.00     0.032 H 
ATOM     34  H   UNL     1     -46.842  39.604  25.865  1.00  0.00     0.032 H 
BRANCH  32  35
ATOM     35  C   UNL     1     -44.987  39.958  26.901  1.00  0.00    -0.047 A 
ATOM     36  C   UNL     1     -44.585  40.975  26.020  1.00  0.00    -0.057 A 
ATOM     37  C   UNL     1     -44.287  39.766  28.107  1.00  0.00    -0.048 A 
ATOM     38  C   UNL     1     -43.533  41.846  26.332  1.00  0.00    -0.036 A 
ATOM     39  H   UNL     1     -45.107  41.115  25.075  1.00  0.00     0.063 H 
ATOM     40  C   UNL     1     -43.234  40.637  28.438  1.00  0.00     0.020 A 
ATOM     41  H   UNL     1     -44.570  38.974  28.795  1.00  0.00     0.063 H 
ATOM     42  C   UNL     1     -42.890  41.653  27.556  1.00  0.00     0.065 A 
ATOM     43  H   UNL     1     -43.247  42.645  25.654  1.00  0.00     0.065 H 
ATOM     44  C   UNL     1     -42.346  40.796  29.524  1.00  0.00     0.057 A 
ATOM     45  N   UNL     1     -41.870  42.333  28.168  1.00  0.00    -0.278 N 
ATOM     46  N   UNL     1     -41.521  41.834  29.370  1.00  0.00    -0.183 NA
ATOM     47  H   UNL     1     -42.280  40.202  30.425  1.00  0.00     0.087 H 
ATOM     48  H   UNL     1     -41.381  43.152  27.826  1.00  0.00     0.190 HD
ENDBRANCH  32  35
ENDBRANCH  29  32
ENDBRANCH   3  29
BRANCH   4  49
ATOM     49  O   UNL     1     -45.134  36.768  29.540  1.00  0.00    -0.390 OA
ATOM     50  H   UNL     1     -44.827  37.689  29.447  1.00  0.00     0.211 HD
ENDBRANCH   4  49
TORSDOF 7
ENDMDL
MODEL 3
REMARK VINA RESULT:      -9.4      1.544      2.181
REMARK SMILES Nc1ncnc2c1ccn2[C@@H]1C[C@H](CCc2ccc3[nH]ncc3c2)[C@@H](O)[C@H]1O
REMARK SMILES IDX 11 1 12 2 13 3 25 4 27 5 10 12 2 13 3 14 7 15 4 16 6 17 8 18
REMARK SMILES IDX 5 19 9 21 1 24 28 27 14 29 15 32 16 35 17 36 24 37 18 38
REMARK SMILES IDX 23 40 19 42 22 44 20 45 21 46 26 49
REMARK H PARENT 11 6 12 7 12 8 13 9 25 10 27 11 4 20 8 22 9 23 1 25 1 26 28 28
REMARK H PARENT 14 30 14 31 15 33 15 34 17 39 24 41 18 43 22 47 20 48 26 50
REMARK Flexibility Score: inf
ROOT
ATOM      1  C   UNL     1     -46.395  37.145  28.302  1.00  0.00     0.064 C 
ATOM      2  C   UNL     1     -45.705  35.828  27.881  1.00  0.00    -0.024 C 
ATOM      3  C   UNL     1     -46.845  34.828  27.703  1.00  0.00    -0.010 C 
ATOM      4  C   UNL     1     -47.872  35.678  26.966  1.00  0.00     0.085 C 
ATOM      5  C   UNL     1     -47.830  37.021  27.715  1.00  0.00     0.101 C 
ATOM      6  H   UNL     1     -46.447  37.176  29.399  1.00  0.00     0.056 H 
ATOM      7  H   UNL     1     -45.176  35.967  26.938  1.00  0.00     0.029 H 
ATOM      8  H   UNL     1     -44.984  35.490  28.633  1.00  0.00     0.029 H 
ATOM      9  H   UNL     1     -47.239  34.579  28.699  1.00  0.00     0.033 H 
ATOM     10  H   UNL     1     -47.590  35.830  25.920  1.00  0.00     0.063 H 
ATOM     11  H   UNL     1     -48.112  37.827  27.030  1.00  0.00     0.065 H 
ENDROOT
BRANCH   1  12
ATOM     12  N   UNL     1     -45.719  38.385  27.931  1.00  0.00    -0.327 N 
ATOM     13  C   UNL     1     -43.263  40.906  28.371  1.00  0.00     0.136 A 
ATOM     14  N   UNL     1     -42.664  40.524  29.514  1.00  0.00    -0.219 NA
ATOM     15  C   UNL     1     -44.333  40.146  27.876  1.00  0.00     0.061 A 
ATOM     16  C   UNL     1     -43.136  39.430  30.142  1.00  0.00     0.120 A 
ATOM     17  C   UNL     1     -44.701  39.023  28.607  1.00  0.00     0.145 A 
ATOM     18  C   UNL     1     -45.213  40.227  26.765  1.00  0.00    -0.031 A 
ATOM     19  N   UNL     1     -44.147  38.632  29.767  1.00  0.00    -0.218 NA
ATOM     20  H   UNL     1     -42.632  39.161  31.067  1.00  0.00     0.106 H 
ATOM     21  C   UNL     1     -46.085  39.164  26.851  1.00  0.00     0.007 A 
ATOM     22  H   UNL     1     -45.223  40.991  26.000  1.00  0.00     0.065 H 
ATOM     23  H   UNL     1     -46.924  38.891  26.222  1.00  0.00     0.082 H 
BRANCH  13  24
ATOM     24  N   UNL     1     -42.787  42.057  27.758  1.00  0.00    -0.383 N 
ATOM     25  H   UNL     1     -43.399  42.838  27.967  1.00  0.00     0.158 HD
ATOM     26  H   UNL     1     -42.541  41.936  26.785  1.00  0.00     0.158 HD
ENDBRANCH  13  24
ENDBRANCH   1  12
BRANCH   5  27
ATOM     27  O   UNL     1     -48.790  37.023  28.781  1.00  0.00    -0.388 OA
ATOM     28  H   UNL     1     -49.673  37.056  28.357  1.00  0.00     0.211 HD
ENDBRANCH   5  27
BRANCH   3  29
ATOM     29  C   UNL     1     -46.477  33.485  27.048  1.00  0.00    -0.044 C 
ATOM     30  H   UNL     1     -47.307  32.794  27.245  1.00  0.00     0.027 H 
ATOM     31  H   UNL     1     -45.613  33.065  27.578  1.00  0.00     0.027 H 
BRANCH  29  32
ATOM     32  C   UNL     1     -46.231  33.443  25.529  1.00  0.00    -0.027 C 
ATOM     33  H   UNL     1     -46.459  34.434  25.114  1.00  0.00     0.032 H 
ATOM     34  H   UNL     1     -45.163  33.291  25.332  1.00  0.00     0.032 H 
BRANCH  32  35
ATOM     35  C   UNL     1     -47.059  32.439  24.765  1.00  0.00    -0.047 A 
ATOM     36  C   UNL     1     -48.429  32.298  25.039  1.00  0.00    -0.057 A 
ATOM     37  C   UNL     1     -46.465  31.650  23.761  1.00  0.00    -0.048 A 
ATOM     38  C   UNL     1     -49.242  31.429  24.300  1.00  0.00    -0.036 A 
ATOM     39  H   UNL     1     -48.891  32.888  25.828  1.00  0.00     0.063 H 
ATOM     40  C   UNL     1     -47.270  30.778  23.007  1.00  0.00     0.020 A 
ATOM     41  H   UNL     1     -45.404  31.729  23.545  1.00  0.00     0.063 H 
ATOM     42  C   UNL     1     -48.628  30.694  23.284  1.00  0.00     0.065 A 
ATOM     43  H   UNL     1     -50.305  31.347  24.504  1.00  0.00     0.065 H 
ATOM     44  C   UNL     1     -47.073  29.883  21.933  1.00  0.00     0.057 A 
ATOM     45  N   UNL     1     -49.128  29.800  22.374  1.00  0.00    -0.278 N 
ATOM     46  N   UNL     1     -48.203  29.293  21.536  1.00  0.00    -0.183 NA
ATOM     47  H   UNL     1     -46.150  29.649  21.418  1.00  0.00     0.087 H 
ATOM     48  H   UNL     1     -50.092  29.506  22.263  1.00  0.00     0.190 HD
ENDBRANCH  32  35
ENDBRANCH  29  32
ENDBRANCH   3  29
BRANCH   4  49
ATOM     49  O   UNL     1     -49.167  35.094  27.024  1.00  0.00    -0.390 OA
ATOM     50  H   UNL     1     -49.144  34.409  27.717  1.00  0.00     0.211 HD
ENDBRANCH   4  49
TORSDOF 7
ENDMDL
MODEL 4
REMARK VINA RESULT:      -9.4      2.604     10.236
REMARK SMILES Nc1ncnc2c1ccn2[C@@H]1C[C@H](CCc2ccc3[nH]ncc3c2)[C@@H](O)[C@H]1O
REMARK SMILES IDX 11 1 12 2 13 3 25 4 27 5 10 12 2 13 3 14 7 15 4 16 6 17 8 18
REMARK SMILES IDX 5 19 9 21 1 24 28 27 14 29 15 32 16 35 17 36 24 37 18 38
REMARK SMILES IDX 23 40 19 42 22 44 20 45 21 46 26 49
REMARK H PARENT 11 6 12 7 12 8 13 9 25 10 27 11 4 20 8 22 9 23 1 25 1 26 28 28
REMARK H PARENT 14 30 14 31 15 33 15 34 17 39 24 41 18 43 22 47 20 48 26 50
REMARK Flexibility Score: inf
ROOT
ATOM      1  C   UNL     1     -48.122  32.004  26.100  1.00  0.00     0.064 C 
ATOM      2  C   UNL     1     -48.896  33.342  26.078  1.00  0.00    -0.024 C 
ATOM      3  C   UNL     1     -48.020  34.313  26.866  1.00  0.00    -0.010 C 
ATOM      4  C   UNL     1     -46.638  33.970  26.329  1.00  0.00     0.085 C 
ATOM      5  C   UNL     1     -46.639  32.432  26.292  1.00  0.00     0.101 C 
ATOM      6  H   UNL     1     -48.454  31.424  26.972  1.00  0.00     0.056 H 
ATOM      7  H   UNL     1     -49.013  33.690  25.052  1.00  0.00     0.029 H 
ATOM      8  H   UNL     1     -49.892  33.242  26.522  1.00  0.00     0.029 H 
ATOM      9  H   UNL     1     -48.070  34.031  27.929  1.00  0.00     0.033 H 
ATOM     10  H   UNL     1     -46.492  34.363  25.318  1.00  0.00     0.063 H 
ATOM     11  H   UNL     1     -45.962  32.087  25.505  1.00  0.00     0.065 H 
ENDROOT
BRANCH   1  12
ATOM     12  N   UNL     1     -48.329  31.111  24.964  1.00  0.00    -0.327 N 
ATOM     13  C   UNL     1     -49.076  27.967  23.503  1.00  0.00     0.136 A 
ATOM     14  N   UNL     1     -49.197  27.173  24.582  1.00  0.00    -0.219 NA
ATOM     15  C   UNL     1     -48.750  29.319  23.684  1.00  0.00     0.061 A 
ATOM     16  C   UNL     1     -48.981  27.714  25.795  1.00  0.00     0.120 A 
ATOM     17  C   UNL     1     -48.581  29.757  24.993  1.00  0.00     0.145 A 
ATOM     18  C   UNL     1     -48.512  30.433  22.839  1.00  0.00    -0.031 A 
ATOM     19  N   UNL     1     -48.663  28.984  26.090  1.00  0.00    -0.218 NA
ATOM     20  H   UNL     1     -49.078  27.038  26.641  1.00  0.00     0.106 H 
ATOM     21  C   UNL     1     -48.205  31.507  23.646  1.00  0.00     0.007 A 
ATOM     22  H   UNL     1     -48.537  30.444  21.758  1.00  0.00     0.065 H 
ATOM     23  H   UNL     1     -47.926  32.522  23.390  1.00  0.00     0.082 H 
BRANCH  13  24
ATOM     24  N   UNL     1     -49.267  27.381  22.258  1.00  0.00    -0.383 N 
ATOM     25  H   UNL     1     -48.669  26.567  22.165  1.00  0.00     0.158 HD
ATOM     26  H   UNL     1     -49.248  28.034  21.486  1.00  0.00     0.158 HD
ENDBRANCH  13  24
ENDBRANCH   1  12
BRANCH   5  27
ATOM     27  O   UNL     1     -46.142  31.907  27.532  1.00  0.00    -0.388 OA
ATOM     28  H   UNL     1     -46.882  31.963  28.171  1.00  0.00     0.211 HD
ENDBRANCH   5  27
BRANCH   3  29
ATOM     29  C   UNL     1     -48.425  35.797  26.806  1.00  0.00    -0.044 C 
ATOM     30  H   UNL     1     -49.475  35.831  26.486  1.00  0.00     0.027 H 
ATOM     31  H   UNL     1     -47.857  36.281  26.001  1.00  0.00     0.027 H 
BRANCH  29  32
ATOM     32  C   UNL     1     -48.338  36.642  28.090  1.00  0.00    -0.027 C 
ATOM     33  H   UNL     1     -49.214  37.304  28.127  1.00  0.00     0.032 H 
ATOM     34  H   UNL     1     -48.435  35.991  28.967  1.00  0.00     0.032 H 
BRANCH  32  35
ATOM     35  C   UNL     1     -47.113  37.515  28.211  1.00  0.00    -0.047 A 
ATOM     36  C   UNL     1     -46.850  38.500  27.246  1.00  0.00    -0.057 A 
ATOM     37  C   UNL     1     -46.238  37.358  29.302  1.00  0.00    -0.048 A 
ATOM     38  C   UNL     1     -45.763  39.376  27.365  1.00  0.00    -0.036 A 
ATOM     39  H   UNL     1     -47.509  38.613  26.387  1.00  0.00     0.063 H 
ATOM     40  C   UNL     1     -45.147  38.233  29.439  1.00  0.00     0.020 A 
ATOM     41  H   UNL     1     -46.413  36.591  30.051  1.00  0.00     0.063 H 
ATOM     42  C   UNL     1     -44.941  39.219  28.482  1.00  0.00     0.065 A 
ATOM     43  H   UNL     1     -45.582  40.150  26.626  1.00  0.00     0.065 H 
ATOM     44  C   UNL     1     -44.104  38.423  30.372  1.00  0.00     0.057 A 
ATOM     45  N   UNL     1     -43.838  39.913  28.910  1.00  0.00    -0.278 N 
ATOM     46  N   UNL     1     -43.311  39.451  30.060  1.00  0.00    -0.183 NA
ATOM     47  H   UNL     1     -43.900  37.858  31.272  1.00  0.00     0.087 H 
ATOM     48  H   UNL     1     -43.407  40.717  28.470  1.00  0.00     0.190 HD
ENDBRANCH  32  35
ENDBRANCH  29  32
ENDBRANCH   3  29
BRANCH   4  49
ATOM     49  O   UNL     1     -45.612  34.465  27.179  1.00  0.00    -0.390 OA
ATOM     50  H   UNL     1     -45.091  35.105  26.661  1.00  0.00     0.211 HD
ENDBRANCH   4  49
TORSDOF 7
ENDMDL
MODEL 5
REMARK VINA RESULT:      -9.3      1.092      2.153
REMARK SMILES Nc1ncnc2c1ccn2[C@@H]1C[C@H](CCc2ccc3[nH]ncc3c2)[C@@H](O)[C@H]1O
REMARK SMILES IDX 11 1 12 2 13 3 25 4 27 5 10 12 2 13 3 14 7 15 4 16 6 17 8 18
REMARK SMILES IDX 5 19 9 21 1 24 28 27 14 29 15 32 16 35 17 36 24 37 18 38
REMARK SMILES IDX 23 40 19 42 22 44 20 45 21 46 26 49
REMARK H PARENT 11 6 12 7 12 8 13 9 25 10 27 11 4 20 8 22 9 23 1 25 1 26 28 28
REMARK H PARENT 14 30 14 31 15 33 15 34 17 39 24 41 18 43 22 47 20 48 26 50
REMARK Flexibility Score: inf
ROOT
ATOM      1  C   UNL     1     -45.073  38.796  28.526  1.00  0.00     0.064 C 
ATOM      2  C   UNL     1     -45.151  37.717  27.421  1.00  0.00    -0.024 C 
ATOM      3  C   UNL     1     -46.556  37.134  27.543  1.00  0.00    -0.010 C 
ATOM      4  C   UNL     1     -47.385  38.395  27.744  1.00  0.00     0.085 C 
ATOM      5  C   UNL     1     -46.554  39.214  28.746  1.00  0.00     0.101 C 
ATOM      6  H   UNL     1     -44.681  38.330  29.440  1.00  0.00     0.056 H 
ATOM      7  H   UNL     1     -45.017  38.175  26.441  1.00  0.00     0.029 H 
ATOM      8  H   UNL     1     -44.380  36.950  27.549  1.00  0.00     0.029 H 
ATOM      9  H   UNL     1     -46.596  36.531  28.462  1.00  0.00     0.033 H 
ATOM     10  H   UNL     1     -47.494  38.956  26.810  1.00  0.00     0.063 H 
ATOM     11  H   UNL     1     -46.752  40.280  28.596  1.00  0.00     0.065 H 
ENDROOT
BRANCH   1  12
ATOM     12  N   UNL     1     -44.180  39.924  28.275  1.00  0.00    -0.327 N 
ATOM     13  C   UNL     1     -42.999  42.661  26.353  1.00  0.00     0.136 A 
ATOM     14  N   UNL     1     -43.771  42.591  25.253  1.00  0.00    -0.219 NA
ATOM     15  C   UNL     1     -43.161  41.700  27.361  1.00  0.00     0.061 A 
ATOM     16  C   UNL     1     -44.659  41.583  25.165  1.00  0.00     0.120 A 
ATOM     17  C   UNL     1     -44.134  40.728  27.157  1.00  0.00     0.145 A 
ATOM     18  C   UNL     1     -42.548  41.418  28.610  1.00  0.00    -0.031 A 
ATOM     19  N   UNL     1     -44.899  40.611  26.058  1.00  0.00    -0.218 NA
ATOM     20  H   UNL     1     -45.256  41.555  24.257  1.00  0.00     0.106 H 
ATOM     21  C   UNL     1     -43.156  40.295  29.126  1.00  0.00     0.007 A 
ATOM     22  H   UNL     1     -41.736  41.963  29.071  1.00  0.00     0.065 H 
ATOM     23  H   UNL     1     -42.956  39.741  30.035  1.00  0.00     0.082 H 
BRANCH  13  24
ATOM     24  N   UNL     1     -42.064  43.686  26.409  1.00  0.00    -0.383 N 
ATOM     25  H   UNL     1     -41.613  43.791  25.507  1.00  0.00     0.158 HD
ATOM     26  H   UNL     1     -41.447  43.640  27.209  1.00  0.00     0.158 HD
ENDBRANCH  13  24
ENDBRANCH   1  12
BRANCH   5  27
ATOM     27  O   UNL     1     -46.950  38.901  30.090  1.00  0.00    -0.388 OA
ATOM     28  H   UNL     1     -46.513  39.561  30.666  1.00  0.00     0.211 HD
ENDBRANCH   5  27
BRANCH   3  29
ATOM     29  C   UNL     1     -47.006  36.198  26.407  1.00  0.00    -0.044 C 
ATOM     30  H   UNL     1     -46.097  35.755  25.978  1.00  0.00     0.027 H 
ATOM     31  H   UNL     1     -47.442  36.807  25.605  1.00  0.00     0.027 H 
BRANCH  29  32
ATOM     32  C   UNL     1     -47.942  35.023  26.741  1.00  0.00    -0.027 C 
ATOM     33  H   UNL     1     -47.823  34.778  27.805  1.00  0.00     0.032 H 
ATOM     34  H   UNL     1     -48.986  35.341  26.636  1.00  0.00     0.032 H 
BRANCH  32  35
ATOM     35  C   UNL     1     -47.695  33.754  25.961  1.00  0.00    -0.047 A 
ATOM     36  C   UNL     1     -46.493  33.580  25.258  1.00  0.00    -0.057 A 
ATOM     37  C   UNL     1     -48.663  32.732  25.950  1.00  0.00    -0.048 A 
ATOM     38  C   UNL     1     -46.200  32.387  24.584  1.00  0.00    -0.036 A 
ATOM     39  H   UNL     1     -45.750  34.375  25.243  1.00  0.00     0.063 H 
ATOM     40  C   UNL     1     -48.381  31.526  25.284  1.00  0.00     0.020 A 
ATOM     41  H   UNL     1     -49.608  32.852  26.472  1.00  0.00     0.063 H 
ATOM     42  C   UNL     1     -47.165  31.379  24.630  1.00  0.00     0.065 A 
ATOM     43  H   UNL     1     -45.256  32.253  24.064  1.00  0.00     0.065 H 
ATOM     44  C   UNL     1     -49.043  30.296  25.080  1.00  0.00     0.057 A 
ATOM     45  N   UNL     1     -47.181  30.107  24.118  1.00  0.00    -0.278 N 
ATOM     46  N   UNL     1     -48.312  29.424  24.380  1.00  0.00    -0.183 NA
ATOM     47  H   UNL     1     -50.024  29.999  25.426  1.00  0.00     0.087 H 
ATOM     48  H   UNL     1     -46.448  29.643  23.594  1.00  0.00     0.190 HD
ENDBRANCH  32  35
ENDBRANCH  29  32
ENDBRANCH   3  29
BRANCH   4  49
ATOM     49  O   UNL     1     -48.673  38.093  28.265  1.00  0.00    -0.390 OA
ATOM     50  H   UNL     1     -49.166  38.932  28.319  1.00  0.00     0.211 HD
ENDBRANCH   4  49
TORSDOF 7
ENDMDL
MODEL 6
REMARK VINA RESULT:      -9.2      2.100      3.156
REMARK SMILES Nc1ncnc2c1ccn2[C@@H]1C[C@H](CCc2ccc3[nH]ncc3c2)[C@@H](O)[C@H]1O
REMARK SMILES IDX 11 1 12 2 13 3 25 4 27 5 10 12 2 13 3 14 7 15 4 16 6 17 8 18
REMARK SMILES IDX 5 19 9 21 1 24 28 27 14 29 15 32 16 35 17 36 24 37 18 38
REMARK SMILES IDX 23 40 19 42 22 44 20 45 21 46 26 49
REMARK H PARENT 11 6 12 7 12 8 13 9 25 10 27 11 4 20 8 22 9 23 1 25 1 26 28 28
REMARK H PARENT 14 30 14 31 15 33 15 34 17 39 24 41 18 43 22 47 20 48 26 50
REMARK Flexibility Score: inf
ROOT
ATOM      1  C   UNL     1     -44.884  38.695  27.883  1.00  0.00     0.064 C 
ATOM      2  C   UNL     1     -45.824  37.565  27.404  1.00  0.00    -0.024 C 
ATOM      3  C   UNL     1     -46.118  36.744  28.657  1.00  0.00    -0.010 C 
ATOM      4  C   UNL     1     -46.349  37.843  29.685  1.00  0.00     0.085 C 
ATOM      5  C   UNL     1     -45.223  38.849  29.393  1.00  0.00     0.101 C 
ATOM      6  H   UNL     1     -43.846  38.355  27.771  1.00  0.00     0.056 H 
ATOM      7  H   UNL     1     -46.747  37.988  27.007  1.00  0.00     0.029 H 
ATOM      8  H   UNL     1     -45.360  36.957  26.620  1.00  0.00     0.029 H 
ATOM      9  H   UNL     1     -45.205  36.192  28.925  1.00  0.00     0.033 H 
ATOM     10  H   UNL     1     -47.321  38.326  29.544  1.00  0.00     0.063 H 
ATOM     11  H   UNL     1     -45.548  39.853  29.685  1.00  0.00     0.065 H 
ENDROOT
BRANCH   1  12
ATOM     12  N   UNL     1     -44.943  39.951  27.141  1.00  0.00    -0.327 N 
ATOM     13  C   UNL     1     -46.621  42.818  25.899  1.00  0.00     0.136 A 
ATOM     14  N   UNL     1     -47.887  42.607  26.305  1.00  0.00    -0.219 NA
ATOM     15  C   UNL     1     -45.642  41.858  26.191  1.00  0.00     0.061 A 
ATOM     16  C   UNL     1     -48.159  41.464  26.963  1.00  0.00     0.120 A 
ATOM     17  C   UNL     1     -46.051  40.736  26.903  1.00  0.00     0.145 A 
ATOM     18  C   UNL     1     -44.257  41.700  25.926  1.00  0.00    -0.031 A 
ATOM     19  N   UNL     1     -47.310  40.479  27.295  1.00  0.00    -0.218 NA
ATOM     20  H   UNL     1     -49.194  41.325  27.264  1.00  0.00     0.106 H 
ATOM     21  C   UNL     1     -43.865  40.499  26.474  1.00  0.00     0.007 A 
ATOM     22  H   UNL     1     -43.622  42.378  25.373  1.00  0.00     0.065 H 
ATOM     23  H   UNL     1     -42.904  39.999  26.458  1.00  0.00     0.082 H 
BRANCH  13  24
ATOM     24  N   UNL     1     -46.369  43.985  25.189  1.00  0.00    -0.383 N 
ATOM     25  H   UNL     1     -45.380  44.053  24.978  1.00  0.00     0.158 HD
ATOM     26  H   UNL     1     -46.794  44.811  25.587  1.00  0.00     0.158 HD
ENDBRANCH  13  24
ENDBRANCH   1  12
BRANCH   5  27
ATOM     27  O   UNL     1     -44.065  38.539  30.182  1.00  0.00    -0.388 OA
ATOM     28  H   UNL     1     -43.421  38.123  29.572  1.00  0.00     0.211 HD
ENDBRANCH   5  27
BRANCH   3  29
ATOM     29  C   UNL     1     -47.228  35.685  28.532  1.00  0.00    -0.044 C 
ATOM     30  H   UNL     1     -47.965  35.898  29.317  1.00  0.00     0.027 H 
ATOM     31  H   UNL     1     -46.804  34.704  28.785  1.00  0.00     0.027 H 
BRANCH  29  32
ATOM     32  C   UNL     1     -48.017  35.589  27.214  1.00  0.00    -0.027 C 
ATOM     33  H   UNL     1     -49.089  35.575  27.453  1.00  0.00     0.032 H 
ATOM     34  H   UNL     1     -47.868  36.504  26.628  1.00  0.00     0.032 H 
BRANCH  32  35
ATOM     35  C   UNL     1     -47.731  34.370  26.372  1.00  0.00    -0.047 A 
ATOM     36  C   UNL     1     -46.516  34.261  25.676  1.00  0.00    -0.057 A 
ATOM     37  C   UNL     1     -48.673  33.326  26.296  1.00  0.00    -0.048 A 
ATOM     38  C   UNL     1     -46.187  33.112  24.945  1.00  0.00    -0.036 A 
ATOM     39  H   UNL     1     -45.792  35.073  25.712  1.00  0.00     0.063 H 
ATOM     40  C   UNL     1     -48.354  32.164  25.572  1.00  0.00     0.020 A 
ATOM     41  H   UNL     1     -49.626  33.397  26.812  1.00  0.00     0.063 H 
ATOM     42  C   UNL     1     -47.126  32.080  24.927  1.00  0.00     0.065 A 
ATOM     43  H   UNL     1     -45.234  33.028  24.431  1.00  0.00     0.065 H 
ATOM     44  C   UNL     1     -48.983  30.930  25.296  1.00  0.00     0.057 A 
ATOM     45  N   UNL     1     -47.106  30.837  24.349  1.00  0.00    -0.278 N 
ATOM     46  N   UNL     1     -48.223  30.114  24.562  1.00  0.00    -0.183 NA
ATOM     47  H   UNL     1     -49.960  30.593  25.614  1.00  0.00     0.087 H 
ATOM     48  H   UNL     1     -46.356  30.419  23.811  1.00  0.00     0.190 HD
ENDBRANCH  32  35
ENDBRANCH  29  32
ENDBRANCH   3  29
BRANCH   4  49
ATOM     49  O   UNL     1     -46.261  37.340  31.012  1.00  0.00    -0.390 OA
ATOM     50  H   UNL     1     -47.101  36.886  31.206  1.00  0.00     0.211 HD
ENDBRANCH   4  49
TORSDOF 7
ENDMDL
MODEL 7
REMARK VINA RESULT:      -9.2      2.361      9.807
REMARK SMILES Nc1ncnc2c1ccn2[C@@H]1C[C@H](CCc2ccc3[nH]ncc3c2)[C@@H](O)[C@H]1O
REMARK SMILES IDX 11 1 12 2 13 3 25 4 27 5 10 12 2 13 3 14 7 15 4 16 6 17 8 18
REMARK SMILES IDX 5 19 9 21 1 24 28 27 14 29 15 32 16 35 17 36 24 37 18 38
REMARK SMILES IDX 23 40 19 42 22 44 20 45 21 46 26 49
REMARK H PARENT 11 6 12 7 12 8 13 9 25 10 27 11 4 20 8 22 9 23 1 25 1 26 28 28
REMARK H PARENT 14 30 14 31 15 33 15 34 17 39 24 41 18 43 22 47 20 48 26 50
REMARK Flexibility Score: inf
ROOT
ATOM      1  C   UNL     1     -47.610  32.515  25.990  1.00  0.00     0.064 C 
ATOM      2  C   UNL     1     -48.284  33.906  25.947  1.00  0.00    -0.024 C 
ATOM      3  C   UNL     1     -47.618  34.698  27.070  1.00  0.00    -0.010 C 
ATOM      4  C   UNL     1     -46.158  34.308  26.883  1.00  0.00     0.085 C 
ATOM      5  C   UNL     1     -46.221  32.791  26.633  1.00  0.00     0.101 C 
ATOM      6  H   UNL     1     -48.199  31.864  26.651  1.00  0.00     0.056 H 
ATOM      7  H   UNL     1     -48.094  34.384  24.986  1.00  0.00     0.029 H 
ATOM      8  H   UNL     1     -49.368  33.836  26.088  1.00  0.00     0.029 H 
ATOM      9  H   UNL     1     -47.975  34.294  28.029  1.00  0.00     0.033 H 
ATOM     10  H   UNL     1     -45.718  34.807  26.014  1.00  0.00     0.063 H 
ATOM     11  H   UNL     1     -45.368  32.489  26.018  1.00  0.00     0.065 H 
ENDROOT
BRANCH   1  12
ATOM     12  N   UNL     1     -47.534  31.787  24.727  1.00  0.00    -0.327 N 
ATOM     13  C   UNL     1     -48.950  29.979  22.024  1.00  0.00     0.136 A 
ATOM     14  N   UNL     1     -50.244  29.895  22.384  1.00  0.00    -0.219 NA
ATOM     15  C   UNL     1     -48.045  30.623  22.880  1.00  0.00     0.061 A 
ATOM     16  C   UNL     1     -50.608  30.423  23.568  1.00  0.00     0.120 A 
ATOM     17  C   UNL     1     -48.558  31.149  24.060  1.00  0.00     0.145 A 
ATOM     18  C   UNL     1     -46.650  30.886  22.879  1.00  0.00    -0.031 A 
ATOM     19  N   UNL     1     -49.836  31.055  24.465  1.00  0.00    -0.218 NA
ATOM     20  H   UNL     1     -51.659  30.325  23.828  1.00  0.00     0.106 H 
ATOM     21  C   UNL     1     -46.355  31.555  24.046  1.00  0.00     0.007 A 
ATOM     22  H   UNL     1     -45.936  30.596  22.120  1.00  0.00     0.065 H 
ATOM     23  H   UNL     1     -45.405  31.900  24.438  1.00  0.00     0.082 H 
BRANCH  13  24
ATOM     24  N   UNL     1     -48.587  29.396  20.817  1.00  0.00    -0.383 N 
ATOM     25  H   UNL     1     -47.582  29.270  20.783  1.00  0.00     0.158 HD
ATOM     26  H   UNL     1     -49.006  29.830  20.006  1.00  0.00     0.158 HD
ENDBRANCH  13  24
ENDBRANCH   1  12
BRANCH   5  27
ATOM     27  O   UNL     1     -46.114  32.080  27.875  1.00  0.00    -0.388 OA
ATOM     28  H   UNL     1     -45.917  31.150  27.643  1.00  0.00     0.211 HD
ENDBRANCH   5  27
BRANCH   3  29
ATOM     29  C   UNL     1     -47.920  36.206  27.110  1.00  0.00    -0.044 C 
ATOM     30  H   UNL     1     -48.993  36.325  26.905  1.00  0.00     0.027 H 
ATOM     31  H   UNL     1     -47.405  36.688  26.269  1.00  0.00     0.027 H 
BRANCH  29  32
ATOM     32  C   UNL     1     -47.642  36.984  28.409  1.00  0.00    -0.027 C 
ATOM     33  H   UNL     1     -48.557  37.521  28.693  1.00  0.00     0.032 H 
ATOM     34  H   UNL     1     -47.458  36.279  29.229  1.00  0.00     0.032 H 
BRANCH  32  35
ATOM     35  C   UNL     1     -46.532  38.004  28.330  1.00  0.00    -0.047 A 
ATOM     36  C   UNL     1     -45.534  38.040  29.316  1.00  0.00    -0.057 A 
ATOM     37  C   UNL     1     -46.483  38.913  27.256  1.00  0.00    -0.048 A 
ATOM     38  C   UNL     1     -44.450  38.924  29.236  1.00  0.00    -0.036 A 
ATOM     39  H   UNL     1     -45.577  37.355  30.161  1.00  0.00     0.063 H 
ATOM     40  C   UNL     1     -45.398  39.802  27.157  1.00  0.00     0.020 A 
ATOM     41  H   UNL     1     -47.254  38.915  26.491  1.00  0.00     0.063 H 
ATOM     42  C   UNL     1     -44.411  39.781  28.134  1.00  0.00     0.065 A 
ATOM     43  H   UNL     1     -43.670  38.926  29.991  1.00  0.00     0.065 H 
ATOM     44  C   UNL     1     -44.978  40.800  26.251  1.00  0.00     0.057 A 
ATOM     45  N   UNL     1     -43.496  40.724  27.743  1.00  0.00    -0.278 N 
ATOM     46  N   UNL     1     -43.814  41.357  26.598  1.00  0.00    -0.183 NA
ATOM     47  H   UNL     1     -45.470  41.133  25.347  1.00  0.00     0.087 H 
ATOM     48  H   UNL     1     -42.629  40.971  28.206  1.00  0.00     0.190 HD
ENDBRANCH  32  35
ENDBRANCH  29  32
ENDBRANCH   3  29
BRANCH   4  49
ATOM     49  O   UNL     1     -45.388  34.609  28.039  1.00  0.00    -0.390 OA
ATOM     50  H   UNL     1     -44.702  33.922  28.116  1.00  0.00     0.211 HD
ENDBRANCH   4  49
TORSDOF 7
ENDMDL
