MODEL 1
REMARK VINA RESULT:     -10.8      0.000      0.000
REMARK SMILES Nc1ncnc2c1ccn2[C@@H]1C[C@H](CCc2ccc3cncnc3c2)[C@@H](O)[C@H]1O
REMARK SMILES IDX 11 1 12 2 13 3 26 4 28 5 10 12 2 13 3 14 7 15 4 16 6 17 8 18
REMARK SMILES IDX 5 19 9 21 1 24 29 27 14 29 15 32 16 35 17 36 25 37 18 38
REMARK SMILES IDX 24 40 19 42 23 44 20 45 22 46 21 47 27 50
REMARK H PARENT 11 6 12 7 12 8 13 9 26 10 28 11 4 20 8 22 9 23 1 25 1 26 29 28
REMARK H PARENT 14 30 14 31 15 33 15 34 17 39 25 41 18 43 20 48 22 49 27 51
REMARK Flexibility Score: inf
ROOT
ATOM      1  C   UNL     1     -44.991  37.839  29.005  1.00  0.00     0.064 C 
ATOM      2  C   UNL     1     -44.964  36.609  28.077  1.00  0.00    -0.024 C 
ATOM      3  C   UNL     1     -46.222  35.768  28.393  1.00  0.00    -0.010 C 
ATOM      4  C   UNL     1     -46.749  36.377  29.701  1.00  0.00     0.085 C 
ATOM      5  C   UNL     1     -46.400  37.866  29.608  1.00  0.00     0.101 C 
ATOM      6  H   UNL     1     -44.265  37.675  29.814  1.00  0.00     0.056 H 
ATOM      7  H   UNL     1     -44.065  36.019  28.294  1.00  0.00     0.029 H 
ATOM      8  H   UNL     1     -44.897  36.890  27.025  1.00  0.00     0.029 H 
ATOM      9  H   UNL     1     -45.928  34.724  28.557  1.00  0.00     0.033 H 
ATOM     10  H   UNL     1     -47.815  36.215  29.883  1.00  0.00     0.063 H 
ATOM     11  H   UNL     1     -47.123  38.395  28.982  1.00  0.00     0.065 H 
ENDROOT
BRANCH   1  12
ATOM     12  N   UNL     1     -44.584  39.075  28.354  1.00  0.00    -0.327 N 
ATOM     13  C   UNL     1     -42.648  42.034  28.172  1.00  0.00     0.136 A 
ATOM     14  N   UNL     1     -41.865  41.928  29.262  1.00  0.00    -0.219 NA
ATOM     15  C   UNL     1     -43.575  41.018  27.898  1.00  0.00     0.061 A 
ATOM     16  C   UNL     1     -41.998  40.832  30.032  1.00  0.00     0.120 A 
ATOM     17  C   UNL     1     -43.618  39.951  28.788  1.00  0.00     0.145 A 
ATOM     18  C   UNL     1     -44.547  40.761  26.894  1.00  0.00    -0.031 A 
ATOM     19  N   UNL     1     -42.851  39.805  29.883  1.00  0.00    -0.218 NA
ATOM     20  H   UNL     1     -41.332  40.775  30.887  1.00  0.00     0.106 H 
ATOM     21  C   UNL     1     -45.156  39.564  27.199  1.00  0.00     0.007 A 
ATOM     22  H   UNL     1     -44.773  41.382  26.038  1.00  0.00     0.065 H 
ATOM     23  H   UNL     1     -45.940  39.018  26.688  1.00  0.00     0.082 H 
BRANCH  13  24
ATOM     24  N   UNL     1     -42.499  43.170  27.389  1.00  0.00    -0.383 N 
ATOM     25  H   UNL     1     -42.190  43.994  27.885  1.00  0.00     0.158 HD
ATOM     26  H   UNL     1     -42.026  42.954  26.521  1.00  0.00     0.158 HD
ENDBRANCH  13  24
ENDBRANCH   1  12
BRANCH   5  27
ATOM     27  O   UNL     1     -46.415  38.452  30.910  1.00  0.00    -0.388 OA
ATOM     28  H   UNL     1     -46.674  39.385  30.769  1.00  0.00     0.211 HD
ENDBRANCH   5  27
BRANCH   3  29
ATOM     29  C   UNL     1     -47.293  35.815  27.285  1.00  0.00    -0.044 C 
ATOM     30  H   UNL     1     -47.696  36.827  27.174  1.00  0.00     0.027 H 
ATOM     31  H   UNL     1     -48.137  35.185  27.598  1.00  0.00     0.027 H 
BRANCH  29  32
ATOM     32  C   UNL     1     -46.828  35.265  25.925  1.00  0.00    -0.027 C 
ATOM     33  H   UNL     1     -47.164  35.937  25.126  1.00  0.00     0.032 H 
ATOM     34  H   UNL     1     -45.732  35.298  25.890  1.00  0.00     0.032 H 
BRANCH  32  35
ATOM     35  C   UNL     1     -47.252  33.851  25.629  1.00  0.00    -0.046 A 
ATOM     36  C   UNL     1     -48.397  33.312  26.223  1.00  0.00    -0.058 A 
ATOM     37  C   UNL     1     -46.510  33.056  24.739  1.00  0.00    -0.032 A 
ATOM     38  C   UNL     1     -48.798  32.015  25.914  1.00  0.00    -0.051 A 
ATOM     39  H   UNL     1     -48.991  33.906  26.914  1.00  0.00     0.063 H 
ATOM     40  C   UNL     1     -46.886  31.757  24.415  1.00  0.00     0.074 A 
ATOM     41  H   UNL     1     -45.613  33.458  24.270  1.00  0.00     0.065 H 
ATOM     42  C   UNL     1     -48.043  31.244  25.012  1.00  0.00     0.019 A 
ATOM     43  H   UNL     1     -49.698  31.611  26.371  1.00  0.00     0.063 H 
ATOM     44  N   UNL     1     -46.149  31.044  23.552  1.00  0.00    -0.236 NA
ATOM     45  C   UNL     1     -48.375  29.946  24.646  1.00  0.00     0.038 A 
ATOM     46  C   UNL     1     -46.572  29.799  23.279  1.00  0.00     0.116 A 
ATOM     47  N   UNL     1     -47.659  29.201  23.784  1.00  0.00    -0.244 NA
ATOM     48  H   UNL     1     -49.255  29.455  25.050  1.00  0.00     0.085 H 
ATOM     49  H   UNL     1     -45.974  29.222  22.581  1.00  0.00     0.106 H 
ENDBRANCH  32  35
ENDBRANCH  29  32
ENDBRANCH   3  29
BRANCH   4  50
ATOM     50  O   UNL     1     -46.032  35.819  30.813  1.00  0.00    -0.390 OA
ATOM     51  H   UNL     1     -45.173  35.510  30.473  1.00  0.00     0.211 HD
ENDBRANCH   4  50
TORSDOF 7
ENDMDL
MODEL 2
REMARK VINA RESULT:     -10.2      1.115      2.203
REMARK SMILES Nc1ncnc2c1ccn2[C@@H]1C[C@H](CCc2ccc3cncnc3c2)[C@@H](O)[C@H]1O
REMARK SMILES IDX 11 1 12 2 13 3 26 4 28 5 10 12 2 13 3 14 7 15 4 16 6 17 8 18
REMARK SMILES IDX 5 19 9 21 1 24 29 27 14 29 15 32 16 35 17 36 25 37 18 38
REMARK SMILES IDX 24 40 19 42 23 44 20 45 22 46 21 47 27 50
REMARK H PARENT 11 6 12 7 12 8 13 9 26 10 28 11 4 20 8 22 9 23 1 25 1 26 29 28
REMARK H PARENT 14 30 14 31 15 33 15 34 17 39 25 41 18 43 20 48 22 49 27 51
REMARK Flexibility Score: inf
ROOT
ATOM      1  C   UNL     1     -44.747  37.753  29.503  1.00  0.00     0.064 C 
ATOM      2  C   UNL     1     -44.926  36.784  28.317  1.00  0.00    -0.024 C 
ATOM      3  C   UNL     1     -46.309  36.112  28.478  1.00  0.00    -0.010 C 
ATOM      4  C   UNL     1     -46.729  36.479  29.909  1.00  0.00     0.085 C 
ATOM      5  C   UNL     1     -46.133  37.870  30.147  1.00  0.00     0.101 C 
ATOM      6  H   UNL     1     -44.062  37.288  30.226  1.00  0.00     0.056 H 
ATOM      7  H   UNL     1     -44.140  36.020  28.360  1.00  0.00     0.029 H 
ATOM      8  H   UNL     1     -44.809  37.287  27.356  1.00  0.00     0.029 H 
ATOM      9  H   UNL     1     -46.195  35.025  28.387  1.00  0.00     0.033 H 
ATOM     10  H   UNL     1     -47.807  36.457  30.088  1.00  0.00     0.063 H 
ATOM     11  H   UNL     1     -46.755  38.642  29.686  1.00  0.00     0.065 H 
ENDROOT
BRANCH   1  12
ATOM     12  N   UNL     1     -44.136  39.021  29.138  1.00  0.00    -0.327 N 
ATOM     13  C   UNL     1     -43.814  41.862  27.048  1.00  0.00     0.136 A 
ATOM     14  N   UNL     1     -44.798  41.666  26.150  1.00  0.00    -0.219 NA
ATOM     15  C   UNL     1     -43.626  40.917  28.068  1.00  0.00     0.061 A 
ATOM     16  C   UNL     1     -45.569  40.572  26.286  1.00  0.00     0.120 A 
ATOM     17  C   UNL     1     -44.485  39.826  28.079  1.00  0.00     0.145 A 
ATOM     18  C   UNL     1     -42.738  40.760  29.167  1.00  0.00    -0.031 A 
ATOM     19  N   UNL     1     -45.480  39.596  27.205  1.00  0.00    -0.218 NA
ATOM     20  H   UNL     1     -46.364  40.464  25.555  1.00  0.00     0.106 H 
ATOM     21  C   UNL     1     -43.070  39.584  29.805  1.00  0.00     0.007 A 
ATOM     22  H   UNL     1     -41.945  41.434  29.461  1.00  0.00     0.065 H 
ATOM     23  H   UNL     1     -42.642  39.110  30.679  1.00  0.00     0.082 H 
BRANCH  13  24
ATOM     24  N   UNL     1     -43.027  42.994  26.894  1.00  0.00    -0.383 N 
ATOM     25  H   UNL     1     -43.007  43.614  27.691  1.00  0.00     0.158 HD
ATOM     26  H   UNL     1     -42.136  42.762  26.473  1.00  0.00     0.158 HD
ENDBRANCH  13  24
ENDBRANCH   1  12
BRANCH   5  27
ATOM     27  O   UNL     1     -46.052  38.133  31.548  1.00  0.00    -0.388 OA
ATOM     28  H   UNL     1     -46.172  37.262  31.981  1.00  0.00     0.211 HD
ENDBRANCH   5  27
BRANCH   3  29
ATOM     29  C   UNL     1     -47.353  36.591  27.450  1.00  0.00    -0.044 C 
ATOM     30  H   UNL     1     -46.867  36.952  26.539  1.00  0.00     0.027 H 
ATOM     31  H   UNL     1     -47.882  37.454  27.876  1.00  0.00     0.027 H 
BRANCH  29  32
ATOM     32  C   UNL     1     -48.436  35.551  27.110  1.00  0.00    -0.027 C 
ATOM     33  H   UNL     1     -48.896  35.187  28.037  1.00  0.00     0.032 H 
ATOM     34  H   UNL     1     -49.243  36.053  26.561  1.00  0.00     0.032 H 
BRANCH  32  35
ATOM     35  C   UNL     1     -47.967  34.392  26.271  1.00  0.00    -0.046 A 
ATOM     36  C   UNL     1     -46.714  34.423  25.652  1.00  0.00    -0.058 A 
ATOM     37  C   UNL     1     -48.777  33.254  26.110  1.00  0.00    -0.032 A 
ATOM     38  C   UNL     1     -46.277  33.330  24.907  1.00  0.00    -0.051 A 
ATOM     39  H   UNL     1     -46.066  35.290  25.761  1.00  0.00     0.063 H 
ATOM     40  C   UNL     1     -48.367  32.151  25.371  1.00  0.00     0.074 A 
ATOM     41  H   UNL     1     -49.757  33.215  26.583  1.00  0.00     0.065 H 
ATOM     42  C   UNL     1     -47.104  32.199  24.770  1.00  0.00     0.019 A 
ATOM     43  H   UNL     1     -45.295  33.358  24.442  1.00  0.00     0.063 H 
ATOM     44  N   UNL     1     -49.174  31.087  25.256  1.00  0.00    -0.236 NA
ATOM     45  C   UNL     1     -46.744  31.068  24.051  1.00  0.00     0.038 A 
ATOM     46  C   UNL     1     -48.713  30.053  24.533  1.00  0.00     0.116 A 
ATOM     47  N   UNL     1     -47.527  29.982  23.915  1.00  0.00    -0.244 NA
ATOM     48  H   UNL     1     -45.783  31.001  23.549  1.00  0.00     0.085 H 
ATOM     49  H   UNL     1     -49.367  29.193  24.440  1.00  0.00     0.106 H 
ENDBRANCH  32  35
ENDBRANCH  29  32
ENDBRANCH   3  29
BRANCH   4  50
ATOM     50  O   UNL     1     -46.119  35.568  30.837  1.00  0.00    -0.390 OA
ATOM     51  H   UNL     1     -45.851  34.781  30.328  1.00  0.00     0.211 HD
ENDBRANCH   4  50
TORSDOF 7
ENDMDL
MODEL 3
REMARK VINA RESULT:     -10.0      1.478      9.539
REMARK SMILES Nc1ncnc2c1ccn2[C@@H]1C[C@H](CCc2ccc3cncnc3c2)[C@@H](O)[C@H]1O
REMARK SMILES IDX 11 1 12 2 13 3 26 4 28 5 10 12 2 13 3 14 7 15 4 16 6 17 8 18
REMARK SMILES IDX 5 19 9 21 1 24 29 27 14 29 15 32 16 35 17 36 25 37 18 38
REMARK SMILES IDX 24 40 19 42 23 44 20 45 22 46 21 47 27 50
REMARK H PARENT 11 6 12 7 12 8 13 9 26 10 28 11 4 20 8 22 9 23 1 25 1 26 29 28
REMARK H PARENT 14 30 14 31 15 33 15 34 17 39 25 41 18 43 20 48 22 49 27 51
REMARK Flexibility Score: inf
ROOT
ATOM      1  C   UNL     1     -47.083  33.880  27.005  1.00  0.00     0.064 C 
ATOM      2  C   UNL     1     -47.998  35.110  26.839  1.00  0.00    -0.024 C 
ATOM      3  C   UNL     1     -47.326  36.286  27.583  1.00  0.00    -0.010 C 
ATOM      4  C   UNL     1     -46.221  35.611  28.409  1.00  0.00     0.085 C 
ATOM      5  C   UNL     1     -45.760  34.426  27.555  1.00  0.00     0.101 C 
ATOM      6  H   UNL     1     -47.531  33.218  27.760  1.00  0.00     0.056 H 
ATOM      7  H   UNL     1     -48.971  34.894  27.299  1.00  0.00     0.029 H 
ATOM      8  H   UNL     1     -48.200  35.333  25.790  1.00  0.00     0.029 H 
ATOM      9  H   UNL     1     -48.058  36.758  28.249  1.00  0.00     0.033 H 
ATOM     10  H   UNL     1     -45.390  36.268  28.684  1.00  0.00     0.063 H 
ATOM     11  H   UNL     1     -45.075  34.758  26.769  1.00  0.00     0.065 H 
ENDROOT
BRANCH   1  12
ATOM     12  N   UNL     1     -46.955  33.076  25.799  1.00  0.00    -0.327 N 
ATOM     13  C   UNL     1     -47.655  30.197  23.860  1.00  0.00     0.136 A 
ATOM     14  N   UNL     1     -48.511  29.523  24.652  1.00  0.00    -0.219 NA
ATOM     15  C   UNL     1     -47.144  31.426  24.301  1.00  0.00     0.061 A 
ATOM     16  C   UNL     1     -48.851  30.076  25.831  1.00  0.00     0.120 A 
ATOM     17  C   UNL     1     -47.568  31.871  25.548  1.00  0.00     0.145 A 
ATOM     18  C   UNL     1     -46.254  32.408  23.789  1.00  0.00    -0.031 A 
ATOM     19  N   UNL     1     -48.423  31.232  26.366  1.00  0.00    -0.218 NA
ATOM     20  H   UNL     1     -49.560  29.512  26.428  1.00  0.00     0.106 H 
ATOM     21  C   UNL     1     -46.151  33.409  24.731  1.00  0.00     0.007 A 
ATOM     22  H   UNL     1     -45.746  32.388  22.835  1.00  0.00     0.065 H 
ATOM     23  H   UNL     1     -45.582  34.330  24.724  1.00  0.00     0.082 H 
BRANCH  13  24
ATOM     24  N   UNL     1     -47.314  29.613  22.649  1.00  0.00    -0.383 N 
ATOM     25  H   UNL     1     -47.616  28.655  22.536  1.00  0.00     0.158 HD
ATOM     26  H   UNL     1     -47.493  30.243  21.878  1.00  0.00     0.158 HD
ENDBRANCH  13  24
ENDBRANCH   1  12
BRANCH   5  27
ATOM     27  O   UNL     1     -45.084  33.470  28.371  1.00  0.00    -0.388 OA
ATOM     28  H   UNL     1     -45.582  33.453  29.214  1.00  0.00     0.211 HD
ENDBRANCH   5  27
BRANCH   3  29
ATOM     29  C   UNL     1     -46.742  37.360  26.643  1.00  0.00    -0.044 C 
ATOM     30  H   UNL     1     -47.162  37.268  25.636  1.00  0.00     0.027 H 
ATOM     31  H   UNL     1     -45.664  37.175  26.540  1.00  0.00     0.027 H 
BRANCH  29  32
ATOM     32  C   UNL     1     -46.882  38.803  27.159  1.00  0.00    -0.027 C 
ATOM     33  H   UNL     1     -47.577  39.355  26.514  1.00  0.00     0.032 H 
ATOM     34  H   UNL     1     -47.361  38.777  28.146  1.00  0.00     0.032 H 
BRANCH  32  35
ATOM     35  C   UNL     1     -45.588  39.560  27.299  1.00  0.00    -0.046 A 
ATOM     36  C   UNL     1     -45.131  40.384  26.267  1.00  0.00    -0.058 A 
ATOM     37  C   UNL     1     -44.828  39.461  28.478  1.00  0.00    -0.032 A 
ATOM     38  C   UNL     1     -43.950  41.106  26.422  1.00  0.00    -0.051 A 
ATOM     39  H   UNL     1     -45.700  40.480  25.345  1.00  0.00     0.063 H 
ATOM     40  C   UNL     1     -43.645  40.169  28.658  1.00  0.00     0.074 A 
ATOM     41  H   UNL     1     -45.168  38.821  29.290  1.00  0.00     0.065 H 
ATOM     42  C   UNL     1     -43.214  40.997  27.616  1.00  0.00     0.019 A 
ATOM     43  H   UNL     1     -43.611  41.755  25.619  1.00  0.00     0.063 H 
ATOM     44  N   UNL     1     -42.963  40.047  29.806  1.00  0.00    -0.236 NA
ATOM     45  C   UNL     1     -42.032  41.685  27.854  1.00  0.00     0.038 A 
ATOM     46  C   UNL     1     -41.832  40.763  29.916  1.00  0.00     0.116 A 
ATOM     47  N   UNL     1     -41.320  41.587  28.993  1.00  0.00    -0.244 NA
ATOM     48  H   UNL     1     -41.611  42.357  27.112  1.00  0.00     0.085 H 
ATOM     49  H   UNL     1     -41.280  40.663  30.845  1.00  0.00     0.106 H 
ENDBRANCH  32  35
ENDBRANCH  29  32
ENDBRANCH   3  29
BRANCH   4  50
ATOM     50  O   UNL     1     -46.781  35.094  29.626  1.00  0.00    -0.390 OA
ATOM     51  H   UNL     1     -46.968  35.858  30.202  1.00  0.00     0.211 HD
ENDBRANCH   4  50
TORSDOF 7
ENDMDL
MODEL 4
REMARK VINA RESULT:      -9.4      1.339      2.013
REMARK SMILES Nc1ncnc2c1ccn2[C@@H]1C[C@H](CCc2ccc3cncnc3c2)[C@@H](O)[C@H]1O
REMARK SMILES IDX 11 1 12 2 13 3 26 4 28 5 10 12 2 13 3 14 7 15 4 16 6 17 8 18
REMARK SMILES IDX 5 19 9 21 1 24 29 27 14 29 15 32 16 35 17 36 25 37 18 38
REMARK SMILES IDX 24 40 19 42 23 44 20 45 22 46 21 47 27 50
REMARK H PARENT 11 6 12 7 12 8 13 9 26 10 28 11 4 20 8 22 9 23 1 25 1 26 29 28
REMARK H PARENT 14 30 14 31 15 33 15 34 17 39 25 41 18 43 20 48 22 49 27 51
REMARK Flexibility Score: inf
ROOT
ATOM      1  C   UNL     1     -46.175  37.868  29.108  1.00  0.00     0.064 C 
ATOM      2  C   UNL     1     -45.784  36.393  29.327  1.00  0.00    -0.024 C 
ATOM      3  C   UNL     1     -46.672  35.540  28.393  1.00  0.00    -0.010 C 
ATOM      4  C   UNL     1     -47.750  36.524  27.915  1.00  0.00     0.085 C 
ATOM      5  C   UNL     1     -47.039  37.878  27.842  1.00  0.00     0.101 C 
ATOM      6  H   UNL     1     -46.793  38.189  29.959  1.00  0.00     0.056 H 
ATOM      7  H   UNL     1     -45.984  36.123  30.371  1.00  0.00     0.029 H 
ATOM      8  H   UNL     1     -44.717  36.224  29.168  1.00  0.00     0.029 H 
ATOM      9  H   UNL     1     -47.132  34.730  28.973  1.00  0.00     0.033 H 
ATOM     10  H   UNL     1     -48.224  36.256  26.967  1.00  0.00     0.063 H 
ATOM     11  H   UNL     1     -46.451  37.959  26.924  1.00  0.00     0.065 H 
ENDROOT
BRANCH   1  12
ATOM     12  N   UNL     1     -45.040  38.778  29.078  1.00  0.00    -0.327 N 
ATOM     13  C   UNL     1     -43.099  41.323  27.562  1.00  0.00     0.136 A 
ATOM     14  N   UNL     1     -43.815  41.605  26.457  1.00  0.00    -0.219 NA
ATOM     15  C   UNL     1     -43.567  40.336  28.442  1.00  0.00     0.061 A 
ATOM     16  C   UNL     1     -44.964  40.932  26.259  1.00  0.00     0.120 A 
ATOM     17  C   UNL     1     -44.760  39.708  28.105  1.00  0.00     0.145 A 
ATOM     18  C   UNL     1     -43.126  39.763  29.666  1.00  0.00    -0.031 A 
ATOM     19  N   UNL     1     -45.506  39.964  27.016  1.00  0.00    -0.218 NA
ATOM     20  H   UNL     1     -45.522  41.206  25.369  1.00  0.00     0.106 H 
ATOM     21  C   UNL     1     -44.047  38.805  30.033  1.00  0.00     0.007 A 
ATOM     22  H   UNL     1     -42.235  40.025  30.220  1.00  0.00     0.065 H 
ATOM     23  H   UNL     1     -44.080  38.151  30.894  1.00  0.00     0.082 H 
BRANCH  13  24
ATOM     24  N   UNL     1     -41.917  42.024  27.751  1.00  0.00    -0.383 N 
ATOM     25  H   UNL     1     -42.032  43.003  27.974  1.00  0.00     0.158 HD
ATOM     26  H   UNL     1     -41.270  41.497  28.323  1.00  0.00     0.158 HD
ENDBRANCH  13  24
ENDBRANCH   1  12
BRANCH   5  27
ATOM     27  O   UNL     1     -48.000  38.935  27.858  1.00  0.00    -0.388 OA
ATOM     28  H   UNL     1     -48.475  38.838  28.709  1.00  0.00     0.211 HD
ENDBRANCH   5  27
BRANCH   3  29
ATOM     29  C   UNL     1     -45.909  34.927  27.202  1.00  0.00    -0.044 C 
ATOM     30  H   UNL     1     -45.505  33.943  27.461  1.00  0.00     0.027 H 
ATOM     31  H   UNL     1     -45.040  35.564  26.988  1.00  0.00     0.027 H 
BRANCH  29  32
ATOM     32  C   UNL     1     -46.719  34.853  25.896  1.00  0.00    -0.027 C 
ATOM     33  H   UNL     1     -47.586  35.520  25.967  1.00  0.00     0.032 H 
ATOM     34  H   UNL     1     -46.106  35.258  25.080  1.00  0.00     0.032 H 
BRANCH  32  35
ATOM     35  C   UNL     1     -47.157  33.470  25.493  1.00  0.00    -0.046 A 
ATOM     36  C   UNL     1     -48.330  32.916  26.013  1.00  0.00    -0.058 A 
ATOM     37  C   UNL     1     -46.399  32.720  24.576  1.00  0.00    -0.032 A 
ATOM     38  C   UNL     1     -48.744  31.650  25.606  1.00  0.00    -0.051 A 
ATOM     39  H   UNL     1     -48.936  33.475  26.723  1.00  0.00     0.063 H 
ATOM     40  C   UNL     1     -46.787  31.454  24.155  1.00  0.00     0.074 A 
ATOM     41  H   UNL     1     -45.481  33.135  24.164  1.00  0.00     0.065 H 
ATOM     42  C   UNL     1     -47.972  30.925  24.679  1.00  0.00     0.019 A 
ATOM     43  H   UNL     1     -49.665  31.235  26.005  1.00  0.00     0.063 H 
ATOM     44  N   UNL     1     -46.034  30.784  23.271  1.00  0.00    -0.236 NA
ATOM     45  C   UNL     1     -48.314  29.661  24.218  1.00  0.00     0.038 A 
ATOM     46  C   UNL     1     -46.470  29.569  22.903  1.00  0.00     0.116 A 
ATOM     47  N   UNL     1     -47.583  28.960  23.332  1.00  0.00    -0.244 NA
ATOM     48  H   UNL     1     -49.216  29.162  24.559  1.00  0.00     0.085 H 
ATOM     49  H   UNL     1     -45.859  29.027  22.188  1.00  0.00     0.106 H 
ENDBRANCH  32  35
ENDBRANCH  29  32
ENDBRANCH   3  29
BRANCH   4  50
ATOM     50  O   UNL     1     -48.787  36.616  28.904  1.00  0.00    -0.390 OA
ATOM     51  H   UNL     1     -49.636  36.643  28.425  1.00  0.00     0.211 HD
ENDBRANCH   4  50
TORSDOF 7
ENDMDL
MODEL 5
REMARK VINA RESULT:      -9.2      1.676      2.205
REMARK SMILES Nc1ncnc2c1ccn2[C@@H]1C[C@H](CCc2ccc3cncnc3c2)[C@@H](O)[C@H]1O
REMARK SMILES IDX 11 1 12 2 13 3 26 4 28 5 10 12 2 13 3 14 7 15 4 16 6 17 8 18
REMARK SMILES IDX 5 19 9 21 1 24 29 27 14 29 15 32 16 35 17 36 25 37 18 38
REMARK SMILES IDX 24 40 19 42 23 44 20 45 22 46 21 47 27 50
REMARK H PARENT 11 6 12 7 12 8 13 9 26 10 28 11 4 20 8 22 9 23 1 25 1 26 29 28
REMARK H PARENT 14 30 14 31 15 33 15 34 17 39 25 41 18 43 20 48 22 49 27 51
REMARK Flexibility Score: inf
ROOT
ATOM      1  C   UNL     1     -46.612  37.833  28.298  1.00  0.00     0.064 C 
ATOM      2  C   UNL     1     -46.070  36.407  28.081  1.00  0.00    -0.024 C 
ATOM      3  C   UNL     1     -47.239  35.548  27.547  1.00  0.00    -0.010 C 
ATOM      4  C   UNL     1     -48.475  36.428  27.781  1.00  0.00     0.085 C 
ATOM      5  C   UNL     1     -47.975  37.864  27.597  1.00  0.00     0.101 C 
ATOM      6  H   UNL     1     -46.769  37.981  29.377  1.00  0.00     0.056 H 
ATOM      7  H   UNL     1     -45.730  36.005  29.043  1.00  0.00     0.029 H 
ATOM      8  H   UNL     1     -45.201  36.395  27.421  1.00  0.00     0.029 H 
ATOM      9  H   UNL     1     -47.314  34.630  28.142  1.00  0.00     0.033 H 
ATOM     10  H   UNL     1     -49.326  36.202  27.133  1.00  0.00     0.063 H 
ATOM     11  H   UNL     1     -47.903  38.116  26.535  1.00  0.00     0.065 H 
ENDROOT
BRANCH   1  12
ATOM     12  N   UNL     1     -45.691  38.881  27.886  1.00  0.00    -0.327 N 
ATOM     13  C   UNL     1     -42.880  40.971  28.408  1.00  0.00     0.136 A 
ATOM     14  N   UNL     1     -42.417  40.532  29.594  1.00  0.00    -0.219 NA
ATOM     15  C   UNL     1     -44.018  40.365  27.856  1.00  0.00     0.061 A 
ATOM     16  C   UNL     1     -43.064  39.511  30.187  1.00  0.00     0.120 A 
ATOM     17  C   UNL     1     -44.596  39.333  28.585  1.00  0.00     0.145 A 
ATOM     18  C   UNL     1     -44.794  40.527  26.676  1.00  0.00    -0.031 A 
ATOM     19  N   UNL     1     -44.162  38.862  29.767  1.00  0.00    -0.218 NA
ATOM     20  H   UNL     1     -42.644  39.173  31.129  1.00  0.00     0.106 H 
ATOM     21  C   UNL     1     -45.819  39.607  26.721  1.00  0.00     0.007 A 
ATOM     22  H   UNL     1     -44.620  41.236  25.879  1.00  0.00     0.065 H 
ATOM     23  H   UNL     1     -46.618  39.404  26.020  1.00  0.00     0.082 H 
BRANCH  13  24
ATOM     24  N   UNL     1     -42.203  42.024  27.811  1.00  0.00    -0.383 N 
ATOM     25  H   UNL     1     -42.761  42.850  27.642  1.00  0.00     0.158 HD
ATOM     26  H   UNL     1     -41.297  42.164  28.239  1.00  0.00     0.158 HD
ENDBRANCH  13  24
ENDBRANCH   1  12
BRANCH   5  27
ATOM     27  O   UNL     1     -48.877  38.779  28.219  1.00  0.00    -0.388 OA
ATOM     28  H   UNL     1     -49.765  38.383  28.105  1.00  0.00     0.211 HD
ENDBRANCH   5  27
BRANCH   3  29
ATOM     29  C   UNL     1     -47.099  35.168  26.059  1.00  0.00    -0.044 C 
ATOM     30  H   UNL     1     -46.778  36.029  25.465  1.00  0.00     0.027 H 
ATOM     31  H   UNL     1     -48.093  34.892  25.682  1.00  0.00     0.027 H 
BRANCH  29  32
ATOM     32  C   UNL     1     -46.188  33.957  25.794  1.00  0.00    -0.027 C 
ATOM     33  H   UNL     1     -45.264  34.294  25.310  1.00  0.00     0.032 H 
ATOM     34  H   UNL     1     -45.875  33.535  26.758  1.00  0.00     0.032 H 
BRANCH  32  35
ATOM     35  C   UNL     1     -46.819  32.847  24.995  1.00  0.00    -0.046 A 
ATOM     36  C   UNL     1     -46.035  32.017  24.189  1.00  0.00    -0.058 A 
ATOM     37  C   UNL     1     -48.204  32.618  25.061  1.00  0.00    -0.032 A 
ATOM     38  C   UNL     1     -46.624  30.972  23.482  1.00  0.00    -0.051 A 
ATOM     39  H   UNL     1     -44.960  32.170  24.120  1.00  0.00     0.063 H 
ATOM     40  C   UNL     1     -48.819  31.584  24.365  1.00  0.00     0.074 A 
ATOM     41  H   UNL     1     -48.830  33.257  25.682  1.00  0.00     0.065 H 
ATOM     42  C   UNL     1     -48.012  30.759  23.573  1.00  0.00     0.019 A 
ATOM     43  H   UNL     1     -46.003  30.324  22.869  1.00  0.00     0.063 H 
ATOM     44  N   UNL     1     -50.143  31.403  24.469  1.00  0.00    -0.236 NA
ATOM     45  C   UNL     1     -48.678  29.739  22.907  1.00  0.00     0.038 A 
ATOM     46  C   UNL     1     -50.671  30.382  23.775  1.00  0.00     0.116 A 
ATOM     47  N   UNL     1     -50.004  29.527  22.988  1.00  0.00    -0.244 NA
ATOM     48  H   UNL     1     -48.144  29.040  22.269  1.00  0.00     0.085 H 
ATOM     49  H   UNL     1     -51.743  30.237  23.860  1.00  0.00     0.106 H 
ENDBRANCH  32  35
ENDBRANCH  29  32
ENDBRANCH   3  29
BRANCH   4  50
ATOM     50  O   UNL     1     -48.919  36.281  29.140  1.00  0.00    -0.390 OA
ATOM     51  H   UNL     1     -48.120  36.211  29.694  1.00  0.00     0.211 HD
ENDBRANCH   4  50
TORSDOF 7
ENDMDL
MODEL 6
REMARK VINA RESULT:      -9.2      5.061     11.441
REMARK SMILES Nc1ncnc2c1ccn2[C@@H]1C[C@H](CCc2ccc3cncnc3c2)[C@@H](O)[C@H]1O
REMARK SMILES IDX 11 1 12 2 13 3 26 4 28 5 10 12 2 13 3 14 7 15 4 16 6 17 8 18
REMARK SMILES IDX 5 19 9 21 1 24 29 27 14 29 15 32 16 35 17 36 25 37 18 38
REMARK SMILES IDX 24 40 19 42 23 44 20 45 22 46 21 47 27 50
REMARK H PARENT 11 6 12 7 12 8 13 9 26 10 28 11 4 20 8 22 9 23 1 25 1 26 29 28
REMARK H PARENT 14 30 14 31 15 33 15 34 17 39 25 41 18 43 20 48 22 49 27 51
REMARK Flexibility Score: inf
ROOT
ATOM      1  C   UNL     1     -48.190  28.729  22.717  1.00  0.00     0.064 C 
ATOM      2  C   UNL     1     -47.833  30.196  23.029  1.00  0.00    -0.024 C 
ATOM      3  C   UNL     1     -49.099  31.042  22.764  1.00  0.00    -0.010 C 
ATOM      4  C   UNL     1     -50.030  30.081  22.010  1.00  0.00     0.085 C 
ATOM      5  C   UNL     1     -49.717  28.698  22.589  1.00  0.00     0.101 C 
ATOM      6  H   UNL     1     -47.750  28.468  21.743  1.00  0.00     0.056 H 
ATOM      7  H   UNL     1     -47.030  30.518  22.355  1.00  0.00     0.029 H 
ATOM      8  H   UNL     1     -47.448  30.317  24.043  1.00  0.00     0.029 H 
ATOM      9  H   UNL     1     -48.838  31.892  22.122  1.00  0.00     0.033 H 
ATOM     10  H   UNL     1     -51.093  30.326  22.080  1.00  0.00     0.063 H 
ATOM     11  H   UNL     1     -50.223  28.556  23.548  1.00  0.00     0.065 H 
ENDROOT
BRANCH   1  12
ATOM     12  N   UNL     1     -47.639  27.776  23.667  1.00  0.00    -0.327 N 
ATOM     13  C   UNL     1     -47.965  25.384  26.259  1.00  0.00     0.136 A 
ATOM     14  N   UNL     1     -49.301  25.305  26.405  1.00  0.00    -0.219 NA
ATOM     15  C   UNL     1     -47.436  26.254  25.294  1.00  0.00     0.061 A 
ATOM     16  C   UNL     1     -50.071  26.058  25.598  1.00  0.00     0.120 A 
ATOM     17  C   UNL     1     -48.348  26.985  24.542  1.00  0.00     0.145 A 
ATOM     18  C   UNL     1     -46.138  26.617  24.844  1.00  0.00    -0.031 A 
ATOM     19  N   UNL     1     -49.686  26.932  24.653  1.00  0.00    -0.218 NA
ATOM     20  H   UNL     1     -51.143  25.947  25.733  1.00  0.00     0.106 H 
ATOM     21  C   UNL     1     -46.290  27.557  23.848  1.00  0.00     0.007 A 
ATOM     22  H   UNL     1     -45.195  26.231  25.206  1.00  0.00     0.065 H 
ATOM     23  H   UNL     1     -45.554  28.079  23.250  1.00  0.00     0.082 H 
BRANCH  13  24
ATOM     24  N   UNL     1     -47.185  24.602  27.099  1.00  0.00    -0.383 N 
ATOM     25  H   UNL     1     -47.653  23.797  27.490  1.00  0.00     0.158 HD
ATOM     26  H   UNL     1     -46.266  24.451  26.704  1.00  0.00     0.158 HD
ENDBRANCH  13  24
ENDBRANCH   1  12
BRANCH   5  27
ATOM     27  O   UNL     1     -50.159  27.681  21.689  1.00  0.00    -0.388 OA
ATOM     28  H   UNL     1     -50.150  28.099  20.804  1.00  0.00     0.211 HD
ENDBRANCH   5  27
BRANCH   3  29
ATOM     29  C   UNL     1     -49.768  31.574  24.047  1.00  0.00    -0.044 C 
ATOM     30  H   UNL     1     -50.716  31.058  24.236  1.00  0.00     0.027 H 
ATOM     31  H   UNL     1     -50.024  32.630  23.887  1.00  0.00     0.027 H 
BRANCH  29  32
ATOM     32  C   UNL     1     -48.872  31.534  25.297  1.00  0.00    -0.027 C 
ATOM     33  H   UNL     1     -49.436  31.111  26.137  1.00  0.00     0.032 H 
ATOM     34  H   UNL     1     -48.049  30.831  25.116  1.00  0.00     0.032 H 
BRANCH  32  35
ATOM     35  C   UNL     1     -48.265  32.855  25.690  1.00  0.00    -0.046 A 
ATOM     36  C   UNL     1     -46.974  33.194  25.279  1.00  0.00    -0.058 A 
ATOM     37  C   UNL     1     -48.995  33.773  26.465  1.00  0.00    -0.032 A 
ATOM     38  C   UNL     1     -46.436  34.433  25.619  1.00  0.00    -0.051 A 
ATOM     39  H   UNL     1     -46.387  32.503  24.677  1.00  0.00     0.063 H 
ATOM     40  C   UNL     1     -48.482  35.015  26.821  1.00  0.00     0.074 A 
ATOM     41  H   UNL     1     -50.001  33.523  26.797  1.00  0.00     0.065 H 
ATOM     42  C   UNL     1     -47.192  35.338  26.387  1.00  0.00     0.019 A 
ATOM     43  H   UNL     1     -45.436  34.693  25.281  1.00  0.00     0.063 H 
ATOM     44  N   UNL     1     -49.223  35.858  27.553  1.00  0.00    -0.236 NA
ATOM     45  C   UNL     1     -46.734  36.593  26.765  1.00  0.00     0.038 A 
ATOM     46  C   UNL     1     -48.669  37.043  27.857  1.00  0.00     0.116 A 
ATOM     47  N   UNL     1     -47.449  37.465  27.499  1.00  0.00    -0.244 NA
ATOM     48  H   UNL     1     -45.747  36.943  26.477  1.00  0.00     0.085 H 
ATOM     49  H   UNL     1     -49.270  37.725  28.450  1.00  0.00     0.106 H 
ENDBRANCH  32  35
ENDBRANCH  29  32
ENDBRANCH   3  29
BRANCH   4  50
ATOM     50  O   UNL     1     -49.681  30.071  20.616  1.00  0.00    -0.390 OA
ATOM     51  H   UNL     1     -49.183  29.249  20.453  1.00  0.00     0.211 HD
ENDBRANCH   4  50
TORSDOF 7
ENDMDL
MODEL 7
REMARK VINA RESULT:      -9.2      2.427      9.893
REMARK SMILES Nc1ncnc2c1ccn2[C@@H]1C[C@H](CCc2ccc3cncnc3c2)[C@@H](O)[C@H]1O
REMARK SMILES IDX 11 1 12 2 13 3 26 4 28 5 10 12 2 13 3 14 7 15 4 16 6 17 8 18
REMARK SMILES IDX 5 19 9 21 1 24 29 27 14 29 15 32 16 35 17 36 25 37 18 38
REMARK SMILES IDX 24 40 19 42 23 44 20 45 22 46 21 47 27 50
REMARK H PARENT 11 6 12 7 12 8 13 9 26 10 28 11 4 20 8 22 9 23 1 25 1 26 29 28
REMARK H PARENT 14 30 14 31 15 33 15 34 17 39 25 41 18 43 20 48 22 49 27 51
REMARK Flexibility Score: inf
ROOT
ATOM      1  C   UNL     1     -48.019  32.098  25.548  1.00  0.00     0.064 C 
ATOM      2  C   UNL     1     -48.722  33.072  26.514  1.00  0.00    -0.024 C 
ATOM      3  C   UNL     1     -47.666  34.101  26.979  1.00  0.00    -0.010 C 
ATOM      4  C   UNL     1     -46.335  33.491  26.517  1.00  0.00     0.085 C 
ATOM      5  C   UNL     1     -46.672  32.752  25.218  1.00  0.00     0.101 C 
ATOM      6  H   UNL     1     -47.831  31.157  26.086  1.00  0.00     0.056 H 
ATOM      7  H   UNL     1     -49.092  32.509  27.380  1.00  0.00     0.029 H 
ATOM      8  H   UNL     1     -49.597  33.540  26.059  1.00  0.00     0.029 H 
ATOM      9  H   UNL     1     -47.688  34.171  28.073  1.00  0.00     0.033 H 
ATOM     10  H   UNL     1     -45.525  34.213  26.381  1.00  0.00     0.063 H 
ATOM     11  H   UNL     1     -46.730  33.450  24.379  1.00  0.00     0.065 H 
ENDROOT
BRANCH   1  12
ATOM     12  N   UNL     1     -48.821  31.738  24.390  1.00  0.00    -0.327 N 
ATOM     13  C   UNL     1     -49.261  30.176  21.242  1.00  0.00     0.136 A 
ATOM     14  N   UNL     1     -48.065  29.588  21.048  1.00  0.00    -0.219 NA
ATOM     15  C   UNL     1     -49.475  30.909  22.418  1.00  0.00     0.061 A 
ATOM     16  C   UNL     1     -47.133  29.719  22.009  1.00  0.00     0.120 A 
ATOM     17  C   UNL     1     -48.418  30.976  23.318  1.00  0.00     0.145 A 
ATOM     18  C   UNL     1     -50.549  31.651  22.981  1.00  0.00    -0.031 A 
ATOM     19  N   UNL     1     -47.213  30.401  23.164  1.00  0.00    -0.218 NA
ATOM     20  H   UNL     1     -46.191  29.211  21.823  1.00  0.00     0.106 H 
ATOM     21  C   UNL     1     -50.119  32.154  24.190  1.00  0.00     0.007 A 
ATOM     22  H   UNL     1     -51.530  31.799  22.551  1.00  0.00     0.065 H 
ATOM     23  H   UNL     1     -50.631  32.763  24.924  1.00  0.00     0.082 H 
BRANCH  13  24
ATOM     24  N   UNL     1     -50.211  30.032  20.242  1.00  0.00    -0.383 N 
ATOM     25  H   UNL     1     -50.535  30.897  19.832  1.00  0.00     0.158 HD
ATOM     26  H   UNL     1     -49.957  29.290  19.602  1.00  0.00     0.158 HD
ENDBRANCH  13  24
ENDBRANCH   1  12
BRANCH   5  27
ATOM     27  O   UNL     1     -45.662  31.783  24.932  1.00  0.00    -0.388 OA
ATOM     28  H   UNL     1     -45.249  32.082  24.096  1.00  0.00     0.211 HD
ENDBRANCH   5  27
BRANCH   3  29
ATOM     29  C   UNL     1     -47.870  35.509  26.385  1.00  0.00    -0.044 C 
ATOM     30  H   UNL     1     -48.606  35.488  25.575  1.00  0.00     0.027 H 
ATOM     31  H   UNL     1     -46.924  35.828  25.928  1.00  0.00     0.027 H 
BRANCH  29  32
ATOM     32  C   UNL     1     -48.234  36.590  27.418  1.00  0.00    -0.027 C 
ATOM     33  H   UNL     1     -48.775  37.403  26.920  1.00  0.00     0.032 H 
ATOM     34  H   UNL     1     -48.945  36.163  28.136  1.00  0.00     0.032 H 
BRANCH  32  35
ATOM     35  C   UNL     1     -47.072  37.141  28.201  1.00  0.00    -0.046 A 
ATOM     36  C   UNL     1     -46.659  36.528  29.387  1.00  0.00    -0.058 A 
ATOM     37  C   UNL     1     -46.375  38.273  27.742  1.00  0.00    -0.032 A 
ATOM     38  C   UNL     1     -45.561  37.027  30.085  1.00  0.00    -0.051 A 
ATOM     39  H   UNL     1     -47.179  35.650  29.765  1.00  0.00     0.063 H 
ATOM     40  C   UNL     1     -45.278  38.793  28.419  1.00  0.00     0.074 A 
ATOM     41  H   UNL     1     -46.685  38.765  26.822  1.00  0.00     0.065 H 
ATOM     42  C   UNL     1     -44.875  38.155  29.598  1.00  0.00     0.019 A 
ATOM     43  H   UNL     1     -45.239  36.534  30.998  1.00  0.00     0.063 H 
ATOM     44  N   UNL     1     -44.642  39.868  27.934  1.00  0.00    -0.236 NA
ATOM     45  C   UNL     1     -43.770  38.712  30.227  1.00  0.00     0.038 A 
ATOM     46  C   UNL     1     -43.587  40.315  28.635  1.00  0.00     0.116 A 
ATOM     47  N   UNL     1     -43.108  39.790  29.770  1.00  0.00    -0.244 NA
ATOM     48  H   UNL     1     -43.374  38.291  31.147  1.00  0.00     0.085 H 
ATOM     49  H   UNL     1     -43.073  41.186  28.241  1.00  0.00     0.106 H 
ENDBRANCH  32  35
ENDBRANCH  29  32
ENDBRANCH   3  29
BRANCH   4  50
ATOM     50  O   UNL     1     -45.891  32.522  27.480  1.00  0.00    -0.390 OA
ATOM     51  H   UNL     1     -44.923  32.458  27.394  1.00  0.00     0.211 HD
ENDBRANCH   4  50
TORSDOF 7
ENDMDL
