MODEL 1
REMARK VINA RESULT:     -10.8      0.000      0.000
REMARK SMILES [2H]C([2H])(NCC1CCC1)c1cc2ccc(CNC(=O)c3cc(=O)n4ccccc4n3)cc2[nH]1
REMARK SMILES IDX 10 1 11 2 12 3 13 4 14 5 15 6 31 7 32 8 33 9 2 15 1 16 3 17
REMARK SMILES IDX 4 18 5 20 6 23 7 24 9 25 8 27 16 34 17 37 18 38 19 40 20 41
REMARK SMILES IDX 21 42 30 43 22 44 29 46 23 47 24 48 28 49 25 50 27 51 26 53
REMARK H PARENT 11 10 13 11 14 12 31 13 33 14 4 19 5 21 5 22 6 26 7 28 7 29
REMARK H PARENT 9 30 9 31 8 32 8 33 16 35 16 36 17 39 21 45 28 52 25 54 27 55
REMARK H PARENT 26 56
REMARK Flexibility Score: inf
ROOT
ATOM      1  C   UNL     1     -48.201  31.032  24.669  1.00  0.00     0.030 A 
ATOM      2  C   UNL     1     -47.036  31.759  24.517  1.00  0.00    -0.032 A 
ATOM      3  C   UNL     1     -47.176  32.978  25.235  1.00  0.00    -0.000 A 
ATOM      4  C   UNL     1     -46.344  34.093  25.444  1.00  0.00    -0.052 A 
ATOM      5  C   UNL     1     -46.807  35.157  26.228  1.00  0.00    -0.057 A 
ATOM      6  C   UNL     1     -48.079  35.126  26.813  1.00  0.00    -0.027 A 
ATOM      7  C   UNL     1     -48.922  34.021  26.603  1.00  0.00    -0.033 A 
ATOM      8  C   UNL     1     -48.442  32.966  25.815  1.00  0.00     0.046 A 
ATOM      9  N   UNL     1     -49.041  31.780  25.460  1.00  0.00    -0.357 N 
ATOM     10  H   UNL     1     -46.171  31.438  23.950  1.00  0.00     0.065 H 
ATOM     11  H   UNL     1     -45.353  34.129  25.002  1.00  0.00     0.063 H 
ATOM     12  H   UNL     1     -46.157  36.017  26.378  1.00  0.00     0.063 H 
ATOM     13  H   UNL     1     -49.918  33.989  27.035  1.00  0.00     0.065 H 
ATOM     14  H   UNL     1     -49.969  31.504  25.748  1.00  0.00     0.166 HD
ENDROOT
BRANCH   1  15
ATOM     15  C   UNL     1     -48.593  29.700  24.132  1.00  0.00     0.036 C 
ATOM     16  H   UNL     1     -48.459  29.701  23.044  1.00  0.00     0.049 H 
ATOM     17  H   UNL     1     -49.654  29.508  24.338  1.00  0.00     0.049 H 
BRANCH  15  18
ATOM     18  N   UNL     1     -47.759  28.672  24.743  1.00  0.00    -0.311 NA
ATOM     19  H   UNL     1     -47.007  29.121  25.263  1.00  0.00     0.123 HD
BRANCH  18  20
ATOM     20  C   UNL     1     -48.538  27.810  25.631  1.00  0.00    -0.002 C 
ATOM     21  H   UNL     1     -48.294  28.031  26.677  1.00  0.00     0.043 H 
ATOM     22  H   UNL     1     -49.610  27.999  25.491  1.00  0.00     0.043 H 
BRANCH  20  23
ATOM     23  C   UNL     1     -48.216  26.343  25.340  1.00  0.00    -0.029 C 
ATOM     24  C   UNL     1     -48.445  25.326  26.491  1.00  0.00    -0.049 C 
ATOM     25  C   UNL     1     -46.712  25.969  25.419  1.00  0.00    -0.049 C 
ATOM     26  H   UNL     1     -48.671  26.029  24.391  1.00  0.00     0.032 H 
ATOM     27  C   UNL     1     -46.960  25.491  26.863  1.00  0.00    -0.053 C 
ATOM     28  H   UNL     1     -48.697  24.319  26.138  1.00  0.00     0.027 H 
ATOM     29  H   UNL     1     -49.159  25.614  27.267  1.00  0.00     0.027 H 
ATOM     30  H   UNL     1     -46.426  25.161  24.737  1.00  0.00     0.027 H 
ATOM     31  H   UNL     1     -45.998  26.790  25.310  1.00  0.00     0.027 H 
ATOM     32  H   UNL     1     -46.777  26.261  27.622  1.00  0.00     0.027 H 
ATOM     33  H   UNL     1     -46.439  24.576  27.156  1.00  0.00     0.027 H 
ENDBRANCH  20  23
ENDBRANCH  18  20
ENDBRANCH  15  18
ENDBRANCH   1  15
BRANCH   6  34
ATOM     34  C   UNL     1     -48.569  36.295  27.626  1.00  0.00     0.043 C 
ATOM     35  H   UNL     1     -49.476  36.724  27.183  1.00  0.00     0.054 H 
ATOM     36  H   UNL     1     -48.834  35.982  28.643  1.00  0.00     0.054 H 
BRANCH  34  37
ATOM     37  N   UNL     1     -47.559  37.314  27.716  1.00  0.00    -0.347 N 
ATOM     38  C   UNL     1     -46.642  37.342  28.735  1.00  0.00     0.270 C 
ATOM     39  H   UNL     1     -47.397  37.941  26.933  1.00  0.00     0.164 HD
ATOM     40  O   UNL     1     -46.654  36.580  29.694  1.00  0.00    -0.268 OA
BRANCH  38  41
ATOM     41  C   UNL     1     -45.598  38.417  28.543  1.00  0.00     0.136 A 
ATOM     42  C   UNL     1     -44.689  38.543  29.511  1.00  0.00     0.035 A 
ATOM     43  N   UNL     1     -45.644  39.186  27.402  1.00  0.00    -0.225 NA
ATOM     44  C   UNL     1     -43.655  39.576  29.363  1.00  0.00     0.258 A 
ATOM     45  H   UNL     1     -44.663  37.930  30.403  1.00  0.00     0.071 H 
ATOM     46  C   UNL     1     -44.728  40.097  27.275  1.00  0.00     0.140 A 
ATOM     47  O   UNL     1     -42.814  39.701  30.252  1.00  0.00    -0.269 OA
ATOM     48  N   UNL     1     -43.723  40.337  28.206  1.00  0.00    -0.268 N 
ATOM     49  C   UNL     1     -44.738  40.954  26.056  1.00  0.00    -0.019 A 
ATOM     50  C   UNL     1     -42.777  41.335  27.995  1.00  0.00     0.014 A 
ATOM     51  C   UNL     1     -43.807  41.902  25.898  1.00  0.00    -0.057 A 
ATOM     52  H   UNL     1     -45.518  40.775  25.326  1.00  0.00     0.066 H 
ATOM     53  C   UNL     1     -42.792  42.101  26.898  1.00  0.00    -0.045 A 
ATOM     54  H   UNL     1     -42.020  41.467  28.764  1.00  0.00     0.082 H 
ATOM     55  H   UNL     1     -43.798  42.536  25.017  1.00  0.00     0.062 H 
ATOM     56  H   UNL     1     -42.049  42.877  26.744  1.00  0.00     0.064 H 
ENDBRANCH  38  41
ENDBRANCH  34  37
ENDBRANCH   6  34
TORSDOF 7
ENDMDL
MODEL 2
REMARK VINA RESULT:     -10.7      1.610      2.195
REMARK SMILES [2H]C([2H])(NCC1CCC1)c1cc2ccc(CNC(=O)c3cc(=O)n4ccccc4n3)cc2[nH]1
REMARK SMILES IDX 10 1 11 2 12 3 13 4 14 5 15 6 31 7 32 8 33 9 2 15 1 16 3 17
REMARK SMILES IDX 4 18 5 20 6 23 7 24 9 25 8 27 16 34 17 37 18 38 19 40 20 41
REMARK SMILES IDX 21 42 30 43 22 44 29 46 23 47 24 48 28 49 25 50 27 51 26 53
REMARK H PARENT 11 10 13 11 14 12 31 13 33 14 4 19 5 21 5 22 6 26 7 28 7 29
REMARK H PARENT 9 30 9 31 8 32 8 33 16 35 16 36 17 39 21 45 28 52 25 54 27 55
REMARK H PARENT 26 56
REMARK Flexibility Score: inf
ROOT
ATOM      1  C   UNL     1     -48.443  31.198  25.276  1.00  0.00     0.030 A 
ATOM      2  C   UNL     1     -47.207  31.751  24.999  1.00  0.00    -0.032 A 
ATOM      3  C   UNL     1     -47.183  33.071  25.524  1.00  0.00    -0.000 A 
ATOM      4  C   UNL     1     -46.221  34.098  25.549  1.00  0.00    -0.052 A 
ATOM      5  C   UNL     1     -46.534  35.315  26.168  1.00  0.00    -0.057 A 
ATOM      6  C   UNL     1     -47.782  35.524  26.767  1.00  0.00    -0.027 A 
ATOM      7  C   UNL     1     -48.754  34.508  26.739  1.00  0.00    -0.033 A 
ATOM      8  C   UNL     1     -48.423  33.298  26.116  1.00  0.00     0.046 A 
ATOM      9  N   UNL     1     -49.166  32.151  25.954  1.00  0.00    -0.357 N 
ATOM     10  H   UNL     1     -46.403  31.247  24.477  1.00  0.00     0.065 H 
ATOM     11  H   UNL     1     -45.247  33.949  25.094  1.00  0.00     0.063 H 
ATOM     12  H   UNL     1     -45.784  36.105  26.176  1.00  0.00     0.063 H 
ATOM     13  H   UNL     1     -49.732  34.660  27.184  1.00  0.00     0.065 H 
ATOM     14  H   UNL     1     -50.110  32.034  26.293  1.00  0.00     0.166 HD
ENDROOT
BRANCH   1  15
ATOM     15  C   UNL     1     -49.003  29.857  24.955  1.00  0.00     0.036 C 
ATOM     16  H   UNL     1     -48.529  29.483  24.039  1.00  0.00     0.049 H 
ATOM     17  H   UNL     1     -50.081  29.934  24.765  1.00  0.00     0.049 H 
BRANCH  15  18
ATOM     18  N   UNL     1     -48.742  28.950  26.066  1.00  0.00    -0.311 NA
ATOM     19  H   UNL     1     -49.597  28.833  26.607  1.00  0.00     0.123 HD
BRANCH  18  20
ATOM     20  C   UNL     1     -48.265  27.651  25.593  1.00  0.00    -0.002 C 
ATOM     21  H   UNL     1     -49.021  27.186  24.949  1.00  0.00     0.043 H 
ATOM     22  H   UNL     1     -47.353  27.781  24.998  1.00  0.00     0.043 H 
BRANCH  20  23
ATOM     23  C   UNL     1     -47.993  26.735  26.788  1.00  0.00    -0.029 C 
ATOM     24  C   UNL     1     -46.596  26.062  26.861  1.00  0.00    -0.049 C 
ATOM     25  C   UNL     1     -48.584  25.305  26.673  1.00  0.00    -0.049 C 
ATOM     26  H   UNL     1     -48.283  27.228  27.726  1.00  0.00     0.032 H 
ATOM     27  C   UNL     1     -47.209  24.832  26.165  1.00  0.00    -0.053 C 
ATOM     28  H   UNL     1     -46.261  25.862  27.886  1.00  0.00     0.027 H 
ATOM     29  H   UNL     1     -45.784  26.553  26.318  1.00  0.00     0.027 H 
ATOM     30  H   UNL     1     -48.866  24.869  27.638  1.00  0.00     0.027 H 
ATOM     31  H   UNL     1     -49.416  25.175  25.974  1.00  0.00     0.027 H 
ATOM     32  H   UNL     1     -47.110  24.846  25.074  1.00  0.00     0.027 H 
ATOM     33  H   UNL     1     -46.874  23.860  26.537  1.00  0.00     0.027 H 
ENDBRANCH  20  23
ENDBRANCH  18  20
ENDBRANCH  15  18
ENDBRANCH   1  15
BRANCH   6  34
ATOM     34  C   UNL     1     -48.108  36.852  27.398  1.00  0.00     0.043 C 
ATOM     35  H   UNL     1     -48.995  37.298  26.930  1.00  0.00     0.054 H 
ATOM     36  H   UNL     1     -48.340  36.734  28.463  1.00  0.00     0.054 H 
BRANCH  34  37
ATOM     37  N   UNL     1     -47.001  37.762  27.275  1.00  0.00    -0.347 N 
ATOM     38  C   UNL     1     -47.139  39.110  27.480  1.00  0.00     0.270 C 
ATOM     39  H   UNL     1     -46.054  37.402  27.197  1.00  0.00     0.164 HD
ATOM     40  O   UNL     1     -48.210  39.668  27.688  1.00  0.00    -0.268 OA
BRANCH  38  41
ATOM     41  C   UNL     1     -45.818  39.839  27.434  1.00  0.00     0.136 A 
ATOM     42  C   UNL     1     -45.584  40.577  26.348  1.00  0.00     0.035 A 
ATOM     43  N   UNL     1     -44.952  39.706  28.496  1.00  0.00    -0.225 NA
ATOM     44  C   UNL     1     -44.310  41.305  26.263  1.00  0.00     0.258 A 
ATOM     45  H   UNL     1     -46.274  40.676  25.520  1.00  0.00     0.071 H 
ATOM     46  C   UNL     1     -43.828  40.350  28.417  1.00  0.00     0.140 A 
ATOM     47  O   UNL     1     -44.083  41.985  25.264  1.00  0.00    -0.269 OA
ATOM     48  N   UNL     1     -43.455  41.153  27.345  1.00  0.00    -0.268 N 
ATOM     49  C   UNL     1     -42.859  40.234  29.543  1.00  0.00    -0.019 A 
ATOM     50  C   UNL     1     -42.229  41.811  27.337  1.00  0.00     0.014 A 
ATOM     51  C   UNL     1     -41.692  40.887  29.490  1.00  0.00    -0.057 A 
ATOM     52  H   UNL     1     -43.140  39.611  30.383  1.00  0.00     0.066 H 
ATOM     53  C   UNL     1     -41.364  41.703  28.352  1.00  0.00    -0.045 A 
ATOM     54  H   UNL     1     -42.003  42.422  26.467  1.00  0.00     0.082 H 
ATOM     55  H   UNL     1     -40.973  40.815  30.301  1.00  0.00     0.062 H 
ATOM     56  H   UNL     1     -40.410  42.221  28.336  1.00  0.00     0.064 H 
ENDBRANCH  38  41
ENDBRANCH  34  37
ENDBRANCH   6  34
TORSDOF 7
ENDMDL
MODEL 3
REMARK VINA RESULT:     -10.0      1.198      1.577
REMARK SMILES [2H]C([2H])(NCC1CCC1)c1cc2ccc(CNC(=O)c3cc(=O)n4ccccc4n3)cc2[nH]1
REMARK SMILES IDX 10 1 11 2 12 3 13 4 14 5 15 6 31 7 32 8 33 9 2 15 1 16 3 17
REMARK SMILES IDX 4 18 5 20 6 23 7 24 9 25 8 27 16 34 17 37 18 38 19 40 20 41
REMARK SMILES IDX 21 42 30 43 22 44 29 46 23 47 24 48 28 49 25 50 27 51 26 53
REMARK H PARENT 11 10 13 11 14 12 31 13 33 14 4 19 5 21 5 22 6 26 7 28 7 29
REMARK H PARENT 9 30 9 31 8 32 8 33 16 35 16 36 17 39 21 45 28 52 25 54 27 55
REMARK H PARENT 26 56
REMARK Flexibility Score: inf
ROOT
ATOM      1  C   UNL     1     -47.787  29.770  23.726  1.00  0.00     0.030 A 
ATOM      2  C   UNL     1     -46.661  30.568  23.653  1.00  0.00    -0.032 A 
ATOM      3  C   UNL     1     -46.901  31.744  24.415  1.00  0.00    -0.000 A 
ATOM      4  C   UNL     1     -46.145  32.895  24.705  1.00  0.00    -0.052 A 
ATOM      5  C   UNL     1     -46.701  33.895  25.512  1.00  0.00    -0.057 A 
ATOM      6  C   UNL     1     -47.992  33.767  26.040  1.00  0.00    -0.027 A 
ATOM      7  C   UNL     1     -48.760  32.626  25.748  1.00  0.00    -0.033 A 
ATOM      8  C   UNL     1     -48.187  31.636  24.939  1.00  0.00     0.046 A 
ATOM      9  N   UNL     1     -48.701  30.434  24.509  1.00  0.00    -0.357 N 
ATOM     10  H   UNL     1     -45.757  30.321  23.112  1.00  0.00     0.065 H 
ATOM     11  H   UNL     1     -45.141  33.006  24.308  1.00  0.00     0.063 H 
ATOM     12  H   UNL     1     -46.109  34.783  25.725  1.00  0.00     0.063 H 
ATOM     13  H   UNL     1     -49.769  32.519  26.135  1.00  0.00     0.065 H 
ATOM     14  H   UNL     1     -49.622  30.094  24.746  1.00  0.00     0.166 HD
ENDROOT
BRANCH   1  15
ATOM     15  C   UNL     1     -48.079  28.443  23.118  1.00  0.00     0.036 C 
ATOM     16  H   UNL     1     -47.333  28.235  22.341  1.00  0.00     0.049 H 
ATOM     17  H   UNL     1     -49.066  28.457  22.638  1.00  0.00     0.049 H 
BRANCH  15  18
ATOM     18  N   UNL     1     -48.028  27.420  24.154  1.00  0.00    -0.311 NA
ATOM     19  H   UNL     1     -48.554  26.605  23.843  1.00  0.00     0.123 HD
BRANCH  18  20
ATOM     20  C   UNL     1     -46.650  27.040  24.463  1.00  0.00    -0.002 C 
ATOM     21  H   UNL     1     -46.130  26.740  23.545  1.00  0.00     0.043 H 
ATOM     22  H   UNL     1     -46.112  27.897  24.887  1.00  0.00     0.043 H 
BRANCH  20  23
ATOM     23  C   UNL     1     -46.645  25.869  25.448  1.00  0.00    -0.029 C 
ATOM     24  C   UNL     1     -48.024  25.313  25.894  1.00  0.00    -0.049 C 
ATOM     25  C   UNL     1     -46.412  26.255  26.932  1.00  0.00    -0.049 C 
ATOM     26  H   UNL     1     -45.953  25.085  25.111  1.00  0.00     0.032 H 
ATOM     27  C   UNL     1     -47.941  26.238  27.123  1.00  0.00    -0.053 C 
ATOM     28  H   UNL     1     -48.003  24.247  26.149  1.00  0.00     0.027 H 
ATOM     29  H   UNL     1     -48.869  25.496  25.225  1.00  0.00     0.027 H 
ATOM     30  H   UNL     1     -45.892  25.482  27.509  1.00  0.00     0.027 H 
ATOM     31  H   UNL     1     -45.924  27.217  27.116  1.00  0.00     0.027 H 
ATOM     32  H   UNL     1     -48.417  27.214  26.976  1.00  0.00     0.027 H 
ATOM     33  H   UNL     1     -48.296  25.810  28.064  1.00  0.00     0.027 H 
ENDBRANCH  20  23
ENDBRANCH  18  20
ENDBRANCH  15  18
ENDBRANCH   1  15
BRANCH   6  34
ATOM     34  C   UNL     1     -48.582  34.870  26.878  1.00  0.00     0.043 C 
ATOM     35  H   UNL     1     -49.445  35.323  26.375  1.00  0.00     0.054 H 
ATOM     36  H   UNL     1     -48.946  34.481  27.837  1.00  0.00     0.054 H 
BRANCH  34  37
ATOM     37  N   UNL     1     -47.602  35.888  27.147  1.00  0.00    -0.347 N 
ATOM     38  C   UNL     1     -47.927  37.066  27.766  1.00  0.00     0.270 C 
ATOM     39  H   UNL     1     -46.613  35.684  27.032  1.00  0.00     0.164 HD
ATOM     40  O   UNL     1     -49.070  37.399  28.057  1.00  0.00    -0.268 OA
BRANCH  38  41
ATOM     41  C   UNL     1     -46.714  37.915  28.065  1.00  0.00     0.136 A 
ATOM     42  C   UNL     1     -46.033  37.610  29.171  1.00  0.00     0.035 A 
ATOM     43  N   UNL     1     -46.388  38.932  27.196  1.00  0.00    -0.225 NA
ATOM     44  C   UNL     1     -44.846  38.410  29.499  1.00  0.00     0.258 A 
ATOM     45  H   UNL     1     -46.298  36.806  29.846  1.00  0.00     0.071 H 
ATOM     46  C   UNL     1     -45.338  39.636  27.490  1.00  0.00     0.140 A 
ATOM     47  O   UNL     1     -44.212  38.138  30.518  1.00  0.00    -0.269 OA
ATOM     48  N   UNL     1     -44.538  39.428  28.608  1.00  0.00    -0.268 N 
ATOM     49  C   UNL     1     -44.947  40.748  26.578  1.00  0.00    -0.019 A 
ATOM     50  C   UNL     1     -43.427  40.229  28.852  1.00  0.00     0.014 A 
ATOM     51  C   UNL     1     -43.869  41.492  26.854  1.00  0.00    -0.057 A 
ATOM     52  H   UNL     1     -45.564  40.918  25.704  1.00  0.00     0.066 H 
ATOM     53  C   UNL     1     -43.082  41.226  28.028  1.00  0.00    -0.045 A 
ATOM     54  H   UNL     1     -42.848  40.010  29.745  1.00  0.00     0.082 H 
ATOM     55  H   UNL     1     -43.569  42.306  26.202  1.00  0.00     0.062 H 
ATOM     56  H   UNL     1     -42.213  41.845  28.228  1.00  0.00     0.064 H 
ENDBRANCH  38  41
ENDBRANCH  34  37
ENDBRANCH   6  34
TORSDOF 7
ENDMDL
MODEL 4
REMARK VINA RESULT:     -10.0      1.680      2.274
REMARK SMILES [2H]C([2H])(NCC1CCC1)c1cc2ccc(CNC(=O)c3cc(=O)n4ccccc4n3)cc2[nH]1
REMARK SMILES IDX 10 1 11 2 12 3 13 4 14 5 15 6 31 7 32 8 33 9 2 15 1 16 3 17
REMARK SMILES IDX 4 18 5 20 6 23 7 24 9 25 8 27 16 34 17 37 18 38 19 40 20 41
REMARK SMILES IDX 21 42 30 43 22 44 29 46 23 47 24 48 28 49 25 50 27 51 26 53
REMARK H PARENT 11 10 13 11 14 12 31 13 33 14 4 19 5 21 5 22 6 26 7 28 7 29
REMARK H PARENT 9 30 9 31 8 32 8 33 16 35 16 36 17 39 21 45 28 52 25 54 27 55
REMARK H PARENT 26 56
REMARK Flexibility Score: inf
ROOT
ATOM      1  C   UNL     1     -48.661  31.074  25.504  1.00  0.00     0.030 A 
ATOM      2  C   UNL     1     -49.399  32.242  25.540  1.00  0.00    -0.032 A 
ATOM      3  C   UNL     1     -48.607  33.248  26.157  1.00  0.00    -0.000 A 
ATOM      4  C   UNL     1     -48.815  34.605  26.467  1.00  0.00    -0.052 A 
ATOM      5  C   UNL     1     -47.794  35.328  27.097  1.00  0.00    -0.057 A 
ATOM      6  C   UNL     1     -46.571  34.727  27.417  1.00  0.00    -0.027 A 
ATOM      7  C   UNL     1     -46.357  33.369  27.121  1.00  0.00    -0.033 A 
ATOM      8  C   UNL     1     -47.389  32.662  26.490  1.00  0.00     0.046 A 
ATOM      9  N   UNL     1     -47.445  31.348  26.085  1.00  0.00    -0.357 N 
ATOM     10  H   UNL     1     -50.403  32.356  25.153  1.00  0.00     0.065 H 
ATOM     11  H   UNL     1     -49.756  35.086  26.221  1.00  0.00     0.063 H 
ATOM     12  H   UNL     1     -47.968  36.375  27.338  1.00  0.00     0.063 H 
ATOM     13  H   UNL     1     -45.420  32.884  27.377  1.00  0.00     0.065 H 
ATOM     14  H   UNL     1     -46.691  30.686  26.198  1.00  0.00     0.166 HD
ENDROOT
BRANCH   1  15
ATOM     15  C   UNL     1     -49.002  29.724  24.977  1.00  0.00     0.036 C 
ATOM     16  H   UNL     1     -48.781  29.694  23.904  1.00  0.00     0.049 H 
ATOM     17  H   UNL     1     -50.074  29.530  25.103  1.00  0.00     0.049 H 
BRANCH  15  18
ATOM     18  N   UNL     1     -48.213  28.721  25.683  1.00  0.00    -0.311 NA
ATOM     19  H   UNL     1     -47.826  29.137  26.528  1.00  0.00     0.123 HD
BRANCH  18  20
ATOM     20  C   UNL     1     -49.021  27.551  26.025  1.00  0.00    -0.002 C 
ATOM     21  H   UNL     1     -49.185  27.513  27.108  1.00  0.00     0.043 H 
ATOM     22  H   UNL     1     -50.003  27.619  25.540  1.00  0.00     0.043 H 
BRANCH  20  23
ATOM     23  C   UNL     1     -48.297  26.277  25.582  1.00  0.00    -0.029 C 
ATOM     24  C   UNL     1     -47.961  25.235  26.683  1.00  0.00    -0.049 C 
ATOM     25  C   UNL     1     -46.767  26.426  25.371  1.00  0.00    -0.049 C 
ATOM     26  H   UNL     1     -48.794  25.835  24.708  1.00  0.00     0.032 H 
ATOM     27  C   UNL     1     -46.569  25.885  26.800  1.00  0.00    -0.053 C 
ATOM     28  H   UNL     1     -47.931  24.204  26.312  1.00  0.00     0.027 H 
ATOM     29  H   UNL     1     -48.570  25.263  27.591  1.00  0.00     0.027 H 
ATOM     30  H   UNL     1     -46.367  25.764  24.595  1.00  0.00     0.027 H 
ATOM     31  H   UNL     1     -46.395  27.439  25.194  1.00  0.00     0.027 H 
ATOM     32  H   UNL     1     -46.508  26.667  27.565  1.00  0.00     0.027 H 
ATOM     33  H   UNL     1     -45.732  25.194  26.933  1.00  0.00     0.027 H 
ENDBRANCH  20  23
ENDBRANCH  18  20
ENDBRANCH  15  18
ENDBRANCH   1  15
BRANCH   6  34
ATOM     34  C   UNL     1     -45.500  35.515  28.124  1.00  0.00     0.043 C 
ATOM     35  H   UNL     1     -45.661  35.504  29.209  1.00  0.00     0.054 H 
ATOM     36  H   UNL     1     -44.510  35.076  27.949  1.00  0.00     0.054 H 
BRANCH  34  37
ATOM     37  N   UNL     1     -45.478  36.877  27.661  1.00  0.00    -0.347 N 
ATOM     38  C   UNL     1     -45.450  37.939  28.527  1.00  0.00     0.270 C 
ATOM     39  H   UNL     1     -45.314  37.077  26.679  1.00  0.00     0.164 HD
ATOM     40  O   UNL     1     -45.535  37.838  29.745  1.00  0.00    -0.268 OA
BRANCH  38  41
ATOM     41  C   UNL     1     -45.289  39.260  27.813  1.00  0.00     0.136 A 
ATOM     42  C   UNL     1     -46.391  39.781  27.271  1.00  0.00     0.035 A 
ATOM     43  N   UNL     1     -44.041  39.840  27.767  1.00  0.00    -0.225 NA
ATOM     44  C   UNL     1     -46.279  41.067  26.568  1.00  0.00     0.258 A 
ATOM     45  H   UNL     1     -47.368  39.317  27.316  1.00  0.00     0.071 H 
ATOM     46  C   UNL     1     -43.946  40.975  27.145  1.00  0.00     0.140 A 
ATOM     47  O   UNL     1     -47.289  41.554  26.063  1.00  0.00    -0.269 OA
ATOM     48  N   UNL     1     -45.012  41.629  26.536  1.00  0.00    -0.268 N 
ATOM     49  C   UNL     1     -42.614  41.638  27.070  1.00  0.00    -0.019 A 
ATOM     50  C   UNL     1     -44.827  42.846  25.888  1.00  0.00     0.014 A 
ATOM     51  C   UNL     1     -42.486  42.810  26.435  1.00  0.00    -0.057 A 
ATOM     52  H   UNL     1     -41.778  41.136  27.541  1.00  0.00     0.066 H 
ATOM     53  C   UNL     1     -43.628  43.437  25.824  1.00  0.00    -0.045 A 
ATOM     54  H   UNL     1     -45.703  43.301  25.433  1.00  0.00     0.082 H 
ATOM     55  H   UNL     1     -41.524  43.308  26.369  1.00  0.00     0.062 H 
ATOM     56  H   UNL     1     -43.495  44.386  25.316  1.00  0.00     0.064 H 
ENDBRANCH  38  41
ENDBRANCH  34  37
ENDBRANCH   6  34
TORSDOF 7
ENDMDL
MODEL 5
REMARK VINA RESULT:      -9.6      2.101      3.170
REMARK SMILES [2H]C([2H])(NCC1CCC1)c1cc2ccc(CNC(=O)c3cc(=O)n4ccccc4n3)cc2[nH]1
REMARK SMILES IDX 10 1 11 2 12 3 13 4 14 5 15 6 31 7 32 8 33 9 2 15 1 16 3 17
REMARK SMILES IDX 4 18 5 20 6 23 7 24 9 25 8 27 16 34 17 37 18 38 19 40 20 41
REMARK SMILES IDX 21 42 30 43 22 44 29 46 23 47 24 48 28 49 25 50 27 51 26 53
REMARK H PARENT 11 10 13 11 14 12 31 13 33 14 4 19 5 21 5 22 6 26 7 28 7 29
REMARK H PARENT 9 30 9 31 8 32 8 33 16 35 16 36 17 39 21 45 28 52 25 54 27 55
REMARK H PARENT 26 56
REMARK Flexibility Score: inf
ROOT
ATOM      1  C   UNL     1     -46.771  32.997  25.326  1.00  0.00     0.030 A 
ATOM      2  C   UNL     1     -47.980  33.560  25.691  1.00  0.00    -0.032 A 
ATOM      3  C   UNL     1     -47.719  34.628  26.591  1.00  0.00    -0.000 A 
ATOM      4  C   UNL     1     -48.529  35.547  27.282  1.00  0.00    -0.052 A 
ATOM      5  C   UNL     1     -47.929  36.499  28.116  1.00  0.00    -0.057 A 
ATOM      6  C   UNL     1     -46.538  36.556  28.267  1.00  0.00    -0.027 A 
ATOM      7  C   UNL     1     -45.719  35.637  27.588  1.00  0.00    -0.033 A 
ATOM      8  C   UNL     1     -46.337  34.692  26.759  1.00  0.00     0.046 A 
ATOM      9  N   UNL     1     -45.787  33.697  25.983  1.00  0.00    -0.357 N 
ATOM     10  H   UNL     1     -48.950  33.236  25.335  1.00  0.00     0.065 H 
ATOM     11  H   UNL     1     -49.608  35.518  27.171  1.00  0.00     0.063 H 
ATOM     12  H   UNL     1     -48.566  37.201  28.651  1.00  0.00     0.063 H 
ATOM     13  H   UNL     1     -44.640  35.657  27.708  1.00  0.00     0.065 H 
ATOM     14  H   UNL     1     -44.796  33.516  25.911  1.00  0.00     0.166 HD
ENDROOT
BRANCH   1  15
ATOM     15  C   UNL     1     -46.463  31.858  24.419  1.00  0.00     0.036 C 
ATOM     16  H   UNL     1     -45.400  31.605  24.512  1.00  0.00     0.049 H 
ATOM     17  H   UNL     1     -46.648  32.145  23.376  1.00  0.00     0.049 H 
BRANCH  15  18
ATOM     18  N   UNL     1     -47.288  30.714  24.789  1.00  0.00    -0.311 NA
ATOM     19  H   UNL     1     -48.174  31.051  25.163  1.00  0.00     0.123 HD
BRANCH  18  20
ATOM     20  C   UNL     1     -47.527  29.836  23.645  1.00  0.00    -0.002 C 
ATOM     21  H   UNL     1     -47.115  30.286  22.735  1.00  0.00     0.043 H 
ATOM     22  H   UNL     1     -47.023  28.874  23.800  1.00  0.00     0.043 H 
BRANCH  20  23
ATOM     23  C   UNL     1     -49.032  29.622  23.463  1.00  0.00    -0.029 C 
ATOM     24  C   UNL     1     -49.674  28.428  24.220  1.00  0.00    -0.049 C 
ATOM     25  C   UNL     1     -49.443  28.906  22.150  1.00  0.00    -0.049 C 
ATOM     26  H   UNL     1     -49.576  30.566  23.607  1.00  0.00     0.032 H 
ATOM     27  C   UNL     1     -49.486  27.586  22.944  1.00  0.00    -0.053 C 
ATOM     28  H   UNL     1     -50.726  28.593  24.481  1.00  0.00     0.027 H 
ATOM     29  H   UNL     1     -49.146  28.065  25.105  1.00  0.00     0.027 H 
ATOM     30  H   UNL     1     -50.423  29.217  21.771  1.00  0.00     0.027 H 
ATOM     31  H   UNL     1     -48.722  28.940  21.329  1.00  0.00     0.027 H 
ATOM     32  H   UNL     1     -48.545  27.024  22.920  1.00  0.00     0.027 H 
ATOM     33  H   UNL     1     -50.308  26.909  22.695  1.00  0.00     0.027 H 
ENDBRANCH  20  23
ENDBRANCH  18  20
ENDBRANCH  15  18
ENDBRANCH   1  15
BRANCH   6  34
ATOM     34  C   UNL     1     -45.916  37.567  29.194  1.00  0.00     0.043 C 
ATOM     35  H   UNL     1     -46.687  38.089  29.774  1.00  0.00     0.054 H 
ATOM     36  H   UNL     1     -45.253  37.079  29.918  1.00  0.00     0.054 H 
BRANCH  34  37
ATOM     37  N   UNL     1     -45.146  38.532  28.456  1.00  0.00    -0.347 N 
ATOM     38  C   UNL     1     -45.691  39.702  27.997  1.00  0.00     0.270 C 
ATOM     39  H   UNL     1     -44.135  38.442  28.402  1.00  0.00     0.164 HD
ATOM     40  O   UNL     1     -46.879  39.990  28.085  1.00  0.00    -0.268 OA
BRANCH  38  41
ATOM     41  C   UNL     1     -44.662  40.615  27.375  1.00  0.00     0.136 A 
ATOM     42  C   UNL     1     -43.516  40.762  28.043  1.00  0.00     0.035 A 
ATOM     43  N   UNL     1     -44.958  41.227  26.178  1.00  0.00    -0.225 NA
ATOM     44  C   UNL     1     -42.486  41.640  27.472  1.00  0.00     0.258 A 
ATOM     45  H   UNL     1     -43.294  40.273  28.983  1.00  0.00     0.071 H 
ATOM     46  C   UNL     1     -44.045  42.003  25.677  1.00  0.00     0.140 A 
ATOM     47  O   UNL     1     -41.428  41.784  28.082  1.00  0.00    -0.269 OA
ATOM     48  N   UNL     1     -42.809  42.245  26.267  1.00  0.00    -0.268 N 
ATOM     49  C   UNL     1     -44.322  42.687  24.383  1.00  0.00    -0.019 A 
ATOM     50  C   UNL     1     -41.884  43.092  25.664  1.00  0.00     0.014 A 
ATOM     51  C   UNL     1     -43.400  43.493  23.842  1.00  0.00    -0.057 A 
ATOM     52  H   UNL     1     -45.282  42.505  23.916  1.00  0.00     0.066 H 
ATOM     53  C   UNL     1     -42.139  43.703  24.501  1.00  0.00    -0.045 A 
ATOM     54  H   UNL     1     -40.938  43.236  26.181  1.00  0.00     0.082 H 
ATOM     55  H   UNL     1     -43.584  44.000  22.900  1.00  0.00     0.062 H 
ATOM     56  H   UNL     1     -41.410  44.362  24.041  1.00  0.00     0.064 H 
ENDBRANCH  38  41
ENDBRANCH  34  37
ENDBRANCH   6  34
TORSDOF 7
ENDMDL
MODEL 6
REMARK VINA RESULT:      -9.6      1.935      3.282
REMARK SMILES [2H]C([2H])(NCC1CCC1)c1cc2ccc(CNC(=O)c3cc(=O)n4ccccc4n3)cc2[nH]1
REMARK SMILES IDX 10 1 11 2 12 3 13 4 14 5 15 6 31 7 32 8 33 9 2 15 1 16 3 17
REMARK SMILES IDX 4 18 5 20 6 23 7 24 9 25 8 27 16 34 17 37 18 38 19 40 20 41
REMARK SMILES IDX 21 42 30 43 22 44 29 46 23 47 24 48 28 49 25 50 27 51 26 53
REMARK H PARENT 11 10 13 11 14 12 31 13 33 14 4 19 5 21 5 22 6 26 7 28 7 29
REMARK H PARENT 9 30 9 31 8 32 8 33 16 35 16 36 17 39 21 45 28 52 25 54 27 55
REMARK H PARENT 26 56
REMARK Flexibility Score: inf
ROOT
ATOM      1  C   UNL     1     -48.293  30.698  24.944  1.00  0.00     0.030 A 
ATOM      2  C   UNL     1     -47.102  31.331  24.642  1.00  0.00    -0.032 A 
ATOM      3  C   UNL     1     -47.135  32.634  25.208  1.00  0.00    -0.000 A 
ATOM      4  C   UNL     1     -46.234  33.715  25.232  1.00  0.00    -0.052 A 
ATOM      5  C   UNL     1     -46.594  34.893  25.899  1.00  0.00    -0.057 A 
ATOM      6  C   UNL     1     -47.830  35.010  26.547  1.00  0.00    -0.027 A 
ATOM      7  C   UNL     1     -48.742  33.940  26.521  1.00  0.00    -0.033 A 
ATOM      8  C   UNL     1     -48.364  32.770  25.849  1.00  0.00     0.046 A 
ATOM      9  N   UNL     1     -49.045  31.587  25.676  1.00  0.00    -0.357 N 
ATOM     10  H   UNL     1     -46.290  30.891  24.077  1.00  0.00     0.065 H 
ATOM     11  H   UNL     1     -45.271  33.637  24.739  1.00  0.00     0.063 H 
ATOM     12  H   UNL     1     -45.892  35.724  25.906  1.00  0.00     0.063 H 
ATOM     13  H   UNL     1     -49.711  34.021  27.004  1.00  0.00     0.065 H 
ATOM     14  H   UNL     1     -49.968  31.404  26.044  1.00  0.00     0.166 HD
ENDROOT
BRANCH   1  15
ATOM     15  C   UNL     1     -48.786  29.337  24.600  1.00  0.00     0.036 C 
ATOM     16  H   UNL     1     -48.939  28.769  25.525  1.00  0.00     0.049 H 
ATOM     17  H   UNL     1     -48.036  28.804  24.001  1.00  0.00     0.049 H 
BRANCH  15  18
ATOM     18  N   UNL     1     -50.040  29.453  23.865  1.00  0.00    -0.311 NA
ATOM     19  H   UNL     1     -50.504  30.318  24.135  1.00  0.00     0.123 HD
BRANCH  18  20
ATOM     20  C   UNL     1     -49.815  29.433  22.420  1.00  0.00    -0.002 C 
ATOM     21  H   UNL     1     -48.859  28.946  22.197  1.00  0.00     0.043 H 
ATOM     22  H   UNL     1     -50.607  28.855  21.927  1.00  0.00     0.043 H 
BRANCH  20  23
ATOM     23  C   UNL     1     -49.788  30.865  21.882  1.00  0.00    -0.029 C 
ATOM     24  C   UNL     1     -50.983  31.784  22.253  1.00  0.00    -0.049 C 
ATOM     25  C   UNL     1     -50.231  31.023  20.404  1.00  0.00    -0.049 C 
ATOM     26  H   UNL     1     -48.812  31.331  22.074  1.00  0.00     0.032 H 
ATOM     27  C   UNL     1     -51.638  31.383  20.917  1.00  0.00    -0.053 C 
ATOM     28  H   UNL     1     -50.717  32.846  22.306  1.00  0.00     0.027 H 
ATOM     29  H   UNL     1     -51.548  31.519  23.151  1.00  0.00     0.027 H 
ATOM     30  H   UNL     1     -49.732  31.849  19.884  1.00  0.00     0.027 H 
ATOM     31  H   UNL     1     -50.171  30.129  19.777  1.00  0.00     0.027 H 
ATOM     32  H   UNL     1     -52.315  30.525  20.995  1.00  0.00     0.027 H 
ATOM     33  H   UNL     1     -52.148  32.187  20.379  1.00  0.00     0.027 H 
ENDBRANCH  20  23
ENDBRANCH  18  20
ENDBRANCH  15  18
ENDBRANCH   1  15
BRANCH   6  34
ATOM     34  C   UNL     1     -48.210  36.297  27.231  1.00  0.00     0.043 C 
ATOM     35  H   UNL     1     -48.778  36.945  26.552  1.00  0.00     0.054 H 
ATOM     36  H   UNL     1     -48.854  36.106  28.097  1.00  0.00     0.054 H 
BRANCH  34  37
ATOM     37  N   UNL     1     -47.039  36.998  27.685  1.00  0.00    -0.347 N 
ATOM     38  C   UNL     1     -46.747  38.272  27.273  1.00  0.00     0.270 C 
ATOM     39  H   UNL     1     -46.490  36.625  28.454  1.00  0.00     0.164 HD
ATOM     40  O   UNL     1     -47.385  38.885  26.426  1.00  0.00    -0.268 OA
BRANCH  38  41
ATOM     41  C   UNL     1     -45.550  38.851  27.988  1.00  0.00     0.136 A 
ATOM     42  C   UNL     1     -45.240  38.306  29.166  1.00  0.00     0.035 A 
ATOM     43  N   UNL     1     -44.859  39.884  27.394  1.00  0.00    -0.225 NA
ATOM     44  C   UNL     1     -44.082  38.839  29.896  1.00  0.00     0.258 A 
ATOM     45  H   UNL     1     -45.790  37.493  29.623  1.00  0.00     0.071 H 
ATOM     46  C   UNL     1     -43.836  40.351  28.042  1.00  0.00     0.140 A 
ATOM     47  O   UNL     1     -43.791  38.346  30.984  1.00  0.00    -0.269 OA
ATOM     48  N   UNL     1     -43.404  39.879  29.276  1.00  0.00    -0.268 N 
ATOM     49  C   UNL     1     -43.060  41.470  27.437  1.00  0.00    -0.019 A 
ATOM     50  C   UNL     1     -42.296  40.436  29.907  1.00  0.00     0.014 A 
ATOM     51  C   UNL     1     -42.000  41.973  28.082  1.00  0.00    -0.057 A 
ATOM     52  H   UNL     1     -43.389  41.845  26.476  1.00  0.00     0.066 H 
ATOM     53  C   UNL     1     -41.603  41.440  29.358  1.00  0.00    -0.045 A 
ATOM     54  H   UNL     1     -42.015  40.017  30.870  1.00  0.00     0.082 H 
ATOM     55  H   UNL     1     -41.422  42.788  27.658  1.00  0.00     0.062 H 
ATOM     56  H   UNL     1     -40.740  41.867  29.858  1.00  0.00     0.064 H 
ENDBRANCH  38  41
ENDBRANCH  34  37
ENDBRANCH   6  34
TORSDOF 7
ENDMDL
MODEL 7
REMARK VINA RESULT:      -9.6      2.262      4.250
REMARK SMILES [2H]C([2H])(NCC1CCC1)c1cc2ccc(CNC(=O)c3cc(=O)n4ccccc4n3)cc2[nH]1
REMARK SMILES IDX 10 1 11 2 12 3 13 4 14 5 15 6 31 7 32 8 33 9 2 15 1 16 3 17
REMARK SMILES IDX 4 18 5 20 6 23 7 24 9 25 8 27 16 34 17 37 18 38 19 40 20 41
REMARK SMILES IDX 21 42 30 43 22 44 29 46 23 47 24 48 28 49 25 50 27 51 26 53
REMARK H PARENT 11 10 13 11 14 12 31 13 33 14 4 19 5 21 5 22 6 26 7 28 7 29
REMARK H PARENT 9 30 9 31 8 32 8 33 16 35 16 36 17 39 21 45 28 52 25 54 27 55
REMARK H PARENT 26 56
REMARK Flexibility Score: inf
ROOT
ATOM      1  C   UNL     1     -46.912  33.556  26.389  1.00  0.00     0.030 A 
ATOM      2  C   UNL     1     -47.912  34.509  26.422  1.00  0.00    -0.032 A 
ATOM      3  C   UNL     1     -47.395  35.675  27.049  1.00  0.00    -0.000 A 
ATOM      4  C   UNL     1     -47.929  36.939  27.360  1.00  0.00    -0.052 A 
ATOM      5  C   UNL     1     -47.121  37.885  28.002  1.00  0.00    -0.057 A 
ATOM      6  C   UNL     1     -45.790  37.599  28.332  1.00  0.00    -0.027 A 
ATOM      7  C   UNL     1     -45.250  36.336  28.034  1.00  0.00    -0.033 A 
ATOM      8  C   UNL     1     -46.073  35.401  27.392  1.00  0.00     0.046 A 
ATOM      9  N   UNL     1     -45.804  34.115  26.982  1.00  0.00    -0.357 N 
ATOM     10  H   UNL     1     -48.911  34.377  26.025  1.00  0.00     0.065 H 
ATOM     11  H   UNL     1     -48.957  37.177  27.106  1.00  0.00     0.063 H 
ATOM     12  H   UNL     1     -47.547  38.858  28.244  1.00  0.00     0.063 H 
ATOM     13  H   UNL     1     -44.225  36.091  28.298  1.00  0.00     0.065 H 
ATOM     14  H   UNL     1     -44.913  33.656  27.101  1.00  0.00     0.166 HD
ENDROOT
BRANCH   1  15
ATOM     15  C   UNL     1     -46.909  32.166  25.856  1.00  0.00     0.036 C 
ATOM     16  H   UNL     1     -45.938  31.704  26.071  1.00  0.00     0.049 H 
ATOM     17  H   UNL     1     -47.039  32.180  24.767  1.00  0.00     0.049 H 
BRANCH  15  18
ATOM     18  N   UNL     1     -47.981  31.408  26.490  1.00  0.00    -0.311 NA
ATOM     19  H   UNL     1     -48.576  32.048  27.012  1.00  0.00     0.123 HD
BRANCH  18  20
ATOM     20  C   UNL     1     -48.774  30.677  25.502  1.00  0.00    -0.002 C 
ATOM     21  H   UNL     1     -49.146  29.743  25.939  1.00  0.00     0.043 H 
ATOM     22  H   UNL     1     -49.643  31.276  25.203  1.00  0.00     0.043 H 
BRANCH  20  23
ATOM     23  C   UNL     1     -47.909  30.351  24.283  1.00  0.00    -0.029 C 
ATOM     24  C   UNL     1     -48.530  30.609  22.884  1.00  0.00    -0.049 C 
ATOM     25  C   UNL     1     -47.856  28.851  23.892  1.00  0.00    -0.049 C 
ATOM     26  H   UNL     1     -46.905  30.785  24.395  1.00  0.00     0.032 H 
ATOM     27  C   UNL     1     -48.967  29.132  22.864  1.00  0.00    -0.053 C 
ATOM     28  H   UNL     1     -47.788  30.855  22.116  1.00  0.00     0.027 H 
ATOM     29  H   UNL     1     -49.342  31.340  22.833  1.00  0.00     0.027 H 
ATOM     30  H   UNL     1     -46.906  28.551  23.436  1.00  0.00     0.027 H 
ATOM     31  H   UNL     1     -48.110  28.132  24.677  1.00  0.00     0.027 H 
ATOM     32  H   UNL     1     -49.980  28.965  23.248  1.00  0.00     0.027 H 
ATOM     33  H   UNL     1     -48.865  28.620  21.903  1.00  0.00     0.027 H 
ENDBRANCH  20  23
ENDBRANCH  18  20
ENDBRANCH  15  18
ENDBRANCH   1  15
BRANCH   6  34
ATOM     34  C   UNL     1     -44.950  38.620  29.051  1.00  0.00     0.043 C 
ATOM     35  H   UNL     1     -45.418  38.912  29.999  1.00  0.00     0.054 H 
ATOM     36  H   UNL     1     -43.963  38.211  29.300  1.00  0.00     0.054 H 
BRANCH  34  37
ATOM     37  N   UNL     1     -44.759  39.790  28.236  1.00  0.00    -0.347 N 
ATOM     38  C   UNL     1     -43.651  40.588  28.356  1.00  0.00     0.270 C 
ATOM     39  H   UNL     1     -45.364  39.957  27.437  1.00  0.00     0.164 HD
ATOM     40  O   UNL     1     -42.786  40.442  29.210  1.00  0.00    -0.268 OA
BRANCH  38  41
ATOM     41  C   UNL     1     -43.604  41.671  27.305  1.00  0.00     0.136 A 
ATOM     42  C   UNL     1     -42.397  41.997  26.840  1.00  0.00     0.035 A 
ATOM     43  N   UNL     1     -44.786  42.246  26.894  1.00  0.00    -0.225 NA
ATOM     44  C   UNL     1     -42.306  43.046  25.815  1.00  0.00     0.258 A 
ATOM     45  H   UNL     1     -41.474  41.536  27.169  1.00  0.00     0.071 H 
ATOM     46  C   UNL     1     -44.701  43.172  25.988  1.00  0.00     0.140 A 
ATOM     47  O   UNL     1     -41.197  43.355  25.382  1.00  0.00    -0.269 OA
ATOM     48  N   UNL     1     -43.510  43.609  25.419  1.00  0.00    -0.268 N 
ATOM     49  C   UNL     1     -45.955  43.823  25.514  1.00  0.00    -0.019 A 
ATOM     50  C   UNL     1     -43.505  44.609  24.452  1.00  0.00     0.014 A 
ATOM     51  C   UNL     1     -45.899  44.781  24.581  1.00  0.00    -0.057 A 
ATOM     52  H   UNL     1     -46.888  43.490  25.952  1.00  0.00     0.066 H 
ATOM     53  C   UNL     1     -44.634  45.189  24.030  1.00  0.00    -0.045 A 
ATOM     54  H   UNL     1     -42.537  44.901  24.050  1.00  0.00     0.082 H 
ATOM     55  H   UNL     1     -46.801  45.267  24.223  1.00  0.00     0.062 H 
ATOM     56  H   UNL     1     -44.618  45.968  23.275  1.00  0.00     0.064 H 
ENDBRANCH  38  41
ENDBRANCH  34  37
ENDBRANCH   6  34
TORSDOF 7
ENDMDL
