MODEL 1
REMARK VINA RESULT:     -10.7      0.000      0.000
REMARK SMILES CNc1ccc2ccc(CC[C@H]3C[C@@H](n4ccc5c(N)ncnc54)[C@H](O)[C@@H]3O)cc2n1
REMARK SMILES IDX 10 1 9 4 3 5 4 6 31 7 5 8 30 10 6 11 29 13 7 14 8 16 2 19
REMARK SMILES IDX 1 21 11 25 12 28 13 29 27 30 14 32 25 35 28 39 15 41 16 42
REMARK SMILES IDX 24 43 17 44 18 46 23 47 19 49 22 50 21 51 20 53 26 56
REMARK H PARENT 10 2 10 3 4 9 5 12 29 15 7 17 8 18 2 20 1 22 1 23 1 24 11 26
REMARK H PARENT 11 27 12 31 13 33 13 34 27 36 14 37 25 38 28 40 16 45 17 48
REMARK H PARENT 22 52 20 54 20 55 26 57
REMARK Flexibility Score: inf
ROOT
ATOM      1  C   UNL     1     -48.356  35.230  26.973  1.00  0.00    -0.027 C 
ATOM      2  H   UNL     1     -49.189  35.701  26.434  1.00  0.00     0.032 H 
ATOM      3  H   UNL     1     -48.785  34.878  27.920  1.00  0.00     0.032 H 
ENDROOT
BRANCH   1   4
ATOM      4  C   UNL     1     -47.879  34.062  26.153  1.00  0.00    -0.046 A 
ATOM      5  C   UNL     1     -48.749  29.721  24.379  1.00  0.00     0.126 A 
ATOM      6  C   UNL     1     -47.529  29.699  23.712  1.00  0.00    -0.019 A 
ATOM      7  N   UNL     1     -49.118  30.769  25.143  1.00  0.00    -0.231 NA
ATOM      8  C   UNL     1     -46.674  30.792  23.812  1.00  0.00    -0.049 A 
ATOM      9  H   UNL     1     -47.238  28.834  23.126  1.00  0.00     0.066 H 
ATOM     10  C   UNL     1     -48.293  31.827  25.247  1.00  0.00     0.073 A 
ATOM     11  C   UNL     1     -47.052  31.889  24.589  1.00  0.00     0.000 A 
ATOM     12  H   UNL     1     -45.723  30.777  23.289  1.00  0.00     0.063 H 
ATOM     13  C   UNL     1     -48.677  32.914  26.023  1.00  0.00    -0.033 A 
ATOM     14  C   UNL     1     -46.233  33.024  24.720  1.00  0.00    -0.053 A 
ATOM     15  H   UNL     1     -49.636  32.862  26.534  1.00  0.00     0.065 H 
ATOM     16  C   UNL     1     -46.646  34.104  25.498  1.00  0.00    -0.058 A 
ATOM     17  H   UNL     1     -45.272  33.072  24.214  1.00  0.00     0.063 H 
ATOM     18  H   UNL     1     -46.004  34.979  25.580  1.00  0.00     0.063 H 
BRANCH   5  19
ATOM     19  N   UNL     1     -49.576  28.588  24.272  1.00  0.00    -0.373 N 
ATOM     20  H   UNL     1     -50.428  28.752  24.800  1.00  0.00     0.161 HD
BRANCH  19  21
ATOM     21  C   UNL     1     -48.933  27.341  24.652  1.00  0.00     0.005 C 
ATOM     22  H   UNL     1     -47.848  27.467  24.588  1.00  0.00     0.045 H 
ATOM     23  H   UNL     1     -49.168  27.065  25.686  1.00  0.00     0.045 H 
ATOM     24  H   UNL     1     -49.211  26.522  23.980  1.00  0.00     0.045 H 
ENDBRANCH  19  21
ENDBRANCH   5  19
ENDBRANCH   1   4
BRANCH   1  25
ATOM     25  C   UNL     1     -47.286  36.297  27.253  1.00  0.00    -0.044 C 
ATOM     26  H   UNL     1     -46.762  36.567  26.328  1.00  0.00     0.027 H 
ATOM     27  H   UNL     1     -47.825  37.196  27.576  1.00  0.00     0.027 H 
BRANCH  25  28
ATOM     28  C   UNL     1     -46.285  35.905  28.360  1.00  0.00    -0.010 C 
ATOM     29  C   UNL     1     -44.896  36.556  28.196  1.00  0.00    -0.024 C 
ATOM     30  C   UNL     1     -46.725  36.432  29.728  1.00  0.00     0.085 C 
ATOM     31  H   UNL     1     -46.178  34.814  28.392  1.00  0.00     0.033 H 
ATOM     32  C   UNL     1     -44.914  37.873  29.008  1.00  0.00     0.064 C 
ATOM     33  H   UNL     1     -44.153  35.889  28.656  1.00  0.00     0.029 H 
ATOM     34  H   UNL     1     -44.584  36.662  27.157  1.00  0.00     0.029 H 
ATOM     35  C   UNL     1     -46.279  37.894  29.726  1.00  0.00     0.101 C 
ATOM     36  H   UNL     1     -47.795  36.321  29.927  1.00  0.00     0.063 H 
ATOM     37  H   UNL     1     -44.096  37.824  29.742  1.00  0.00     0.056 H 
ATOM     38  H   UNL     1     -47.009  38.513  29.192  1.00  0.00     0.065 H 
BRANCH  30  39
ATOM     39  O   UNL     1     -46.022  35.723  30.755  1.00  0.00    -0.390 OA
ATOM     40  H   UNL     1     -46.718  35.452  31.389  1.00  0.00     0.211 HD
ENDBRANCH  30  39
BRANCH  32  41
ATOM     41  N   UNL     1     -44.689  39.119  28.283  1.00  0.00    -0.327 N 
ATOM     42  C   UNL     1     -45.341  39.590  27.174  1.00  0.00     0.007 A 
ATOM     43  C   UNL     1     -43.734  40.042  28.666  1.00  0.00     0.145 A 
ATOM     44  C   UNL     1     -44.779  40.801  26.822  1.00  0.00    -0.031 A 
ATOM     45  H   UNL     1     -46.142  39.048  26.694  1.00  0.00     0.082 H 
ATOM     46  C   UNL     1     -43.761  41.097  27.765  1.00  0.00     0.061 A 
ATOM     47  N   UNL     1     -42.929  39.931  29.741  1.00  0.00    -0.218 NA
ATOM     48  H   UNL     1     -45.075  41.404  25.973  1.00  0.00     0.065 H 
ATOM     49  C   UNL     1     -42.848  42.138  27.981  1.00  0.00     0.136 A 
ATOM     50  C   UNL     1     -42.092  40.982  29.835  1.00  0.00     0.120 A 
ATOM     51  N   UNL     1     -42.013  42.062  29.035  1.00  0.00    -0.219 NA
ATOM     52  H   UNL     1     -41.393  40.960  30.666  1.00  0.00     0.106 H 
BRANCH  49  53
ATOM     53  N   UNL     1     -42.762  43.265  27.178  1.00  0.00    -0.383 N 
ATOM     54  H   UNL     1     -42.061  43.218  26.453  1.00  0.00     0.158 HD
ATOM     55  H   UNL     1     -43.685  43.577  26.897  1.00  0.00     0.158 HD
ENDBRANCH  49  53
ENDBRANCH  32  41
BRANCH  35  56
ATOM     56  O   UNL     1     -46.188  38.363  31.074  1.00  0.00    -0.388 OA
ATOM     57  H   UNL     1     -45.615  37.721  31.548  1.00  0.00     0.211 HD
ENDBRANCH  35  56
ENDBRANCH  25  28
ENDBRANCH   1  25
TORSDOF 9
ENDMDL
MODEL 2
REMARK VINA RESULT:      -9.6      1.757     10.091
REMARK SMILES CNc1ccc2ccc(CC[C@H]3C[C@@H](n4ccc5c(N)ncnc54)[C@H](O)[C@@H]3O)cc2n1
REMARK SMILES IDX 10 1 9 4 3 5 4 6 31 7 5 8 30 10 6 11 29 13 7 14 8 16 2 19
REMARK SMILES IDX 1 21 11 25 12 28 13 29 27 30 14 32 25 35 28 39 15 41 16 42
REMARK SMILES IDX 24 43 17 44 18 46 23 47 19 49 22 50 21 51 20 53 26 56
REMARK H PARENT 10 2 10 3 4 9 5 12 29 15 7 17 8 18 2 20 1 22 1 23 1 24 11 26
REMARK H PARENT 11 27 12 31 13 33 13 34 27 36 14 37 25 38 28 40 16 45 17 48
REMARK H PARENT 22 52 20 54 20 55 26 57
REMARK Flexibility Score: inf
ROOT
ATOM      1  C   UNL     1     -46.915  38.400  26.597  1.00  0.00    -0.027 C 
ATOM      2  H   UNL     1     -47.766  38.586  27.265  1.00  0.00     0.032 H 
ATOM      3  H   UNL     1     -47.201  38.840  25.633  1.00  0.00     0.032 H 
ENDROOT
BRANCH   1   4
ATOM      4  C   UNL     1     -45.720  39.119  27.163  1.00  0.00    -0.046 A 
ATOM      5  C   UNL     1     -42.471  42.580  26.701  1.00  0.00     0.126 A 
ATOM      6  C   UNL     1     -41.908  42.279  27.936  1.00  0.00    -0.019 A 
ATOM      7  N   UNL     1     -43.512  41.879  26.209  1.00  0.00    -0.231 NA
ATOM      8  C   UNL     1     -42.443  41.246  28.698  1.00  0.00    -0.049 A 
ATOM      9  H   UNL     1     -41.052  42.837  28.300  1.00  0.00     0.066 H 
ATOM     10  C   UNL     1     -44.031  40.875  26.940  1.00  0.00     0.073 A 
ATOM     11  C   UNL     1     -43.530  40.522  28.206  1.00  0.00     0.000 A 
ATOM     12  H   UNL     1     -42.005  41.012  29.664  1.00  0.00     0.063 H 
ATOM     13  C   UNL     1     -45.112  40.159  26.441  1.00  0.00    -0.033 A 
ATOM     14  C   UNL     1     -44.116  39.473  28.935  1.00  0.00    -0.053 A 
ATOM     15  H   UNL     1     -45.495  40.433  25.460  1.00  0.00     0.065 H 
ATOM     16  C   UNL     1     -45.206  38.777  28.415  1.00  0.00    -0.058 A 
ATOM     17  H   UNL     1     -43.728  39.197  29.913  1.00  0.00     0.063 H 
ATOM     18  H   UNL     1     -45.654  37.975  28.998  1.00  0.00     0.063 H 
BRANCH   5  19
ATOM     19  N   UNL     1     -41.888  43.617  25.949  1.00  0.00    -0.373 N 
ATOM     20  H   UNL     1     -42.074  44.503  26.410  1.00  0.00     0.161 HD
BRANCH  19  21
ATOM     21  C   UNL     1     -42.288  43.638  24.551  1.00  0.00     0.005 C 
ATOM     22  H   UNL     1     -43.356  43.413  24.484  1.00  0.00     0.045 H 
ATOM     23  H   UNL     1     -42.134  44.626  24.103  1.00  0.00     0.045 H 
ATOM     24  H   UNL     1     -41.752  42.881  23.968  1.00  0.00     0.045 H 
ENDBRANCH  19  21
ENDBRANCH   5  19
ENDBRANCH   1   4
BRANCH   1  25
ATOM     25  C   UNL     1     -46.734  36.881  26.441  1.00  0.00    -0.044 C 
ATOM     26  H   UNL     1     -47.128  36.544  25.475  1.00  0.00     0.027 H 
ATOM     27  H   UNL     1     -45.652  36.701  26.414  1.00  0.00     0.027 H 
BRANCH  25  28
ATOM     28  C   UNL     1     -47.335  36.058  27.599  1.00  0.00    -0.010 C 
ATOM     29  C   UNL     1     -48.146  34.832  27.130  1.00  0.00    -0.024 C 
ATOM     30  C   UNL     1     -46.244  35.410  28.455  1.00  0.00     0.085 C 
ATOM     31  H   UNL     1     -47.969  36.702  28.221  1.00  0.00     0.033 H 
ATOM     32  C   UNL     1     -47.172  33.630  27.096  1.00  0.00     0.064 C 
ATOM     33  H   UNL     1     -48.911  34.621  27.891  1.00  0.00     0.029 H 
ATOM     34  H   UNL     1     -48.697  35.002  26.206  1.00  0.00     0.029 H 
ATOM     35  C   UNL     1     -45.842  34.163  27.666  1.00  0.00     0.101 C 
ATOM     36  H   UNL     1     -45.393  36.064  28.665  1.00  0.00     0.063 H 
ATOM     37  H   UNL     1     -47.583  32.848  27.752  1.00  0.00     0.056 H 
ATOM     38  H   UNL     1     -45.137  34.430  26.870  1.00  0.00     0.065 H 
BRANCH  30  39
ATOM     39  O   UNL     1     -46.802  35.015  29.713  1.00  0.00    -0.390 OA
ATOM     40  H   UNL     1     -46.812  34.036  29.682  1.00  0.00     0.211 HD
ENDBRANCH  30  39
BRANCH  32  41
ATOM     41  N   UNL     1     -46.959  32.966  25.815  1.00  0.00    -0.327 N 
ATOM     42  C   UNL     1     -46.160  33.359  24.773  1.00  0.00     0.007 A 
ATOM     43  C   UNL     1     -47.570  31.772  25.483  1.00  0.00     0.145 A 
ATOM     44  C   UNL     1     -46.287  32.435  23.756  1.00  0.00    -0.031 A 
ATOM     45  H   UNL     1     -45.567  34.262  24.801  1.00  0.00     0.082 H 
ATOM     46  C   UNL     1     -47.177  31.422  24.199  1.00  0.00     0.061 A 
ATOM     47  N   UNL     1     -48.396  31.070  26.283  1.00  0.00    -0.218 NA
ATOM     48  H   UNL     1     -45.788  32.488  22.797  1.00  0.00     0.065 H 
ATOM     49  C   UNL     1     -47.706  30.235  23.676  1.00  0.00     0.136 A 
ATOM     50  C   UNL     1     -48.847  29.960  25.669  1.00  0.00     0.120 A 
ATOM     51  N   UNL     1     -48.548  29.508  24.436  1.00  0.00    -0.219 NA
ATOM     52  H   UNL     1     -49.536  29.346  26.240  1.00  0.00     0.106 H 
BRANCH  49  53
ATOM     53  N   UNL     1     -47.399  29.745  22.416  1.00  0.00    -0.383 N 
ATOM     54  H   UNL     1     -47.734  30.307  21.647  1.00  0.00     0.158 HD
ATOM     55  H   UNL     1     -46.430  29.448  22.373  1.00  0.00     0.158 HD
ENDBRANCH  49  53
ENDBRANCH  32  41
BRANCH  35  56
ATOM     56  O   UNL     1     -45.202  33.233  28.544  1.00  0.00    -0.388 OA
ATOM     57  H   UNL     1     -44.345  33.643  28.797  1.00  0.00     0.211 HD
ENDBRANCH  35  56
ENDBRANCH  25  28
ENDBRANCH   1  25
TORSDOF 9
ENDMDL
MODEL 3
REMARK VINA RESULT:      -9.4      1.881      2.473
REMARK SMILES CNc1ccc2ccc(CC[C@H]3C[C@@H](n4ccc5c(N)ncnc54)[C@H](O)[C@@H]3O)cc2n1
REMARK SMILES IDX 10 1 9 4 3 5 4 6 31 7 5 8 30 10 6 11 29 13 7 14 8 16 2 19
REMARK SMILES IDX 1 21 11 25 12 28 13 29 27 30 14 32 25 35 28 39 15 41 16 42
REMARK SMILES IDX 24 43 17 44 18 46 23 47 19 49 22 50 21 51 20 53 26 56
REMARK H PARENT 10 2 10 3 4 9 5 12 29 15 7 17 8 18 2 20 1 22 1 23 1 24 11 26
REMARK H PARENT 11 27 12 31 13 33 13 34 27 36 14 37 25 38 28 40 16 45 17 48
REMARK H PARENT 22 52 20 54 20 55 26 57
REMARK Flexibility Score: inf
ROOT
ATOM      1  C   UNL     1     -46.132  35.714  26.817  1.00  0.00    -0.027 C 
ATOM      2  H   UNL     1     -45.980  35.563  27.895  1.00  0.00     0.032 H 
ATOM      3  H   UNL     1     -45.128  35.686  26.376  1.00  0.00     0.032 H 
ENDROOT
BRANCH   1   4
ATOM      4  C   UNL     1     -46.958  34.565  26.304  1.00  0.00    -0.046 A 
ATOM      5  C   UNL     1     -47.149  30.489  23.835  1.00  0.00     0.126 A 
ATOM      6  C   UNL     1     -48.501  30.326  24.120  1.00  0.00    -0.019 A 
ATOM      7  N   UNL     1     -46.458  31.559  24.276  1.00  0.00    -0.231 NA
ATOM      8  C   UNL     1     -49.155  31.275  24.899  1.00  0.00    -0.049 A 
ATOM      9  H   UNL     1     -49.046  29.473  23.731  1.00  0.00     0.066 H 
ATOM     10  C   UNL     1     -47.086  32.482  25.026  1.00  0.00     0.073 A 
ATOM     11  C   UNL     1     -48.445  32.380  25.374  1.00  0.00     0.000 A 
ATOM     12  H   UNL     1     -50.209  31.147  25.125  1.00  0.00     0.063 H 
ATOM     13  C   UNL     1     -46.372  33.579  25.493  1.00  0.00    -0.033 A 
ATOM     14  C   UNL     1     -49.052  33.366  26.171  1.00  0.00    -0.053 A 
ATOM     15  H   UNL     1     -45.322  33.657  25.220  1.00  0.00     0.065 H 
ATOM     16  C   UNL     1     -48.310  34.451  26.634  1.00  0.00    -0.058 A 
ATOM     17  H   UNL     1     -50.103  33.289  26.438  1.00  0.00     0.063 H 
ATOM     18  H   UNL     1     -48.792  35.199  27.259  1.00  0.00     0.063 H 
BRANCH   5  19
ATOM     19  N   UNL     1     -46.528  29.520  23.025  1.00  0.00    -0.373 N 
ATOM     20  H   UNL     1     -46.874  29.616  22.074  1.00  0.00     0.161 HD
BRANCH  19  21
ATOM     21  C   UNL     1     -46.659  28.158  23.515  1.00  0.00     0.005 C 
ATOM     22  H   UNL     1     -46.060  27.495  22.885  1.00  0.00     0.045 H 
ATOM     23  H   UNL     1     -46.285  28.061  24.540  1.00  0.00     0.045 H 
ATOM     24  H   UNL     1     -47.697  27.811  23.468  1.00  0.00     0.045 H 
ENDBRANCH  19  21
ENDBRANCH   5  19
ENDBRANCH   1   4
BRANCH   1  25
ATOM     25  C   UNL     1     -46.758  37.101  26.599  1.00  0.00    -0.044 C 
ATOM     26  H   UNL     1     -46.096  37.729  25.990  1.00  0.00     0.027 H 
ATOM     27  H   UNL     1     -47.665  36.939  26.003  1.00  0.00     0.027 H 
BRANCH  25  28
ATOM     28  C   UNL     1     -47.155  37.821  27.904  1.00  0.00    -0.010 C 
ATOM     29  C   UNL     1     -45.986  38.572  28.575  1.00  0.00    -0.024 C 
ATOM     30  C   UNL     1     -48.152  38.952  27.642  1.00  0.00     0.085 C 
ATOM     31  H   UNL     1     -47.581  37.098  28.611  1.00  0.00     0.033 H 
ATOM     32  C   UNL     1     -46.017  40.025  28.044  1.00  0.00     0.064 C 
ATOM     33  H   UNL     1     -46.182  38.608  29.656  1.00  0.00     0.029 H 
ATOM     34  H   UNL     1     -45.027  38.066  28.473  1.00  0.00     0.029 H 
ATOM     35  C   UNL     1     -47.282  40.115  27.166  1.00  0.00     0.101 C 
ATOM     36  H   UNL     1     -48.939  38.698  26.925  1.00  0.00     0.063 H 
ATOM     37  H   UNL     1     -46.104  40.697  28.910  1.00  0.00     0.056 H 
ATOM     38  H   UNL     1     -47.046  40.001  26.102  1.00  0.00     0.065 H 
BRANCH  30  39
ATOM     39  O   UNL     1     -48.793  39.311  28.871  1.00  0.00    -0.390 OA
ATOM     40  H   UNL     1     -48.358  40.147  29.141  1.00  0.00     0.211 HD
ENDBRANCH  30  39
BRANCH  32  41
ATOM     41  N   UNL     1     -44.845  40.506  27.318  1.00  0.00    -0.327 N 
ATOM     42  C   UNL     1     -44.730  40.798  25.983  1.00  0.00     0.007 A 
ATOM     43  C   UNL     1     -43.635  40.755  27.936  1.00  0.00     0.145 A 
ATOM     44  C   UNL     1     -43.432  41.200  25.738  1.00  0.00    -0.031 A 
ATOM     45  H   UNL     1     -45.552  40.694  25.291  1.00  0.00     0.082 H 
ATOM     46  C   UNL     1     -42.732  41.179  26.972  1.00  0.00     0.061 A 
ATOM     47  N   UNL     1     -43.390  40.618  29.254  1.00  0.00    -0.218 NA
ATOM     48  H   UNL     1     -43.037  41.478  24.770  1.00  0.00     0.065 H 
ATOM     49  C   UNL     1     -41.433  41.473  27.408  1.00  0.00     0.136 A 
ATOM     50  C   UNL     1     -42.110  40.916  29.547  1.00  0.00     0.120 A 
ATOM     51  N   UNL     1     -41.138  41.336  28.715  1.00  0.00    -0.219 NA
ATOM     52  H   UNL     1     -41.824  40.812  30.590  1.00  0.00     0.106 H 
BRANCH  49  53
ATOM     53  N   UNL     1     -40.422  41.920  26.569  1.00  0.00    -0.383 N 
ATOM     54  H   UNL     1     -40.682  42.681  25.959  1.00  0.00     0.158 HD
ATOM     55  H   UNL     1     -39.552  42.023  27.080  1.00  0.00     0.158 HD
ENDBRANCH  49  53
ENDBRANCH  32  41
BRANCH  35  56
ATOM     56  O   UNL     1     -47.993  41.343  27.343  1.00  0.00    -0.388 OA
ATOM     57  H   UNL     1     -48.934  41.095  27.483  1.00  0.00     0.211 HD
ENDBRANCH  35  56
ENDBRANCH  25  28
ENDBRANCH   1  25
TORSDOF 9
ENDMDL
MODEL 4
REMARK VINA RESULT:      -9.2      5.124     11.237
REMARK SMILES CNc1ccc2ccc(CC[C@H]3C[C@@H](n4ccc5c(N)ncnc54)[C@H](O)[C@@H]3O)cc2n1
REMARK SMILES IDX 10 1 9 4 3 5 4 6 31 7 5 8 30 10 6 11 29 13 7 14 8 16 2 19
REMARK SMILES IDX 1 21 11 25 12 28 13 29 27 30 14 32 25 35 28 39 15 41 16 42
REMARK SMILES IDX 24 43 17 44 18 46 23 47 19 49 22 50 21 51 20 53 26 56
REMARK H PARENT 10 2 10 3 4 9 5 12 29 15 7 17 8 18 2 20 1 22 1 23 1 24 11 26
REMARK H PARENT 11 27 12 31 13 33 13 34 27 36 14 37 25 38 28 40 16 45 17 48
REMARK H PARENT 22 52 20 54 20 55 26 57
REMARK Flexibility Score: inf
ROOT
ATOM      1  C   UNL     1     -48.702  31.164  25.394  1.00  0.00    -0.027 C 
ATOM      2  H   UNL     1     -47.861  30.546  25.050  1.00  0.00     0.032 H 
ATOM      3  H   UNL     1     -49.050  30.689  26.320  1.00  0.00     0.032 H 
ENDROOT
BRANCH   1   4
ATOM      4  C   UNL     1     -48.173  32.542  25.682  1.00  0.00    -0.046 A 
ATOM      5  C   UNL     1     -48.839  36.802  27.724  1.00  0.00     0.126 A 
ATOM      6  C   UNL     1     -47.577  37.237  27.333  1.00  0.00    -0.019 A 
ATOM      7  N   UNL     1     -49.293  35.573  27.403  1.00  0.00    -0.231 NA
ATOM      8  C   UNL     1     -46.750  36.380  26.614  1.00  0.00    -0.049 A 
ATOM      9  H   UNL     1     -47.242  38.240  27.576  1.00  0.00     0.066 H 
ATOM     10  C   UNL     1     -48.499  34.742  26.704  1.00  0.00     0.073 A 
ATOM     11  C   UNL     1     -47.204  35.101  26.289  1.00  0.00     0.000 A 
ATOM     12  H   UNL     1     -45.764  36.719  26.311  1.00  0.00     0.063 H 
ATOM     13  C   UNL     1     -48.959  33.471  26.384  1.00  0.00    -0.033 A 
ATOM     14  C   UNL     1     -46.409  34.191  25.571  1.00  0.00    -0.053 A 
ATOM     15  H   UNL     1     -49.962  33.197  26.704  1.00  0.00     0.065 H 
ATOM     16  C   UNL     1     -46.892  32.917  25.272  1.00  0.00    -0.058 A 
ATOM     17  H   UNL     1     -45.408  34.468  25.248  1.00  0.00     0.063 H 
ATOM     18  H   UNL     1     -46.259  32.222  24.725  1.00  0.00     0.063 H 
BRANCH   5  19
ATOM     19  N   UNL     1     -49.656  37.704  28.429  1.00  0.00    -0.373 N 
ATOM     20  H   UNL     1     -50.627  37.427  28.316  1.00  0.00     0.161 HD
BRANCH  19  21
ATOM     21  C   UNL     1     -49.445  39.099  28.080  1.00  0.00     0.005 C 
ATOM     22  H   UNL     1     -50.182  39.712  28.607  1.00  0.00     0.045 H 
ATOM     23  H   UNL     1     -48.452  39.446  28.388  1.00  0.00     0.045 H 
ATOM     24  H   UNL     1     -49.578  39.270  27.006  1.00  0.00     0.045 H 
ENDBRANCH  19  21
ENDBRANCH   5  19
ENDBRANCH   1   4
BRANCH   1  25
ATOM     25  C   UNL     1     -49.815  31.113  24.334  1.00  0.00    -0.044 C 
ATOM     26  H   UNL     1     -50.510  30.292  24.546  1.00  0.00     0.027 H 
ATOM     27  H   UNL     1     -50.389  32.041  24.446  1.00  0.00     0.027 H 
BRANCH  25  28
ATOM     28  C   UNL     1     -49.294  31.034  22.884  1.00  0.00    -0.010 C 
ATOM     29  C   UNL     1     -47.891  30.402  22.765  1.00  0.00    -0.024 C 
ATOM     30  C   UNL     1     -50.143  30.088  22.032  1.00  0.00     0.085 C 
ATOM     31  H   UNL     1     -49.284  32.036  22.439  1.00  0.00     0.033 H 
ATOM     32  C   UNL     1     -48.095  28.888  22.522  1.00  0.00     0.064 C 
ATOM     33  H   UNL     1     -47.406  30.821  21.872  1.00  0.00     0.029 H 
ATOM     34  H   UNL     1     -47.230  30.649  23.594  1.00  0.00     0.029 H 
ATOM     35  C   UNL     1     -49.619  28.695  22.385  1.00  0.00     0.101 C 
ATOM     36  H   UNL     1     -51.221  30.183  22.196  1.00  0.00     0.063 H 
ATOM     37  H   UNL     1     -47.591  28.628  21.580  1.00  0.00     0.056 H 
ATOM     38  H   UNL     1     -50.070  28.347  23.321  1.00  0.00     0.065 H 
BRANCH  30  39
ATOM     39  O   UNL     1     -49.896  30.350  20.646  1.00  0.00    -0.390 OA
ATOM     40  H   UNL     1     -49.363  31.172  20.641  1.00  0.00     0.211 HD
ENDBRANCH  30  39
BRANCH  32  41
ATOM     41  N   UNL     1     -47.542  27.963  23.506  1.00  0.00    -0.327 N 
ATOM     42  C   UNL     1     -46.228  27.646  23.733  1.00  0.00     0.007 A 
ATOM     43  C   UNL     1     -48.331  27.260  24.396  1.00  0.00     0.145 A 
ATOM     44  C   UNL     1     -46.176  26.710  24.747  1.00  0.00    -0.031 A 
ATOM     45  H   UNL     1     -45.417  28.081  23.168  1.00  0.00     0.082 H 
ATOM     46  C   UNL     1     -47.506  26.462  25.175  1.00  0.00     0.061 A 
ATOM     47  N   UNL     1     -49.672  27.352  24.490  1.00  0.00    -0.218 NA
ATOM     48  H   UNL     1     -45.272  26.256  25.133  1.00  0.00     0.065 H 
ATOM     49  C   UNL     1     -48.129  25.658  26.139  1.00  0.00     0.136 A 
ATOM     50  C   UNL     1     -50.154  26.527  25.438  1.00  0.00     0.120 A 
ATOM     51  N   UNL     1     -49.470  25.706  26.258  1.00  0.00    -0.219 NA
ATOM     52  H   UNL     1     -51.233  26.526  25.565  1.00  0.00     0.106 H 
BRANCH  49  53
ATOM     53  N   UNL     1     -47.442  24.817  27.002  1.00  0.00    -0.383 N 
ATOM     54  H   UNL     1     -46.552  24.489  26.656  1.00  0.00     0.158 HD
ATOM     55  H   UNL     1     -47.454  25.186  27.946  1.00  0.00     0.158 HD
ENDBRANCH  49  53
ENDBRANCH  32  41
BRANCH  35  56
ATOM     56  O   UNL     1     -49.971  27.779  21.345  1.00  0.00    -0.388 OA
ATOM     57  H   UNL     1     -49.656  26.896  21.641  1.00  0.00     0.211 HD
ENDBRANCH  35  56
ENDBRANCH  25  28
ENDBRANCH   1  25
TORSDOF 9
ENDMDL
MODEL 5
REMARK VINA RESULT:      -9.1      3.703     11.329
REMARK SMILES CNc1ccc2ccc(CC[C@H]3C[C@@H](n4ccc5c(N)ncnc54)[C@H](O)[C@@H]3O)cc2n1
REMARK SMILES IDX 10 1 9 4 3 5 4 6 31 7 5 8 30 10 6 11 29 13 7 14 8 16 2 19
REMARK SMILES IDX 1 21 11 25 12 28 13 29 27 30 14 32 25 35 28 39 15 41 16 42
REMARK SMILES IDX 24 43 17 44 18 46 23 47 19 49 22 50 21 51 20 53 26 56
REMARK H PARENT 10 2 10 3 4 9 5 12 29 15 7 17 8 18 2 20 1 22 1 23 1 24 11 26
REMARK H PARENT 11 27 12 31 13 33 13 34 27 36 14 37 25 38 28 40 16 45 17 48
REMARK H PARENT 22 52 20 54 20 55 26 57
REMARK Flexibility Score: inf
ROOT
ATOM      1  C   UNL     1     -46.218  32.731  25.172  1.00  0.00    -0.027 C 
ATOM      2  H   UNL     1     -45.381  33.170  24.613  1.00  0.00     0.032 H 
ATOM      3  H   UNL     1     -45.758  32.034  25.884  1.00  0.00     0.032 H 
ENDROOT
BRANCH   1   4
ATOM      4  C   UNL     1     -46.915  33.844  25.908  1.00  0.00    -0.046 A 
ATOM      5  C   UNL     1     -46.631  38.101  28.039  1.00  0.00     0.126 A 
ATOM      6  C   UNL     1     -47.997  38.113  28.299  1.00  0.00    -0.019 A 
ATOM      7  N   UNL     1     -46.039  37.061  27.418  1.00  0.00    -0.231 NA
ATOM      8  C   UNL     1     -48.781  37.039  27.889  1.00  0.00    -0.049 A 
ATOM      9  H   UNL     1     -48.449  38.946  28.826  1.00  0.00     0.066 H 
ATOM     10  C   UNL     1     -46.791  36.018  27.023  1.00  0.00     0.073 A 
ATOM     11  C   UNL     1     -48.181  35.963  27.232  1.00  0.00     0.000 A 
ATOM     12  H   UNL     1     -49.848  37.049  28.089  1.00  0.00     0.063 H 
ATOM     13  C   UNL     1     -46.185  34.951  26.372  1.00  0.00    -0.033 A 
ATOM     14  C   UNL     1     -48.924  34.856  26.790  1.00  0.00    -0.053 A 
ATOM     15  H   UNL     1     -45.110  34.994  26.214  1.00  0.00     0.065 H 
ATOM     16  C   UNL     1     -48.293  33.802  26.129  1.00  0.00    -0.058 A 
ATOM     17  H   UNL     1     -49.998  34.811  26.953  1.00  0.00     0.063 H 
ATOM     18  H   UNL     1     -48.885  32.958  25.784  1.00  0.00     0.063 H 
BRANCH   5  19
ATOM     19  N   UNL     1     -45.867  39.194  28.489  1.00  0.00    -0.373 N 
ATOM     20  H   UNL     1     -46.479  39.997  28.606  1.00  0.00     0.161 HD
BRANCH  19  21
ATOM     21  C   UNL     1     -44.719  39.505  27.653  1.00  0.00     0.005 C 
ATOM     22  H   UNL     1     -45.039  39.531  26.607  1.00  0.00     0.045 H 
ATOM     23  H   UNL     1     -44.301  40.489  27.891  1.00  0.00     0.045 H 
ATOM     24  H   UNL     1     -43.938  38.741  27.741  1.00  0.00     0.045 H 
ENDBRANCH  19  21
ENDBRANCH   5  19
ENDBRANCH   1   4
BRANCH   1  25
ATOM     25  C   UNL     1     -47.111  31.955  24.189  1.00  0.00    -0.044 C 
ATOM     26  H   UNL     1     -47.917  31.441  24.727  1.00  0.00     0.027 H 
ATOM     27  H   UNL     1     -47.594  32.707  23.553  1.00  0.00     0.027 H 
BRANCH  25  28
ATOM     28  C   UNL     1     -46.338  30.974  23.284  1.00  0.00    -0.010 C 
ATOM     29  C   UNL     1     -46.536  29.492  23.667  1.00  0.00    -0.024 C 
ATOM     30  C   UNL     1     -46.863  31.003  21.846  1.00  0.00     0.085 C 
ATOM     31  H   UNL     1     -45.269  31.218  23.300  1.00  0.00     0.033 H 
ATOM     32  C   UNL     1     -47.723  28.961  22.828  1.00  0.00     0.064 C 
ATOM     33  H   UNL     1     -45.636  28.941  23.360  1.00  0.00     0.029 H 
ATOM     34  H   UNL     1     -46.623  29.328  24.740  1.00  0.00     0.029 H 
ATOM     35  C   UNL     1     -48.110  30.118  21.885  1.00  0.00     0.101 C 
ATOM     36  H   UNL     1     -47.076  32.008  21.468  1.00  0.00     0.063 H 
ATOM     37  H   UNL     1     -47.363  28.099  22.248  1.00  0.00     0.056 H 
ATOM     38  H   UNL     1     -48.966  30.685  22.268  1.00  0.00     0.065 H 
BRANCH  30  39
ATOM     39  O   UNL     1     -45.890  30.415  20.976  1.00  0.00    -0.390 OA
ATOM     40  H   UNL     1     -45.098  30.982  21.071  1.00  0.00     0.211 HD
ENDBRANCH  30  39
BRANCH  32  41
ATOM     41  N   UNL     1     -48.892  28.464  23.547  1.00  0.00    -0.327 N 
ATOM     42  C   UNL     1     -50.199  28.854  23.421  1.00  0.00     0.007 A 
ATOM     43  C   UNL     1     -48.814  27.461  24.494  1.00  0.00     0.145 A 
ATOM     44  C   UNL     1     -50.957  28.126  24.315  1.00  0.00    -0.031 A 
ATOM     45  H   UNL     1     -50.515  29.621  22.728  1.00  0.00     0.082 H 
ATOM     46  C   UNL     1     -50.087  27.237  24.998  1.00  0.00     0.061 A 
ATOM     47  N   UNL     1     -47.689  26.810  24.850  1.00  0.00    -0.218 NA
ATOM     48  H   UNL     1     -52.026  28.228  24.458  1.00  0.00     0.065 H 
ATOM     49  C   UNL     1     -50.212  26.254  25.988  1.00  0.00     0.136 A 
ATOM     50  C   UNL     1     -47.933  25.902  25.813  1.00  0.00     0.120 A 
ATOM     51  N   UNL     1     -49.111  25.587  26.386  1.00  0.00    -0.219 NA
ATOM     52  H   UNL     1     -47.073  25.345  26.172  1.00  0.00     0.106 H 
BRANCH  49  53
ATOM     53  N   UNL     1     -51.417  25.905  26.580  1.00  0.00    -0.383 N 
ATOM     54  H   UNL     1     -52.159  26.579  26.462  1.00  0.00     0.158 HD
ATOM     55  H   UNL     1     -51.647  24.938  26.382  1.00  0.00     0.158 HD
ENDBRANCH  49  53
ENDBRANCH  32  41
BRANCH  35  56
ATOM     56  O   UNL     1     -48.417  29.675  20.561  1.00  0.00    -0.388 OA
ATOM     57  H   UNL     1     -48.883  28.815  20.663  1.00  0.00     0.211 HD
ENDBRANCH  35  56
ENDBRANCH  25  28
ENDBRANCH   1  25
TORSDOF 9
ENDMDL
MODEL 6
REMARK VINA RESULT:      -9.1      3.250     11.161
REMARK SMILES CNc1ccc2ccc(CC[C@H]3C[C@@H](n4ccc5c(N)ncnc54)[C@H](O)[C@@H]3O)cc2n1
REMARK SMILES IDX 10 1 9 4 3 5 4 6 31 7 5 8 30 10 6 11 29 13 7 14 8 16 2 19
REMARK SMILES IDX 1 21 11 25 12 28 13 29 27 30 14 32 25 35 28 39 15 41 16 42
REMARK SMILES IDX 24 43 17 44 18 46 23 47 19 49 22 50 21 51 20 53 26 56
REMARK H PARENT 10 2 10 3 4 9 5 12 29 15 7 17 8 18 2 20 1 22 1 23 1 24 11 26
REMARK H PARENT 11 27 12 31 13 33 13 34 27 36 14 37 25 38 28 40 16 45 17 48
REMARK H PARENT 22 52 20 54 20 55 26 57
REMARK Flexibility Score: inf
ROOT
ATOM      1  C   UNL     1     -46.659  32.540  26.366  1.00  0.00    -0.027 C 
ATOM      2  H   UNL     1     -45.856  32.615  25.620  1.00  0.00     0.032 H 
ATOM      3  H   UNL     1     -46.221  31.990  27.209  1.00  0.00     0.032 H 
ENDROOT
BRANCH   1   4
ATOM      4  C   UNL     1     -47.026  33.937  26.789  1.00  0.00    -0.046 A 
ATOM      5  C   UNL     1     -45.614  38.175  28.461  1.00  0.00     0.126 A 
ATOM      6  C   UNL     1     -46.904  38.687  28.381  1.00  0.00    -0.019 A 
ATOM      7  N   UNL     1     -45.337  36.901  28.115  1.00  0.00    -0.231 NA
ATOM      8  C   UNL     1     -47.934  37.879  27.910  1.00  0.00    -0.049 A 
ATOM      9  H   UNL     1     -47.111  39.706  28.691  1.00  0.00     0.066 H 
ATOM     10  C   UNL     1     -46.330  36.113  27.664  1.00  0.00     0.073 A 
ATOM     11  C   UNL     1     -47.656  36.563  27.536  1.00  0.00     0.000 A 
ATOM     12  H   UNL     1     -48.941  38.279  27.845  1.00  0.00     0.063 H 
ATOM     13  C   UNL     1     -46.045  34.804  27.295  1.00  0.00    -0.033 A 
ATOM     14  C   UNL     1     -48.655  35.703  27.047  1.00  0.00    -0.053 A 
ATOM     15  H   UNL     1     -45.018  34.458  27.398  1.00  0.00     0.065 H 
ATOM     16  C   UNL     1     -48.339  34.397  26.675  1.00  0.00    -0.058 A 
ATOM     17  H   UNL     1     -49.681  36.048  26.950  1.00  0.00     0.063 H 
ATOM     18  H   UNL     1     -49.123  33.749  26.288  1.00  0.00     0.063 H 
BRANCH   5  19
ATOM     19  N   UNL     1     -44.604  39.015  28.963  1.00  0.00    -0.373 N 
ATOM     20  H   UNL     1     -44.878  39.345  29.884  1.00  0.00     0.161 HD
BRANCH  19  21
ATOM     21  C   UNL     1     -44.244  40.111  28.078  1.00  0.00     0.005 C 
ATOM     22  H   UNL     1     -44.407  39.798  27.042  1.00  0.00     0.045 H 
ATOM     23  H   UNL     1     -44.869  40.993  28.254  1.00  0.00     0.045 H 
ATOM     24  H   UNL     1     -43.188  40.382  28.180  1.00  0.00     0.045 H 
ENDBRANCH  19  21
ENDBRANCH   5  19
ENDBRANCH   1   4
BRANCH   1  25
ATOM     25  C   UNL     1     -47.816  31.728  25.761  1.00  0.00    -0.044 C 
ATOM     26  H   UNL     1     -47.797  30.696  26.132  1.00  0.00     0.027 H 
ATOM     27  H   UNL     1     -48.740  32.177  26.146  1.00  0.00     0.027 H 
BRANCH  25  28
ATOM     28  C   UNL     1     -47.864  31.759  24.220  1.00  0.00    -0.010 C 
ATOM     29  C   UNL     1     -46.905  30.752  23.551  1.00  0.00    -0.024 C 
ATOM     30  C   UNL     1     -49.225  31.303  23.689  1.00  0.00     0.085 C 
ATOM     31  H   UNL     1     -47.640  32.771  23.862  1.00  0.00     0.033 H 
ATOM     32  C   UNL     1     -47.708  29.451  23.314  1.00  0.00     0.064 C 
ATOM     33  H   UNL     1     -46.622  31.154  22.569  1.00  0.00     0.029 H 
ATOM     34  H   UNL     1     -45.968  30.620  24.090  1.00  0.00     0.029 H 
ATOM     35  C   UNL     1     -49.154  29.776  23.741  1.00  0.00     0.101 C 
ATOM     36  H   UNL     1     -50.079  31.701  24.247  1.00  0.00     0.063 H 
ATOM     37  H   UNL     1     -47.669  29.225  22.238  1.00  0.00     0.056 H 
ATOM     38  H   UNL     1     -49.368  29.421  24.755  1.00  0.00     0.065 H 
BRANCH  30  39
ATOM     39  O   UNL     1     -49.368  31.726  22.329  1.00  0.00    -0.390 OA
ATOM     40  H   UNL     1     -50.145  31.230  21.996  1.00  0.00     0.211 HD
ENDBRANCH  30  39
BRANCH  32  41
ATOM     41  N   UNL     1     -47.236  28.233  23.966  1.00  0.00    -0.327 N 
ATOM     42  C   UNL     1     -46.032  27.597  23.814  1.00  0.00     0.007 A 
ATOM     43  C   UNL     1     -47.995  27.539  24.888  1.00  0.00     0.145 A 
ATOM     44  C   UNL     1     -46.032  26.471  24.613  1.00  0.00    -0.031 A 
ATOM     45  H   UNL     1     -45.260  27.961  23.152  1.00  0.00     0.082 H 
ATOM     46  C   UNL     1     -47.273  26.428  25.300  1.00  0.00     0.061 A 
ATOM     47  N   UNL     1     -49.223  27.896  25.315  1.00  0.00    -0.218 NA
ATOM     48  H   UNL     1     -45.221  25.759  24.689  1.00  0.00     0.065 H 
ATOM     49  C   UNL     1     -47.887  25.585  26.236  1.00  0.00     0.136 A 
ATOM     50  C   UNL     1     -49.712  27.005  26.198  1.00  0.00     0.120 A 
ATOM     51  N   UNL     1     -49.121  25.895  26.680  1.00  0.00    -0.219 NA
ATOM     52  H   UNL     1     -50.708  27.209  26.579  1.00  0.00     0.106 H 
BRANCH  49  53
ATOM     53  N   UNL     1     -47.290  24.446  26.754  1.00  0.00    -0.383 N 
ATOM     54  H   UNL     1     -46.500  24.102  26.227  1.00  0.00     0.158 HD
ATOM     55  H   UNL     1     -47.164  24.532  27.757  1.00  0.00     0.158 HD
ENDBRANCH  49  53
ENDBRANCH  32  41
BRANCH  35  56
ATOM     56  O   UNL     1     -50.131  29.227  22.853  1.00  0.00    -0.388 OA
ATOM     57  H   UNL     1     -49.831  28.313  22.649  1.00  0.00     0.211 HD
ENDBRANCH  35  56
ENDBRANCH  25  28
ENDBRANCH   1  25
TORSDOF 9
ENDMDL
MODEL 7
REMARK VINA RESULT:      -9.0      1.771      2.661
REMARK SMILES CNc1ccc2ccc(CC[C@H]3C[C@@H](n4ccc5c(N)ncnc54)[C@H](O)[C@@H]3O)cc2n1
REMARK SMILES IDX 10 1 9 4 3 5 4 6 31 7 5 8 30 10 6 11 29 13 7 14 8 16 2 19
REMARK SMILES IDX 1 21 11 25 12 28 13 29 27 30 14 32 25 35 28 39 15 41 16 42
REMARK SMILES IDX 24 43 17 44 18 46 23 47 19 49 22 50 21 51 20 53 26 56
REMARK H PARENT 10 2 10 3 4 9 5 12 29 15 7 17 8 18 2 20 1 22 1 23 1 24 11 26
REMARK H PARENT 11 27 12 31 13 33 13 34 27 36 14 37 25 38 28 40 16 45 17 48
REMARK H PARENT 22 52 20 54 20 55 26 57
REMARK Flexibility Score: inf
ROOT
ATOM      1  C   UNL     1     -46.598  35.218  26.066  1.00  0.00    -0.027 C 
ATOM      2  H   UNL     1     -45.887  35.550  25.297  1.00  0.00     0.032 H 
ATOM      3  H   UNL     1     -47.406  35.960  26.053  1.00  0.00     0.032 H 
ENDROOT
BRANCH   1   4
ATOM      4  C   UNL     1     -47.122  33.869  25.655  1.00  0.00    -0.046 A 
ATOM      5  C   UNL     1     -46.556  29.915  23.048  1.00  0.00     0.126 A 
ATOM      6  C   UNL     1     -47.713  29.349  23.573  1.00  0.00    -0.019 A 
ATOM      7  N   UNL     1     -46.146  31.148  23.409  1.00  0.00    -0.231 NA
ATOM      8  C   UNL     1     -48.457  30.057  24.511  1.00  0.00    -0.049 A 
ATOM      9  H   UNL     1     -48.041  28.367  23.247  1.00  0.00     0.066 H 
ATOM     10  C   UNL     1     -46.864  31.839  24.313  1.00  0.00     0.073 A 
ATOM     11  C   UNL     1     -48.035  31.328  24.903  1.00  0.00     0.000 A 
ATOM     12  H   UNL     1     -49.359  29.614  24.922  1.00  0.00     0.063 H 
ATOM     13  C   UNL     1     -46.437  33.104  24.696  1.00  0.00    -0.033 A 
ATOM     14  C   UNL     1     -48.742  32.086  25.852  1.00  0.00    -0.053 A 
ATOM     15  H   UNL     1     -45.534  33.498  24.236  1.00  0.00     0.065 H 
ATOM     16  C   UNL     1     -48.286  33.349  26.226  1.00  0.00    -0.058 A 
ATOM     17  H   UNL     1     -49.648  31.694  26.306  1.00  0.00     0.063 H 
ATOM     18  H   UNL     1     -48.840  33.918  26.969  1.00  0.00     0.063 H 
BRANCH   5  19
ATOM     19  N   UNL     1     -45.842  29.178  22.085  1.00  0.00    -0.373 N 
ATOM     20  H   UNL     1     -46.407  28.385  21.792  1.00  0.00     0.161 HD
BRANCH  19  21
ATOM     21  C   UNL     1     -44.513  28.770  22.509  1.00  0.00     0.005 C 
ATOM     22  H   UNL     1     -44.417  27.688  22.383  1.00  0.00     0.045 H 
ATOM     23  H   UNL     1     -43.734  29.240  21.900  1.00  0.00     0.045 H 
ATOM     24  H   UNL     1     -44.341  28.997  23.567  1.00  0.00     0.045 H 
ENDBRANCH  19  21
ENDBRANCH   5  19
ENDBRANCH   1   4
BRANCH   1  25
ATOM     25  C   UNL     1     -45.891  35.242  27.431  1.00  0.00    -0.044 C 
ATOM     26  H   UNL     1     -45.338  34.310  27.594  1.00  0.00     0.027 H 
ATOM     27  H   UNL     1     -45.142  36.041  27.375  1.00  0.00     0.027 H 
BRANCH  25  28
ATOM     28  C   UNL     1     -46.833  35.540  28.617  1.00  0.00    -0.010 C 
ATOM     29  C   UNL     1     -46.140  36.268  29.788  1.00  0.00    -0.024 C 
ATOM     30  C   UNL     1     -47.930  36.533  28.228  1.00  0.00     0.085 C 
ATOM     31  H   UNL     1     -47.280  34.606  28.978  1.00  0.00     0.033 H 
ATOM     32  C   UNL     1     -46.337  37.785  29.558  1.00  0.00     0.064 C 
ATOM     33  H   UNL     1     -46.668  35.998  30.713  1.00  0.00     0.029 H 
ATOM     34  H   UNL     1     -45.108  35.958  29.944  1.00  0.00     0.029 H 
ATOM     35  C   UNL     1     -47.247  37.899  28.318  1.00  0.00     0.101 C 
ATOM     36  H   UNL     1     -48.371  36.351  27.244  1.00  0.00     0.063 H 
ATOM     37  H   UNL     1     -46.844  38.195  30.444  1.00  0.00     0.056 H 
ATOM     38  H   UNL     1     -46.670  38.095  27.408  1.00  0.00     0.065 H 
BRANCH  30  39
ATOM     39  O   UNL     1     -48.989  36.468  29.190  1.00  0.00    -0.390 OA
ATOM     40  H   UNL     1     -48.533  36.417  30.056  1.00  0.00     0.211 HD
ENDBRANCH  30  39
BRANCH  32  41
ATOM     41  N   UNL     1     -45.142  38.608  29.402  1.00  0.00    -0.327 N 
ATOM     42  C   UNL     1     -44.055  38.699  30.232  1.00  0.00     0.007 A 
ATOM     43  C   UNL     1     -44.945  39.439  28.316  1.00  0.00     0.145 A 
ATOM     44  C   UNL     1     -43.176  39.618  29.696  1.00  0.00    -0.031 A 
ATOM     45  H   UNL     1     -43.971  38.131  31.147  1.00  0.00     0.082 H 
ATOM     46  C   UNL     1     -43.731  40.090  28.478  1.00  0.00     0.061 A 
ATOM     47  N   UNL     1     -45.791  39.575  27.275  1.00  0.00    -0.218 NA
ATOM     48  H   UNL     1     -42.234  39.915  30.140  1.00  0.00     0.065 H 
ATOM     49  C   UNL     1     -43.357  40.993  27.474  1.00  0.00     0.136 A 
ATOM     50  C   UNL     1     -45.330  40.475  26.385  1.00  0.00     0.120 A 
ATOM     51  N   UNL     1     -44.179  41.172  26.422  1.00  0.00    -0.219 NA
ATOM     52  H   UNL     1     -45.964  40.659  25.523  1.00  0.00     0.106 H 
BRANCH  49  53
ATOM     53  N   UNL     1     -42.169  41.709  27.486  1.00  0.00    -0.383 N 
ATOM     54  H   UNL     1     -41.403  41.269  26.999  1.00  0.00     0.158 HD
ATOM     55  H   UNL     1     -42.338  42.687  27.278  1.00  0.00     0.158 HD
ENDBRANCH  49  53
ENDBRANCH  32  41
BRANCH  35  56
ATOM     56  O   UNL     1     -48.241  38.917  28.452  1.00  0.00    -0.388 OA
ATOM     57  H   UNL     1     -48.359  39.303  27.556  1.00  0.00     0.211 HD
ENDBRANCH  35  56
ENDBRANCH  25  28
ENDBRANCH   1  25
TORSDOF 9
ENDMDL
