MODEL 1
REMARK VINA RESULT:      -9.9      0.000      0.000
REMARK SMILES Nc1ncnc2c1ccn2[C@@H]1C[C@H](CCc2cccc(NC(=O)C3CC3)c2)[C@@H](O)[C@H]1O
REMARK SMILES IDX 14 1 13 4 11 5 12 6 30 7 28 11 10 15 2 16 3 17 7 18 4 19
REMARK SMILES IDX 6 20 8 21 5 22 9 24 1 27 31 30 29 32 15 34 16 37 17 38 27 39
REMARK SMILES IDX 18 40 20 42 19 44 21 47 22 48 23 50 24 51 25 52 26 53
REMARK H PARENT 14 2 14 3 11 8 12 9 12 10 30 12 13 13 28 14 4 23 8 25 9 26
REMARK H PARENT 1 28 1 29 31 31 29 33 15 35 15 36 17 41 27 43 18 45 19 46
REMARK H PARENT 21 49 24 54 25 55 25 56 26 57 26 58
REMARK Flexibility Score: inf
ROOT
ATOM      1  C   UNL     1     -46.525  35.759  26.729  1.00  0.00    -0.044 C 
ATOM      2  H   UNL     1     -46.042  36.425  26.003  1.00  0.00     0.027 H 
ATOM      3  H   UNL     1     -47.606  35.879  26.590  1.00  0.00     0.027 H 
ENDROOT
BRANCH   1   4
ATOM      4  C   UNL     1     -46.101  36.189  28.153  1.00  0.00    -0.010 C 
ATOM      5  C   UNL     1     -45.372  38.542  28.624  1.00  0.00     0.064 C 
ATOM      6  C   UNL     1     -44.893  37.163  28.106  1.00  0.00    -0.024 C 
ATOM      7  C   UNL     1     -46.896  38.441  28.480  1.00  0.00     0.101 C 
ATOM      8  H   UNL     1     -45.111  38.658  29.686  1.00  0.00     0.056 H 
ATOM      9  H   UNL     1     -44.090  36.792  28.755  1.00  0.00     0.029 H 
ATOM     10  H   UNL     1     -44.472  37.231  27.096  1.00  0.00     0.029 H 
ATOM     11  C   UNL     1     -47.168  36.991  28.911  1.00  0.00     0.085 C 
ATOM     12  H   UNL     1     -47.212  38.575  27.438  1.00  0.00     0.065 H 
ATOM     13  H   UNL     1     -45.797  35.300  28.719  1.00  0.00     0.033 H 
ATOM     14  H   UNL     1     -48.205  36.721  28.711  1.00  0.00     0.063 H 
BRANCH   5  15
ATOM     15  N   UNL     1     -44.696  39.651  27.961  1.00  0.00    -0.327 N 
ATOM     16  C   UNL     1     -42.223  42.182  27.703  1.00  0.00     0.136 A 
ATOM     17  N   UNL     1     -41.551  42.043  28.860  1.00  0.00    -0.219 NA
ATOM     18  C   UNL     1     -43.299  41.323  27.432  1.00  0.00     0.061 A 
ATOM     19  C   UNL     1     -41.946  41.078  29.710  1.00  0.00     0.120 A 
ATOM     20  C   UNL     1     -43.608  40.373  28.401  1.00  0.00     0.145 A 
ATOM     21  C   UNL     1     -44.211  41.141  26.362  1.00  0.00    -0.031 A 
ATOM     22  N   UNL     1     -42.950  40.197  29.561  1.00  0.00    -0.218 NA
ATOM     23  H   UNL     1     -41.378  41.001  30.632  1.00  0.00     0.106 H 
ATOM     24  C   UNL     1     -45.037  40.091  26.695  1.00  0.00     0.007 A 
ATOM     25  H   UNL     1     -44.252  41.706  25.440  1.00  0.00     0.065 H 
ATOM     26  H   UNL     1     -45.844  39.625  26.142  1.00  0.00     0.082 H 
BRANCH  16  27
ATOM     27  N   UNL     1     -41.788  43.168  26.829  1.00  0.00    -0.383 N 
ATOM     28  H   UNL     1     -42.550  43.476  26.235  1.00  0.00     0.158 HD
ATOM     29  H   UNL     1     -41.235  43.897  27.260  1.00  0.00     0.158 HD
ENDBRANCH  16  27
ENDBRANCH   5  15
BRANCH   7  30
ATOM     30  O   UNL     1     -47.611  39.371  29.285  1.00  0.00    -0.388 OA
ATOM     31  H   UNL     1     -48.544  39.295  28.995  1.00  0.00     0.211 HD
ENDBRANCH   7  30
BRANCH  11  32
ATOM     32  O   UNL     1     -46.918  36.827  30.311  1.00  0.00    -0.390 OA
ATOM     33  H   UNL     1     -46.947  35.865  30.509  1.00  0.00     0.211 HD
ENDBRANCH  11  32
ENDBRANCH   1   4
BRANCH   1  34
ATOM     34  C   UNL     1     -46.094  34.334  26.338  1.00  0.00    -0.027 C 
ATOM     35  H   UNL     1     -45.479  33.894  27.133  1.00  0.00     0.032 H 
ATOM     36  H   UNL     1     -45.431  34.399  25.465  1.00  0.00     0.032 H 
BRANCH  34  37
ATOM     37  C   UNL     1     -47.230  33.405  26.002  1.00  0.00    -0.046 A 
ATOM     38  C   UNL     1     -48.560  33.805  26.167  1.00  0.00    -0.059 A 
ATOM     39  C   UNL     1     -46.962  32.109  25.541  1.00  0.00    -0.035 A 
ATOM     40  C   UNL     1     -49.599  32.923  25.870  1.00  0.00    -0.060 A 
ATOM     41  H   UNL     1     -48.795  34.805  26.522  1.00  0.00     0.063 H 
ATOM     42  C   UNL     1     -47.993  31.196  25.310  1.00  0.00     0.041 A 
ATOM     43  H   UNL     1     -45.924  31.825  25.388  1.00  0.00     0.065 H 
ATOM     44  C   UNL     1     -49.316  31.624  25.441  1.00  0.00    -0.039 A 
ATOM     45  H   UNL     1     -50.631  33.242  25.991  1.00  0.00     0.062 H 
ATOM     46  H   UNL     1     -50.144  30.948  25.249  1.00  0.00     0.064 H 
BRANCH  42  47
ATOM     47  N   UNL     1     -47.766  29.850  24.964  1.00  0.00    -0.326 N 
ATOM     48  C   UNL     1     -47.330  29.385  23.738  1.00  0.00     0.227 C 
ATOM     49  H   UNL     1     -47.784  29.184  25.723  1.00  0.00     0.169 HD
ATOM     50  O   UNL     1     -47.030  30.075  22.770  1.00  0.00    -0.274 OA
BRANCH  48  51
ATOM     51  C   UNL     1     -47.170  27.904  23.620  1.00  0.00     0.038 C 
ATOM     52  C   UNL     1     -47.111  26.970  24.806  1.00  0.00    -0.041 C 
ATOM     53  C   UNL     1     -45.876  27.213  23.984  1.00  0.00    -0.041 C 
ATOM     54  H   UNL     1     -47.683  27.511  22.744  1.00  0.00     0.040 H 
ATOM     55  H   UNL     1     -47.159  27.371  25.810  1.00  0.00     0.027 H 
ATOM     56  H   UNL     1     -47.603  26.007  24.707  1.00  0.00     0.027 H 
ATOM     57  H   UNL     1     -45.068  27.793  24.413  1.00  0.00     0.027 H 
ATOM     58  H   UNL     1     -45.534  26.416  23.330  1.00  0.00     0.027 H 
ENDBRANCH  48  51
ENDBRANCH  42  47
ENDBRANCH  34  37
ENDBRANCH   1  34
TORSDOF 9
ENDMDL
MODEL 2
REMARK VINA RESULT:      -9.8      1.651      2.175
REMARK SMILES Nc1ncnc2c1ccn2[C@@H]1C[C@H](CCc2cccc(NC(=O)C3CC3)c2)[C@@H](O)[C@H]1O
REMARK SMILES IDX 14 1 13 4 11 5 12 6 30 7 28 11 10 15 2 16 3 17 7 18 4 19
REMARK SMILES IDX 6 20 8 21 5 22 9 24 1 27 31 30 29 32 15 34 16 37 17 38 27 39
REMARK SMILES IDX 18 40 20 42 19 44 21 47 22 48 23 50 24 51 25 52 26 53
REMARK H PARENT 14 2 14 3 11 8 12 9 12 10 30 12 13 13 28 14 4 23 8 25 9 26
REMARK H PARENT 1 28 1 29 31 31 29 33 15 35 15 36 17 41 27 43 18 45 19 46
REMARK H PARENT 21 49 24 54 25 55 25 56 26 57 26 58
REMARK Flexibility Score: inf
ROOT
ATOM      1  C   UNL     1     -46.769  35.840  26.649  1.00  0.00    -0.044 C 
ATOM      2  H   UNL     1     -45.953  35.344  26.107  1.00  0.00     0.027 H 
ATOM      3  H   UNL     1     -47.046  36.720  26.057  1.00  0.00     0.027 H 
ENDROOT
BRANCH   1   4
ATOM      4  C   UNL     1     -46.251  36.255  28.046  1.00  0.00    -0.010 C 
ATOM      5  C   UNL     1     -45.462  38.596  28.485  1.00  0.00     0.064 C 
ATOM      6  C   UNL     1     -45.036  37.214  27.930  1.00  0.00    -0.024 C 
ATOM      7  C   UNL     1     -46.994  38.516  28.435  1.00  0.00     0.101 C 
ATOM      8  H   UNL     1     -45.135  38.702  29.529  1.00  0.00     0.056 H 
ATOM      9  H   UNL     1     -44.199  36.828  28.526  1.00  0.00     0.029 H 
ATOM     10  H   UNL     1     -44.677  37.283  26.896  1.00  0.00     0.029 H 
ATOM     11  C   UNL     1     -47.259  37.067  28.873  1.00  0.00     0.085 C 
ATOM     12  H   UNL     1     -47.372  38.661  27.415  1.00  0.00     0.065 H 
ATOM     13  H   UNL     1     -45.925  35.359  28.588  1.00  0.00     0.033 H 
ATOM     14  H   UNL     1     -48.310  36.812  28.737  1.00  0.00     0.063 H 
BRANCH   5  15
ATOM     15  N   UNL     1     -44.814  39.700  27.787  1.00  0.00    -0.327 N 
ATOM     16  C   UNL     1     -42.366  42.242  27.422  1.00  0.00     0.136 A 
ATOM     17  N   UNL     1     -41.659  42.123  28.560  1.00  0.00    -0.219 NA
ATOM     18  C   UNL     1     -43.444  41.374  27.195  1.00  0.00     0.061 A 
ATOM     19  C   UNL     1     -42.022  41.167  29.434  1.00  0.00     0.120 A 
ATOM     20  C   UNL     1     -43.718  40.435  28.185  1.00  0.00     0.145 A 
ATOM     21  C   UNL     1     -44.387  41.171  26.154  1.00  0.00    -0.031 A 
ATOM     22  N   UNL     1     -43.025  40.277  29.327  1.00  0.00    -0.218 NA
ATOM     23  H   UNL     1     -41.426  41.105  30.340  1.00  0.00     0.106 H 
ATOM     24  C   UNL     1     -45.195  40.121  26.526  1.00  0.00     0.007 A 
ATOM     25  H   UNL     1     -44.458  41.724  25.227  1.00  0.00     0.065 H 
ATOM     26  H   UNL     1     -46.015  39.643  26.004  1.00  0.00     0.082 H 
BRANCH  16  27
ATOM     27  N   UNL     1     -41.963  43.220  26.523  1.00  0.00    -0.383 N 
ATOM     28  H   UNL     1     -41.799  42.812  25.609  1.00  0.00     0.158 HD
ATOM     29  H   UNL     1     -42.520  44.064  26.543  1.00  0.00     0.158 HD
ENDBRANCH  16  27
ENDBRANCH   5  15
BRANCH   7  30
ATOM     30  O   UNL     1     -47.645  39.450  29.287  1.00  0.00    -0.388 OA
ATOM     31  H   UNL     1     -46.945  40.079  29.560  1.00  0.00     0.211 HD
ENDBRANCH   7  30
BRANCH  11  32
ATOM     32  O   UNL     1     -46.925  36.891  30.255  1.00  0.00    -0.390 OA
ATOM     33  H   UNL     1     -47.043  37.757  30.703  1.00  0.00     0.211 HD
ENDBRANCH  11  32
ENDBRANCH   1   4
BRANCH   1  34
ATOM     34  C   UNL     1     -47.927  34.828  26.674  1.00  0.00    -0.027 C 
ATOM     35  H   UNL     1     -48.858  35.310  26.351  1.00  0.00     0.032 H 
ATOM     36  H   UNL     1     -48.104  34.527  27.715  1.00  0.00     0.032 H 
BRANCH  34  37
ATOM     37  C   UNL     1     -47.691  33.585  25.856  1.00  0.00    -0.046 A 
ATOM     38  C   UNL     1     -46.463  33.361  25.225  1.00  0.00    -0.059 A 
ATOM     39  C   UNL     1     -48.719  32.646  25.696  1.00  0.00    -0.035 A 
ATOM     40  C   UNL     1     -46.270  32.215  24.455  1.00  0.00    -0.060 A 
ATOM     41  H   UNL     1     -45.649  34.074  25.334  1.00  0.00     0.063 H 
ATOM     42  C   UNL     1     -48.558  31.533  24.869  1.00  0.00     0.041 A 
ATOM     43  H   UNL     1     -49.656  32.819  26.219  1.00  0.00     0.065 H 
ATOM     44  C   UNL     1     -47.313  31.303  24.279  1.00  0.00    -0.039 A 
ATOM     45  H   UNL     1     -45.310  32.041  23.975  1.00  0.00     0.062 H 
ATOM     46  H   UNL     1     -47.146  30.435  23.647  1.00  0.00     0.064 H 
BRANCH  42  47
ATOM     47  N   UNL     1     -49.601  30.629  24.584  1.00  0.00    -0.326 N 
ATOM     48  C   UNL     1     -50.632  30.832  23.687  1.00  0.00     0.227 C 
ATOM     49  H   UNL     1     -49.502  29.698  24.961  1.00  0.00     0.169 HD
ATOM     50  O   UNL     1     -50.779  31.811  22.965  1.00  0.00    -0.274 OA
BRANCH  48  51
ATOM     51  C   UNL     1     -51.622  29.717  23.567  1.00  0.00     0.038 C 
ATOM     52  C   UNL     1     -51.338  28.296  23.989  1.00  0.00    -0.041 C 
ATOM     53  C   UNL     1     -51.471  28.629  22.529  1.00  0.00    -0.041 C 
ATOM     54  H   UNL     1     -52.639  30.061  23.744  1.00  0.00     0.040 H 
ATOM     55  H   UNL     1     -50.362  28.034  24.379  1.00  0.00     0.027 H 
ATOM     56  H   UNL     1     -52.146  27.743  24.457  1.00  0.00     0.027 H 
ATOM     57  H   UNL     1     -50.585  28.611  21.905  1.00  0.00     0.027 H 
ATOM     58  H   UNL     1     -52.368  28.305  22.012  1.00  0.00     0.027 H 
ENDBRANCH  48  51
ENDBRANCH  42  47
ENDBRANCH  34  37
ENDBRANCH   1  34
TORSDOF 9
ENDMDL
MODEL 3
REMARK VINA RESULT:      -9.5      2.270     10.692
REMARK SMILES Nc1ncnc2c1ccn2[C@@H]1C[C@H](CCc2cccc(NC(=O)C3CC3)c2)[C@@H](O)[C@H]1O
REMARK SMILES IDX 14 1 13 4 11 5 12 6 30 7 28 11 10 15 2 16 3 17 7 18 4 19
REMARK SMILES IDX 6 20 8 21 5 22 9 24 1 27 31 30 29 32 15 34 16 37 17 38 27 39
REMARK SMILES IDX 18 40 20 42 19 44 21 47 22 48 23 50 24 51 25 52 26 53
REMARK H PARENT 14 2 14 3 11 8 12 9 12 10 30 12 13 13 28 14 4 23 8 25 9 26
REMARK H PARENT 1 28 1 29 31 31 29 33 15 35 15 36 17 41 27 43 18 45 19 46
REMARK H PARENT 21 49 24 54 25 55 25 56 26 57 26 58
REMARK Flexibility Score: inf
ROOT
ATOM      1  C   UNL     1     -47.726  35.561  26.412  1.00  0.00    -0.044 C 
ATOM      2  H   UNL     1     -48.558  35.586  25.696  1.00  0.00     0.027 H 
ATOM      3  H   UNL     1     -46.826  35.845  25.854  1.00  0.00     0.027 H 
ENDROOT
BRANCH   1   4
ATOM      4  C   UNL     1     -47.599  34.124  26.970  1.00  0.00    -0.010 C 
ATOM      5  C   UNL     1     -47.996  32.131  25.499  1.00  0.00     0.064 C 
ATOM      6  C   UNL     1     -48.695  33.196  26.380  1.00  0.00    -0.024 C 
ATOM      7  C   UNL     1     -46.628  32.770  25.228  1.00  0.00     0.101 C 
ATOM      8  H   UNL     1     -47.860  31.200  26.068  1.00  0.00     0.056 H 
ATOM      9  H   UNL     1     -49.235  32.695  27.193  1.00  0.00     0.029 H 
ATOM     10  H   UNL     1     -49.441  33.767  25.814  1.00  0.00     0.029 H 
ATOM     11  C   UNL     1     -46.294  33.413  26.583  1.00  0.00     0.085 C 
ATOM     12  H   UNL     1     -46.693  33.552  24.461  1.00  0.00     0.065 H 
ATOM     13  H   UNL     1     -47.727  34.150  28.059  1.00  0.00     0.033 H 
ATOM     14  H   UNL     1     -45.409  34.044  26.499  1.00  0.00     0.063 H 
BRANCH   5  15
ATOM     15  N   UNL     1     -48.806  31.740  24.350  1.00  0.00    -0.327 N 
ATOM     16  C   UNL     1     -49.380  30.061  21.278  1.00  0.00     0.136 A 
ATOM     17  N   UNL     1     -48.192  29.477  21.046  1.00  0.00    -0.219 NA
ATOM     18  C   UNL     1     -49.548  30.828  22.441  1.00  0.00     0.061 A 
ATOM     19  C   UNL     1     -47.211  29.655  21.950  1.00  0.00     0.120 A 
ATOM     20  C   UNL     1     -48.449  30.938  23.288  1.00  0.00     0.145 A 
ATOM     21  C   UNL     1     -50.608  31.560  23.034  1.00  0.00    -0.031 A 
ATOM     22  N   UNL     1     -47.252  30.356  23.096  1.00  0.00    -0.218 NA
ATOM     23  H   UNL     1     -46.267  29.166  21.724  1.00  0.00     0.106 H 
ATOM     24  C   UNL     1     -50.139  32.083  24.218  1.00  0.00     0.007 A 
ATOM     25  H   UNL     1     -51.610  31.680  22.645  1.00  0.00     0.065 H 
ATOM     26  H   UNL     1     -50.638  32.679  24.973  1.00  0.00     0.082 H 
BRANCH  16  27
ATOM     27  N   UNL     1     -50.387  29.849  20.346  1.00  0.00    -0.383 N 
ATOM     28  H   UNL     1     -51.296  29.995  20.770  1.00  0.00     0.158 HD
ATOM     29  H   UNL     1     -50.233  30.295  19.452  1.00  0.00     0.158 HD
ENDBRANCH  16  27
ENDBRANCH   5  15
BRANCH   7  30
ATOM     30  O   UNL     1     -45.629  31.838  24.827  1.00  0.00    -0.388 OA
ATOM     31  H   UNL     1     -45.279  31.465  25.663  1.00  0.00     0.211 HD
ENDBRANCH   7  30
BRANCH  11  32
ATOM     32  O   UNL     1     -46.042  32.406  27.569  1.00  0.00    -0.390 OA
ATOM     33  H   UNL     1     -45.719  32.856  28.380  1.00  0.00     0.211 HD
ENDBRANCH  11  32
ENDBRANCH   1   4
BRANCH   1  34
ATOM     34  C   UNL     1     -48.055  36.629  27.470  1.00  0.00    -0.027 C 
ATOM     35  H   UNL     1     -48.787  36.237  28.187  1.00  0.00     0.032 H 
ATOM     36  H   UNL     1     -48.558  37.468  26.972  1.00  0.00     0.032 H 
BRANCH  34  37
ATOM     37  C   UNL     1     -46.859  37.167  28.210  1.00  0.00    -0.046 A 
ATOM     38  C   UNL     1     -46.590  36.775  29.526  1.00  0.00    -0.059 A 
ATOM     39  C   UNL     1     -46.011  38.094  27.590  1.00  0.00    -0.035 A 
ATOM     40  C   UNL     1     -45.489  37.300  30.202  1.00  0.00    -0.060 A 
ATOM     41  H   UNL     1     -47.232  36.057  30.029  1.00  0.00     0.063 H 
ATOM     42  C   UNL     1     -44.949  38.678  28.283  1.00  0.00     0.041 A 
ATOM     43  H   UNL     1     -46.214  38.364  26.557  1.00  0.00     0.065 H 
ATOM     44  C   UNL     1     -44.670  38.247  29.582  1.00  0.00    -0.039 A 
ATOM     45  H   UNL     1     -45.279  36.985  31.221  1.00  0.00     0.062 H 
ATOM     46  H   UNL     1     -43.839  38.664  30.145  1.00  0.00     0.064 H 
BRANCH  42  47
ATOM     47  N   UNL     1     -44.146  39.701  27.741  1.00  0.00    -0.326 N 
ATOM     48  C   UNL     1     -44.594  40.898  27.216  1.00  0.00     0.227 C 
ATOM     49  H   UNL     1     -43.150  39.612  27.884  1.00  0.00     0.169 HD
ATOM     50  O   UNL     1     -45.759  41.277  27.177  1.00  0.00    -0.274 OA
BRANCH  48  51
ATOM     51  C   UNL     1     -43.539  41.820  26.696  1.00  0.00     0.038 C 
ATOM     52  C   UNL     1     -42.093  41.768  27.130  1.00  0.00    -0.041 C 
ATOM     53  C   UNL     1     -42.958  42.924  27.549  1.00  0.00    -0.041 C 
ATOM     54  H   UNL     1     -43.702  42.070  25.649  1.00  0.00     0.040 H 
ATOM     55  H   UNL     1     -41.780  41.050  27.878  1.00  0.00     0.027 H 
ATOM     56  H   UNL     1     -41.338  41.950  26.372  1.00  0.00     0.027 H 
ATOM     57  H   UNL     1     -43.257  43.004  28.588  1.00  0.00     0.027 H 
ATOM     58  H   UNL     1     -42.789  43.885  27.075  1.00  0.00     0.027 H 
ENDBRANCH  48  51
ENDBRANCH  42  47
ENDBRANCH  34  37
ENDBRANCH   1  34
TORSDOF 9
ENDMDL
MODEL 4
REMARK VINA RESULT:      -9.3      1.548      2.320
REMARK SMILES Nc1ncnc2c1ccn2[C@@H]1C[C@H](CCc2cccc(NC(=O)C3CC3)c2)[C@@H](O)[C@H]1O
REMARK SMILES IDX 14 1 13 4 11 5 12 6 30 7 28 11 10 15 2 16 3 17 7 18 4 19
REMARK SMILES IDX 6 20 8 21 5 22 9 24 1 27 31 30 29 32 15 34 16 37 17 38 27 39
REMARK SMILES IDX 18 40 20 42 19 44 21 47 22 48 23 50 24 51 25 52 26 53
REMARK H PARENT 14 2 14 3 11 8 12 9 12 10 30 12 13 13 28 14 4 23 8 25 9 26
REMARK H PARENT 1 28 1 29 31 31 29 33 15 35 15 36 17 41 27 43 18 45 19 46
REMARK H PARENT 21 49 24 54 25 55 25 56 26 57 26 58
REMARK Flexibility Score: inf
ROOT
ATOM      1  C   UNL     1     -47.290  36.747  27.687  1.00  0.00    -0.044 C 
ATOM      2  H   UNL     1     -47.239  37.842  27.624  1.00  0.00     0.027 H 
ATOM      3  H   UNL     1     -48.311  36.501  27.999  1.00  0.00     0.027 H 
ENDROOT
BRANCH   1   4
ATOM      4  C   UNL     1     -46.260  36.265  28.735  1.00  0.00    -0.010 C 
ATOM      5  C   UNL     1     -44.614  37.860  29.753  1.00  0.00     0.064 C 
ATOM      6  C   UNL     1     -44.885  36.953  28.527  1.00  0.00    -0.024 C 
ATOM      7  C   UNL     1     -46.015  38.034  30.354  1.00  0.00     0.101 C 
ATOM      8  H   UNL     1     -43.969  37.338  30.474  1.00  0.00     0.056 H 
ATOM      9  H   UNL     1     -44.096  36.195  28.457  1.00  0.00     0.029 H 
ATOM     10  H   UNL     1     -44.858  37.520  27.588  1.00  0.00     0.029 H 
ATOM     11  C   UNL     1     -46.620  36.632  30.182  1.00  0.00     0.085 C 
ATOM     12  H   UNL     1     -46.611  38.758  29.785  1.00  0.00     0.065 H 
ATOM     13  H   UNL     1     -46.118  35.183  28.625  1.00  0.00     0.033 H 
ATOM     14  H   UNL     1     -47.682  36.640  30.427  1.00  0.00     0.063 H 
BRANCH   5  15
ATOM     15  N   UNL     1     -43.868  39.063  29.402  1.00  0.00    -0.327 N 
ATOM     16  C   UNL     1     -43.221  41.958  27.455  1.00  0.00     0.136 A 
ATOM     17  N   UNL     1     -44.194  41.902  26.529  1.00  0.00    -0.219 NA
ATOM     18  C   UNL     1     -43.155  40.957  28.436  1.00  0.00     0.061 A 
ATOM     19  C   UNL     1     -45.067  40.880  26.587  1.00  0.00     0.120 A 
ATOM     20  C   UNL     1     -44.115  39.951  28.378  1.00  0.00     0.145 A 
ATOM     21  C   UNL     1     -42.326  40.679  29.554  1.00  0.00    -0.031 A 
ATOM     22  N   UNL     1     -45.110  39.871  27.476  1.00  0.00    -0.218 NA
ATOM     23  H   UNL     1     -45.836  40.872  25.820  1.00  0.00     0.106 H 
ATOM     24  C   UNL     1     -42.803  39.532  30.148  1.00  0.00     0.007 A 
ATOM     25  H   UNL     1     -41.482  41.262  29.896  1.00  0.00     0.065 H 
ATOM     26  H   UNL     1     -42.467  39.005  31.033  1.00  0.00     0.082 H 
BRANCH  16  27
ATOM     27  N   UNL     1     -42.343  43.031  27.392  1.00  0.00    -0.383 N 
ATOM     28  H   UNL     1     -41.430  42.761  27.742  1.00  0.00     0.158 HD
ATOM     29  H   UNL     1     -42.355  43.533  26.514  1.00  0.00     0.158 HD
ENDBRANCH  16  27
ENDBRANCH   5  15
BRANCH   7  30
ATOM     30  O   UNL     1     -46.008  38.440  31.718  1.00  0.00    -0.388 OA
ATOM     31  H   UNL     1     -45.094  38.274  32.029  1.00  0.00     0.211 HD
ENDBRANCH   7  30
BRANCH  11  32
ATOM     32  O   UNL     1     -45.964  35.693  31.041  1.00  0.00    -0.390 OA
ATOM     33  H   UNL     1     -45.731  36.161  31.873  1.00  0.00     0.211 HD
ENDBRANCH  11  32
ENDBRANCH   1   4
BRANCH   1  34
ATOM     34  C   UNL     1     -47.032  36.237  26.258  1.00  0.00    -0.027 C 
ATOM     35  H   UNL     1     -45.975  36.369  25.994  1.00  0.00     0.032 H 
ATOM     36  H   UNL     1     -47.586  36.874  25.556  1.00  0.00     0.032 H 
BRANCH  34  37
ATOM     37  C   UNL     1     -47.438  34.806  26.020  1.00  0.00    -0.046 A 
ATOM     38  C   UNL     1     -48.642  34.307  26.525  1.00  0.00    -0.059 A 
ATOM     39  C   UNL     1     -46.591  33.947  25.307  1.00  0.00    -0.035 A 
ATOM     40  C   UNL     1     -48.992  32.973  26.313  1.00  0.00    -0.060 A 
ATOM     41  H   UNL     1     -49.317  34.952  27.082  1.00  0.00     0.063 H 
ATOM     42  C   UNL     1     -46.898  32.595  25.151  1.00  0.00     0.041 A 
ATOM     43  H   UNL     1     -45.674  34.359  24.894  1.00  0.00     0.065 H 
ATOM     44  C   UNL     1     -48.123  32.121  25.627  1.00  0.00    -0.039 A 
ATOM     45  H   UNL     1     -49.934  32.592  26.699  1.00  0.00     0.062 H 
ATOM     46  H   UNL     1     -48.406  31.079  25.504  1.00  0.00     0.064 H 
BRANCH  42  47
ATOM     47  N   UNL     1     -46.022  31.671  24.548  1.00  0.00    -0.326 N 
ATOM     48  C   UNL     1     -46.146  31.138  23.280  1.00  0.00     0.227 C 
ATOM     49  H   UNL     1     -45.154  31.497  25.032  1.00  0.00     0.169 HD
ATOM     50  O   UNL     1     -47.014  31.418  22.461  1.00  0.00    -0.274 OA
BRANCH  48  51
ATOM     51  C   UNL     1     -45.083  30.168  22.871  1.00  0.00     0.038 C 
ATOM     52  C   UNL     1     -45.058  29.468  21.533  1.00  0.00    -0.041 C 
ATOM     53  C   UNL     1     -45.354  28.684  22.782  1.00  0.00    -0.041 C 
ATOM     54  H   UNL     1     -44.109  30.447  23.270  1.00  0.00     0.040 H 
ATOM     55  H   UNL     1     -45.855  29.639  20.820  1.00  0.00     0.027 H 
ATOM     56  H   UNL     1     -44.089  29.325  21.064  1.00  0.00     0.027 H 
ATOM     57  H   UNL     1     -46.361  28.319  22.943  1.00  0.00     0.027 H 
ATOM     58  H   UNL     1     -44.587  28.014  23.156  1.00  0.00     0.027 H 
ENDBRANCH  48  51
ENDBRANCH  42  47
ENDBRANCH  34  37
ENDBRANCH   1  34
TORSDOF 9
ENDMDL
MODEL 5
REMARK VINA RESULT:      -8.9      3.282      5.160
REMARK SMILES Nc1ncnc2c1ccn2[C@@H]1C[C@H](CCc2cccc(NC(=O)C3CC3)c2)[C@@H](O)[C@H]1O
REMARK SMILES IDX 14 1 13 4 11 5 12 6 30 7 28 11 10 15 2 16 3 17 7 18 4 19
REMARK SMILES IDX 6 20 8 21 5 22 9 24 1 27 31 30 29 32 15 34 16 37 17 38 27 39
REMARK SMILES IDX 18 40 20 42 19 44 21 47 22 48 23 50 24 51 25 52 26 53
REMARK H PARENT 14 2 14 3 11 8 12 9 12 10 30 12 13 13 28 14 4 23 8 25 9 26
REMARK H PARENT 1 28 1 29 31 31 29 33 15 35 15 36 17 41 27 43 18 45 19 46
REMARK H PARENT 21 49 24 54 25 55 25 56 26 57 26 58
REMARK Flexibility Score: inf
ROOT
ATOM      1  C   UNL     1     -46.443  32.425  23.564  1.00  0.00    -0.044 C 
ATOM      2  H   UNL     1     -45.670  33.197  23.448  1.00  0.00     0.027 H 
ATOM      3  H   UNL     1     -47.379  32.867  23.204  1.00  0.00     0.027 H 
ENDROOT
BRANCH   1   4
ATOM      4  C   UNL     1     -46.547  32.051  25.061  1.00  0.00    -0.010 C 
ATOM      5  C   UNL     1     -47.116  33.782  26.785  1.00  0.00     0.064 C 
ATOM      6  C   UNL     1     -45.956  33.171  25.959  1.00  0.00    -0.024 C 
ATOM      7  C   UNL     1     -48.355  33.346  25.991  1.00  0.00     0.101 C 
ATOM      8  H   UNL     1     -47.145  33.331  27.787  1.00  0.00     0.056 H 
ATOM      9  H   UNL     1     -45.211  32.745  26.642  1.00  0.00     0.029 H 
ATOM     10  H   UNL     1     -45.436  33.930  25.363  1.00  0.00     0.029 H 
ATOM     11  C   UNL     1     -47.987  31.914  25.575  1.00  0.00     0.085 C 
ATOM     12  H   UNL     1     -48.495  33.960  25.093  1.00  0.00     0.065 H 
ATOM     13  H   UNL     1     -45.973  31.134  25.241  1.00  0.00     0.033 H 
ATOM     14  H   UNL     1     -48.716  31.522  24.865  1.00  0.00     0.063 H 
BRANCH   5  15
ATOM     15  N   UNL     1     -46.931  35.208  27.033  1.00  0.00    -0.327 N 
ATOM     16  C   UNL     1     -46.236  38.024  29.075  1.00  0.00     0.136 A 
ATOM     17  N   UNL     1     -46.056  37.462  30.284  1.00  0.00    -0.219 NA
ATOM     18  C   UNL     1     -46.528  37.201  27.977  1.00  0.00     0.061 A 
ATOM     19  C   UNL     1     -46.164  36.125  30.384  1.00  0.00     0.120 A 
ATOM     20  C   UNL     1     -46.620  35.834  28.220  1.00  0.00     0.145 A 
ATOM     21  C   UNL     1     -46.758  37.396  26.591  1.00  0.00    -0.031 A 
ATOM     22  N   UNL     1     -46.432  35.236  29.411  1.00  0.00    -0.218 NA
ATOM     23  H   UNL     1     -46.012  35.712  31.377  1.00  0.00     0.106 H 
ATOM     24  C   UNL     1     -46.972  36.157  26.029  1.00  0.00     0.007 A 
ATOM     25  H   UNL     1     -46.755  38.338  26.059  1.00  0.00     0.065 H 
ATOM     26  H   UNL     1     -47.159  35.873  25.000  1.00  0.00     0.082 H 
BRANCH  16  27
ATOM     27  N   UNL     1     -46.099  39.403  28.987  1.00  0.00    -0.383 N 
ATOM     28  H   UNL     1     -46.639  39.762  28.208  1.00  0.00     0.158 HD
ATOM     29  H   UNL     1     -46.203  39.892  29.866  1.00  0.00     0.158 HD
ENDBRANCH  16  27
ENDBRANCH   5  15
BRANCH   7  30
ATOM     30  O   UNL     1     -49.560  33.381  26.746  1.00  0.00    -0.388 OA
ATOM     31  H   UNL     1     -49.275  33.457  27.680  1.00  0.00     0.211 HD
ENDBRANCH   7  30
BRANCH  11  32
ATOM     32  O   UNL     1     -47.957  31.050  26.717  1.00  0.00    -0.390 OA
ATOM     33  H   UNL     1     -48.774  30.504  26.699  1.00  0.00     0.211 HD
ENDBRANCH  11  32
ENDBRANCH   1   4
BRANCH   1  34
ATOM     34  C   UNL     1     -46.014  31.267  22.645  1.00  0.00    -0.027 C 
ATOM     35  H   UNL     1     -45.016  30.909  22.930  1.00  0.00     0.032 H 
ATOM     36  H   UNL     1     -45.899  31.656  21.625  1.00  0.00     0.032 H 
BRANCH  34  37
ATOM     37  C   UNL     1     -46.976  30.109  22.606  1.00  0.00    -0.046 A 
ATOM     38  C   UNL     1     -47.991  30.050  21.646  1.00  0.00    -0.059 A 
ATOM     39  C   UNL     1     -46.877  29.084  23.557  1.00  0.00    -0.035 A 
ATOM     40  C   UNL     1     -48.886  28.979  21.638  1.00  0.00    -0.060 A 
ATOM     41  H   UNL     1     -48.089  30.831  20.897  1.00  0.00     0.063 H 
ATOM     42  C   UNL     1     -47.811  28.047  23.600  1.00  0.00     0.041 A 
ATOM     43  H   UNL     1     -46.063  29.129  24.275  1.00  0.00     0.065 H 
ATOM     44  C   UNL     1     -48.795  27.981  22.610  1.00  0.00    -0.039 A 
ATOM     45  H   UNL     1     -49.667  28.933  20.884  1.00  0.00     0.062 H 
ATOM     46  H   UNL     1     -49.525  27.177  22.600  1.00  0.00     0.064 H 
BRANCH  42  47
ATOM     47  N   UNL     1     -47.823  27.064  24.609  1.00  0.00    -0.326 N 
ATOM     48  C   UNL     1     -48.230  27.244  25.917  1.00  0.00     0.227 C 
ATOM     49  H   UNL     1     -47.657  26.115  24.310  1.00  0.00     0.169 HD
ATOM     50  O   UNL     1     -48.687  28.275  26.396  1.00  0.00    -0.274 OA
BRANCH  48  51
ATOM     51  C   UNL     1     -48.143  26.040  26.800  1.00  0.00     0.038 C 
ATOM     52  C   UNL     1     -47.415  24.773  26.419  1.00  0.00    -0.041 C 
ATOM     53  C   UNL     1     -48.916  24.777  26.500  1.00  0.00    -0.041 C 
ATOM     54  H   UNL     1     -48.079  26.315  27.851  1.00  0.00     0.040 H 
ATOM     55  H   UNL     1     -46.943  24.694  25.447  1.00  0.00     0.027 H 
ATOM     56  H   UNL     1     -46.867  24.257  27.201  1.00  0.00     0.027 H 
ATOM     57  H   UNL     1     -49.489  24.712  25.582  1.00  0.00     0.027 H 
ATOM     58  H   UNL     1     -49.382  24.266  27.336  1.00  0.00     0.027 H 
ENDBRANCH  48  51
ENDBRANCH  42  47
ENDBRANCH  34  37
ENDBRANCH   1  34
TORSDOF 9
ENDMDL
MODEL 6
REMARK VINA RESULT:      -8.8      2.690     11.627
REMARK SMILES Nc1ncnc2c1ccn2[C@@H]1C[C@H](CCc2cccc(NC(=O)C3CC3)c2)[C@@H](O)[C@H]1O
REMARK SMILES IDX 14 1 13 4 11 5 12 6 30 7 28 11 10 15 2 16 3 17 7 18 4 19
REMARK SMILES IDX 6 20 8 21 5 22 9 24 1 27 31 30 29 32 15 34 16 37 17 38 27 39
REMARK SMILES IDX 18 40 20 42 19 44 21 47 22 48 23 50 24 51 25 52 26 53
REMARK H PARENT 14 2 14 3 11 8 12 9 12 10 30 12 13 13 28 14 4 23 8 25 9 26
REMARK H PARENT 1 28 1 29 31 31 29 33 15 35 15 36 17 41 27 43 18 45 19 46
REMARK H PARENT 21 49 24 54 25 55 25 56 26 57 26 58
REMARK Flexibility Score: inf
ROOT
ATOM      1  C   UNL     1     -46.834  32.448  23.861  1.00  0.00    -0.044 C 
ATOM      2  H   UNL     1     -47.912  32.329  24.037  1.00  0.00     0.027 H 
ATOM      3  H   UNL     1     -46.727  33.248  23.120  1.00  0.00     0.027 H 
ENDROOT
BRANCH   1   4
ATOM      4  C   UNL     1     -46.273  31.113  23.319  1.00  0.00    -0.010 C 
ATOM      5  C   UNL     1     -47.733  29.082  23.132  1.00  0.00     0.064 C 
ATOM      6  C   UNL     1     -46.850  29.904  24.103  1.00  0.00    -0.024 C 
ATOM      7  C   UNL     1     -48.019  30.089  22.009  1.00  0.00     0.101 C 
ATOM      8  H   UNL     1     -47.162  28.234  22.726  1.00  0.00     0.056 H 
ATOM      9  H   UNL     1     -46.030  29.272  24.468  1.00  0.00     0.029 H 
ATOM     10  H   UNL     1     -47.411  30.230  24.987  1.00  0.00     0.029 H 
ATOM     11  C   UNL     1     -46.669  30.809  21.867  1.00  0.00     0.085 C 
ATOM     12  H   UNL     1     -48.787  30.814  22.305  1.00  0.00     0.065 H 
ATOM     13  H   UNL     1     -45.183  31.107  23.441  1.00  0.00     0.033 H 
ATOM     14  H   UNL     1     -46.762  31.669  21.204  1.00  0.00     0.063 H 
BRANCH   5  15
ATOM     15  N   UNL     1     -48.873  28.466  23.802  1.00  0.00    -0.327 N 
ATOM     16  C   UNL     1     -50.400  26.148  26.012  1.00  0.00     0.136 A 
ATOM     17  N   UNL     1     -49.344  25.454  26.472  1.00  0.00    -0.219 NA
ATOM     18  C   UNL     1     -50.185  27.189  25.096  1.00  0.00     0.061 A 
ATOM     19  C   UNL     1     -48.120  25.794  26.028  1.00  0.00     0.120 A 
ATOM     20  C   UNL     1     -48.870  27.432  24.712  1.00  0.00     0.145 A 
ATOM     21  C   UNL     1     -50.999  28.132  24.417  1.00  0.00    -0.031 A 
ATOM     22  N   UNL     1     -47.789  26.768  25.162  1.00  0.00    -0.218 NA
ATOM     23  H   UNL     1     -47.295  25.208  26.423  1.00  0.00     0.106 H 
ATOM     24  C   UNL     1     -50.169  28.923  23.655  1.00  0.00     0.007 A 
ATOM     25  H   UNL     1     -52.074  28.232  24.489  1.00  0.00     0.065 H 
ATOM     26  H   UNL     1     -50.393  29.767  23.014  1.00  0.00     0.082 H 
BRANCH  16  27
ATOM     27  N   UNL     1     -51.652  25.798  26.498  1.00  0.00    -0.383 N 
ATOM     28  H   UNL     1     -52.208  25.370  25.765  1.00  0.00     0.158 HD
ATOM     29  H   UNL     1     -51.638  25.317  27.387  1.00  0.00     0.158 HD
ENDBRANCH  16  27
ENDBRANCH   5  15
BRANCH   7  30
ATOM     30  O   UNL     1     -48.424  29.485  20.787  1.00  0.00    -0.388 OA
ATOM     31  H   UNL     1     -49.402  29.437  20.838  1.00  0.00     0.211 HD
ENDBRANCH   7  30
BRANCH  11  32
ATOM     32  O   UNL     1     -45.682  29.924  21.326  1.00  0.00    -0.390 OA
ATOM     33  H   UNL     1     -45.174  30.423  20.648  1.00  0.00     0.211 HD
ENDBRANCH  11  32
ENDBRANCH   1   4
BRANCH   1  34
ATOM     34  C   UNL     1     -46.240  32.889  25.211  1.00  0.00    -0.027 C 
ATOM     35  H   UNL     1     -45.195  33.197  25.080  1.00  0.00     0.032 H 
ATOM     36  H   UNL     1     -46.202  32.016  25.876  1.00  0.00     0.032 H 
BRANCH  34  37
ATOM     37  C   UNL     1     -47.007  33.982  25.906  1.00  0.00    -0.046 A 
ATOM     38  C   UNL     1     -48.330  33.784  26.316  1.00  0.00    -0.059 A 
ATOM     39  C   UNL     1     -46.405  35.228  26.128  1.00  0.00    -0.035 A 
ATOM     40  C   UNL     1     -49.031  34.815  26.940  1.00  0.00    -0.060 A 
ATOM     41  H   UNL     1     -48.820  32.827  26.156  1.00  0.00     0.063 H 
ATOM     42  C   UNL     1     -47.122  36.287  26.688  1.00  0.00     0.041 A 
ATOM     43  H   UNL     1     -45.367  35.355  25.833  1.00  0.00     0.065 H 
ATOM     44  C   UNL     1     -48.429  36.062  27.127  1.00  0.00    -0.039 A 
ATOM     45  H   UNL     1     -50.056  34.653  27.265  1.00  0.00     0.062 H 
ATOM     46  H   UNL     1     -49.010  36.857  27.586  1.00  0.00     0.064 H 
BRANCH  42  47
ATOM     47  N   UNL     1     -46.597  37.588  26.818  1.00  0.00    -0.326 N 
ATOM     48  C   UNL     1     -46.210  38.197  27.996  1.00  0.00     0.227 C 
ATOM     49  H   UNL     1     -46.349  38.058  25.959  1.00  0.00     0.169 HD
ATOM     50  O   UNL     1     -46.221  37.686  29.110  1.00  0.00    -0.274 OA
BRANCH  48  51
ATOM     51  C   UNL     1     -45.686  39.592  27.869  1.00  0.00     0.038 C 
ATOM     52  C   UNL     1     -45.216  40.195  26.567  1.00  0.00    -0.041 C 
ATOM     53  C   UNL     1     -44.218  39.872  27.644  1.00  0.00    -0.041 C 
ATOM     54  H   UNL     1     -46.199  40.277  28.541  1.00  0.00     0.040 H 
ATOM     55  H   UNL     1     -45.223  39.598  25.663  1.00  0.00     0.027 H 
ATOM     56  H   UNL     1     -45.448  41.240  26.389  1.00  0.00     0.027 H 
ATOM     57  H   UNL     1     -43.538  39.042  27.494  1.00  0.00     0.027 H 
ATOM     58  H   UNL     1     -43.778  40.696  28.194  1.00  0.00     0.027 H 
ENDBRANCH  48  51
ENDBRANCH  42  47
ENDBRANCH  34  37
ENDBRANCH   1  34
TORSDOF 9
ENDMDL
MODEL 7
REMARK VINA RESULT:      -8.7      4.858      7.683
REMARK SMILES Nc1ncnc2c1ccn2[C@@H]1C[C@H](CCc2cccc(NC(=O)C3CC3)c2)[C@@H](O)[C@H]1O
REMARK SMILES IDX 14 1 13 4 11 5 12 6 30 7 28 11 10 15 2 16 3 17 7 18 4 19
REMARK SMILES IDX 6 20 8 21 5 22 9 24 1 27 31 30 29 32 15 34 16 37 17 38 27 39
REMARK SMILES IDX 18 40 20 42 19 44 21 47 22 48 23 50 24 51 25 52 26 53
REMARK H PARENT 14 2 14 3 11 8 12 9 12 10 30 12 13 13 28 14 4 23 8 25 9 26
REMARK H PARENT 1 28 1 29 31 31 29 33 15 35 15 36 17 41 27 43 18 45 19 46
REMARK H PARENT 21 49 24 54 25 55 25 56 26 57 26 58
REMARK Flexibility Score: inf
ROOT
ATOM      1  C   UNL     1     -47.526  36.852  27.275  1.00  0.00    -0.044 C 
ATOM      2  H   UNL     1     -47.431  36.342  26.307  1.00  0.00     0.027 H 
ATOM      3  H   UNL     1     -47.328  37.913  27.088  1.00  0.00     0.027 H 
ENDROOT
BRANCH   1   4
ATOM      4  C   UNL     1     -46.481  36.258  28.248  1.00  0.00    -0.010 C 
ATOM      5  C   UNL     1     -44.798  37.728  29.388  1.00  0.00     0.064 C 
ATOM      6  C   UNL     1     -45.103  36.952  28.082  1.00  0.00    -0.024 C 
ATOM      7  C   UNL     1     -46.186  37.853  30.032  1.00  0.00     0.101 C 
ATOM      8  H   UNL     1     -44.145  37.131  30.039  1.00  0.00     0.056 H 
ATOM      9  H   UNL     1     -44.323  36.197  27.920  1.00  0.00     0.029 H 
ATOM     10  H   UNL     1     -45.089  37.609  27.204  1.00  0.00     0.029 H 
ATOM     11  C   UNL     1     -46.808  36.480  29.732  1.00  0.00     0.085 C 
ATOM     12  H   UNL     1     -46.785  38.636  29.550  1.00  0.00     0.065 H 
ATOM     13  H   UNL     1     -46.352  35.191  28.027  1.00  0.00     0.033 H 
ATOM     14  H   UNL     1     -47.865  36.473  29.998  1.00  0.00     0.063 H 
BRANCH   5  15
ATOM     15  N   UNL     1     -44.047  38.954  29.144  1.00  0.00    -0.327 N 
ATOM     16  C   UNL     1     -43.279  41.919  27.353  1.00  0.00     0.136 A 
ATOM     17  N   UNL     1     -44.160  41.877  26.339  1.00  0.00    -0.219 NA
ATOM     18  C   UNL     1     -43.284  40.889  28.305  1.00  0.00     0.061 A 
ATOM     19  C   UNL     1     -45.015  40.839  26.285  1.00  0.00     0.120 A 
ATOM     20  C   UNL     1     -44.215  39.870  28.128  1.00  0.00     0.145 A 
ATOM     21  C   UNL     1     -42.558  40.590  29.486  1.00  0.00    -0.031 A 
ATOM     22  N   UNL     1     -45.120  39.802  27.135  1.00  0.00    -0.218 NA
ATOM     23  H   UNL     1     -45.710  40.842  25.450  1.00  0.00     0.106 H 
ATOM     24  C   UNL     1     -43.064  39.417  29.999  1.00  0.00     0.007 A 
ATOM     25  H   UNL     1     -41.760  41.176  29.923  1.00  0.00     0.065 H 
ATOM     26  H   UNL     1     -42.801  38.867  30.895  1.00  0.00     0.082 H 
BRANCH  16  27
ATOM     27  N   UNL     1     -42.419  43.008  27.405  1.00  0.00    -0.383 N 
ATOM     28  H   UNL     1     -42.373  43.465  26.500  1.00  0.00     0.158 HD
ATOM     29  H   UNL     1     -42.555  43.612  28.204  1.00  0.00     0.158 HD
ENDBRANCH  16  27
ENDBRANCH   5  15
BRANCH   7  30
ATOM     30  O   UNL     1     -46.147  38.119  31.429  1.00  0.00    -0.388 OA
ATOM     31  H   UNL     1     -46.152  39.096  31.502  1.00  0.00     0.211 HD
ENDBRANCH   7  30
BRANCH  11  32
ATOM     32  O   UNL     1     -46.146  35.454  30.479  1.00  0.00    -0.390 OA
ATOM     33  H   UNL     1     -46.415  35.548  31.419  1.00  0.00     0.211 HD
ENDBRANCH  11  32
ENDBRANCH   1   4
BRANCH   1  34
ATOM     34  C   UNL     1     -48.988  36.651  27.709  1.00  0.00    -0.027 C 
ATOM     35  H   UNL     1     -49.039  35.957  28.557  1.00  0.00     0.032 H 
ATOM     36  H   UNL     1     -49.527  36.149  26.894  1.00  0.00     0.032 H 
BRANCH  34  37
ATOM     37  C   UNL     1     -49.721  37.922  28.049  1.00  0.00    -0.046 A 
ATOM     38  C   UNL     1     -51.074  37.900  28.402  1.00  0.00    -0.059 A 
ATOM     39  C   UNL     1     -49.053  39.152  27.988  1.00  0.00    -0.035 A 
ATOM     40  C   UNL     1     -51.741  39.090  28.694  1.00  0.00    -0.060 A 
ATOM     41  H   UNL     1     -51.615  36.959  28.457  1.00  0.00     0.063 H 
ATOM     42  C   UNL     1     -49.730  40.353  28.209  1.00  0.00     0.041 A 
ATOM     43  H   UNL     1     -47.994  39.149  27.744  1.00  0.00     0.065 H 
ATOM     44  C   UNL     1     -51.071  40.312  28.599  1.00  0.00    -0.039 A 
ATOM     45  H   UNL     1     -52.790  39.067  28.977  1.00  0.00     0.062 H 
ATOM     46  H   UNL     1     -51.623  41.226  28.800  1.00  0.00     0.064 H 
BRANCH  42  47
ATOM     47  N   UNL     1     -49.130  41.617  28.041  1.00  0.00    -0.326 N 
ATOM     48  C   UNL     1     -49.208  42.413  26.914  1.00  0.00     0.227 C 
ATOM     49  H   UNL     1     -48.732  42.037  28.868  1.00  0.00     0.169 HD
ATOM     50  O   UNL     1     -49.847  42.165  25.899  1.00  0.00    -0.274 OA
BRANCH  48  51
ATOM     51  C   UNL     1     -48.476  43.715  26.982  1.00  0.00     0.038 C 
ATOM     52  C   UNL     1     -48.376  44.681  25.826  1.00  0.00    -0.041 C 
ATOM     53  C   UNL     1     -47.158  43.923  26.273  1.00  0.00    -0.041 C 
ATOM     54  H   UNL     1     -48.560  44.174  27.966  1.00  0.00     0.040 H 
ATOM     55  H   UNL     1     -48.828  44.431  24.874  1.00  0.00     0.027 H 
ATOM     56  H   UNL     1     -48.425  45.741  26.055  1.00  0.00     0.027 H 
ATOM     57  H   UNL     1     -46.768  43.137  25.638  1.00  0.00     0.027 H 
ATOM     58  H   UNL     1     -46.385  44.469  26.806  1.00  0.00     0.027 H 
ENDBRANCH  48  51
ENDBRANCH  42  47
ENDBRANCH  34  37
ENDBRANCH   1  34
TORSDOF 9
ENDMDL
