MODEL 1
REMARK VINA RESULT:     -10.9      0.000      0.000
REMARK SMILES Cn1ccc(-c2cn([C@@H]3O[C@H](COc4ccc5cnc(N[C@H]6C[C@@H](N)C6)nc5c4)[C@@H](O)[C@@H]3F)c3ncnc(N)c23)n1
REMARK SMILES IDX 12 1 11 4 9 5 10 6 32 7 30 9 33 10 8 14 6 15 7 16 40 17
REMARK SMILES IDX 34 19 38 20 35 21 37 22 36 23 5 25 2 26 3 27 41 28 4 29 1 32
REMARK SMILES IDX 39 36 31 39 13 41 14 42 15 43 29 44 16 45 28 47 17 49 27 51
REMARK SMILES IDX 18 52 20 53 19 54 21 56 22 58 26 59 23 60 24 62 25 68
REMARK H PARENT 12 2 12 3 9 8 32 11 11 12 30 13 7 18 36 24 3 30 4 31 1 33 1 34
REMARK H PARENT 1 35 39 37 39 38 31 40 15 46 29 48 16 50 18 55 21 57 22 61
REMARK H PARENT 26 63 26 64 23 65 23 66 24 67 25 69 25 70
REMARK Flexibility Score: inf
ROOT
ATOM      1  C   UNL     1     -46.640  35.529  26.580  1.00  0.00     0.117 C 
ATOM      2  H   UNL     1     -46.864  36.229  25.769  1.00  0.00     0.073 H 
ATOM      3  H   UNL     1     -45.719  35.013  26.288  1.00  0.00     0.073 H 
ENDROOT
BRANCH   1   4
ATOM      4  C   UNL     1     -46.374  36.245  27.909  1.00  0.00     0.123 C 
ATOM      5  C   UNL     1     -45.252  38.044  28.863  1.00  0.00     0.169 C 
ATOM      6  O   UNL     1     -45.143  36.983  27.883  1.00  0.00    -0.345 OA
ATOM      7  C   UNL     1     -46.695  38.060  29.369  1.00  0.00     0.173 C 
ATOM      8  H   UNL     1     -44.584  37.778  29.691  1.00  0.00     0.088 H 
ATOM      9  C   UNL     1     -47.440  37.250  28.325  1.00  0.00     0.119 C 
ATOM     10  F   UNL     1     -47.215  39.307  29.461  1.00  0.00    -0.239 F 
ATOM     11  H   UNL     1     -46.771  37.595  30.359  1.00  0.00     0.074 H 
ATOM     12  H   UNL     1     -46.260  35.471  28.679  1.00  0.00     0.067 H 
ATOM     13  H   UNL     1     -47.760  37.911  27.512  1.00  0.00     0.066 H 
BRANCH   5  14
ATOM     14  N   UNL     1     -44.768  39.272  28.258  1.00  0.00    -0.302 N 
ATOM     15  C   UNL     1     -44.515  41.019  26.896  1.00  0.00     0.033 A 
ATOM     16  C   UNL     1     -45.245  39.867  27.118  1.00  0.00     0.019 A 
ATOM     17  C   UNL     1     -43.495  41.088  27.892  1.00  0.00     0.071 A 
ATOM     18  H   UNL     1     -46.077  39.456  26.563  1.00  0.00     0.083 H 
ATOM     19  C   UNL     1     -43.718  40.012  28.748  1.00  0.00     0.148 A 
ATOM     20  C   UNL     1     -42.387  41.899  28.196  1.00  0.00     0.137 A 
ATOM     21  N   UNL     1     -43.019  39.717  29.859  1.00  0.00    -0.218 NA
ATOM     22  N   UNL     1     -41.650  41.623  29.293  1.00  0.00    -0.219 NA
ATOM     23  C   UNL     1     -42.013  40.580  30.060  1.00  0.00     0.120 A 
ATOM     24  H   UNL     1     -41.409  40.409  30.945  1.00  0.00     0.106 H 
BRANCH  15  25
ATOM     25  C   UNL     1     -44.770  41.986  25.827  1.00  0.00     0.095 A 
ATOM     26  N   UNL     1     -45.573  43.618  24.755  1.00  0.00    -0.275 N 
ATOM     27  C   UNL     1     -44.576  43.147  23.955  1.00  0.00     0.025 A 
ATOM     28  N   UNL     1     -45.705  42.941  25.909  1.00  0.00    -0.173 NA
ATOM     29  C   UNL     1     -44.021  42.089  24.634  1.00  0.00    -0.016 A 
ATOM     30  H   UNL     1     -44.340  43.594  22.999  1.00  0.00     0.084 H 
ATOM     31  H   UNL     1     -43.184  41.481  24.316  1.00  0.00     0.066 H 
BRANCH  26  32
ATOM     32  C   UNL     1     -46.444  44.736  24.485  1.00  0.00     0.030 C 
ATOM     33  H   UNL     1     -47.203  44.440  23.757  1.00  0.00     0.048 H 
ATOM     34  H   UNL     1     -46.921  45.033  25.423  1.00  0.00     0.048 H 
ATOM     35  H   UNL     1     -45.842  45.554  24.084  1.00  0.00     0.048 H 
ENDBRANCH  26  32
ENDBRANCH  15  25
BRANCH  20  36
ATOM     36  N   UNL     1     -41.930  42.944  27.398  1.00  0.00    -0.383 N 
ATOM     37  H   UNL     1     -41.766  42.604  26.456  1.00  0.00     0.158 HD
ATOM     38  H   UNL     1     -42.538  43.755  27.436  1.00  0.00     0.158 HD
ENDBRANCH  20  36
ENDBRANCH   5  14
BRANCH   9  39
ATOM     39  O   UNL     1     -48.585  36.601  28.868  1.00  0.00    -0.387 OA
ATOM     40  H   UNL     1     -48.360  36.334  29.779  1.00  0.00     0.211 HD
ENDBRANCH   9  39
ENDBRANCH   1   4
BRANCH   1  41
ATOM     41  O   UNL     1     -47.628  34.500  26.682  1.00  0.00    -0.491 OA
BRANCH  41  42
ATOM     42  C   UNL     1     -47.546  33.404  25.870  1.00  0.00     0.121 A 
ATOM     43  C   UNL     1     -46.429  33.395  25.034  1.00  0.00    -0.019 A 
ATOM     44  C   UNL     1     -48.437  32.329  25.826  1.00  0.00     0.007 A 
ATOM     45  C   UNL     1     -46.195  32.315  24.189  1.00  0.00    -0.048 A 
ATOM     46  H   UNL     1     -45.728  34.225  25.056  1.00  0.00     0.066 H 
ATOM     47  C   UNL     1     -48.218  31.227  25.004  1.00  0.00     0.079 A 
ATOM     48  H   UNL     1     -49.317  32.290  26.459  1.00  0.00     0.069 H 
ATOM     49  C   UNL     1     -47.087  31.229  24.188  1.00  0.00     0.019 A 
ATOM     50  H   UNL     1     -45.309  32.307  23.560  1.00  0.00     0.063 H 
ATOM     51  N   UNL     1     -49.074  30.199  25.031  1.00  0.00    -0.213 NA
ATOM     52  C   UNL     1     -46.921  30.092  23.417  1.00  0.00     0.040 A 
ATOM     53  C   UNL     1     -48.800  29.128  24.270  1.00  0.00     0.223 A 
ATOM     54  N   UNL     1     -47.755  29.035  23.440  1.00  0.00    -0.221 NA
ATOM     55  H   UNL     1     -46.074  29.985  22.747  1.00  0.00     0.085 H 
BRANCH  53  56
ATOM     56  N   UNL     1     -49.583  27.976  24.394  1.00  0.00    -0.351 N 
ATOM     57  H   UNL     1     -49.997  27.839  23.478  1.00  0.00     0.163 HD
BRANCH  56  58
ATOM     58  C   UNL     1     -49.089  26.801  25.040  1.00  0.00     0.032 C 
ATOM     59  C   UNL     1     -47.542  26.680  24.998  1.00  0.00    -0.017 C 
ATOM     60  C   UNL     1     -48.950  26.950  26.575  1.00  0.00    -0.017 C 
ATOM     61  H   UNL     1     -49.614  25.893  24.721  1.00  0.00     0.053 H 
ATOM     62  C   UNL     1     -47.635  26.157  26.448  1.00  0.00     0.008 C 
ATOM     63  H   UNL     1     -47.152  25.964  24.268  1.00  0.00     0.030 H 
ATOM     64  H   UNL     1     -47.010  27.632  24.870  1.00  0.00     0.030 H 
ATOM     65  H   UNL     1     -48.848  27.987  26.917  1.00  0.00     0.030 H 
ATOM     66  H   UNL     1     -49.733  26.460  27.161  1.00  0.00     0.030 H 
ATOM     67  H   UNL     1     -47.733  25.072  26.560  1.00  0.00     0.046 H 
BRANCH  62  68
ATOM     68  N   UNL     1     -46.618  26.796  27.273  1.00  0.00    -0.328 NA
ATOM     69  H   UNL     1     -47.017  27.476  27.929  1.00  0.00     0.119 HD
ATOM     70  H   UNL     1     -46.087  26.141  27.847  1.00  0.00     0.119 HD
ENDBRANCH  62  68
ENDBRANCH  56  58
ENDBRANCH  53  56
ENDBRANCH  41  42
ENDBRANCH   1  41
TORSDOF 11
ENDMDL
MODEL 2
REMARK VINA RESULT:     -10.1      1.836      3.020
REMARK SMILES Cn1ccc(-c2cn([C@@H]3O[C@H](COc4ccc5cnc(N[C@H]6C[C@@H](N)C6)nc5c4)[C@@H](O)[C@@H]3F)c3ncnc(N)c23)n1
REMARK SMILES IDX 12 1 11 4 9 5 10 6 32 7 30 9 33 10 8 14 6 15 7 16 40 17
REMARK SMILES IDX 34 19 38 20 35 21 37 22 36 23 5 25 2 26 3 27 41 28 4 29 1 32
REMARK SMILES IDX 39 36 31 39 13 41 14 42 15 43 29 44 16 45 28 47 17 49 27 51
REMARK SMILES IDX 18 52 20 53 19 54 21 56 22 58 26 59 23 60 24 62 25 68
REMARK H PARENT 12 2 12 3 9 8 32 11 11 12 30 13 7 18 36 24 3 30 4 31 1 33 1 34
REMARK H PARENT 1 35 39 37 39 38 31 40 15 46 29 48 16 50 18 55 21 57 22 61
REMARK H PARENT 26 63 26 64 23 65 23 66 24 67 25 69 25 70
REMARK Flexibility Score: inf
ROOT
ATOM      1  C   UNL     1     -46.738  35.637  26.437  1.00  0.00     0.117 C 
ATOM      2  H   UNL     1     -47.830  35.608  26.355  1.00  0.00     0.073 H 
ATOM      3  H   UNL     1     -46.395  36.328  25.658  1.00  0.00     0.073 H 
ENDROOT
BRANCH   1   4
ATOM      4  C   UNL     1     -46.272  36.186  27.790  1.00  0.00     0.123 C 
ATOM      5  C   UNL     1     -45.022  37.877  28.783  1.00  0.00     0.169 C 
ATOM      6  O   UNL     1     -45.062  36.951  27.669  1.00  0.00    -0.345 OA
ATOM      7  C   UNL     1     -46.369  37.794  29.502  1.00  0.00     0.173 C 
ATOM      8  H   UNL     1     -44.233  37.525  29.457  1.00  0.00     0.088 H 
ATOM      9  C   UNL     1     -47.264  37.104  28.489  1.00  0.00     0.119 C 
ATOM     10  F   UNL     1     -46.873  39.007  29.832  1.00  0.00    -0.239 F 
ATOM     11  H   UNL     1     -46.289  37.206  30.423  1.00  0.00     0.074 H 
ATOM     12  H   UNL     1     -46.036  35.324  28.427  1.00  0.00     0.067 H 
ATOM     13  H   UNL     1     -47.709  37.855  27.827  1.00  0.00     0.066 H 
BRANCH   5  14
ATOM     14  N   UNL     1     -44.643  39.183  28.272  1.00  0.00    -0.302 N 
ATOM     15  C   UNL     1     -44.541  41.043  27.047  1.00  0.00     0.033 A 
ATOM     16  C   UNL     1     -45.174  39.822  27.181  1.00  0.00     0.019 A 
ATOM     17  C   UNL     1     -43.525  41.119  28.047  1.00  0.00     0.071 A 
ATOM     18  H   UNL     1     -45.973  39.388  26.596  1.00  0.00     0.083 H 
ATOM     19  C   UNL     1     -43.654  39.967  28.817  1.00  0.00     0.148 A 
ATOM     20  C   UNL     1     -42.485  41.993  28.412  1.00  0.00     0.137 A 
ATOM     21  N   UNL     1     -42.927  39.646  29.903  1.00  0.00    -0.218 NA
ATOM     22  N   UNL     1     -41.721  41.695  29.485  1.00  0.00    -0.219 NA
ATOM     23  C   UNL     1     -41.994  40.571  30.169  1.00  0.00     0.120 A 
ATOM     24  H   UNL     1     -41.372  40.383  31.039  1.00  0.00     0.106 H 
BRANCH  15  25
ATOM     25  C   UNL     1     -44.880  42.064  26.055  1.00  0.00     0.095 A 
ATOM     26  N   UNL     1     -45.785  43.733  25.129  1.00  0.00    -0.275 N 
ATOM     27  C   UNL     1     -44.821  43.341  24.250  1.00  0.00     0.025 A 
ATOM     28  N   UNL     1     -45.835  42.984  26.245  1.00  0.00    -0.173 NA
ATOM     29  C   UNL     1     -44.201  42.261  24.833  1.00  0.00    -0.016 A 
ATOM     30  H   UNL     1     -44.650  43.852  23.313  1.00  0.00     0.084 H 
ATOM     31  H   UNL     1     -43.366  41.700  24.434  1.00  0.00     0.066 H 
BRANCH  26  32
ATOM     32  C   UNL     1     -46.700  44.837  24.976  1.00  0.00     0.030 C 
ATOM     33  H   UNL     1     -47.452  44.801  25.767  1.00  0.00     0.048 H 
ATOM     34  H   UNL     1     -46.129  45.767  25.044  1.00  0.00     0.048 H 
ATOM     35  H   UNL     1     -47.182  44.754  23.999  1.00  0.00     0.048 H 
ENDBRANCH  26  32
ENDBRANCH  15  25
BRANCH  20  36
ATOM     36  N   UNL     1     -42.119  43.128  27.695  1.00  0.00    -0.383 N 
ATOM     37  H   UNL     1     -41.409  43.640  28.209  1.00  0.00     0.158 HD
ATOM     38  H   UNL     1     -41.853  42.915  26.739  1.00  0.00     0.158 HD
ENDBRANCH  20  36
ENDBRANCH   5  14
BRANCH   9  39
ATOM     39  O   UNL     1     -48.308  36.365  29.114  1.00  0.00    -0.387 OA
ATOM     40  H   UNL     1     -48.076  36.280  30.058  1.00  0.00     0.211 HD
ENDBRANCH   9  39
ENDBRANCH   1   4
BRANCH   1  41
ATOM     41  O   UNL     1     -46.147  34.378  26.105  1.00  0.00    -0.491 OA
BRANCH  41  42
ATOM     42  C   UNL     1     -46.934  33.372  25.619  1.00  0.00     0.121 A 
ATOM     43  C   UNL     1     -48.097  33.149  26.356  1.00  0.00    -0.019 A 
ATOM     44  C   UNL     1     -46.691  32.599  24.480  1.00  0.00     0.007 A 
ATOM     45  C   UNL     1     -49.013  32.185  25.944  1.00  0.00    -0.048 A 
ATOM     46  H   UNL     1     -48.299  33.741  27.244  1.00  0.00     0.066 H 
ATOM     47  C   UNL     1     -47.598  31.641  24.036  1.00  0.00     0.079 A 
ATOM     48  H   UNL     1     -45.802  32.738  23.874  1.00  0.00     0.069 H 
ATOM     49  C   UNL     1     -48.762  31.444  24.777  1.00  0.00     0.019 A 
ATOM     50  H   UNL     1     -49.927  32.036  26.512  1.00  0.00     0.063 H 
ATOM     51  N   UNL     1     -47.345  30.957  22.914  1.00  0.00    -0.213 NA
ATOM     52  C   UNL     1     -49.629  30.495  24.263  1.00  0.00     0.040 A 
ATOM     53  C   UNL     1     -48.269  30.086  22.482  1.00  0.00     0.223 A 
ATOM     54  N   UNL     1     -49.409  29.808  23.125  1.00  0.00    -0.221 NA
ATOM     55  H   UNL     1     -50.567  30.262  24.757  1.00  0.00     0.085 H 
BRANCH  53  56
ATOM     56  N   UNL     1     -48.111  29.475  21.234  1.00  0.00    -0.351 N 
ATOM     57  H   UNL     1     -48.060  28.481  21.432  1.00  0.00     0.163 HD
BRANCH  56  58
ATOM     58  C   UNL     1     -48.909  29.849  20.111  1.00  0.00     0.032 C 
ATOM     59  C   UNL     1     -50.375  29.345  20.201  1.00  0.00    -0.017 C 
ATOM     60  C   UNL     1     -49.488  31.283  20.212  1.00  0.00    -0.017 C 
ATOM     61  H   UNL     1     -48.422  29.627  19.154  1.00  0.00     0.053 H 
ATOM     62  C   UNL     1     -50.786  30.711  19.610  1.00  0.00     0.008 C 
ATOM     63  H   UNL     1     -50.607  28.477  19.576  1.00  0.00     0.030 H 
ATOM     64  H   UNL     1     -50.729  29.143  21.222  1.00  0.00     0.030 H 
ATOM     65  H   UNL     1     -49.567  31.662  21.238  1.00  0.00     0.030 H 
ATOM     66  H   UNL     1     -48.980  32.031  19.596  1.00  0.00     0.030 H 
ATOM     67  H   UNL     1     -50.853  30.759  18.518  1.00  0.00     0.046 H 
BRANCH  62  68
ATOM     68  N   UNL     1     -51.923  31.249  20.346  1.00  0.00    -0.328 NA
ATOM     69  H   UNL     1     -52.704  31.501  19.729  1.00  0.00     0.119 HD
ATOM     70  H   UNL     1     -52.312  30.598  21.027  1.00  0.00     0.119 HD
ENDBRANCH  62  68
ENDBRANCH  56  58
ENDBRANCH  53  56
ENDBRANCH  41  42
ENDBRANCH   1  41
TORSDOF 11
ENDMDL
MODEL 3
REMARK VINA RESULT:      -9.7      1.951      2.867
REMARK SMILES Cn1ccc(-c2cn([C@@H]3O[C@H](COc4ccc5cnc(N[C@H]6C[C@@H](N)C6)nc5c4)[C@@H](O)[C@@H]3F)c3ncnc(N)c23)n1
REMARK SMILES IDX 12 1 11 4 9 5 10 6 32 7 30 9 33 10 8 14 6 15 7 16 40 17
REMARK SMILES IDX 34 19 38 20 35 21 37 22 36 23 5 25 2 26 3 27 41 28 4 29 1 32
REMARK SMILES IDX 39 36 31 39 13 41 14 42 15 43 29 44 16 45 28 47 17 49 27 51
REMARK SMILES IDX 18 52 20 53 19 54 21 56 22 58 26 59 23 60 24 62 25 68
REMARK H PARENT 12 2 12 3 9 8 32 11 11 12 30 13 7 18 36 24 3 30 4 31 1 33 1 34
REMARK H PARENT 1 35 39 37 39 38 31 40 15 46 29 48 16 50 18 55 21 57 22 61
REMARK H PARENT 26 63 26 64 23 65 23 66 24 67 25 69 25 70
REMARK Flexibility Score: inf
ROOT
ATOM      1  C   UNL     1     -47.605  35.818  28.478  1.00  0.00     0.117 C 
ATOM      2  H   UNL     1     -47.633  34.855  28.998  1.00  0.00     0.073 H 
ATOM      3  H   UNL     1     -48.283  36.479  29.030  1.00  0.00     0.073 H 
ENDROOT
BRANCH   1   4
ATOM      4  C   UNL     1     -46.209  36.451  28.505  1.00  0.00     0.123 C 
ATOM      5  C   UNL     1     -44.947  38.215  27.666  1.00  0.00     0.169 C 
ATOM      6  O   UNL     1     -45.950  37.227  27.324  1.00  0.00    -0.345 OA
ATOM      7  C   UNL     1     -44.733  38.153  29.179  1.00  0.00     0.173 C 
ATOM      8  H   UNL     1     -44.023  37.916  27.160  1.00  0.00     0.088 H 
ATOM      9  C   UNL     1     -45.950  37.392  29.673  1.00  0.00     0.119 C 
ATOM     10  F   UNL     1     -44.670  39.374  29.761  1.00  0.00    -0.239 F 
ATOM     11  H   UNL     1     -43.808  37.620  29.425  1.00  0.00     0.074 H 
ATOM     12  H   UNL     1     -45.479  35.631  28.508  1.00  0.00     0.067 H 
ATOM     13  H   UNL     1     -46.768  38.096  29.858  1.00  0.00     0.066 H 
BRANCH   5  14
ATOM     14  N   UNL     1     -45.372  39.496  27.128  1.00  0.00    -0.302 N 
ATOM     15  C   UNL     1     -45.381  41.488  26.125  1.00  0.00     0.033 A 
ATOM     16  C   UNL     1     -44.586  40.414  26.481  1.00  0.00     0.019 A 
ATOM     17  C   UNL     1     -46.688  41.254  26.650  1.00  0.00     0.071 A 
ATOM     18  H   UNL     1     -43.536  40.237  26.291  1.00  0.00     0.083 H 
ATOM     19  C   UNL     1     -46.653  39.985  27.222  1.00  0.00     0.148 A 
ATOM     20  C   UNL     1     -47.910  41.942  26.747  1.00  0.00     0.137 A 
ATOM     21  N   UNL     1     -47.685  39.340  27.796  1.00  0.00    -0.218 NA
ATOM     22  N   UNL     1     -48.964  41.335  27.333  1.00  0.00    -0.219 NA
ATOM     23  C   UNL     1     -48.800  40.083  27.797  1.00  0.00     0.120 A 
ATOM     24  H   UNL     1     -49.679  39.622  28.237  1.00  0.00     0.106 H 
BRANCH  15  25
ATOM     25  C   UNL     1     -44.939  42.640  25.341  1.00  0.00     0.095 A 
ATOM     26  N   UNL     1     -44.531  44.631  24.762  1.00  0.00    -0.275 N 
ATOM     27  C   UNL     1     -43.975  43.872  23.776  1.00  0.00     0.025 A 
ATOM     28  N   UNL     1     -45.111  43.908  25.737  1.00  0.00    -0.173 NA
ATOM     29  C   UNL     1     -44.211  42.565  24.132  1.00  0.00    -0.016 A 
ATOM     30  H   UNL     1     -43.462  44.307  22.930  1.00  0.00     0.084 H 
ATOM     31  H   UNL     1     -43.894  41.680  23.597  1.00  0.00     0.066 H 
BRANCH  26  32
ATOM     32  C   UNL     1     -44.533  46.070  24.849  1.00  0.00     0.030 C 
ATOM     33  H   UNL     1     -45.559  46.439  24.767  1.00  0.00     0.048 H 
ATOM     34  H   UNL     1     -44.110  46.356  25.816  1.00  0.00     0.048 H 
ATOM     35  H   UNL     1     -43.928  46.467  24.032  1.00  0.00     0.048 H 
ENDBRANCH  26  32
ENDBRANCH  15  25
BRANCH  20  36
ATOM     36  N   UNL     1     -48.108  43.261  26.348  1.00  0.00    -0.383 N 
ATOM     37  H   UNL     1     -47.305  43.579  25.815  1.00  0.00     0.158 HD
ATOM     38  H   UNL     1     -48.992  43.391  25.866  1.00  0.00     0.158 HD
ENDBRANCH  20  36
ENDBRANCH   5  14
BRANCH   9  39
ATOM     39  O   UNL     1     -45.681  36.673  30.872  1.00  0.00    -0.387 OA
ATOM     40  H   UNL     1     -45.885  35.735  30.697  1.00  0.00     0.211 HD
ENDBRANCH   9  39
ENDBRANCH   1   4
BRANCH   1  41
ATOM     41  O   UNL     1     -48.159  35.730  27.163  1.00  0.00    -0.491 OA
BRANCH  41  42
ATOM     42  C   UNL     1     -47.916  34.620  26.403  1.00  0.00     0.121 A 
ATOM     43  C   UNL     1     -46.648  34.591  25.823  1.00  0.00    -0.019 A 
ATOM     44  C   UNL     1     -48.787  33.549  26.189  1.00  0.00     0.007 A 
ATOM     45  C   UNL     1     -46.250  33.495  25.063  1.00  0.00    -0.048 A 
ATOM     46  H   UNL     1     -45.960  35.417  25.979  1.00  0.00     0.066 H 
ATOM     47  C   UNL     1     -48.409  32.432  25.449  1.00  0.00     0.079 A 
ATOM     48  H   UNL     1     -49.782  33.526  26.622  1.00  0.00     0.069 H 
ATOM     49  C   UNL     1     -47.132  32.414  24.890  1.00  0.00     0.019 A 
ATOM     50  H   UNL     1     -45.252  33.471  24.635  1.00  0.00     0.063 H 
ATOM     51  N   UNL     1     -49.260  31.409  25.310  1.00  0.00    -0.213 NA
ATOM     52  C   UNL     1     -46.816  31.263  24.189  1.00  0.00     0.040 A 
ATOM     53  C   UNL     1     -48.842  30.323  24.641  1.00  0.00     0.223 A 
ATOM     54  N   UNL     1     -47.646  30.211  24.052  1.00  0.00    -0.221 NA
ATOM     55  H   UNL     1     -45.848  31.141  23.715  1.00  0.00     0.085 H 
BRANCH  53  56
ATOM     56  N   UNL     1     -49.643  29.178  24.615  1.00  0.00    -0.351 N 
ATOM     57  H   UNL     1     -50.226  29.283  23.791  1.00  0.00     0.163 HD
BRANCH  56  58
ATOM     58  C   UNL     1     -49.096  27.877  24.832  1.00  0.00     0.032 C 
ATOM     59  C   UNL     1     -49.220  27.394  26.302  1.00  0.00    -0.017 C 
ATOM     60  C   UNL     1     -50.068  26.728  24.464  1.00  0.00    -0.017 C 
ATOM     61  H   UNL     1     -48.090  27.767  24.411  1.00  0.00     0.053 H 
ATOM     62  C   UNL     1     -49.552  26.001  25.721  1.00  0.00     0.008 C 
ATOM     63  H   UNL     1     -48.296  27.446  26.887  1.00  0.00     0.030 H 
ATOM     64  H   UNL     1     -50.024  27.873  26.877  1.00  0.00     0.030 H 
ATOM     65  H   UNL     1     -51.127  27.013  24.481  1.00  0.00     0.030 H 
ATOM     66  H   UNL     1     -49.853  26.225  23.516  1.00  0.00     0.030 H 
ATOM     67  H   UNL     1     -48.698  25.336  25.557  1.00  0.00     0.046 H 
BRANCH  62  68
ATOM     68  N   UNL     1     -50.686  25.425  26.432  1.00  0.00    -0.328 NA
ATOM     69  H   UNL     1     -50.755  25.763  27.398  1.00  0.00     0.119 HD
ATOM     70  H   UNL     1     -51.586  25.639  26.003  1.00  0.00     0.119 HD
ENDBRANCH  62  68
ENDBRANCH  56  58
ENDBRANCH  53  56
ENDBRANCH  41  42
ENDBRANCH   1  41
TORSDOF 11
ENDMDL
MODEL 4
REMARK VINA RESULT:      -9.5      2.374     12.668
REMARK SMILES Cn1ccc(-c2cn([C@@H]3O[C@H](COc4ccc5cnc(N[C@H]6C[C@@H](N)C6)nc5c4)[C@@H](O)[C@@H]3F)c3ncnc(N)c23)n1
REMARK SMILES IDX 12 1 11 4 9 5 10 6 32 7 30 9 33 10 8 14 6 15 7 16 40 17
REMARK SMILES IDX 34 19 38 20 35 21 37 22 36 23 5 25 2 26 3 27 41 28 4 29 1 32
REMARK SMILES IDX 39 36 31 39 13 41 14 42 15 43 29 44 16 45 28 47 17 49 27 51
REMARK SMILES IDX 18 52 20 53 19 54 21 56 22 58 26 59 23 60 24 62 25 68
REMARK H PARENT 12 2 12 3 9 8 32 11 11 12 30 13 7 18 36 24 3 30 4 31 1 33 1 34
REMARK H PARENT 1 35 39 37 39 38 31 40 15 46 29 48 16 50 18 55 21 57 22 61
REMARK H PARENT 26 63 26 64 23 65 23 66 24 67 25 69 25 70
REMARK Flexibility Score: inf
ROOT
ATOM      1  C   UNL     1     -47.308  33.973  26.974  1.00  0.00     0.117 C 
ATOM      2  H   UNL     1     -47.202  33.138  27.675  1.00  0.00     0.073 H 
ATOM      3  H   UNL     1     -46.289  34.254  26.684  1.00  0.00     0.073 H 
ENDROOT
BRANCH   1   4
ATOM      4  C   UNL     1     -48.062  33.570  25.702  1.00  0.00     0.123 C 
ATOM      5  C   UNL     1     -48.241  31.904  24.090  1.00  0.00     0.169 C 
ATOM      6  O   UNL     1     -47.301  32.661  24.892  1.00  0.00    -0.345 OA
ATOM      7  C   UNL     1     -49.648  32.243  24.582  1.00  0.00     0.173 C 
ATOM      8  H   UNL     1     -48.127  32.253  23.058  1.00  0.00     0.088 H 
ATOM      9  C   UNL     1     -49.400  32.882  25.937  1.00  0.00     0.119 C 
ATOM     10  F   UNL     1     -50.446  31.157  24.710  1.00  0.00    -0.239 F 
ATOM     11  H   UNL     1     -50.146  32.943  23.901  1.00  0.00     0.074 H 
ATOM     12  H   UNL     1     -48.203  34.481  25.105  1.00  0.00     0.067 H 
ATOM     13  H   UNL     1     -49.363  32.103  26.704  1.00  0.00     0.066 H 
BRANCH   5  14
ATOM     14  N   UNL     1     -47.859  30.503  24.147  1.00  0.00    -0.302 N 
ATOM     15  C   UNL     1     -47.765  28.342  24.685  1.00  0.00     0.033 A 
ATOM     16  C   UNL     1     -48.409  29.536  24.948  1.00  0.00     0.019 A 
ATOM     17  C   UNL     1     -46.724  28.606  23.746  1.00  0.00     0.071 A 
ATOM     18  H   UNL     1     -49.228  29.748  25.622  1.00  0.00     0.083 H 
ATOM     19  C   UNL     1     -46.848  29.949  23.399  1.00  0.00     0.148 A 
ATOM     20  C   UNL     1     -45.665  27.907  23.139  1.00  0.00     0.137 A 
ATOM     21  N   UNL     1     -46.098  30.614  22.502  1.00  0.00    -0.218 NA
ATOM     22  N   UNL     1     -44.878  28.547  22.247  1.00  0.00    -0.219 NA
ATOM     23  C   UNL     1     -45.148  29.834  21.969  1.00  0.00     0.120 A 
ATOM     24  H   UNL     1     -44.507  30.303  21.228  1.00  0.00     0.106 H 
BRANCH  15  25
ATOM     25  C   UNL     1     -48.116  27.048  25.272  1.00  0.00     0.095 A 
ATOM     26  N   UNL     1     -47.955  25.189  26.261  1.00  0.00    -0.275 N 
ATOM     27  C   UNL     1     -49.293  25.345  26.052  1.00  0.00     0.025 A 
ATOM     28  N   UNL     1     -47.215  26.217  25.811  1.00  0.00    -0.173 NA
ATOM     29  C   UNL     1     -49.433  26.558  25.421  1.00  0.00    -0.016 A 
ATOM     30  H   UNL     1     -50.018  24.609  26.368  1.00  0.00     0.084 H 
ATOM     31  H   UNL     1     -50.359  27.028  25.118  1.00  0.00     0.066 H 
BRANCH  26  32
ATOM     32  C   UNL     1     -47.304  24.075  26.906  1.00  0.00     0.030 C 
ATOM     33  H   UNL     1     -47.364  23.194  26.262  1.00  0.00     0.048 H 
ATOM     34  H   UNL     1     -46.258  24.342  27.078  1.00  0.00     0.048 H 
ATOM     35  H   UNL     1     -47.811  23.879  27.853  1.00  0.00     0.048 H 
ENDBRANCH  26  32
ENDBRANCH  15  25
BRANCH  20  36
ATOM     36  N   UNL     1     -45.303  26.599  23.446  1.00  0.00    -0.383 N 
ATOM     37  H   UNL     1     -45.154  26.513  24.447  1.00  0.00     0.158 HD
ATOM     38  H   UNL     1     -45.958  25.918  23.075  1.00  0.00     0.158 HD
ENDBRANCH  20  36
ENDBRANCH   5  14
BRANCH   9  39
ATOM     39  O   UNL     1     -50.415  33.819  26.280  1.00  0.00    -0.387 OA
ATOM     40  H   UNL     1     -50.835  34.108  25.448  1.00  0.00     0.211 HD
ENDBRANCH   9  39
ENDBRANCH   1   4
BRANCH   1  41
ATOM     41  O   UNL     1     -47.850  35.134  27.608  1.00  0.00    -0.491 OA
BRANCH  41  42
ATOM     42  C   UNL     1     -47.004  36.084  28.108  1.00  0.00     0.121 A 
ATOM     43  C   UNL     1     -46.621  35.868  29.432  1.00  0.00    -0.019 A 
ATOM     44  C   UNL     1     -46.497  37.193  27.425  1.00  0.00     0.007 A 
ATOM     45  C   UNL     1     -45.724  36.734  30.052  1.00  0.00    -0.048 A 
ATOM     46  H   UNL     1     -47.008  35.012  29.976  1.00  0.00     0.066 H 
ATOM     47  C   UNL     1     -45.585  38.063  28.015  1.00  0.00     0.079 A 
ATOM     48  H   UNL     1     -46.764  37.400  26.394  1.00  0.00     0.069 H 
ATOM     49  C   UNL     1     -45.201  37.822  29.333  1.00  0.00     0.019 A 
ATOM     50  H   UNL     1     -45.414  36.542  31.075  1.00  0.00     0.063 H 
ATOM     51  N   UNL     1     -45.089  39.085  27.306  1.00  0.00    -0.213 NA
ATOM     52  C   UNL     1     -44.274  38.712  29.845  1.00  0.00     0.040 A 
ATOM     53  C   UNL     1     -44.167  39.869  27.885  1.00  0.00     0.223 A 
ATOM     54  N   UNL     1     -43.744  39.736  29.147  1.00  0.00    -0.221 NA
ATOM     55  H   UNL     1     -43.903  38.618  30.860  1.00  0.00     0.085 H 
BRANCH  53  56
ATOM     56  N   UNL     1     -43.513  40.843  27.123  1.00  0.00    -0.351 N 
ATOM     57  H   UNL     1     -43.180  40.353  26.299  1.00  0.00     0.163 HD
BRANCH  56  58
ATOM     58  C   UNL     1     -44.093  42.128  26.895  1.00  0.00     0.032 C 
ATOM     59  C   UNL     1     -43.184  43.302  27.346  1.00  0.00    -0.017 C 
ATOM     60  C   UNL     1     -43.899  42.646  25.449  1.00  0.00    -0.017 C 
ATOM     61  H   UNL     1     -45.123  42.197  27.264  1.00  0.00     0.053 H 
ATOM     62  C   UNL     1     -43.652  44.035  26.069  1.00  0.00     0.008 C 
ATOM     63  H   UNL     1     -43.472  43.778  28.288  1.00  0.00     0.030 H 
ATOM     64  H   UNL     1     -42.112  43.063  27.390  1.00  0.00     0.030 H 
ATOM     65  H   UNL     1     -43.045  42.201  24.924  1.00  0.00     0.030 H 
ATOM     66  H   UNL     1     -44.784  42.575  24.809  1.00  0.00     0.030 H 
ATOM     67  H   UNL     1     -44.543  44.662  26.177  1.00  0.00     0.046 H 
BRANCH  62  68
ATOM     68  N   UNL     1     -42.511  44.652  25.404  1.00  0.00    -0.328 NA
ATOM     69  H   UNL     1     -41.905  45.159  26.058  1.00  0.00     0.119 HD
ATOM     70  H   UNL     1     -41.905  43.983  24.931  1.00  0.00     0.119 HD
ENDBRANCH  62  68
ENDBRANCH  56  58
ENDBRANCH  53  56
ENDBRANCH  41  42
ENDBRANCH   1  41
TORSDOF 11
ENDMDL
MODEL 5
REMARK VINA RESULT:      -9.4      4.842      9.023
REMARK SMILES Cn1ccc(-c2cn([C@@H]3O[C@H](COc4ccc5cnc(N[C@H]6C[C@@H](N)C6)nc5c4)[C@@H](O)[C@@H]3F)c3ncnc(N)c23)n1
REMARK SMILES IDX 12 1 11 4 9 5 10 6 32 7 30 9 33 10 8 14 6 15 7 16 40 17
REMARK SMILES IDX 34 19 38 20 35 21 37 22 36 23 5 25 2 26 3 27 41 28 4 29 1 32
REMARK SMILES IDX 39 36 31 39 13 41 14 42 15 43 29 44 16 45 28 47 17 49 27 51
REMARK SMILES IDX 18 52 20 53 19 54 21 56 22 58 26 59 23 60 24 62 25 68
REMARK H PARENT 12 2 12 3 9 8 32 11 11 12 30 13 7 18 36 24 3 30 4 31 1 33 1 34
REMARK H PARENT 1 35 39 37 39 38 31 40 15 46 29 48 16 50 18 55 21 57 22 61
REMARK H PARENT 26 63 26 64 23 65 23 66 24 67 25 69 25 70
REMARK Flexibility Score: inf
ROOT
ATOM      1  C   UNL     1     -42.656  43.281  25.418  1.00  0.00     0.117 C 
ATOM      2  H   UNL     1     -42.918  42.292  25.030  1.00  0.00     0.073 H 
ATOM      3  H   UNL     1     -41.656  43.503  25.029  1.00  0.00     0.073 H 
ENDROOT
BRANCH   1   4
ATOM      4  C   UNL     1     -43.607  44.373  24.915  1.00  0.00     0.123 C 
ATOM      5  C   UNL     1     -45.849  44.860  24.535  1.00  0.00     0.169 C 
ATOM      6  O   UNL     1     -44.841  43.825  24.426  1.00  0.00    -0.345 OA
ATOM      7  C   UNL     1     -45.231  46.028  25.306  1.00  0.00     0.173 C 
ATOM      8  H   UNL     1     -46.078  45.186  23.514  1.00  0.00     0.088 H 
ATOM      9  C   UNL     1     -44.008  45.409  25.957  1.00  0.00     0.119 C 
ATOM     10  F   UNL     1     -46.058  46.544  26.246  1.00  0.00    -0.239 F 
ATOM     11  H   UNL     1     -44.949  46.842  24.629  1.00  0.00     0.074 H 
ATOM     12  H   UNL     1     -43.120  44.861  24.061  1.00  0.00     0.067 H 
ATOM     13  H   UNL     1     -44.291  44.974  26.921  1.00  0.00     0.066 H 
BRANCH   5  14
ATOM     14  N   UNL     1     -47.045  44.270  25.110  1.00  0.00    -0.302 N 
ATOM     15  C   UNL     1     -48.424  43.025  26.343  1.00  0.00     0.033 A 
ATOM     16  C   UNL     1     -47.096  43.295  26.073  1.00  0.00     0.019 A 
ATOM     17  C   UNL     1     -49.218  43.807  25.450  1.00  0.00     0.071 A 
ATOM     18  H   UNL     1     -46.201  42.882  26.518  1.00  0.00     0.083 H 
ATOM     19  C   UNL     1     -48.325  44.602  24.736  1.00  0.00     0.148 A 
ATOM     20  C   UNL     1     -50.576  43.952  25.118  1.00  0.00     0.137 A 
ATOM     21  N   UNL     1     -48.643  45.529  23.815  1.00  0.00    -0.218 NA
ATOM     22  N   UNL     1     -50.933  44.859  24.183  1.00  0.00    -0.219 NA
ATOM     23  C   UNL     1     -49.966  45.598  23.611  1.00  0.00     0.120 A 
ATOM     24  H   UNL     1     -50.299  46.333  22.884  1.00  0.00     0.106 H 
BRANCH  15  25
ATOM     25  C   UNL     1     -48.905  42.106  27.374  1.00  0.00     0.095 A 
ATOM     26  N   UNL     1     -50.045  41.288  28.953  1.00  0.00    -0.275 N 
ATOM     27  C   UNL     1     -49.199  40.282  28.591  1.00  0.00     0.025 A 
ATOM     28  N   UNL     1     -49.899  42.405  28.220  1.00  0.00    -0.173 NA
ATOM     29  C   UNL     1     -48.452  40.780  27.550  1.00  0.00    -0.016 A 
ATOM     30  H   UNL     1     -49.204  39.318  29.079  1.00  0.00     0.084 H 
ATOM     31  H   UNL     1     -47.690  40.253  26.990  1.00  0.00     0.066 H 
BRANCH  26  32
ATOM     32  C   UNL     1     -51.041  41.248  29.995  1.00  0.00     0.030 C 
ATOM     33  H   UNL     1     -51.962  41.715  29.638  1.00  0.00     0.048 H 
ATOM     34  H   UNL     1     -51.228  40.202  30.251  1.00  0.00     0.048 H 
ATOM     35  H   UNL     1     -50.658  41.793  30.861  1.00  0.00     0.048 H 
ENDBRANCH  26  32
ENDBRANCH  15  25
BRANCH  20  36
ATOM     36  N   UNL     1     -51.603  43.164  25.629  1.00  0.00    -0.383 N 
ATOM     37  H   UNL     1     -52.308  43.019  24.914  1.00  0.00     0.158 HD
ATOM     38  H   UNL     1     -51.262  42.302  26.042  1.00  0.00     0.158 HD
ENDBRANCH  20  36
ENDBRANCH   5  14
BRANCH   9  39
ATOM     39  O   UNL     1     -42.973  46.363  26.168  1.00  0.00    -0.387 OA
ATOM     40  H   UNL     1     -42.211  46.087  25.625  1.00  0.00     0.211 HD
ENDBRANCH   9  39
ENDBRANCH   1   4
BRANCH   1  41
ATOM     41  O   UNL     1     -42.509  43.272  26.841  1.00  0.00    -0.491 OA
BRANCH  41  42
ATOM     42  C   UNL     1     -42.833  42.146  27.544  1.00  0.00     0.121 A 
ATOM     43  C   UNL     1     -42.063  41.948  28.691  1.00  0.00    -0.019 A 
ATOM     44  C   UNL     1     -43.841  41.230  27.235  1.00  0.00     0.007 A 
ATOM     45  C   UNL     1     -42.318  40.865  29.527  1.00  0.00    -0.048 A 
ATOM     46  H   UNL     1     -41.274  42.651  28.944  1.00  0.00     0.066 H 
ATOM     47  C   UNL     1     -44.129  40.149  28.062  1.00  0.00     0.079 A 
ATOM     48  H   UNL     1     -44.467  41.344  26.356  1.00  0.00     0.069 H 
ATOM     49  C   UNL     1     -43.360  39.977  29.212  1.00  0.00     0.019 A 
ATOM     50  H   UNL     1     -41.729  40.734  30.430  1.00  0.00     0.063 H 
ATOM     51  N   UNL     1     -45.136  39.324  27.750  1.00  0.00    -0.213 NA
ATOM     52  C   UNL     1     -43.720  38.896  30.000  1.00  0.00     0.040 A 
ATOM     53  C   UNL     1     -45.426  38.328  28.601  1.00  0.00     0.223 A 
ATOM     54  N   UNL     1     -44.740  38.064  29.720  1.00  0.00    -0.221 NA
ATOM     55  H   UNL     1     -43.190  38.669  30.919  1.00  0.00     0.085 H 
BRANCH  53  56
ATOM     56  N   UNL     1     -46.567  37.548  28.388  1.00  0.00    -0.351 N 
ATOM     57  H   UNL     1     -46.957  37.886  27.514  1.00  0.00     0.163 HD
BRANCH  56  58
ATOM     58  C   UNL     1     -46.547  36.130  28.558  1.00  0.00     0.032 C 
ATOM     59  C   UNL     1     -47.444  35.376  27.540  1.00  0.00    -0.017 C 
ATOM     60  C   UNL     1     -45.340  35.442  27.873  1.00  0.00    -0.017 C 
ATOM     61  H   UNL     1     -46.707  35.828  29.600  1.00  0.00     0.053 H 
ATOM     62  C   UNL     1     -46.318  34.322  27.467  1.00  0.00     0.008 C 
ATOM     63  H   UNL     1     -48.396  35.013  27.940  1.00  0.00     0.030 H 
ATOM     64  H   UNL     1     -47.643  35.923  26.609  1.00  0.00     0.030 H 
ATOM     65  H   UNL     1     -44.906  36.017  27.047  1.00  0.00     0.030 H 
ATOM     66  H   UNL     1     -44.538  35.134  28.551  1.00  0.00     0.030 H 
ATOM     67  H   UNL     1     -46.394  33.490  28.175  1.00  0.00     0.046 H 
BRANCH  62  68
ATOM     68  N   UNL     1     -46.067  33.959  26.078  1.00  0.00    -0.328 NA
ATOM     69  H   UNL     1     -46.880  34.130  25.476  1.00  0.00     0.119 HD
ATOM     70  H   UNL     1     -45.299  34.478  25.654  1.00  0.00     0.119 HD
ENDBRANCH  62  68
ENDBRANCH  56  58
ENDBRANCH  53  56
ENDBRANCH  41  42
ENDBRANCH   1  41
TORSDOF 11
ENDMDL
MODEL 6
REMARK VINA RESULT:      -9.3      2.156      2.991
REMARK SMILES Cn1ccc(-c2cn([C@@H]3O[C@H](COc4ccc5cnc(N[C@H]6C[C@@H](N)C6)nc5c4)[C@@H](O)[C@@H]3F)c3ncnc(N)c23)n1
REMARK SMILES IDX 12 1 11 4 9 5 10 6 32 7 30 9 33 10 8 14 6 15 7 16 40 17
REMARK SMILES IDX 34 19 38 20 35 21 37 22 36 23 5 25 2 26 3 27 41 28 4 29 1 32
REMARK SMILES IDX 39 36 31 39 13 41 14 42 15 43 29 44 16 45 28 47 17 49 27 51
REMARK SMILES IDX 18 52 20 53 19 54 21 56 22 58 26 59 23 60 24 62 25 68
REMARK H PARENT 12 2 12 3 9 8 32 11 11 12 30 13 7 18 36 24 3 30 4 31 1 33 1 34
REMARK H PARENT 1 35 39 37 39 38 31 40 15 46 29 48 16 50 18 55 21 57 22 61
REMARK H PARENT 26 63 26 64 23 65 23 66 24 67 25 69 25 70
REMARK Flexibility Score: inf
ROOT
ATOM      1  C   UNL     1     -45.497  34.588  26.823  1.00  0.00     0.117 C 
ATOM      2  H   UNL     1     -45.377  35.098  25.861  1.00  0.00     0.073 H 
ATOM      3  H   UNL     1     -44.752  33.784  26.833  1.00  0.00     0.073 H 
ENDROOT
BRANCH   1   4
ATOM      4  C   UNL     1     -45.203  35.513  28.010  1.00  0.00     0.123 C 
ATOM      5  C   UNL     1     -45.210  37.738  28.684  1.00  0.00     0.169 C 
ATOM      6  O   UNL     1     -44.894  36.849  27.585  1.00  0.00    -0.345 OA
ATOM      7  C   UNL     1     -45.925  36.913  29.755  1.00  0.00     0.173 C 
ATOM      8  H   UNL     1     -44.256  38.097  29.085  1.00  0.00     0.088 H 
ATOM      9  C   UNL     1     -46.342  35.659  29.010  1.00  0.00     0.119 C 
ATOM     10  F   UNL     1     -47.008  37.537  30.276  1.00  0.00    -0.239 F 
ATOM     11  H   UNL     1     -45.249  36.674  30.585  1.00  0.00     0.074 H 
ATOM     12  H   UNL     1     -44.305  35.126  28.510  1.00  0.00     0.067 H 
ATOM     13  H   UNL     1     -47.318  35.822  28.542  1.00  0.00     0.066 H 
BRANCH   5  14
ATOM     14  N   UNL     1     -45.942  38.874  28.151  1.00  0.00    -0.302 N 
ATOM     15  C   UNL     1     -47.584  40.259  27.552  1.00  0.00     0.033 A 
ATOM     16  C   UNL     1     -47.303  39.040  28.140  1.00  0.00     0.019 A 
ATOM     17  C   UNL     1     -46.350  40.824  27.111  1.00  0.00     0.071 A 
ATOM     18  H   UNL     1     -47.973  38.307  28.569  1.00  0.00     0.083 H 
ATOM     19  C   UNL     1     -45.350  39.957  27.546  1.00  0.00     0.148 A 
ATOM     20  C   UNL     1     -45.919  41.946  26.381  1.00  0.00     0.137 A 
ATOM     21  N   UNL     1     -44.025  40.124  27.389  1.00  0.00    -0.218 NA
ATOM     22  N   UNL     1     -44.596  42.138  26.186  1.00  0.00    -0.219 NA
ATOM     23  C   UNL     1     -43.739  41.244  26.710  1.00  0.00     0.120 A 
ATOM     24  H   UNL     1     -42.685  41.449  26.552  1.00  0.00     0.106 H 
BRANCH  15  25
ATOM     25  C   UNL     1     -48.918  40.847  27.428  1.00  0.00     0.095 A 
ATOM     26  N   UNL     1     -50.588  41.871  26.638  1.00  0.00    -0.275 N 
ATOM     27  C   UNL     1     -51.037  41.349  27.814  1.00  0.00     0.025 A 
ATOM     28  N   UNL     1     -49.306  41.569  26.368  1.00  0.00    -0.173 NA
ATOM     29  C   UNL     1     -49.973  40.661  28.347  1.00  0.00    -0.016 A 
ATOM     30  H   UNL     1     -52.050  41.494  28.162  1.00  0.00     0.084 H 
ATOM     31  H   UNL     1     -49.964  40.094  29.269  1.00  0.00     0.066 H 
BRANCH  26  32
ATOM     32  C   UNL     1     -51.341  42.667  25.700  1.00  0.00     0.030 C 
ATOM     33  H   UNL     1     -51.113  43.724  25.853  1.00  0.00     0.048 H 
ATOM     34  H   UNL     1     -51.057  42.365  24.689  1.00  0.00     0.048 H 
ATOM     35  H   UNL     1     -52.405  42.487  25.871  1.00  0.00     0.048 H 
ENDBRANCH  26  32
ENDBRANCH  15  25
BRANCH  20  36
ATOM     36  N   UNL     1     -46.767  42.858  25.760  1.00  0.00    -0.383 N 
ATOM     37  H   UNL     1     -46.674  43.766  26.204  1.00  0.00     0.158 HD
ATOM     38  H   UNL     1     -46.639  42.884  24.753  1.00  0.00     0.158 HD
ENDBRANCH  20  36
ENDBRANCH   5  14
BRANCH   9  39
ATOM     39  O   UNL     1     -46.428  34.528  29.871  1.00  0.00    -0.387 OA
ATOM     40  H   UNL     1     -45.877  34.720  30.654  1.00  0.00     0.211 HD
ENDBRANCH   9  39
ENDBRANCH   1   4
BRANCH   1  41
ATOM     41  O   UNL     1     -46.761  33.928  26.922  1.00  0.00    -0.491 OA
BRANCH  41  42
ATOM     42  C   UNL     1     -47.073  32.936  26.035  1.00  0.00     0.121 A 
ATOM     43  C   UNL     1     -46.348  32.983  24.845  1.00  0.00    -0.019 A 
ATOM     44  C   UNL     1     -48.002  31.909  26.226  1.00  0.00     0.007 A 
ATOM     45  C   UNL     1     -46.531  32.004  23.873  1.00  0.00    -0.048 A 
ATOM     46  H   UNL     1     -45.623  33.776  24.682  1.00  0.00     0.066 H 
ATOM     47  C   UNL     1     -48.192  30.907  25.278  1.00  0.00     0.079 A 
ATOM     48  H   UNL     1     -48.587  31.829  27.135  1.00  0.00     0.069 H 
ATOM     49  C   UNL     1     -47.446  30.963  24.102  1.00  0.00     0.019 A 
ATOM     50  H   UNL     1     -45.943  32.037  22.960  1.00  0.00     0.063 H 
ATOM     51  N   UNL     1     -49.059  29.917  25.524  1.00  0.00    -0.213 NA
ATOM     52  C   UNL     1     -47.669  29.921  23.218  1.00  0.00     0.040 A 
ATOM     53  C   UNL     1     -49.173  28.935  24.617  1.00  0.00     0.223 A 
ATOM     54  N   UNL     1     -48.519  28.903  23.450  1.00  0.00    -0.221 NA
ATOM     55  H   UNL     1     -47.141  29.863  22.272  1.00  0.00     0.085 H 
BRANCH  53  56
ATOM     56  N   UNL     1     -49.946  27.809  24.914  1.00  0.00    -0.351 N 
ATOM     57  H   UNL     1     -50.007  27.294  24.041  1.00  0.00     0.163 HD
BRANCH  56  58
ATOM     58  C   UNL     1     -49.712  27.028  26.086  1.00  0.00     0.032 C 
ATOM     59  C   UNL     1     -49.563  25.510  25.796  1.00  0.00    -0.017 C 
ATOM     60  C   UNL     1     -48.227  27.001  26.526  1.00  0.00    -0.017 C 
ATOM     61  H   UNL     1     -50.417  27.258  26.894  1.00  0.00     0.053 H 
ATOM     62  C   UNL     1     -48.439  25.510  26.854  1.00  0.00     0.008 C 
ATOM     63  H   UNL     1     -50.438  24.902  26.045  1.00  0.00     0.030 H 
ATOM     64  H   UNL     1     -49.251  25.267  24.771  1.00  0.00     0.030 H 
ATOM     65  H   UNL     1     -47.517  27.214  25.718  1.00  0.00     0.030 H 
ATOM     66  H   UNL     1     -47.987  27.636  27.384  1.00  0.00     0.030 H 
ATOM     67  H   UNL     1     -48.750  25.300  27.883  1.00  0.00     0.046 H 
BRANCH  62  68
ATOM     68  N   UNL     1     -47.294  24.753  26.363  1.00  0.00    -0.328 NA
ATOM     69  H   UNL     1     -47.460  24.354  25.433  1.00  0.00     0.119 HD
ATOM     70  H   UNL     1     -46.445  25.310  26.274  1.00  0.00     0.119 HD
ENDBRANCH  62  68
ENDBRANCH  56  58
ENDBRANCH  53  56
ENDBRANCH  41  42
ENDBRANCH   1  41
TORSDOF 11
ENDMDL
MODEL 7
REMARK VINA RESULT:      -9.2      3.450      4.642
REMARK SMILES Cn1ccc(-c2cn([C@@H]3O[C@H](COc4ccc5cnc(N[C@H]6C[C@@H](N)C6)nc5c4)[C@@H](O)[C@@H]3F)c3ncnc(N)c23)n1
REMARK SMILES IDX 12 1 11 4 9 5 10 6 32 7 30 9 33 10 8 14 6 15 7 16 40 17
REMARK SMILES IDX 34 19 38 20 35 21 37 22 36 23 5 25 2 26 3 27 41 28 4 29 1 32
REMARK SMILES IDX 39 36 31 39 13 41 14 42 15 43 29 44 16 45 28 47 17 49 27 51
REMARK SMILES IDX 18 52 20 53 19 54 21 56 22 58 26 59 23 60 24 62 25 68
REMARK H PARENT 12 2 12 3 9 8 32 11 11 12 30 13 7 18 36 24 3 30 4 31 1 33 1 34
REMARK H PARENT 1 35 39 37 39 38 31 40 15 46 29 48 16 50 18 55 21 57 22 61
REMARK H PARENT 26 63 26 64 23 65 23 66 24 67 25 69 25 70
REMARK Flexibility Score: inf
ROOT
ATOM      1  C   UNL     1     -46.903  34.476  25.796  1.00  0.00     0.117 C 
ATOM      2  H   UNL     1     -47.872  34.099  26.141  1.00  0.00     0.073 H 
ATOM      3  H   UNL     1     -47.114  35.085  24.910  1.00  0.00     0.073 H 
ENDROOT
BRANCH   1   4
ATOM      4  C   UNL     1     -46.229  35.380  26.835  1.00  0.00     0.123 C 
ATOM      5  C   UNL     1     -46.378  37.453  27.877  1.00  0.00     0.169 C 
ATOM      6  O   UNL     1     -46.522  36.767  26.609  1.00  0.00    -0.345 OA
ATOM      7  C   UNL     1     -46.174  36.390  28.958  1.00  0.00     0.173 C 
ATOM      8  H   UNL     1     -45.474  38.067  27.802  1.00  0.00     0.088 H 
ATOM      9  C   UNL     1     -46.629  35.111  28.279  1.00  0.00     0.119 C 
ATOM     10  F   UNL     1     -46.903  36.619  30.076  1.00  0.00    -0.239 F 
ATOM     11  H   UNL     1     -45.121  36.327  29.254  1.00  0.00     0.074 H 
ATOM     12  H   UNL     1     -45.144  35.263  26.713  1.00  0.00     0.067 H 
ATOM     13  H   UNL     1     -47.708  34.989  28.420  1.00  0.00     0.066 H 
BRANCH   5  14
ATOM     14  N   UNL     1     -47.520  38.334  28.048  1.00  0.00    -0.302 N 
ATOM     15  C   UNL     1     -48.787  40.132  28.410  1.00  0.00     0.033 A 
ATOM     16  C   UNL     1     -47.486  39.672  28.345  1.00  0.00     0.019 A 
ATOM     17  C   UNL     1     -49.655  39.014  28.228  1.00  0.00     0.071 A 
ATOM     18  H   UNL     1     -46.554  40.209  28.462  1.00  0.00     0.083 H 
ATOM     19  C   UNL     1     -48.829  37.925  27.956  1.00  0.00     0.148 A 
ATOM     20  C   UNL     1     -51.035  38.747  28.270  1.00  0.00     0.137 A 
ATOM     21  N   UNL     1     -49.228  36.672  27.672  1.00  0.00    -0.218 NA
ATOM     22  N   UNL     1     -51.473  37.496  28.009  1.00  0.00    -0.219 NA
ATOM     23  C   UNL     1     -50.563  36.552  27.709  1.00  0.00     0.120 A 
ATOM     24  H   UNL     1     -50.959  35.568  27.482  1.00  0.00     0.106 H 
BRANCH  15  25
ATOM     25  C   UNL     1     -49.179  41.526  28.619  1.00  0.00     0.095 A 
ATOM     26  N   UNL     1     -49.597  43.367  29.567  1.00  0.00    -0.275 N 
ATOM     27  C   UNL     1     -49.720  43.637  28.236  1.00  0.00     0.025 A 
ATOM     28  N   UNL     1     -49.253  42.095  29.830  1.00  0.00    -0.173 NA
ATOM     29  C   UNL     1     -49.438  42.457  27.589  1.00  0.00    -0.016 A 
ATOM     30  H   UNL     1     -49.980  44.618  27.866  1.00  0.00     0.084 H 
ATOM     31  H   UNL     1     -49.413  42.295  26.520  1.00  0.00     0.066 H 
BRANCH  26  32
ATOM     32  C   UNL     1     -49.782  44.292  30.658  1.00  0.00     0.030 C 
ATOM     33  H   UNL     1     -50.049  43.741  31.563  1.00  0.00     0.048 H 
ATOM     34  H   UNL     1     -48.845  44.832  30.812  1.00  0.00     0.048 H 
ATOM     35  H   UNL     1     -50.585  44.984  30.393  1.00  0.00     0.048 H 
ENDBRANCH  26  32
ENDBRANCH  15  25
BRANCH  20  36
ATOM     36  N   UNL     1     -52.007  39.670  28.643  1.00  0.00    -0.383 N 
ATOM     37  H   UNL     1     -52.260  39.522  29.615  1.00  0.00     0.158 HD
ATOM     38  H   UNL     1     -51.734  40.625  28.436  1.00  0.00     0.158 HD
ENDBRANCH  20  36
ENDBRANCH   5  14
BRANCH   9  39
ATOM     39  O   UNL     1     -45.965  33.964  28.800  1.00  0.00    -0.387 OA
ATOM     40  H   UNL     1     -45.115  33.884  28.326  1.00  0.00     0.211 HD
ENDBRANCH   9  39
ENDBRANCH   1   4
BRANCH   1  41
ATOM     41  O   UNL     1     -46.057  33.421  25.332  1.00  0.00    -0.491 OA
BRANCH  41  42
ATOM     42  C   UNL     1     -46.613  32.324  24.737  1.00  0.00     0.121 A 
ATOM     43  C   UNL     1     -46.006  31.957  23.535  1.00  0.00    -0.019 A 
ATOM     44  C   UNL     1     -47.677  31.560  25.223  1.00  0.00     0.007 A 
ATOM     45  C   UNL     1     -46.441  30.828  22.847  1.00  0.00    -0.048 A 
ATOM     46  H   UNL     1     -45.178  32.542  23.144  1.00  0.00     0.066 H 
ATOM     47  C   UNL     1     -48.120  30.417  24.564  1.00  0.00     0.079 A 
ATOM     48  H   UNL     1     -48.178  31.805  26.153  1.00  0.00     0.069 H 
ATOM     49  C   UNL     1     -47.491  30.057  23.374  1.00  0.00     0.019 A 
ATOM     50  H   UNL     1     -45.946  30.538  21.925  1.00  0.00     0.063 H 
ATOM     51  N   UNL     1     -49.112  29.690  25.092  1.00  0.00    -0.213 NA
ATOM     52  C   UNL     1     -47.967  28.897  22.788  1.00  0.00     0.040 A 
ATOM     53  C   UNL     1     -49.474  28.561  24.463  1.00  0.00     0.223 A 
ATOM     54  N   UNL     1     -48.949  28.136  23.308  1.00  0.00    -0.221 NA
ATOM     55  H   UNL     1     -47.548  28.522  21.860  1.00  0.00     0.085 H 
BRANCH  53  56
ATOM     56  N   UNL     1     -50.392  27.698  25.069  1.00  0.00    -0.351 N 
ATOM     57  H   UNL     1     -50.884  27.254  24.300  1.00  0.00     0.163 HD
BRANCH  56  58
ATOM     58  C   UNL     1     -50.015  26.841  26.147  1.00  0.00     0.032 C 
ATOM     59  C   UNL     1     -49.636  25.407  25.690  1.00  0.00    -0.017 C 
ATOM     60  C   UNL     1     -48.536  27.002  26.577  1.00  0.00    -0.017 C 
ATOM     61  H   UNL     1     -50.731  26.868  26.977  1.00  0.00     0.053 H 
ATOM     62  C   UNL     1     -48.504  25.469  26.739  1.00  0.00     0.008 C 
ATOM     63  H   UNL     1     -50.399  24.644  25.873  1.00  0.00     0.030 H 
ATOM     64  H   UNL     1     -49.310  25.329  24.644  1.00  0.00     0.030 H 
ATOM     65  H   UNL     1     -47.884  27.411  25.795  1.00  0.00     0.030 H 
ATOM     66  H   UNL     1     -48.381  27.569  27.499  1.00  0.00     0.030 H 
ATOM     67  H   UNL     1     -48.757  25.102  27.738  1.00  0.00     0.046 H 
BRANCH  62  68
ATOM     68  N   UNL     1     -47.265  24.961  26.163  1.00  0.00    -0.328 NA
ATOM     69  H   UNL     1     -46.837  24.229  26.741  1.00  0.00     0.119 HD
ATOM     70  H   UNL     1     -47.386  24.545  25.240  1.00  0.00     0.119 HD
ENDBRANCH  62  68
ENDBRANCH  56  58
ENDBRANCH  53  56
ENDBRANCH  41  42
ENDBRANCH   1  41
TORSDOF 11
ENDMDL
