MODEL 1
REMARK VINA RESULT:     -10.8      0.000      0.000
REMARK SMILES CC(=O)N(Cc1cc2ccc(CNC(=O)c3cc(=O)n4ccccc4n3)cc2[nH]1)CC1CCC1
REMARK SMILES IDX 6 1 7 2 8 3 9 4 10 5 11 6 27 7 28 8 29 9 5 15 4 18 2 19 3 20
REMARK SMILES IDX 1 21 30 25 31 28 32 29 34 30 33 32 12 39 13 42 14 43 15 45
REMARK SMILES IDX 16 46 17 47 26 48 18 49 25 51 19 52 20 53 24 54 21 55 23 56
REMARK SMILES IDX 22 58
REMARK H PARENT 7 10 9 11 10 12 27 13 29 14 5 16 5 17 1 22 1 23 1 24 30 26
REMARK H PARENT 30 27 31 31 32 33 32 34 34 35 34 36 33 37 33 38 12 40 12 41
REMARK H PARENT 13 44 17 50 24 57 21 59 23 60 22 61
REMARK Flexibility Score: inf
ROOT
ATOM      1  C   UNL     1     -48.341  30.141  24.225  1.00  0.00     0.036 A 
ATOM      2  C   UNL     1     -47.154  30.824  24.042  1.00  0.00    -0.032 A 
ATOM      3  C   UNL     1     -47.235  32.054  24.750  1.00  0.00    -0.000 A 
ATOM      4  C   UNL     1     -46.359  33.142  24.928  1.00  0.00    -0.052 A 
ATOM      5  C   UNL     1     -46.766  34.230  25.712  1.00  0.00    -0.057 A 
ATOM      6  C   UNL     1     -48.026  34.250  26.324  1.00  0.00    -0.027 A 
ATOM      7  C   UNL     1     -48.910  33.172  26.145  1.00  0.00    -0.033 A 
ATOM      8  C   UNL     1     -48.485  32.095  25.357  1.00  0.00     0.046 A 
ATOM      9  N   UNL     1     -49.136  30.931  25.024  1.00  0.00    -0.357 N 
ATOM     10  H   UNL     1     -46.310  30.477  23.460  1.00  0.00     0.065 H 
ATOM     11  H   UNL     1     -45.378  33.140  24.463  1.00  0.00     0.063 H 
ATOM     12  H   UNL     1     -46.084  35.067  25.838  1.00  0.00     0.063 H 
ATOM     13  H   UNL     1     -49.898  33.180  26.601  1.00  0.00     0.065 H 
ATOM     14  H   UNL     1     -50.070  30.687  25.327  1.00  0.00     0.166 HD
ENDROOT
BRANCH   1  15
ATOM     15  C   UNL     1     -48.767  28.810  23.697  1.00  0.00     0.061 C 
ATOM     16  H   UNL     1     -47.886  28.221  23.422  1.00  0.00     0.056 H 
ATOM     17  H   UNL     1     -49.352  28.952  22.784  1.00  0.00     0.056 H 
BRANCH  15  18
ATOM     18  N   UNL     1     -49.550  28.073  24.689  1.00  0.00    -0.337 N 
BRANCH  18  19
ATOM     19  C   UNL     1     -50.920  27.859  24.586  1.00  0.00     0.219 C 
ATOM     20  O   UNL     1     -51.538  27.138  25.370  1.00  0.00    -0.275 OA
BRANCH  19  21
ATOM     21  C   UNL     1     -51.655  28.549  23.464  1.00  0.00     0.015 C 
ATOM     22  H   UNL     1     -51.114  28.417  22.523  1.00  0.00     0.033 H 
ATOM     23  H   UNL     1     -52.647  28.098  23.351  1.00  0.00     0.033 H 
ATOM     24  H   UNL     1     -51.794  29.610  23.683  1.00  0.00     0.033 H 
ENDBRANCH  19  21
ENDBRANCH  18  19
BRANCH  18  25
ATOM     25  C   UNL     1     -48.843  27.573  25.871  1.00  0.00     0.024 C 
ATOM     26  H   UNL     1     -48.111  28.326  26.187  1.00  0.00     0.050 H 
ATOM     27  H   UNL     1     -49.543  27.430  26.701  1.00  0.00     0.050 H 
BRANCH  25  28
ATOM     28  C   UNL     1     -48.145  26.265  25.499  1.00  0.00    -0.024 C 
ATOM     29  C   UNL     1     -46.596  26.367  25.452  1.00  0.00    -0.049 C 
ATOM     30  C   UNL     1     -47.949  25.181  26.597  1.00  0.00    -0.049 C 
ATOM     31  H   UNL     1     -48.548  25.851  24.567  1.00  0.00     0.032 H 
ATOM     32  C   UNL     1     -46.567  25.796  26.883  1.00  0.00    -0.053 C 
ATOM     33  H   UNL     1     -46.174  27.370  25.336  1.00  0.00     0.027 H 
ATOM     34  H   UNL     1     -46.137  25.706  24.709  1.00  0.00     0.027 H 
ATOM     35  H   UNL     1     -48.647  25.183  27.436  1.00  0.00     0.027 H 
ATOM     36  H   UNL     1     -47.897  24.162  26.194  1.00  0.00     0.027 H 
ATOM     37  H   UNL     1     -46.578  26.563  27.666  1.00  0.00     0.027 H 
ATOM     38  H   UNL     1     -45.765  25.085  27.094  1.00  0.00     0.027 H 
ENDBRANCH  25  28
ENDBRANCH  18  25
ENDBRANCH  15  18
ENDBRANCH   1  15
BRANCH   6  39
ATOM     39  C   UNL     1     -48.458  35.438  27.148  1.00  0.00     0.043 C 
ATOM     40  H   UNL     1     -49.318  35.930  26.680  1.00  0.00     0.054 H 
ATOM     41  H   UNL     1     -48.771  35.118  28.148  1.00  0.00     0.054 H 
BRANCH  39  42
ATOM     42  N   UNL     1     -47.369  36.367  27.316  1.00  0.00    -0.347 N 
ATOM     43  C   UNL     1     -46.767  36.593  28.529  1.00  0.00     0.270 C 
ATOM     44  H   UNL     1     -47.179  37.049  26.588  1.00  0.00     0.164 HD
ATOM     45  O   UNL     1     -46.987  35.947  29.545  1.00  0.00    -0.268 OA
BRANCH  43  46
ATOM     46  C   UNL     1     -45.799  37.752  28.480  1.00  0.00     0.136 A 
ATOM     47  C   UNL     1     -44.995  37.899  29.535  1.00  0.00     0.035 A 
ATOM     48  N   UNL     1     -45.806  38.576  27.376  1.00  0.00    -0.225 NA
ATOM     49  C   UNL     1     -44.041  39.014  29.533  1.00  0.00     0.258 A 
ATOM     50  H   UNL     1     -45.000  37.245  30.397  1.00  0.00     0.071 H 
ATOM     51  C   UNL     1     -44.964  39.563  27.381  1.00  0.00     0.140 A 
ATOM     52  O   UNL     1     -43.292  39.153  30.498  1.00  0.00    -0.269 OA
ATOM     53  N   UNL     1     -44.070  39.831  28.413  1.00  0.00    -0.268 N 
ATOM     54  C   UNL     1     -44.938  40.485  26.209  1.00  0.00    -0.019 A 
ATOM     55  C   UNL     1     -43.197  40.912  28.339  1.00  0.00     0.014 A 
ATOM     56  C   UNL     1     -44.079  41.511  26.185  1.00  0.00    -0.057 A 
ATOM     57  H   UNL     1     -45.631  40.286  25.401  1.00  0.00     0.066 H 
ATOM     58  C   UNL     1     -43.179  41.734  27.283  1.00  0.00    -0.045 A 
ATOM     59  H   UNL     1     -42.525  41.061  29.181  1.00  0.00     0.082 H 
ATOM     60  H   UNL     1     -44.046  42.193  25.341  1.00  0.00     0.062 H 
ATOM     61  H   UNL     1     -42.493  42.574  27.238  1.00  0.00     0.064 H 
ENDBRANCH  43  46
ENDBRANCH  39  42
ENDBRANCH   6  39
TORSDOF 9
ENDMDL
MODEL 2
REMARK VINA RESULT:     -10.1      1.526      2.003
REMARK SMILES CC(=O)N(Cc1cc2ccc(CNC(=O)c3cc(=O)n4ccccc4n3)cc2[nH]1)CC1CCC1
REMARK SMILES IDX 6 1 7 2 8 3 9 4 10 5 11 6 27 7 28 8 29 9 5 15 4 18 2 19 3 20
REMARK SMILES IDX 1 21 30 25 31 28 32 29 34 30 33 32 12 39 13 42 14 43 15 45
REMARK SMILES IDX 16 46 17 47 26 48 18 49 25 51 19 52 20 53 24 54 21 55 23 56
REMARK SMILES IDX 22 58
REMARK H PARENT 7 10 9 11 10 12 27 13 29 14 5 16 5 17 1 22 1 23 1 24 30 26
REMARK H PARENT 30 27 31 31 32 33 32 34 34 35 34 36 33 37 33 38 12 40 12 41
REMARK H PARENT 13 44 17 50 24 57 21 59 23 60 22 61
REMARK Flexibility Score: inf
ROOT
ATOM      1  C   UNL     1     -48.820  31.690  24.819  1.00  0.00     0.036 A 
ATOM      2  C   UNL     1     -47.503  32.095  24.713  1.00  0.00    -0.032 A 
ATOM      3  C   UNL     1     -47.330  33.262  25.506  1.00  0.00    -0.000 A 
ATOM      4  C   UNL     1     -46.239  34.107  25.783  1.00  0.00    -0.052 A 
ATOM      5  C   UNL     1     -46.419  35.205  26.634  1.00  0.00    -0.057 A 
ATOM      6  C   UNL     1     -47.664  35.470  27.219  1.00  0.00    -0.027 A 
ATOM      7  C   UNL     1     -48.761  34.637  26.943  1.00  0.00    -0.033 A 
ATOM      8  C   UNL     1     -48.562  33.546  26.088  1.00  0.00     0.046 A 
ATOM      9  N   UNL     1     -49.445  32.585  25.658  1.00  0.00    -0.357 N 
ATOM     10  H   UNL     1     -46.739  31.604  24.124  1.00  0.00     0.065 H 
ATOM     11  H   UNL     1     -45.267  33.912  25.339  1.00  0.00     0.063 H 
ATOM     12  H   UNL     1     -45.570  35.854  26.836  1.00  0.00     0.063 H 
ATOM     13  H   UNL     1     -49.738  34.839  27.377  1.00  0.00     0.065 H 
ATOM     14  H   UNL     1     -50.421  32.541  25.921  1.00  0.00     0.166 HD
ENDROOT
BRANCH   1  15
ATOM     15  C   UNL     1     -49.515  30.529  24.187  1.00  0.00     0.061 C 
ATOM     16  H   UNL     1     -49.825  30.792  23.171  1.00  0.00     0.056 H 
ATOM     17  H   UNL     1     -50.425  30.301  24.749  1.00  0.00     0.056 H 
BRANCH  15  18
ATOM     18  N   UNL     1     -48.645  29.354  24.138  1.00  0.00    -0.337 N 
BRANCH  18  19
ATOM     19  C   UNL     1     -47.912  28.983  23.016  1.00  0.00     0.219 C 
ATOM     20  O   UNL     1     -48.443  28.570  21.985  1.00  0.00    -0.275 OA
BRANCH  19  21
ATOM     21  C   UNL     1     -46.410  29.103  23.089  1.00  0.00     0.015 C 
ATOM     22  H   UNL     1     -46.040  28.643  24.010  1.00  0.00     0.033 H 
ATOM     23  H   UNL     1     -45.964  28.571  22.242  1.00  0.00     0.033 H 
ATOM     24  H   UNL     1     -46.098  30.148  23.028  1.00  0.00     0.033 H 
ENDBRANCH  19  21
ENDBRANCH  18  19
BRANCH  18  25
ATOM     25  C   UNL     1     -48.583  28.509  25.334  1.00  0.00     0.024 C 
ATOM     26  H   UNL     1     -47.682  28.770  25.902  1.00  0.00     0.050 H 
ATOM     27  H   UNL     1     -49.445  28.702  25.982  1.00  0.00     0.050 H 
BRANCH  25  28
ATOM     28  C   UNL     1     -48.536  27.047  24.891  1.00  0.00    -0.024 C 
ATOM     29  C   UNL     1     -47.437  26.208  25.600  1.00  0.00    -0.049 C 
ATOM     30  C   UNL     1     -49.561  26.047  25.495  1.00  0.00    -0.049 C 
ATOM     31  H   UNL     1     -48.462  26.965  23.799  1.00  0.00     0.032 H 
ATOM     32  C   UNL     1     -48.520  25.715  26.579  1.00  0.00    -0.053 C 
ATOM     33  H   UNL     1     -46.611  26.763  26.051  1.00  0.00     0.027 H 
ATOM     34  H   UNL     1     -47.023  25.412  24.971  1.00  0.00     0.027 H 
ATOM     35  H   UNL     1     -50.506  26.454  25.860  1.00  0.00     0.027 H 
ATOM     36  H   UNL     1     -49.783  25.201  24.832  1.00  0.00     0.027 H 
ATOM     37  H   UNL     1     -48.611  26.328  27.483  1.00  0.00     0.027 H 
ATOM     38  H   UNL     1     -48.454  24.664  26.870  1.00  0.00     0.027 H 
ENDBRANCH  25  28
ENDBRANCH  18  25
ENDBRANCH  15  18
ENDBRANCH   1  15
BRANCH   6  39
ATOM     39  C   UNL     1     -47.846  36.669  28.118  1.00  0.00     0.043 C 
ATOM     40  H   UNL     1     -48.773  37.194  27.864  1.00  0.00     0.054 H 
ATOM     41  H   UNL     1     -47.927  36.354  29.165  1.00  0.00     0.054 H 
BRANCH  39  42
ATOM     42  N   UNL     1     -46.715  37.556  28.024  1.00  0.00    -0.347 N 
ATOM     43  C   UNL     1     -45.838  37.754  29.062  1.00  0.00     0.270 C 
ATOM     44  H   UNL     1     -46.676  38.234  27.270  1.00  0.00     0.164 HD
ATOM     45  O   UNL     1     -45.839  37.111  30.104  1.00  0.00    -0.268 OA
BRANCH  43  46
ATOM     46  C   UNL     1     -44.867  38.877  28.784  1.00  0.00     0.136 A 
ATOM     47  C   UNL     1     -43.933  39.097  29.712  1.00  0.00     0.035 A 
ATOM     48  N   UNL     1     -45.002  39.598  27.618  1.00  0.00    -0.225 NA
ATOM     49  C   UNL     1     -42.970  40.181  29.486  1.00  0.00     0.258 A 
ATOM     50  H   UNL     1     -43.838  38.524  30.625  1.00  0.00     0.071 H 
ATOM     51  C   UNL     1     -44.151  40.558  27.425  1.00  0.00     0.140 A 
ATOM     52  O   UNL     1     -42.102  40.387  30.332  1.00  0.00    -0.269 OA
ATOM     53  N   UNL     1     -43.129  40.894  28.307  1.00  0.00    -0.268 N 
ATOM     54  C   UNL     1     -44.259  41.368  26.178  1.00  0.00    -0.019 A 
ATOM     55  C   UNL     1     -42.256  41.939  28.024  1.00  0.00     0.014 A 
ATOM     56  C   UNL     1     -43.395  42.365  25.951  1.00  0.00    -0.057 A 
ATOM     57  H   UNL     1     -45.053  41.116  25.486  1.00  0.00     0.066 H 
ATOM     58  C   UNL     1     -42.359  42.662  26.902  1.00  0.00    -0.045 A 
ATOM     59  H   UNL     1     -41.480  42.146  28.758  1.00  0.00     0.082 H 
ATOM     60  H   UNL     1     -43.460  42.966  25.049  1.00  0.00     0.062 H 
ATOM     61  H   UNL     1     -41.672  43.475  26.693  1.00  0.00     0.064 H 
ENDBRANCH  43  46
ENDBRANCH  39  42
ENDBRANCH   6  39
TORSDOF 9
ENDMDL
MODEL 3
REMARK VINA RESULT:      -9.8      2.275      3.127
REMARK SMILES CC(=O)N(Cc1cc2ccc(CNC(=O)c3cc(=O)n4ccccc4n3)cc2[nH]1)CC1CCC1
REMARK SMILES IDX 6 1 7 2 8 3 9 4 10 5 11 6 27 7 28 8 29 9 5 15 4 18 2 19 3 20
REMARK SMILES IDX 1 21 30 25 31 28 32 29 34 30 33 32 12 39 13 42 14 43 15 45
REMARK SMILES IDX 16 46 17 47 26 48 18 49 25 51 19 52 20 53 24 54 21 55 23 56
REMARK SMILES IDX 22 58
REMARK H PARENT 7 10 9 11 10 12 27 13 29 14 5 16 5 17 1 22 1 23 1 24 30 26
REMARK H PARENT 30 27 31 31 32 33 32 34 34 35 34 36 33 37 33 38 12 40 12 41
REMARK H PARENT 13 44 17 50 24 57 21 59 23 60 22 61
REMARK Flexibility Score: inf
ROOT
ATOM      1  C   UNL     1     -48.212  31.848  25.791  1.00  0.00     0.036 A 
ATOM      2  C   UNL     1     -46.925  32.351  25.840  1.00  0.00    -0.032 A 
ATOM      3  C   UNL     1     -46.992  33.702  26.277  1.00  0.00    -0.000 A 
ATOM      4  C   UNL     1     -46.033  34.706  26.510  1.00  0.00    -0.052 A 
ATOM      5  C   UNL     1     -46.452  35.968  26.951  1.00  0.00    -0.057 A 
ATOM      6  C   UNL     1     -47.808  36.245  27.169  1.00  0.00    -0.027 A 
ATOM      7  C   UNL     1     -48.774  35.251  26.931  1.00  0.00    -0.033 A 
ATOM      8  C   UNL     1     -48.335  33.997  26.490  1.00  0.00     0.046 A 
ATOM      9  N   UNL     1     -49.052  32.864  26.188  1.00  0.00    -0.357 N 
ATOM     10  H   UNL     1     -46.026  31.806  25.587  1.00  0.00     0.065 H 
ATOM     11  H   UNL     1     -44.977  34.506  26.350  1.00  0.00     0.063 H 
ATOM     12  H   UNL     1     -45.703  36.737  27.122  1.00  0.00     0.063 H 
ATOM     13  H   UNL     1     -49.832  35.456  27.081  1.00  0.00     0.065 H 
ATOM     14  H   UNL     1     -50.058  32.786  26.250  1.00  0.00     0.166 HD
ENDROOT
BRANCH   1  15
ATOM     15  C   UNL     1     -48.690  30.489  25.397  1.00  0.00     0.061 C 
ATOM     16  H   UNL     1     -49.780  30.441  25.483  1.00  0.00     0.056 H 
ATOM     17  H   UNL     1     -48.282  29.747  26.089  1.00  0.00     0.056 H 
BRANCH  15  18
ATOM     18  N   UNL     1     -48.299  30.168  24.024  1.00  0.00    -0.337 N 
BRANCH  18  19
ATOM     19  C   UNL     1     -49.040  30.532  22.906  1.00  0.00     0.219 C 
ATOM     20  O   UNL     1     -48.527  31.040  21.908  1.00  0.00    -0.275 OA
BRANCH  19  21
ATOM     21  C   UNL     1     -50.527  30.281  22.938  1.00  0.00     0.015 C 
ATOM     22  H   UNL     1     -51.009  30.768  22.086  1.00  0.00     0.033 H 
ATOM     23  H   UNL     1     -50.713  29.205  22.864  1.00  0.00     0.033 H 
ATOM     24  H   UNL     1     -50.961  30.630  23.878  1.00  0.00     0.033 H 
ENDBRANCH  19  21
ENDBRANCH  18  19
BRANCH  18  25
ATOM     25  C   UNL     1     -47.073  29.386  23.837  1.00  0.00     0.024 C 
ATOM     26  H   UNL     1     -46.537  29.776  22.964  1.00  0.00     0.050 H 
ATOM     27  H   UNL     1     -46.413  29.499  24.703  1.00  0.00     0.050 H 
BRANCH  25  28
ATOM     28  C   UNL     1     -47.463  27.923  23.621  1.00  0.00    -0.024 C 
ATOM     29  C   UNL     1     -46.426  26.906  24.171  1.00  0.00    -0.049 C 
ATOM     30  C   UNL     1     -48.485  27.269  24.593  1.00  0.00    -0.049 C 
ATOM     31  H   UNL     1     -47.700  27.726  22.568  1.00  0.00     0.032 H 
ATOM     32  C   UNL     1     -47.292  26.789  25.440  1.00  0.00    -0.053 C 
ATOM     33  H   UNL     1     -45.409  27.277  24.327  1.00  0.00     0.027 H 
ATOM     34  H   UNL     1     -46.375  25.978  23.591  1.00  0.00     0.027 H 
ATOM     35  H   UNL     1     -49.188  27.930  25.103  1.00  0.00     0.027 H 
ATOM     36  H   UNL     1     -49.052  26.448  24.137  1.00  0.00     0.027 H 
ATOM     37  H   UNL     1     -47.006  27.486  26.237  1.00  0.00     0.027 H 
ATOM     38  H   UNL     1     -47.382  25.785  25.863  1.00  0.00     0.027 H 
ENDBRANCH  25  28
ENDBRANCH  18  25
ENDBRANCH  15  18
ENDBRANCH   1  15
BRANCH   6  39
ATOM     39  C   UNL     1     -48.245  37.615  27.624  1.00  0.00     0.043 C 
ATOM     40  H   UNL     1     -48.980  38.029  26.924  1.00  0.00     0.054 H 
ATOM     41  H   UNL     1     -48.729  37.557  28.606  1.00  0.00     0.054 H 
BRANCH  39  42
ATOM     42  N   UNL     1     -47.113  38.497  27.755  1.00  0.00    -0.347 N 
ATOM     43  C   UNL     1     -46.934  39.599  26.955  1.00  0.00     0.270 C 
ATOM     44  H   UNL     1     -46.303  38.192  28.283  1.00  0.00     0.164 HD
ATOM     45  O   UNL     1     -47.763  40.022  26.159  1.00  0.00    -0.268 OA
BRANCH  43  46
ATOM     46  C   UNL     1     -45.579  40.235  27.154  1.00  0.00     0.136 A 
ATOM     47  C   UNL     1     -45.169  41.069  26.196  1.00  0.00     0.035 A 
ATOM     48  N   UNL     1     -44.857  39.921  28.284  1.00  0.00    -0.225 NA
ATOM     49  C   UNL     1     -43.856  41.708  26.345  1.00  0.00     0.258 A 
ATOM     50  H   UNL     1     -45.744  41.308  25.311  1.00  0.00     0.071 H 
ATOM     51  C   UNL     1     -43.696  40.484  28.410  1.00  0.00     0.140 A 
ATOM     52  O   UNL     1     -43.472  42.483  25.471  1.00  0.00    -0.269 OA
ATOM     53  N   UNL     1     -43.147  41.373  27.489  1.00  0.00    -0.268 N 
ATOM     54  C   UNL     1     -42.876  40.172  29.615  1.00  0.00    -0.019 A 
ATOM     55  C   UNL     1     -41.893  41.935  27.699  1.00  0.00     0.014 A 
ATOM     56  C   UNL     1     -41.674  40.739  29.773  1.00  0.00    -0.057 A 
ATOM     57  H   UNL     1     -43.293  39.481  30.337  1.00  0.00     0.066 H 
ATOM     58  C   UNL     1     -41.164  41.650  28.785  1.00  0.00    -0.045 A 
ATOM     59  H   UNL     1     -41.527  42.622  26.939  1.00  0.00     0.082 H 
ATOM     60  H   UNL     1     -41.064  40.522  30.644  1.00  0.00     0.062 H 
ATOM     61  H   UNL     1     -40.186  42.096  28.937  1.00  0.00     0.064 H 
ENDBRANCH  43  46
ENDBRANCH  39  42
ENDBRANCH   6  39
TORSDOF 9
ENDMDL
MODEL 4
REMARK VINA RESULT:      -9.7      1.944      3.304
REMARK SMILES CC(=O)N(Cc1cc2ccc(CNC(=O)c3cc(=O)n4ccccc4n3)cc2[nH]1)CC1CCC1
REMARK SMILES IDX 6 1 7 2 8 3 9 4 10 5 11 6 27 7 28 8 29 9 5 15 4 18 2 19 3 20
REMARK SMILES IDX 1 21 30 25 31 28 32 29 34 30 33 32 12 39 13 42 14 43 15 45
REMARK SMILES IDX 16 46 17 47 26 48 18 49 25 51 19 52 20 53 24 54 21 55 23 56
REMARK SMILES IDX 22 58
REMARK H PARENT 7 10 9 11 10 12 27 13 29 14 5 16 5 17 1 22 1 23 1 24 30 26
REMARK H PARENT 30 27 31 31 32 33 32 34 34 35 34 36 33 37 33 38 12 40 12 41
REMARK H PARENT 13 44 17 50 24 57 21 59 23 60 22 61
REMARK Flexibility Score: inf
ROOT
ATOM      1  C   UNL     1     -48.379  30.818  24.832  1.00  0.00     0.036 A 
ATOM      2  C   UNL     1     -47.182  31.448  24.547  1.00  0.00    -0.032 A 
ATOM      3  C   UNL     1     -47.194  32.727  25.166  1.00  0.00    -0.000 A 
ATOM      4  C   UNL     1     -46.280  33.796  25.226  1.00  0.00    -0.052 A 
ATOM      5  C   UNL     1     -46.618  34.950  25.945  1.00  0.00    -0.057 A 
ATOM      6  C   UNL     1     -47.846  35.054  26.610  1.00  0.00    -0.027 A 
ATOM      7  C   UNL     1     -48.769  33.995  26.550  1.00  0.00    -0.033 A 
ATOM      8  C   UNL     1     -48.413  32.851  25.824  1.00  0.00     0.046 A 
ATOM      9  N   UNL     1     -49.112  31.688  25.606  1.00  0.00    -0.357 N 
ATOM     10  H   UNL     1     -46.377  31.033  23.954  1.00  0.00     0.065 H 
ATOM     11  H   UNL     1     -45.321  33.729  24.718  1.00  0.00     0.063 H 
ATOM     12  H   UNL     1     -45.906  35.771  25.979  1.00  0.00     0.063 H 
ATOM     13  H   UNL     1     -49.733  34.068  27.047  1.00  0.00     0.065 H 
ATOM     14  H   UNL     1     -50.037  31.497  25.967  1.00  0.00     0.166 HD
ENDROOT
BRANCH   1  15
ATOM     15  C   UNL     1     -48.867  29.467  24.422  1.00  0.00     0.061 C 
ATOM     16  H   UNL     1     -49.928  29.522  24.157  1.00  0.00     0.056 H 
ATOM     17  H   UNL     1     -48.785  28.780  25.268  1.00  0.00     0.056 H 
BRANCH  15  18
ATOM     18  N   UNL     1     -48.110  28.955  23.280  1.00  0.00    -0.337 N 
BRANCH  18  19
ATOM     19  C   UNL     1     -46.817  28.453  23.374  1.00  0.00     0.219 C 
ATOM     20  O   UNL     1     -45.870  28.940  22.756  1.00  0.00    -0.275 OA
BRANCH  19  21
ATOM     21  C   UNL     1     -46.590  27.267  24.279  1.00  0.00     0.015 C 
ATOM     22  H   UNL     1     -45.605  26.832  24.090  1.00  0.00     0.033 H 
ATOM     23  H   UNL     1     -46.620  27.599  25.322  1.00  0.00     0.033 H 
ATOM     24  H   UNL     1     -47.375  26.518  24.146  1.00  0.00     0.033 H 
ENDBRANCH  19  21
ENDBRANCH  18  19
BRANCH  18  25
ATOM     25  C   UNL     1     -48.749  29.018  21.962  1.00  0.00     0.024 C 
ATOM     26  H   UNL     1     -48.199  28.366  21.273  1.00  0.00     0.050 H 
ATOM     27  H   UNL     1     -49.776  28.642  22.018  1.00  0.00     0.050 H 
BRANCH  25  28
ATOM     28  C   UNL     1     -48.713  30.468  21.477  1.00  0.00    -0.024 C 
ATOM     29  C   UNL     1     -48.792  30.619  19.933  1.00  0.00    -0.049 C 
ATOM     30  C   UNL     1     -50.019  31.310  21.535  1.00  0.00    -0.049 C 
ATOM     31  H   UNL     1     -47.849  31.004  21.889  1.00  0.00     0.032 H 
ATOM     32  C   UNL     1     -50.304  30.870  20.087  1.00  0.00    -0.053 C 
ATOM     33  H   UNL     1     -48.517  29.742  19.340  1.00  0.00     0.027 H 
ATOM     34  H   UNL     1     -48.242  31.487  19.551  1.00  0.00     0.027 H 
ATOM     35  H   UNL     1     -50.771  31.021  22.271  1.00  0.00     0.027 H 
ATOM     36  H   UNL     1     -49.835  32.387  21.633  1.00  0.00     0.027 H 
ATOM     37  H   UNL     1     -50.913  29.962  20.013  1.00  0.00     0.027 H 
ATOM     38  H   UNL     1     -50.728  31.635  19.432  1.00  0.00     0.027 H 
ENDBRANCH  25  28
ENDBRANCH  18  25
ENDBRANCH  15  18
ENDBRANCH   1  15
BRANCH   6  39
ATOM     39  C   UNL     1     -48.204  36.311  27.363  1.00  0.00     0.043 C 
ATOM     40  H   UNL     1     -49.056  36.808  26.887  1.00  0.00     0.054 H 
ATOM     41  H   UNL     1     -48.500  36.072  28.391  1.00  0.00     0.054 H 
BRANCH  39  42
ATOM     42  N   UNL     1     -47.073  37.202  27.440  1.00  0.00    -0.347 N 
ATOM     43  C   UNL     1     -46.344  37.379  28.589  1.00  0.00     0.270 C 
ATOM     44  H   UNL     1     -46.936  37.895  26.712  1.00  0.00     0.164 HD
ATOM     45  O   UNL     1     -46.482  36.714  29.609  1.00  0.00    -0.268 OA
BRANCH  43  46
ATOM     46  C   UNL     1     -45.348  38.507  28.468  1.00  0.00     0.136 A 
ATOM     47  C   UNL     1     -44.488  38.653  29.478  1.00  0.00     0.035 A 
ATOM     48  N   UNL     1     -45.387  39.309  27.347  1.00  0.00    -0.225 NA
ATOM     49  C   UNL     1     -43.505  39.739  29.404  1.00  0.00     0.258 A 
ATOM     50  H   UNL     1     -44.468  38.017  30.354  1.00  0.00     0.071 H 
ATOM     51  C   UNL     1     -44.519  40.271  27.289  1.00  0.00     0.140 A 
ATOM     52  O   UNL     1     -42.705  39.877  30.328  1.00  0.00    -0.269 OA
ATOM     53  N   UNL     1     -43.567  40.534  28.269  1.00  0.00    -0.268 N 
ATOM     54  C   UNL     1     -44.525  41.167  26.097  1.00  0.00    -0.019 A 
ATOM     55  C   UNL     1     -42.669  41.587  28.129  1.00  0.00     0.014 A 
ATOM     56  C   UNL     1     -43.641  42.167  26.008  1.00  0.00    -0.057 A 
ATOM     57  H   UNL     1     -45.263  40.971  25.329  1.00  0.00     0.066 H 
ATOM     58  C   UNL     1     -42.681  42.387  27.055  1.00  0.00    -0.045 A 
ATOM     59  H   UNL     1     -41.953  41.734  28.934  1.00  0.00     0.082 H 
ATOM     60  H   UNL     1     -43.631  42.830  25.148  1.00  0.00     0.062 H 
ATOM     61  H   UNL     1     -41.975  43.206  26.958  1.00  0.00     0.064 H 
ENDBRANCH  43  46
ENDBRANCH  39  42
ENDBRANCH   6  39
TORSDOF 9
ENDMDL
MODEL 5
REMARK VINA RESULT:      -9.4      2.432      3.866
REMARK SMILES CC(=O)N(Cc1cc2ccc(CNC(=O)c3cc(=O)n4ccccc4n3)cc2[nH]1)CC1CCC1
REMARK SMILES IDX 6 1 7 2 8 3 9 4 10 5 11 6 27 7 28 8 29 9 5 15 4 18 2 19 3 20
REMARK SMILES IDX 1 21 30 25 31 28 32 29 34 30 33 32 12 39 13 42 14 43 15 45
REMARK SMILES IDX 16 46 17 47 26 48 18 49 25 51 19 52 20 53 24 54 21 55 23 56
REMARK SMILES IDX 22 58
REMARK H PARENT 7 10 9 11 10 12 27 13 29 14 5 16 5 17 1 22 1 23 1 24 30 26
REMARK H PARENT 30 27 31 31 32 33 32 34 34 35 34 36 33 37 33 38 12 40 12 41
REMARK H PARENT 13 44 17 50 24 57 21 59 23 60 22 61
REMARK Flexibility Score: inf
ROOT
ATOM      1  C   UNL     1     -48.455  31.644  24.869  1.00  0.00     0.036 A 
ATOM      2  C   UNL     1     -47.154  32.112  24.893  1.00  0.00    -0.032 A 
ATOM      3  C   UNL     1     -47.134  33.335  25.617  1.00  0.00    -0.000 A 
ATOM      4  C   UNL     1     -46.125  34.254  25.963  1.00  0.00    -0.052 A 
ATOM      5  C   UNL     1     -46.458  35.393  26.707  1.00  0.00    -0.057 A 
ATOM      6  C   UNL     1     -47.777  35.628  27.118  1.00  0.00    -0.027 A 
ATOM      7  C   UNL     1     -48.792  34.721  26.772  1.00  0.00    -0.033 A 
ATOM      8  C   UNL     1     -48.439  33.589  26.026  1.00  0.00     0.046 A 
ATOM      9  N   UNL     1     -49.219  32.557  25.561  1.00  0.00    -0.357 N 
ATOM     10  H   UNL     1     -46.302  31.626  24.437  1.00  0.00     0.065 H 
ATOM     11  H   UNL     1     -45.097  34.083  25.654  1.00  0.00     0.063 H 
ATOM     12  H   UNL     1     -45.671  36.098  26.963  1.00  0.00     0.063 H 
ATOM     13  H   UNL     1     -49.823  34.898  27.070  1.00  0.00     0.065 H 
ATOM     14  H   UNL     1     -50.216  32.478  25.708  1.00  0.00     0.166 HD
ENDROOT
BRANCH   1  15
ATOM     15  C   UNL     1     -49.013  30.410  24.241  1.00  0.00     0.061 C 
ATOM     16  H   UNL     1     -49.971  30.638  23.763  1.00  0.00     0.056 H 
ATOM     17  H   UNL     1     -49.214  29.666  25.018  1.00  0.00     0.056 H 
BRANCH  15  18
ATOM     18  N   UNL     1     -48.093  29.861  23.244  1.00  0.00    -0.337 N 
BRANCH  18  19
ATOM     19  C   UNL     1     -47.235  28.796  23.490  1.00  0.00     0.219 C 
ATOM     20  O   UNL     1     -46.029  28.846  23.244  1.00  0.00    -0.275 OA
BRANCH  19  21
ATOM     21  C   UNL     1     -47.827  27.541  24.084  1.00  0.00     0.015 C 
ATOM     22  H   UNL     1     -47.038  26.925  24.523  1.00  0.00     0.033 H 
ATOM     23  H   UNL     1     -48.526  27.815  24.881  1.00  0.00     0.033 H 
ATOM     24  H   UNL     1     -48.383  26.978  23.331  1.00  0.00     0.033 H 
ENDBRANCH  19  21
ENDBRANCH  18  19
BRANCH  18  25
ATOM     25  C   UNL     1     -48.060  30.508  21.929  1.00  0.00     0.024 C 
ATOM     26  H   UNL     1     -47.725  31.545  22.056  1.00  0.00     0.050 H 
ATOM     27  H   UNL     1     -47.335  30.009  21.277  1.00  0.00     0.050 H 
BRANCH  25  28
ATOM     28  C   UNL     1     -49.467  30.465  21.333  1.00  0.00    -0.024 C 
ATOM     29  C   UNL     1     -49.526  30.839  19.827  1.00  0.00    -0.049 C 
ATOM     30  C   UNL     1     -50.065  29.090  20.922  1.00  0.00    -0.049 C 
ATOM     31  H   UNL     1     -50.168  31.068  21.925  1.00  0.00     0.032 H 
ATOM     32  C   UNL     1     -49.511  29.332  19.506  1.00  0.00    -0.053 C 
ATOM     33  H   UNL     1     -48.685  31.414  19.431  1.00  0.00     0.027 H 
ATOM     34  H   UNL     1     -50.459  31.337  19.538  1.00  0.00     0.027 H 
ATOM     35  H   UNL     1     -49.682  28.203  21.431  1.00  0.00     0.027 H 
ATOM     36  H   UNL     1     -51.160  29.065  20.962  1.00  0.00     0.027 H 
ATOM     37  H   UNL     1     -48.507  28.923  19.348  1.00  0.00     0.027 H 
ATOM     38  H   UNL     1     -50.156  29.015  18.683  1.00  0.00     0.027 H 
ENDBRANCH  25  28
ENDBRANCH  18  25
ENDBRANCH  15  18
ENDBRANCH   1  15
BRANCH   6  39
ATOM     39  C   UNL     1     -48.123  36.870  27.902  1.00  0.00     0.043 C 
ATOM     40  H   UNL     1     -49.019  37.343  27.485  1.00  0.00     0.054 H 
ATOM     41  H   UNL     1     -48.345  36.616  28.945  1.00  0.00     0.054 H 
BRANCH  39  42
ATOM     42  N   UNL     1     -47.017  37.794  27.913  1.00  0.00    -0.347 N 
ATOM     43  C   UNL     1     -47.169  39.137  27.675  1.00  0.00     0.270 C 
ATOM     44  H   UNL     1     -46.069  37.436  27.864  1.00  0.00     0.164 HD
ATOM     45  O   UNL     1     -48.249  39.706  27.569  1.00  0.00    -0.268 OA
BRANCH  43  46
ATOM     46  C   UNL     1     -45.844  39.849  27.540  1.00  0.00     0.136 A 
ATOM     47  C   UNL     1     -45.651  40.537  26.413  1.00  0.00     0.035 A 
ATOM     48  N   UNL     1     -44.928  39.745  28.565  1.00  0.00    -0.225 NA
ATOM     49  C   UNL     1     -44.375  41.241  26.238  1.00  0.00     0.258 A 
ATOM     50  H   UNL     1     -46.378  40.610  25.615  1.00  0.00     0.071 H 
ATOM     51  C   UNL     1     -43.800  40.365  28.403  1.00  0.00     0.140 A 
ATOM     52  O   UNL     1     -44.191  41.882  25.205  1.00  0.00    -0.269 OA
ATOM     53  N   UNL     1     -43.469  41.118  27.280  1.00  0.00    -0.268 N 
ATOM     54  C   UNL     1     -42.776  40.278  29.483  1.00  0.00    -0.019 A 
ATOM     55  C   UNL     1     -42.236  41.754  27.185  1.00  0.00     0.014 A 
ATOM     56  C   UNL     1     -41.604  40.908  29.345  1.00  0.00    -0.057 A 
ATOM     57  H   UNL     1     -43.024  39.694  30.360  1.00  0.00     0.066 H 
ATOM     58  C   UNL     1     -41.322  41.672  28.160  1.00  0.00    -0.045 A 
ATOM     59  H   UNL     1     -42.045  42.326  26.280  1.00  0.00     0.082 H 
ATOM     60  H   UNL     1     -40.846  40.856  30.121  1.00  0.00     0.062 H 
ATOM     61  H   UNL     1     -40.363  42.173  28.074  1.00  0.00     0.064 H 
ENDBRANCH  43  46
ENDBRANCH  39  42
ENDBRANCH   6  39
TORSDOF 9
ENDMDL
MODEL 6
REMARK VINA RESULT:      -9.2      1.940      2.384
REMARK SMILES CC(=O)N(Cc1cc2ccc(CNC(=O)c3cc(=O)n4ccccc4n3)cc2[nH]1)CC1CCC1
REMARK SMILES IDX 6 1 7 2 8 3 9 4 10 5 11 6 27 7 28 8 29 9 5 15 4 18 2 19 3 20
REMARK SMILES IDX 1 21 30 25 31 28 32 29 34 30 33 32 12 39 13 42 14 43 15 45
REMARK SMILES IDX 16 46 17 47 26 48 18 49 25 51 19 52 20 53 24 54 21 55 23 56
REMARK SMILES IDX 22 58
REMARK H PARENT 7 10 9 11 10 12 27 13 29 14 5 16 5 17 1 22 1 23 1 24 30 26
REMARK H PARENT 30 27 31 31 32 33 32 34 34 35 34 36 33 37 33 38 12 40 12 41
REMARK H PARENT 13 44 17 50 24 57 21 59 23 60 22 61
REMARK Flexibility Score: inf
ROOT
ATOM      1  C   UNL     1     -48.476  30.423  25.092  1.00  0.00     0.036 A 
ATOM      2  C   UNL     1     -47.861  31.326  24.245  1.00  0.00    -0.032 A 
ATOM      3  C   UNL     1     -47.276  32.351  25.037  1.00  0.00    -0.000 A 
ATOM      4  C   UNL     1     -46.539  33.515  24.746  1.00  0.00    -0.052 A 
ATOM      5  C   UNL     1     -46.100  34.331  25.796  1.00  0.00    -0.057 A 
ATOM      6  C   UNL     1     -46.376  34.005  27.130  1.00  0.00    -0.027 A 
ATOM      7  C   UNL     1     -47.117  32.849  27.431  1.00  0.00    -0.033 A 
ATOM      8  C   UNL     1     -47.549  32.047  26.367  1.00  0.00     0.046 A 
ATOM      9  N   UNL     1     -48.276  30.881  26.375  1.00  0.00    -0.357 N 
ATOM     10  H   UNL     1     -47.833  31.258  23.166  1.00  0.00     0.065 H 
ATOM     11  H   UNL     1     -46.314  33.780  23.716  1.00  0.00     0.063 H 
ATOM     12  H   UNL     1     -45.537  35.230  25.558  1.00  0.00     0.063 H 
ATOM     13  H   UNL     1     -47.353  32.590  28.461  1.00  0.00     0.065 H 
ATOM     14  H   UNL     1     -48.616  30.421  27.209  1.00  0.00     0.166 HD
ENDROOT
BRANCH   1  15
ATOM     15  C   UNL     1     -49.231  29.175  24.770  1.00  0.00     0.061 C 
ATOM     16  H   UNL     1     -50.205  29.432  24.341  1.00  0.00     0.056 H 
ATOM     17  H   UNL     1     -49.425  28.621  25.693  1.00  0.00     0.056 H 
BRANCH  15  18
ATOM     18  N   UNL     1     -48.492  28.339  23.824  1.00  0.00    -0.337 N 
BRANCH  18  19
ATOM     19  C   UNL     1     -48.787  28.262  22.468  1.00  0.00     0.219 C 
ATOM     20  O   UNL     1     -48.178  28.914  21.620  1.00  0.00    -0.275 OA
BRANCH  19  21
ATOM     21  C   UNL     1     -49.899  27.334  22.044  1.00  0.00     0.015 C 
ATOM     22  H   UNL     1     -50.856  27.692  22.434  1.00  0.00     0.033 H 
ATOM     23  H   UNL     1     -49.961  27.322  20.951  1.00  0.00     0.033 H 
ATOM     24  H   UNL     1     -49.703  26.313  22.378  1.00  0.00     0.033 H 
ENDBRANCH  19  21
ENDBRANCH  18  19
BRANCH  18  25
ATOM     25  C   UNL     1     -47.407  27.512  24.360  1.00  0.00     0.024 C 
ATOM     26  H   UNL     1     -46.921  26.988  23.528  1.00  0.00     0.050 H 
ATOM     27  H   UNL     1     -46.648  28.141  24.837  1.00  0.00     0.050 H 
BRANCH  25  28
ATOM     28  C   UNL     1     -48.005  26.512  25.350  1.00  0.00    -0.024 C 
ATOM     29  C   UNL     1     -47.076  25.309  25.672  1.00  0.00    -0.049 C 
ATOM     30  C   UNL     1     -47.954  26.840  26.869  1.00  0.00    -0.049 C 
ATOM     31  H   UNL     1     -48.998  26.177  25.026  1.00  0.00     0.032 H 
ATOM     32  C   UNL     1     -46.627  26.062  26.939  1.00  0.00    -0.053 C 
ATOM     33  H   UNL     1     -46.286  25.093  24.947  1.00  0.00     0.027 H 
ATOM     34  H   UNL     1     -47.621  24.382  25.884  1.00  0.00     0.027 H 
ATOM     35  H   UNL     1     -47.897  27.893  27.155  1.00  0.00     0.027 H 
ATOM     36  H   UNL     1     -48.763  26.372  27.441  1.00  0.00     0.027 H 
ATOM     37  H   UNL     1     -45.739  26.687  26.791  1.00  0.00     0.027 H 
ATOM     38  H   UNL     1     -46.483  25.447  27.830  1.00  0.00     0.027 H 
ENDBRANCH  25  28
ENDBRANCH  18  25
ENDBRANCH  15  18
ENDBRANCH   1  15
BRANCH   6  39
ATOM     39  C   UNL     1     -45.913  34.905  28.249  1.00  0.00     0.043 C 
ATOM     40  H   UNL     1     -46.642  34.896  29.067  1.00  0.00     0.054 H 
ATOM     41  H   UNL     1     -44.961  34.549  28.659  1.00  0.00     0.054 H 
BRANCH  39  42
ATOM     42  N   UNL     1     -45.699  36.247  27.772  1.00  0.00    -0.347 N 
ATOM     43  C   UNL     1     -45.339  37.281  28.600  1.00  0.00     0.270 C 
ATOM     44  H   UNL     1     -46.039  36.509  26.852  1.00  0.00     0.164 HD
ATOM     45  O   UNL     1     -45.032  37.153  29.779  1.00  0.00    -0.268 OA
BRANCH  43  46
ATOM     46  C   UNL     1     -45.377  38.617  27.897  1.00  0.00     0.136 A 
ATOM     47  C   UNL     1     -46.537  38.958  27.331  1.00  0.00     0.035 A 
ATOM     48  N   UNL     1     -44.235  39.389  27.876  1.00  0.00    -0.225 NA
ATOM     49  C   UNL     1     -46.618  40.246  26.633  1.00  0.00     0.258 A 
ATOM     50  H   UNL     1     -47.427  38.343  27.353  1.00  0.00     0.071 H 
ATOM     51  C   UNL     1     -44.311  40.525  27.254  1.00  0.00     0.140 A 
ATOM     52  O   UNL     1     -47.684  40.572  26.114  1.00  0.00    -0.269 OA
ATOM     53  N   UNL     1     -45.455  41.002  26.623  1.00  0.00    -0.268 N 
ATOM     54  C   UNL     1     -43.100  41.392  27.202  1.00  0.00    -0.019 A 
ATOM     55  C   UNL     1     -45.454  42.235  25.978  1.00  0.00     0.014 A 
ATOM     56  C   UNL     1     -43.148  42.570  26.569  1.00  0.00    -0.057 A 
ATOM     57  H   UNL     1     -42.204  41.029  27.690  1.00  0.00     0.066 H 
ATOM     58  C   UNL     1     -44.362  43.008  25.936  1.00  0.00    -0.045 A 
ATOM     59  H   UNL     1     -46.383  42.546  25.506  1.00  0.00     0.082 H 
ATOM     60  H   UNL     1     -42.276  43.214  26.520  1.00  0.00     0.062 H 
ATOM     61  H   UNL     1     -44.373  43.968  25.429  1.00  0.00     0.064 H 
ENDBRANCH  43  46
ENDBRANCH  39  42
ENDBRANCH   6  39
TORSDOF 9
ENDMDL
MODEL 7
REMARK VINA RESULT:      -9.2      2.079      3.818
REMARK SMILES CC(=O)N(Cc1cc2ccc(CNC(=O)c3cc(=O)n4ccccc4n3)cc2[nH]1)CC1CCC1
REMARK SMILES IDX 6 1 7 2 8 3 9 4 10 5 11 6 27 7 28 8 29 9 5 15 4 18 2 19 3 20
REMARK SMILES IDX 1 21 30 25 31 28 32 29 34 30 33 32 12 39 13 42 14 43 15 45
REMARK SMILES IDX 16 46 17 47 26 48 18 49 25 51 19 52 20 53 24 54 21 55 23 56
REMARK SMILES IDX 22 58
REMARK H PARENT 7 10 9 11 10 12 27 13 29 14 5 16 5 17 1 22 1 23 1 24 30 26
REMARK H PARENT 30 27 31 31 32 33 32 34 34 35 34 36 33 37 33 38 12 40 12 41
REMARK H PARENT 13 44 17 50 24 57 21 59 23 60 22 61
REMARK Flexibility Score: inf
ROOT
ATOM      1  C   UNL     1     -46.829  32.136  24.925  1.00  0.00     0.036 A 
ATOM      2  C   UNL     1     -47.959  32.927  25.025  1.00  0.00    -0.032 A 
ATOM      3  C   UNL     1     -47.761  33.854  26.084  1.00  0.00    -0.000 A 
ATOM      4  C   UNL     1     -48.541  34.882  26.646  1.00  0.00    -0.052 A 
ATOM      5  C   UNL     1     -48.027  35.628  27.715  1.00  0.00    -0.057 A 
ATOM      6  C   UNL     1     -46.750  35.372  28.229  1.00  0.00    -0.027 A 
ATOM      7  C   UNL     1     -45.966  34.342  27.679  1.00  0.00    -0.033 A 
ATOM      8  C   UNL     1     -46.498  33.607  26.612  1.00  0.00     0.046 A 
ATOM      9  N   UNL     1     -45.956  32.565  25.899  1.00  0.00    -0.357 N 
ATOM     10  H   UNL     1     -48.840  32.849  24.401  1.00  0.00     0.065 H 
ATOM     11  H   UNL     1     -49.532  35.096  26.256  1.00  0.00     0.063 H 
ATOM     12  H   UNL     1     -48.642  36.416  28.144  1.00  0.00     0.063 H 
ATOM     13  H   UNL     1     -44.979  34.120  28.078  1.00  0.00     0.065 H 
ATOM     14  H   UNL     1     -45.040  32.168  26.065  1.00  0.00     0.166 HD
ENDROOT
BRANCH   1  15
ATOM     15  C   UNL     1     -46.529  31.017  23.982  1.00  0.00     0.061 C 
ATOM     16  H   UNL     1     -45.859  30.298  24.463  1.00  0.00     0.056 H 
ATOM     17  H   UNL     1     -46.001  31.410  23.109  1.00  0.00     0.056 H 
BRANCH  15  18
ATOM     18  N   UNL     1     -47.754  30.333  23.566  1.00  0.00    -0.337 N 
BRANCH  18  19
ATOM     19  C   UNL     1     -48.771  29.972  24.442  1.00  0.00     0.219 C 
ATOM     20  O   UNL     1     -49.890  30.487  24.406  1.00  0.00    -0.275 OA
BRANCH  19  21
ATOM     21  C   UNL     1     -48.471  28.904  25.464  1.00  0.00     0.015 C 
ATOM     22  H   UNL     1     -49.334  28.244  25.583  1.00  0.00     0.033 H 
ATOM     23  H   UNL     1     -47.627  28.299  25.116  1.00  0.00     0.033 H 
ATOM     24  H   UNL     1     -48.190  29.349  26.422  1.00  0.00     0.033 H 
ENDBRANCH  19  21
ENDBRANCH  18  19
BRANCH  18  25
ATOM     25  C   UNL     1     -47.882  29.981  22.149  1.00  0.00     0.024 C 
ATOM     26  H   UNL     1     -46.891  29.715  21.762  1.00  0.00     0.050 H 
ATOM     27  H   UNL     1     -48.526  29.103  22.031  1.00  0.00     0.050 H 
BRANCH  25  28
ATOM     28  C   UNL     1     -48.446  31.189  21.401  1.00  0.00    -0.024 C 
ATOM     29  C   UNL     1     -47.985  31.286  19.920  1.00  0.00    -0.049 C 
ATOM     30  C   UNL     1     -49.898  31.118  20.849  1.00  0.00    -0.049 C 
ATOM     31  H   UNL     1     -48.248  32.122  21.945  1.00  0.00     0.032 H 
ATOM     32  C   UNL     1     -49.310  30.613  19.519  1.00  0.00    -0.053 C 
ATOM     33  H   UNL     1     -47.077  30.738  19.653  1.00  0.00     0.027 H 
ATOM     34  H   UNL     1     -47.892  32.317  19.559  1.00  0.00     0.027 H 
ATOM     35  H   UNL     1     -50.591  30.438  21.346  1.00  0.00     0.027 H 
ATOM     36  H   UNL     1     -50.378  32.101  20.767  1.00  0.00     0.027 H 
ATOM     37  H   UNL     1     -49.249  29.521  19.449  1.00  0.00     0.027 H 
ATOM     38  H   UNL     1     -49.784  30.999  18.612  1.00  0.00     0.027 H 
ENDBRANCH  25  28
ENDBRANCH  18  25
ENDBRANCH  15  18
ENDBRANCH   1  15
BRANCH   6  39
ATOM     39  C   UNL     1     -46.219  36.170  29.394  1.00  0.00     0.043 C 
ATOM     40  H   UNL     1     -47.049  36.549  30.002  1.00  0.00     0.054 H 
ATOM     41  H   UNL     1     -45.603  35.538  30.043  1.00  0.00     0.054 H 
BRANCH  39  42
ATOM     42  N   UNL     1     -45.387  37.254  28.936  1.00  0.00    -0.347 N 
ATOM     43  C   UNL     1     -44.697  38.074  29.794  1.00  0.00     0.270 C 
ATOM     44  H   UNL     1     -45.480  37.583  27.981  1.00  0.00     0.164 HD
ATOM     45  O   UNL     1     -44.602  37.893  31.002  1.00  0.00    -0.268 OA
BRANCH  43  46
ATOM     46  C   UNL     1     -44.069  39.248  29.082  1.00  0.00     0.136 A 
ATOM     47  C   UNL     1     -43.065  39.858  29.715  1.00  0.00     0.035 A 
ATOM     48  N   UNL     1     -44.562  39.619  27.850  1.00  0.00    -0.225 NA
ATOM     49  C   UNL     1     -42.427  41.008  29.063  1.00  0.00     0.258 A 
ATOM     50  H   UNL     1     -42.687  39.559  30.684  1.00  0.00     0.071 H 
ATOM     51  C   UNL     1     -43.998  40.638  27.279  1.00  0.00     0.140 A 
ATOM     52  O   UNL     1     -41.497  41.572  29.635  1.00  0.00    -0.269 OA
ATOM     53  N   UNL     1     -42.943  41.363  27.825  1.00  0.00    -0.268 N 
ATOM     54  C   UNL     1     -44.500  41.078  25.946  1.00  0.00    -0.019 A 
ATOM     55  C   UNL     1     -42.393  42.445  27.146  1.00  0.00     0.014 A 
ATOM     56  C   UNL     1     -43.938  42.125  25.332  1.00  0.00    -0.057 A 
ATOM     57  H   UNL     1     -45.322  40.521  25.513  1.00  0.00     0.066 H 
ATOM     58  C   UNL     1     -42.849  42.833  25.949  1.00  0.00    -0.045 A 
ATOM     59  H   UNL     1     -41.571  42.965  27.632  1.00  0.00     0.082 H 
ATOM     60  H   UNL     1     -44.291  42.460  24.362  1.00  0.00     0.062 H 
ATOM     61  H   UNL     1     -42.412  43.680  25.429  1.00  0.00     0.064 H 
ENDBRANCH  43  46
ENDBRANCH  39  42
ENDBRANCH   6  39
TORSDOF 9
ENDMDL
