MODEL 1
REMARK VINA RESULT:      -9.4      0.000      0.000
REMARK SMILES CCc1cc(NC)c2ccc(OCc3cncc(-n4cc(-c5ccn(CCOC)n5)c5c(N)ncnc54)c3)cc2n1
REMARK SMILES IDX 19 1 20 2 21 3 31 4 32 5 34 6 35 7 36 8 37 9 18 12 14 13
REMARK SMILES IDX 15 14 38 15 16 16 17 19 13 21 12 24 11 25 3 26 4 27 41 28
REMARK SMILES IDX 5 29 40 31 8 32 39 33 9 34 10 36 2 39 1 42 6 46 7 48 22 52
REMARK SMILES IDX 23 53 30 54 24 55 25 57 26 59 27 62 28 65 29 66 33 70
REMARK H PARENT 20 10 35 11 15 17 38 18 17 20 13 22 13 23 4 30 39 35 9 37
REMARK H PARENT 10 38 2 40 2 41 1 43 1 44 1 45 6 47 7 49 7 50 7 51 23 56 24 58
REMARK H PARENT 26 60 26 61 27 63 27 64 29 67 29 68 29 69 33 71 33 72
REMARK Flexibility Score: inf
ROOT
ATOM      1  N   UNL     1     -45.067  39.337  27.766  1.00  0.00    -0.299 N 
ATOM      2  C   UNL     1     -45.458  40.103  26.686  1.00  0.00     0.021 A 
ATOM      3  C   UNL     1     -44.679  41.239  26.624  1.00  0.00     0.033 A 
ATOM      4  C   UNL     1     -43.782  41.213  27.724  1.00  0.00     0.071 A 
ATOM      5  C   UNL     1     -42.787  42.047  28.266  1.00  0.00     0.137 A 
ATOM      6  N   UNL     1     -42.085  41.630  29.335  1.00  0.00    -0.219 NA
ATOM      7  C   UNL     1     -42.375  40.431  29.862  1.00  0.00     0.120 A 
ATOM      8  N   UNL     1     -43.323  39.577  29.464  1.00  0.00    -0.218 NA
ATOM      9  C   UNL     1     -44.020  40.013  28.397  1.00  0.00     0.150 A 
ATOM     10  H   UNL     1     -46.271  39.811  26.036  1.00  0.00     0.083 H 
ATOM     11  H   UNL     1     -41.776  40.123  30.713  1.00  0.00     0.106 H 
ENDROOT
BRANCH   1  12
ATOM     12  C   UNL     1     -45.637  38.078  28.130  1.00  0.00     0.066 A 
ATOM     13  C   UNL     1     -46.938  36.088  27.613  1.00  0.00     0.010 A 
ATOM     14  C   UNL     1     -46.781  35.714  28.942  1.00  0.00     0.034 A 
ATOM     15  C   UNL     1     -46.322  37.281  27.210  1.00  0.00    -0.028 A 
ATOM     16  N   UNL     1     -46.098  36.436  29.857  1.00  0.00    -0.262 NA
ATOM     17  H   UNL     1     -47.212  34.792  29.325  1.00  0.00     0.084 H 
ATOM     18  H   UNL     1     -46.380  37.561  26.162  1.00  0.00     0.065 H 
ATOM     19  C   UNL     1     -45.547  37.601  29.433  1.00  0.00     0.051 A 
ATOM     20  H   UNL     1     -45.048  38.145  30.228  1.00  0.00     0.086 H 
BRANCH  13  21
ATOM     21  C   UNL     1     -47.712  35.198  26.670  1.00  0.00     0.115 C 
ATOM     22  H   UNL     1     -48.765  35.499  26.731  1.00  0.00     0.076 H 
ATOM     23  H   UNL     1     -47.410  35.355  25.628  1.00  0.00     0.076 H 
BRANCH  21  24
ATOM     24  O   UNL     1     -47.687  33.802  26.991  1.00  0.00    -0.489 OA
BRANCH  24  25
ATOM     25  C   UNL     1     -47.452  32.906  25.984  1.00  0.00     0.122 A 
ATOM     26  C   UNL     1     -48.765  28.627  24.393  1.00  0.00     0.043 A 
ATOM     27  C   UNL     1     -47.831  28.634  23.364  1.00  0.00    -0.017 A 
ATOM     28  N   UNL     1     -48.877  29.636  25.280  1.00  0.00    -0.253 NA
ATOM     29  C   UNL     1     -46.950  29.710  23.231  1.00  0.00     0.045 A 
ATOM     30  H   UNL     1     -47.796  27.787  22.690  1.00  0.00     0.066 H 
ATOM     31  C   UNL     1     -48.086  30.710  25.132  1.00  0.00     0.076 A 
ATOM     32  C   UNL     1     -47.110  30.814  24.117  1.00  0.00     0.024 A 
ATOM     33  C   UNL     1     -48.240  31.754  26.032  1.00  0.00     0.007 A 
ATOM     34  C   UNL     1     -46.352  32.010  24.043  1.00  0.00    -0.047 A 
ATOM     35  H   UNL     1     -48.983  31.655  26.820  1.00  0.00     0.069 H 
ATOM     36  C   UNL     1     -46.516  33.043  24.970  1.00  0.00    -0.019 A 
ATOM     37  H   UNL     1     -45.620  32.150  23.253  1.00  0.00     0.063 H 
ATOM     38  H   UNL     1     -45.898  33.927  24.868  1.00  0.00     0.066 H 
BRANCH  26  39
ATOM     39  C   UNL     1     -49.686  27.449  24.582  1.00  0.00    -0.013 C 
ATOM     40  H   UNL     1     -50.683  27.710  24.208  1.00  0.00     0.033 H 
ATOM     41  H   UNL     1     -49.338  26.602  23.979  1.00  0.00     0.033 H 
BRANCH  39  42
ATOM     42  C   UNL     1     -49.784  27.047  26.045  1.00  0.00    -0.060 C 
ATOM     43  H   UNL     1     -48.952  26.386  26.311  1.00  0.00     0.023 H 
ATOM     44  H   UNL     1     -50.719  26.513  26.248  1.00  0.00     0.023 H 
ATOM     45  H   UNL     1     -49.747  27.922  26.702  1.00  0.00     0.023 H 
ENDBRANCH  39  42
ENDBRANCH  26  39
BRANCH  29  46
ATOM     46  N   UNL     1     -45.999  29.771  22.190  1.00  0.00    -0.388 N 
ATOM     47  H   UNL     1     -45.802  30.739  21.944  1.00  0.00     0.160 HD
BRANCH  46  48
ATOM     48  C   UNL     1     -44.780  28.984  22.270  1.00  0.00     0.003 C 
ATOM     49  H   UNL     1     -44.974  27.987  22.678  1.00  0.00     0.045 H 
ATOM     50  H   UNL     1     -44.294  28.900  21.292  1.00  0.00     0.045 H 
ATOM     51  H   UNL     1     -44.073  29.486  22.939  1.00  0.00     0.045 H 
ENDBRANCH  46  48
ENDBRANCH  29  46
ENDBRANCH  24  25
ENDBRANCH  21  24
ENDBRANCH  13  21
ENDBRANCH   1  12
BRANCH   3  52
ATOM     52  C   UNL     1     -44.790  42.269  25.596  1.00  0.00     0.095 A 
ATOM     53  C   UNL     1     -44.052  42.312  24.395  1.00  0.00    -0.016 A 
ATOM     54  N   UNL     1     -45.681  43.265  25.673  1.00  0.00    -0.173 NA
ATOM     55  C   UNL     1     -44.518  43.425  23.735  1.00  0.00     0.026 A 
ATOM     56  H   UNL     1     -43.292  41.624  24.050  1.00  0.00     0.066 H 
ATOM     57  N   UNL     1     -45.490  43.956  24.532  1.00  0.00    -0.270 N 
ATOM     58  H   UNL     1     -44.263  43.861  22.779  1.00  0.00     0.084 H 
BRANCH  57  59
ATOM     59  C   UNL     1     -46.277  45.147  24.274  1.00  0.00     0.064 C 
ATOM     60  H   UNL     1     -46.099  45.438  23.232  1.00  0.00     0.054 H 
ATOM     61  H   UNL     1     -45.886  45.934  24.929  1.00  0.00     0.054 H 
BRANCH  59  62
ATOM     62  C   UNL     1     -47.757  44.914  24.544  1.00  0.00     0.066 C 
ATOM     63  H   UNL     1     -47.923  43.847  24.732  1.00  0.00     0.059 H 
ATOM     64  H   UNL     1     -48.372  45.222  23.689  1.00  0.00     0.059 H 
BRANCH  62  65
ATOM     65  O   UNL     1     -48.148  45.639  25.715  1.00  0.00    -0.383 OA
BRANCH  65  66
ATOM     66  C   UNL     1     -47.385  46.829  25.871  1.00  0.00     0.036 C 
ATOM     67  H   UNL     1     -46.382  46.596  26.238  1.00  0.00     0.053 H 
ATOM     68  H   UNL     1     -47.888  47.518  26.555  1.00  0.00     0.053 H 
ATOM     69  H   UNL     1     -47.297  47.311  24.893  1.00  0.00     0.053 H 
ENDBRANCH  65  66
ENDBRANCH  62  65
ENDBRANCH  59  62
ENDBRANCH  57  59
ENDBRANCH   3  52
BRANCH   5  70
ATOM     70  N   UNL     1     -42.477  43.318  27.794  1.00  0.00    -0.383 N 
ATOM     71  H   UNL     1     -42.679  44.002  28.515  1.00  0.00     0.158 HD
ATOM     72  H   UNL     1     -42.873  43.522  26.885  1.00  0.00     0.158 HD
ENDBRANCH   5  70
TORSDOF 14
ENDMDL
MODEL 2
REMARK VINA RESULT:      -9.2      2.209     12.781
REMARK SMILES CCc1cc(NC)c2ccc(OCc3cncc(-n4cc(-c5ccn(CCOC)n5)c5c(N)ncnc54)c3)cc2n1
REMARK SMILES IDX 19 1 20 2 21 3 31 4 32 5 34 6 35 7 36 8 37 9 18 12 14 13
REMARK SMILES IDX 15 14 38 15 16 16 17 19 13 21 12 24 11 25 3 26 4 27 41 28
REMARK SMILES IDX 5 29 40 31 8 32 39 33 9 34 10 36 2 39 1 42 6 46 7 48 22 52
REMARK SMILES IDX 23 53 30 54 24 55 25 57 26 59 27 62 28 65 29 66 33 70
REMARK H PARENT 20 10 35 11 15 17 38 18 17 20 13 22 13 23 4 30 39 35 9 37
REMARK H PARENT 10 38 2 40 2 41 1 43 1 44 1 45 6 47 7 49 7 50 7 51 23 56 24 58
REMARK H PARENT 26 60 26 61 27 63 27 64 29 67 29 68 29 69 33 71 33 72
REMARK Flexibility Score: inf
ROOT
ATOM      1  N   UNL     1     -47.467  32.167  25.498  1.00  0.00    -0.299 N 
ATOM      2  C   UNL     1     -48.360  31.171  25.840  1.00  0.00     0.021 A 
ATOM      3  C   UNL     1     -48.492  30.292  24.786  1.00  0.00     0.033 A 
ATOM      4  C   UNL     1     -47.680  30.763  23.721  1.00  0.00     0.071 A 
ATOM      5  C   UNL     1     -47.394  30.387  22.396  1.00  0.00     0.137 A 
ATOM      6  N   UNL     1     -46.486  31.086  21.693  1.00  0.00    -0.219 NA
ATOM      7  C   UNL     1     -45.893  32.137  22.279  1.00  0.00     0.120 A 
ATOM      8  N   UNL     1     -46.115  32.612  23.508  1.00  0.00    -0.218 NA
ATOM      9  C   UNL     1     -47.033  31.905  24.196  1.00  0.00     0.150 A 
ATOM     10  H   UNL     1     -48.862  31.151  26.797  1.00  0.00     0.083 H 
ATOM     11  H   UNL     1     -45.153  32.665  21.685  1.00  0.00     0.106 H 
ENDROOT
BRANCH   1  12
ATOM     12  C   UNL     1     -47.067  33.241  26.351  1.00  0.00     0.066 A 
ATOM     13  C   UNL     1     -46.824  35.613  26.836  1.00  0.00     0.010 A 
ATOM     14  C   UNL     1     -46.180  35.245  28.011  1.00  0.00     0.034 A 
ATOM     15  C   UNL     1     -47.297  34.578  26.017  1.00  0.00    -0.028 A 
ATOM     16  N   UNL     1     -45.967  33.966  28.390  1.00  0.00    -0.262 NA
ATOM     17  H   UNL     1     -45.803  35.990  28.707  1.00  0.00     0.084 H 
ATOM     18  H   UNL     1     -47.857  34.843  25.125  1.00  0.00     0.065 H 
ATOM     19  C   UNL     1     -46.410  32.995  27.552  1.00  0.00     0.051 A 
ATOM     20  H   UNL     1     -46.173  31.996  27.901  1.00  0.00     0.086 H 
BRANCH  13  21
ATOM     21  C   UNL     1     -47.020  37.076  26.514  1.00  0.00     0.115 C 
ATOM     22  H   UNL     1     -46.212  37.368  25.832  1.00  0.00     0.076 H 
ATOM     23  H   UNL     1     -47.956  37.248  25.971  1.00  0.00     0.076 H 
BRANCH  21  24
ATOM     24  O   UNL     1     -46.924  37.964  27.634  1.00  0.00    -0.489 OA
BRANCH  24  25
ATOM     25  C   UNL     1     -45.888  38.856  27.672  1.00  0.00     0.122 A 
ATOM     26  C   UNL     1     -43.947  42.451  25.248  1.00  0.00     0.043 A 
ATOM     27  C   UNL     1     -42.872  42.566  26.121  1.00  0.00    -0.017 A 
ATOM     28  N   UNL     1     -44.909  41.518  25.398  1.00  0.00    -0.253 NA
ATOM     29  C   UNL     1     -42.752  41.681  27.196  1.00  0.00     0.045 A 
ATOM     30  H   UNL     1     -42.135  43.337  25.937  1.00  0.00     0.066 H 
ATOM     31  C   UNL     1     -44.849  40.700  26.460  1.00  0.00     0.076 A 
ATOM     32  C   UNL     1     -43.801  40.741  27.405  1.00  0.00     0.024 A 
ATOM     33  C   UNL     1     -45.866  39.771  26.617  1.00  0.00     0.007 A 
ATOM     34  C   UNL     1     -43.860  39.845  28.502  1.00  0.00    -0.047 A 
ATOM     35  H   UNL     1     -46.659  39.738  25.873  1.00  0.00     0.069 H 
ATOM     36  C   UNL     1     -44.889  38.908  28.632  1.00  0.00    -0.019 A 
ATOM     37  H   UNL     1     -43.097  39.870  29.275  1.00  0.00     0.063 H 
ATOM     38  H   UNL     1     -44.871  38.242  29.486  1.00  0.00     0.066 H 
BRANCH  26  39
ATOM     39  C   UNL     1     -44.064  43.363  24.054  1.00  0.00    -0.013 C 
ATOM     40  H   UNL     1     -43.221  44.064  24.054  1.00  0.00     0.033 H 
ATOM     41  H   UNL     1     -43.984  42.779  23.129  1.00  0.00     0.033 H 
BRANCH  39  42
ATOM     42  C   UNL     1     -45.370  44.141  24.072  1.00  0.00    -0.060 C 
ATOM     43  H   UNL     1     -45.720  44.269  25.101  1.00  0.00     0.023 H 
ATOM     44  H   UNL     1     -46.151  43.616  23.511  1.00  0.00     0.023 H 
ATOM     45  H   UNL     1     -45.248  45.134  23.628  1.00  0.00     0.023 H 
ENDBRANCH  39  42
ENDBRANCH  26  39
BRANCH  29  46
ATOM     46  N   UNL     1     -41.689  41.771  28.120  1.00  0.00    -0.388 N 
ATOM     47  H   UNL     1     -40.866  42.174  27.679  1.00  0.00     0.160 HD
BRANCH  46  48
ATOM     48  C   UNL     1     -41.917  42.337  29.439  1.00  0.00     0.003 C 
ATOM     49  H   UNL     1     -42.877  42.862  29.489  1.00  0.00     0.045 H 
ATOM     50  H   UNL     1     -41.870  41.569  30.218  1.00  0.00     0.045 H 
ATOM     51  H   UNL     1     -41.128  43.065  29.657  1.00  0.00     0.045 H 
ENDBRANCH  46  48
ENDBRANCH  29  46
ENDBRANCH  24  25
ENDBRANCH  21  24
ENDBRANCH  13  21
ENDBRANCH   1  12
BRANCH   3  52
ATOM     52  C   UNL     1     -49.334  29.100  24.798  1.00  0.00     0.095 A 
ATOM     53  C   UNL     1     -50.542  28.942  24.084  1.00  0.00    -0.016 A 
ATOM     54  N   UNL     1     -48.992  27.987  25.457  1.00  0.00    -0.173 NA
ATOM     55  C   UNL     1     -50.952  27.660  24.367  1.00  0.00     0.026 A 
ATOM     56  H   UNL     1     -51.041  29.657  23.445  1.00  0.00     0.066 H 
ATOM     57  N   UNL     1     -49.995  27.130  25.183  1.00  0.00    -0.270 N 
ATOM     58  H   UNL     1     -51.810  27.086  24.047  1.00  0.00     0.084 H 
BRANCH  57  59
ATOM     59  C   UNL     1     -49.980  25.799  25.761  1.00  0.00     0.064 C 
ATOM     60  H   UNL     1     -49.932  25.082  24.934  1.00  0.00     0.054 H 
ATOM     61  H   UNL     1     -50.936  25.669  26.282  1.00  0.00     0.054 H 
BRANCH  59  62
ATOM     62  C   UNL     1     -48.817  25.618  26.727  1.00  0.00     0.066 C 
ATOM     63  H   UNL     1     -49.179  25.124  27.636  1.00  0.00     0.059 H 
ATOM     64  H   UNL     1     -48.372  26.583  27.001  1.00  0.00     0.059 H 
BRANCH  62  65
ATOM     65  O   UNL     1     -47.826  24.775  26.126  1.00  0.00    -0.383 OA
BRANCH  65  66
ATOM     66  C   UNL     1     -46.716  25.529  25.655  1.00  0.00     0.036 C 
ATOM     67  H   UNL     1     -47.037  26.522  25.329  1.00  0.00     0.053 H 
ATOM     68  H   UNL     1     -46.219  25.004  24.835  1.00  0.00     0.053 H 
ATOM     69  H   UNL     1     -46.005  25.644  26.478  1.00  0.00     0.053 H 
ENDBRANCH  65  66
ENDBRANCH  62  65
ENDBRANCH  59  62
ENDBRANCH  57  59
ENDBRANCH   3  52
BRANCH   5  70
ATOM     70  N   UNL     1     -48.011  29.341  21.720  1.00  0.00    -0.383 N 
ATOM     71  H   UNL     1     -47.502  29.148  20.865  1.00  0.00     0.158 HD
ATOM     72  H   UNL     1     -49.010  29.461  21.608  1.00  0.00     0.158 HD
ENDBRANCH   5  70
TORSDOF 14
ENDMDL
MODEL 3
REMARK VINA RESULT:      -9.2      1.923      3.054
REMARK SMILES CCc1cc(NC)c2ccc(OCc3cncc(-n4cc(-c5ccn(CCOC)n5)c5c(N)ncnc54)c3)cc2n1
REMARK SMILES IDX 19 1 20 2 21 3 31 4 32 5 34 6 35 7 36 8 37 9 18 12 14 13
REMARK SMILES IDX 15 14 38 15 16 16 17 19 13 21 12 24 11 25 3 26 4 27 41 28
REMARK SMILES IDX 5 29 40 31 8 32 39 33 9 34 10 36 2 39 1 42 6 46 7 48 22 52
REMARK SMILES IDX 23 53 30 54 24 55 25 57 26 59 27 62 28 65 29 66 33 70
REMARK H PARENT 20 10 35 11 15 17 38 18 17 20 13 22 13 23 4 30 39 35 9 37
REMARK H PARENT 10 38 2 40 2 41 1 43 1 44 1 45 6 47 7 49 7 50 7 51 23 56 24 58
REMARK H PARENT 26 60 26 61 27 63 27 64 29 67 29 68 29 69 33 71 33 72
REMARK Flexibility Score: inf
ROOT
ATOM      1  N   UNL     1     -45.013  39.019  27.869  1.00  0.00    -0.299 N 
ATOM      2  C   UNL     1     -45.237  39.830  26.774  1.00  0.00     0.021 A 
ATOM      3  C   UNL     1     -44.381  40.910  26.822  1.00  0.00     0.033 A 
ATOM      4  C   UNL     1     -43.606  40.801  28.007  1.00  0.00     0.071 A 
ATOM      5  C   UNL     1     -42.618  41.553  28.668  1.00  0.00     0.137 A 
ATOM      6  N   UNL     1     -42.061  41.068  29.792  1.00  0.00    -0.219 NA
ATOM      7  C   UNL     1     -42.484  39.882  30.256  1.00  0.00     0.120 A 
ATOM      8  N   UNL     1     -43.442  39.104  29.742  1.00  0.00    -0.218 NA
ATOM      9  C   UNL     1     -43.994  39.608  28.621  1.00  0.00     0.150 A 
ATOM     10  H   UNL     1     -45.996  39.609  26.038  1.00  0.00     0.083 H 
ATOM     11  H   UNL     1     -41.999  39.517  31.156  1.00  0.00     0.106 H 
ENDROOT
BRANCH   1  12
ATOM     12  C   UNL     1     -45.702  37.797  28.140  1.00  0.00     0.066 A 
ATOM     13  C   UNL     1     -46.995  35.864  27.424  1.00  0.00     0.010 A 
ATOM     14  C   UNL     1     -47.090  35.507  28.763  1.00  0.00     0.034 A 
ATOM     15  C   UNL     1     -46.258  37.018  27.123  1.00  0.00    -0.028 A 
ATOM     16  N   UNL     1     -46.540  36.211  29.777  1.00  0.00    -0.262 NA
ATOM     17  H   UNL     1     -47.628  34.615  29.075  1.00  0.00     0.084 H 
ATOM     18  H   UNL     1     -46.119  37.281  26.078  1.00  0.00     0.065 H 
ATOM     19  C   UNL     1     -45.863  37.340  29.444  1.00  0.00     0.051 A 
ATOM     20  H   UNL     1     -45.482  37.873  30.308  1.00  0.00     0.086 H 
BRANCH  13  21
ATOM     21  C   UNL     1     -47.639  34.996  26.369  1.00  0.00     0.115 C 
ATOM     22  H   UNL     1     -48.443  35.586  25.911  1.00  0.00     0.076 H 
ATOM     23  H   UNL     1     -46.939  34.756  25.561  1.00  0.00     0.076 H 
BRANCH  21  24
ATOM     24  O   UNL     1     -48.262  33.802  26.859  1.00  0.00    -0.489 OA
BRANCH  24  25
ATOM     25  C   UNL     1     -48.099  32.644  26.150  1.00  0.00     0.122 A 
ATOM     26  C   UNL     1     -46.230  30.943  22.128  1.00  0.00     0.043 A 
ATOM     27  C   UNL     1     -46.722  29.662  22.346  1.00  0.00    -0.017 A 
ATOM     28  N   UNL     1     -46.465  31.967  22.974  1.00  0.00    -0.253 NA
ATOM     29  C   UNL     1     -47.509  29.402  23.470  1.00  0.00     0.045 A 
ATOM     30  H   UNL     1     -46.495  28.889  21.622  1.00  0.00     0.066 H 
ATOM     31  C   UNL     1     -47.164  31.724  24.094  1.00  0.00     0.076 A 
ATOM     32  C   UNL     1     -47.702  30.457  24.407  1.00  0.00     0.024 A 
ATOM     33  C   UNL     1     -47.366  32.780  24.970  1.00  0.00     0.007 A 
ATOM     34  C   UNL     1     -48.398  30.315  25.634  1.00  0.00    -0.047 A 
ATOM     35  H   UNL     1     -46.961  33.756  24.709  1.00  0.00     0.069 H 
ATOM     36  C   UNL     1     -48.601  31.398  26.494  1.00  0.00    -0.019 A 
ATOM     37  H   UNL     1     -48.792  29.349  25.934  1.00  0.00     0.063 H 
ATOM     38  H   UNL     1     -49.152  31.229  27.411  1.00  0.00     0.066 H 
BRANCH  26  39
ATOM     39  C   UNL     1     -45.423  31.253  20.893  1.00  0.00    -0.013 C 
ATOM     40  H   UNL     1     -44.555  31.861  21.175  1.00  0.00     0.033 H 
ATOM     41  H   UNL     1     -45.029  30.326  20.462  1.00  0.00     0.033 H 
BRANCH  39  42
ATOM     42  C   UNL     1     -46.251  32.002  19.860  1.00  0.00    -0.060 C 
ATOM     43  H   UNL     1     -45.655  32.799  19.404  1.00  0.00     0.023 H 
ATOM     44  H   UNL     1     -47.135  32.459  20.317  1.00  0.00     0.023 H 
ATOM     45  H   UNL     1     -46.592  31.333  19.063  1.00  0.00     0.023 H 
ENDBRANCH  39  42
ENDBRANCH  26  39
BRANCH  29  46
ATOM     46  N   UNL     1     -48.014  28.113  23.744  1.00  0.00    -0.388 N 
ATOM     47  H   UNL     1     -48.455  27.719  22.916  1.00  0.00     0.160 HD
BRANCH  46  48
ATOM     48  C   UNL     1     -47.182  27.132  24.422  1.00  0.00     0.003 C 
ATOM     49  H   UNL     1     -46.393  26.754  23.763  1.00  0.00     0.045 H 
ATOM     50  H   UNL     1     -46.741  27.545  25.335  1.00  0.00     0.045 H 
ATOM     51  H   UNL     1     -47.803  26.281  24.720  1.00  0.00     0.045 H 
ENDBRANCH  46  48
ENDBRANCH  29  46
ENDBRANCH  24  25
ENDBRANCH  21  24
ENDBRANCH  13  21
ENDBRANCH   1  12
BRANCH   3  52
ATOM     52  C   UNL     1     -44.315  41.965  25.815  1.00  0.00     0.095 A 
ATOM     53  C   UNL     1     -45.423  42.640  25.260  1.00  0.00    -0.016 A 
ATOM     54  N   UNL     1     -43.153  42.448  25.360  1.00  0.00    -0.173 NA
ATOM     55  C   UNL     1     -44.877  43.561  24.398  1.00  0.00     0.026 A 
ATOM     56  H   UNL     1     -46.473  42.484  25.465  1.00  0.00     0.066 H 
ATOM     57  N   UNL     1     -43.524  43.414  24.495  1.00  0.00    -0.270 N 
ATOM     58  H   UNL     1     -45.324  44.308  23.756  1.00  0.00     0.084 H 
BRANCH  57  59
ATOM     59  C   UNL     1     -42.510  44.157  23.771  1.00  0.00     0.064 C 
ATOM     60  H   UNL     1     -41.677  43.472  23.577  1.00  0.00     0.054 H 
ATOM     61  H   UNL     1     -42.160  44.952  24.441  1.00  0.00     0.054 H 
BRANCH  59  62
ATOM     62  C   UNL     1     -43.059  44.749  22.481  1.00  0.00     0.066 C 
ATOM     63  H   UNL     1     -43.326  45.798  22.653  1.00  0.00     0.059 H 
ATOM     64  H   UNL     1     -43.951  44.207  22.141  1.00  0.00     0.059 H 
BRANCH  62  65
ATOM     65  O   UNL     1     -42.046  44.708  21.469  1.00  0.00    -0.383 OA
BRANCH  65  66
ATOM     66  C   UNL     1     -42.397  45.507  20.346  1.00  0.00     0.036 C 
ATOM     67  H   UNL     1     -41.805  46.427  20.330  1.00  0.00     0.053 H 
ATOM     68  H   UNL     1     -43.465  45.745  20.364  1.00  0.00     0.053 H 
ATOM     69  H   UNL     1     -42.181  44.937  19.438  1.00  0.00     0.053 H 
ENDBRANCH  65  66
ENDBRANCH  62  65
ENDBRANCH  59  62
ENDBRANCH  57  59
ENDBRANCH   3  52
BRANCH   5  70
ATOM     70  N   UNL     1     -42.175  42.807  28.263  1.00  0.00    -0.383 N 
ATOM     71  H   UNL     1     -41.566  43.193  28.976  1.00  0.00     0.158 HD
ATOM     72  H   UNL     1     -42.919  43.421  27.955  1.00  0.00     0.158 HD
ENDBRANCH   5  70
TORSDOF 14
ENDMDL
MODEL 4
REMARK VINA RESULT:      -8.8      1.727      2.276
REMARK SMILES CCc1cc(NC)c2ccc(OCc3cncc(-n4cc(-c5ccn(CCOC)n5)c5c(N)ncnc54)c3)cc2n1
REMARK SMILES IDX 19 1 20 2 21 3 31 4 32 5 34 6 35 7 36 8 37 9 18 12 14 13
REMARK SMILES IDX 15 14 38 15 16 16 17 19 13 21 12 24 11 25 3 26 4 27 41 28
REMARK SMILES IDX 5 29 40 31 8 32 39 33 9 34 10 36 2 39 1 42 6 46 7 48 22 52
REMARK SMILES IDX 23 53 30 54 24 55 25 57 26 59 27 62 28 65 29 66 33 70
REMARK H PARENT 20 10 35 11 15 17 38 18 17 20 13 22 13 23 4 30 39 35 9 37
REMARK H PARENT 10 38 2 40 2 41 1 43 1 44 1 45 6 47 7 49 7 50 7 51 23 56 24 58
REMARK H PARENT 26 60 26 61 27 63 27 64 29 67 29 68 29 69 33 71 33 72
REMARK Flexibility Score: inf
ROOT
ATOM      1  N   UNL     1     -46.121  39.959  27.077  1.00  0.00    -0.299 N 
ATOM      2  C   UNL     1     -46.525  40.912  26.163  1.00  0.00     0.021 A 
ATOM      3  C   UNL     1     -45.602  41.936  26.131  1.00  0.00     0.033 A 
ATOM      4  C   UNL     1     -44.591  41.642  27.083  1.00  0.00     0.071 A 
ATOM      5  C   UNL     1     -43.426  42.258  27.576  1.00  0.00     0.137 A 
ATOM      6  N   UNL     1     -42.667  41.609  28.477  1.00  0.00    -0.219 NA
ATOM      7  C   UNL     1     -43.061  40.395  28.890  1.00  0.00     0.120 A 
ATOM      8  N   UNL     1     -44.165  39.734  28.529  1.00  0.00    -0.218 NA
ATOM      9  C   UNL     1     -44.917  40.401  27.632  1.00  0.00     0.150 A 
ATOM     10  H   UNL     1     -47.445  40.821  25.604  1.00  0.00     0.083 H 
ATOM     11  H   UNL     1     -42.414  39.896  29.605  1.00  0.00     0.106 H 
ENDROOT
BRANCH   1  12
ATOM     12  C   UNL     1     -46.819  38.746  27.362  1.00  0.00     0.066 A 
ATOM     13  C   UNL     1     -46.988  36.319  27.345  1.00  0.00     0.010 A 
ATOM     14  C   UNL     1     -48.272  36.465  27.854  1.00  0.00     0.034 A 
ATOM     15  C   UNL     1     -46.251  37.491  27.129  1.00  0.00    -0.028 A 
ATOM     16  N   UNL     1     -48.849  37.655  28.126  1.00  0.00    -0.262 NA
ATOM     17  H   UNL     1     -48.898  35.602  28.066  1.00  0.00     0.084 H 
ATOM     18  H   UNL     1     -45.223  37.398  26.791  1.00  0.00     0.065 H 
ATOM     19  C   UNL     1     -48.113  38.767  27.871  1.00  0.00     0.051 A 
ATOM     20  H   UNL     1     -48.652  39.685  28.077  1.00  0.00     0.086 H 
BRANCH  13  21
ATOM     21  C   UNL     1     -46.435  34.936  27.088  1.00  0.00     0.115 C 
ATOM     22  H   UNL     1     -45.935  34.964  26.112  1.00  0.00     0.076 H 
ATOM     23  H   UNL     1     -45.664  34.668  27.819  1.00  0.00     0.076 H 
BRANCH  21  24
ATOM     24  O   UNL     1     -47.416  33.896  26.994  1.00  0.00    -0.489 OA
BRANCH  24  25
ATOM     25  C   UNL     1     -47.305  32.986  25.978  1.00  0.00     0.122 A 
ATOM     26  C   UNL     1     -49.130  28.896  24.394  1.00  0.00     0.043 A 
ATOM     27  C   UNL     1     -48.223  28.805  23.345  1.00  0.00    -0.017 A 
ATOM     28  N   UNL     1     -49.108  29.905  25.289  1.00  0.00    -0.253 NA
ATOM     29  C   UNL     1     -47.229  29.775  23.198  1.00  0.00     0.045 A 
ATOM     30  H   UNL     1     -48.299  27.964  22.666  1.00  0.00     0.066 H 
ATOM     31  C   UNL     1     -48.203  30.883  25.129  1.00  0.00     0.076 A 
ATOM     32  C   UNL     1     -47.244  30.883  24.093  1.00  0.00     0.024 A 
ATOM     33  C   UNL     1     -48.218  31.931  26.037  1.00  0.00     0.007 A 
ATOM     34  C   UNL     1     -46.356  31.986  24.009  1.00  0.00    -0.047 A 
ATOM     35  H   UNL     1     -48.951  31.911  26.841  1.00  0.00     0.069 H 
ATOM     36  C   UNL     1     -46.382  33.024  24.944  1.00  0.00    -0.019 A 
ATOM     37  H   UNL     1     -45.631  32.048  23.203  1.00  0.00     0.063 H 
ATOM     38  H   UNL     1     -45.670  33.833  24.833  1.00  0.00     0.066 H 
BRANCH  26  39
ATOM     39  C   UNL     1     -50.175  27.830  24.598  1.00  0.00    -0.013 C 
ATOM     40  H   UNL     1     -51.141  28.308  24.800  1.00  0.00     0.033 H 
ATOM     41  H   UNL     1     -50.300  27.249  23.677  1.00  0.00     0.033 H 
BRANCH  39  42
ATOM     42  C   UNL     1     -49.815  26.909  25.753  1.00  0.00    -0.060 C 
ATOM     43  H   UNL     1     -48.748  26.662  25.722  1.00  0.00     0.023 H 
ATOM     44  H   UNL     1     -50.381  25.972  25.705  1.00  0.00     0.023 H 
ATOM     45  H   UNL     1     -50.027  27.380  26.719  1.00  0.00     0.023 H 
ENDBRANCH  39  42
ENDBRANCH  26  39
BRANCH  29  46
ATOM     46  N   UNL     1     -46.300  29.736  22.137  1.00  0.00    -0.388 N 
ATOM     47  H   UNL     1     -46.209  30.654  21.709  1.00  0.00     0.160 HD
BRANCH  46  48
ATOM     48  C   UNL     1     -45.004  29.106  22.327  1.00  0.00     0.003 C 
ATOM     49  H   UNL     1     -44.605  29.305  23.327  1.00  0.00     0.045 H 
ATOM     50  H   UNL     1     -45.055  28.027  22.152  1.00  0.00     0.045 H 
ATOM     51  H   UNL     1     -44.297  29.518  21.599  1.00  0.00     0.045 H 
ENDBRANCH  46  48
ENDBRANCH  29  46
ENDBRANCH  24  25
ENDBRANCH  21  24
ENDBRANCH  13  21
ENDBRANCH   1  12
BRANCH   3  52
ATOM     52  C   UNL     1     -45.687  43.106  25.262  1.00  0.00     0.095 A 
ATOM     53  C   UNL     1     -46.686  44.101  25.320  1.00  0.00    -0.016 A 
ATOM     54  N   UNL     1     -44.756  43.384  24.342  1.00  0.00    -0.173 NA
ATOM     55  C   UNL     1     -46.335  45.009  24.349  1.00  0.00     0.026 A 
ATOM     56  H   UNL     1     -47.539  44.156  25.983  1.00  0.00     0.066 H 
ATOM     57  N   UNL     1     -45.178  44.543  23.798  1.00  0.00    -0.270 N 
ATOM     58  H   UNL     1     -46.787  45.937  24.027  1.00  0.00     0.084 H 
BRANCH  57  59
ATOM     59  C   UNL     1     -44.416  45.149  22.722  1.00  0.00     0.064 C 
ATOM     60  H   UNL     1     -44.356  46.224  22.928  1.00  0.00     0.054 H 
ATOM     61  H   UNL     1     -44.993  45.001  21.802  1.00  0.00     0.054 H 
BRANCH  59  62
ATOM     62  C   UNL     1     -43.032  44.527  22.591  1.00  0.00     0.066 C 
ATOM     63  H   UNL     1     -43.119  43.565  22.074  1.00  0.00     0.059 H 
ATOM     64  H   UNL     1     -42.575  44.361  23.575  1.00  0.00     0.059 H 
BRANCH  62  65
ATOM     65  O   UNL     1     -42.198  45.383  21.802  1.00  0.00    -0.383 OA
BRANCH  65  66
ATOM     66  C   UNL     1     -42.135  44.949  20.450  1.00  0.00     0.036 C 
ATOM     67  H   UNL     1     -42.695  44.019  20.320  1.00  0.00     0.053 H 
ATOM     68  H   UNL     1     -41.095  44.811  20.140  1.00  0.00     0.053 H 
ATOM     69  H   UNL     1     -42.588  45.720  19.820  1.00  0.00     0.053 H 
ENDBRANCH  65  66
ENDBRANCH  62  65
ENDBRANCH  59  62
ENDBRANCH  57  59
ENDBRANCH   3  52
BRANCH   5  70
ATOM     70  N   UNL     1     -42.994  43.531  27.223  1.00  0.00    -0.383 N 
ATOM     71  H   UNL     1     -43.443  44.215  27.821  1.00  0.00     0.158 HD
ATOM     72  H   UNL     1     -43.056  43.722  26.230  1.00  0.00     0.158 HD
ENDBRANCH   5  70
TORSDOF 14
ENDMDL
MODEL 5
REMARK VINA RESULT:      -8.8      2.486     12.561
REMARK SMILES CCc1cc(NC)c2ccc(OCc3cncc(-n4cc(-c5ccn(CCOC)n5)c5c(N)ncnc54)c3)cc2n1
REMARK SMILES IDX 19 1 20 2 21 3 31 4 32 5 34 6 35 7 36 8 37 9 18 12 14 13
REMARK SMILES IDX 15 14 38 15 16 16 17 19 13 21 12 24 11 25 3 26 4 27 41 28
REMARK SMILES IDX 5 29 40 31 8 32 39 33 9 34 10 36 2 39 1 42 6 46 7 48 22 52
REMARK SMILES IDX 23 53 30 54 24 55 25 57 26 59 27 62 28 65 29 66 33 70
REMARK H PARENT 20 10 35 11 15 17 38 18 17 20 13 22 13 23 4 30 39 35 9 37
REMARK H PARENT 10 38 2 40 2 41 1 43 1 44 1 45 6 47 7 49 7 50 7 51 23 56 24 58
REMARK H PARENT 26 60 26 61 27 63 27 64 29 67 29 68 29 69 33 71 33 72
REMARK Flexibility Score: inf
ROOT
ATOM      1  N   UNL     1     -47.634  31.857  25.586  1.00  0.00    -0.299 N 
ATOM      2  C   UNL     1     -48.533  30.829  25.791  1.00  0.00     0.021 A 
ATOM      3  C   UNL     1     -48.608  30.053  24.654  1.00  0.00     0.033 A 
ATOM      4  C   UNL     1     -47.751  30.625  23.677  1.00  0.00     0.071 A 
ATOM      5  C   UNL     1     -47.401  30.377  22.338  1.00  0.00     0.137 A 
ATOM      6  N   UNL     1     -46.467  31.143  21.746  1.00  0.00    -0.219 NA
ATOM      7  C   UNL     1     -45.911  32.137  22.456  1.00  0.00     0.120 A 
ATOM      8  N   UNL     1     -46.195  32.493  23.712  1.00  0.00    -0.218 NA
ATOM      9  C   UNL     1     -47.137  31.720  24.287  1.00  0.00     0.150 A 
ATOM     10  H   UNL     1     -49.078  30.716  26.717  1.00  0.00     0.083 H 
ATOM     11  H   UNL     1     -45.150  32.722  21.950  1.00  0.00     0.106 H 
ENDROOT
BRANCH   1  12
ATOM     12  C   UNL     1     -47.283  32.848  26.554  1.00  0.00     0.066 A 
ATOM     13  C   UNL     1     -47.409  35.108  27.445  1.00  0.00     0.010 A 
ATOM     14  C   UNL     1     -46.481  34.717  28.402  1.00  0.00     0.034 A 
ATOM     15  C   UNL     1     -47.830  34.133  26.530  1.00  0.00    -0.028 A 
ATOM     16  N   UNL     1     -45.953  33.477  28.484  1.00  0.00    -0.262 NA
ATOM     17  H   UNL     1     -46.121  35.411  29.158  1.00  0.00     0.084 H 
ATOM     18  H   UNL     1     -48.600  34.399  25.812  1.00  0.00     0.065 H 
ATOM     19  C   UNL     1     -46.361  32.573  27.558  1.00  0.00     0.051 A 
ATOM     20  H   UNL     1     -45.869  31.612  27.661  1.00  0.00     0.086 H 
BRANCH  13  21
ATOM     21  C   UNL     1     -47.945  36.520  27.452  1.00  0.00     0.115 C 
ATOM     22  H   UNL     1     -48.996  36.469  27.141  1.00  0.00     0.076 H 
ATOM     23  H   UNL     1     -47.946  36.946  28.462  1.00  0.00     0.076 H 
BRANCH  21  24
ATOM     24  O   UNL     1     -47.310  37.418  26.534  1.00  0.00    -0.489 OA
BRANCH  24  25
ATOM     25  C   UNL     1     -46.373  38.290  27.017  1.00  0.00     0.122 A 
ATOM     26  C   UNL     1     -44.269  42.440  26.061  1.00  0.00     0.043 A 
ATOM     27  C   UNL     1     -43.401  42.341  27.142  1.00  0.00    -0.017 A 
ATOM     28  N   UNL     1     -45.168  41.481  25.760  1.00  0.00    -0.253 NA
ATOM     29  C   UNL     1     -43.430  41.205  27.955  1.00  0.00     0.045 A 
ATOM     30  H   UNL     1     -42.703  43.150  27.322  1.00  0.00     0.066 H 
ATOM     31  C   UNL     1     -45.257  40.412  26.565  1.00  0.00     0.076 A 
ATOM     32  C   UNL     1     -44.424  40.222  27.689  1.00  0.00     0.024 A 
ATOM     33  C   UNL     1     -46.212  39.453  26.261  1.00  0.00     0.007 A 
ATOM     34  C   UNL     1     -44.632  39.065  28.482  1.00  0.00    -0.047 A 
ATOM     35  H   UNL     1     -46.836  39.602  25.382  1.00  0.00     0.069 H 
ATOM     36  C   UNL     1     -45.591  38.106  28.147  1.00  0.00    -0.019 A 
ATOM     37  H   UNL     1     -44.042  38.900  29.379  1.00  0.00     0.063 H 
ATOM     38  H   UNL     1     -45.693  37.237  28.787  1.00  0.00     0.066 H 
BRANCH  26  39
ATOM     39  C   UNL     1     -44.215  43.634  25.143  1.00  0.00    -0.013 C 
ATOM     40  H   UNL     1     -44.423  43.308  24.117  1.00  0.00     0.033 H 
ATOM     41  H   UNL     1     -45.005  44.347  25.410  1.00  0.00     0.033 H 
BRANCH  39  42
ATOM     42  C   UNL     1     -42.857  44.315  25.192  1.00  0.00    -0.060 C 
ATOM     43  H   UNL     1     -42.137  43.685  25.726  1.00  0.00     0.023 H 
ATOM     44  H   UNL     1     -42.915  45.278  25.712  1.00  0.00     0.023 H 
ATOM     45  H   UNL     1     -42.467  44.500  24.186  1.00  0.00     0.023 H 
ENDBRANCH  39  42
ENDBRANCH  26  39
BRANCH  29  46
ATOM     46  N   UNL     1     -42.582  41.069  29.075  1.00  0.00    -0.388 N 
ATOM     47  H   UNL     1     -42.664  40.136  29.472  1.00  0.00     0.160 HD
BRANCH  46  48
ATOM     48  C   UNL     1     -41.194  41.493  28.995  1.00  0.00     0.003 C 
ATOM     49  H   UNL     1     -41.112  42.525  28.638  1.00  0.00     0.045 H 
ATOM     50  H   UNL     1     -40.688  41.389  29.960  1.00  0.00     0.045 H 
ATOM     51  H   UNL     1     -40.665  40.851  28.283  1.00  0.00     0.045 H 
ENDBRANCH  46  48
ENDBRANCH  29  46
ENDBRANCH  24  25
ENDBRANCH  21  24
ENDBRANCH  13  21
ENDBRANCH   1  12
BRANCH   3  52
ATOM     52  C   UNL     1     -49.439  28.861  24.514  1.00  0.00     0.095 A 
ATOM     53  C   UNL     1     -49.498  27.790  25.430  1.00  0.00    -0.016 A 
ATOM     54  N   UNL     1     -50.299  28.703  23.501  1.00  0.00    -0.173 NA
ATOM     55  C   UNL     1     -50.433  26.929  24.905  1.00  0.00     0.026 A 
ATOM     56  H   UNL     1     -48.944  27.664  26.350  1.00  0.00     0.066 H 
ATOM     57  N   UNL     1     -50.886  27.517  23.760  1.00  0.00    -0.270 N 
ATOM     58  H   UNL     1     -50.823  25.982  25.252  1.00  0.00     0.084 H 
BRANCH  57  59
ATOM     59  C   UNL     1     -51.879  26.991  22.841  1.00  0.00     0.064 C 
ATOM     60  H   UNL     1     -52.804  27.557  23.000  1.00  0.00     0.054 H 
ATOM     61  H   UNL     1     -52.054  25.947  23.126  1.00  0.00     0.054 H 
BRANCH  59  62
ATOM     62  C   UNL     1     -51.410  27.080  21.395  1.00  0.00     0.066 C 
ATOM     63  H   UNL     1     -51.255  26.067  21.006  1.00  0.00     0.059 H 
ATOM     64  H   UNL     1     -50.469  27.639  21.314  1.00  0.00     0.059 H 
BRANCH  62  65
ATOM     65  O   UNL     1     -52.423  27.711  20.604  1.00  0.00    -0.383 OA
BRANCH  65  66
ATOM     66  C   UNL     1     -51.995  28.978  20.121  1.00  0.00     0.036 C 
ATOM     67  H   UNL     1     -50.975  28.915  19.732  1.00  0.00     0.053 H 
ATOM     68  H   UNL     1     -52.051  29.729  20.915  1.00  0.00     0.053 H 
ATOM     69  H   UNL     1     -52.662  29.279  19.308  1.00  0.00     0.053 H 
ENDBRANCH  65  66
ENDBRANCH  62  65
ENDBRANCH  59  62
ENDBRANCH  57  59
ENDBRANCH   3  52
BRANCH   5  70
ATOM     70  N   UNL     1     -47.977  29.396  21.538  1.00  0.00    -0.383 N 
ATOM     71  H   UNL     1     -47.744  28.481  21.910  1.00  0.00     0.158 HD
ATOM     72  H   UNL     1     -47.794  29.517  20.550  1.00  0.00     0.158 HD
ENDBRANCH   5  70
TORSDOF 14
ENDMDL
MODEL 6
REMARK VINA RESULT:      -8.7      1.681      2.501
REMARK SMILES CCc1cc(NC)c2ccc(OCc3cncc(-n4cc(-c5ccn(CCOC)n5)c5c(N)ncnc54)c3)cc2n1
REMARK SMILES IDX 19 1 20 2 21 3 31 4 32 5 34 6 35 7 36 8 37 9 18 12 14 13
REMARK SMILES IDX 15 14 38 15 16 16 17 19 13 21 12 24 11 25 3 26 4 27 41 28
REMARK SMILES IDX 5 29 40 31 8 32 39 33 9 34 10 36 2 39 1 42 6 46 7 48 22 52
REMARK SMILES IDX 23 53 30 54 24 55 25 57 26 59 27 62 28 65 29 66 33 70
REMARK H PARENT 20 10 35 11 15 17 38 18 17 20 13 22 13 23 4 30 39 35 9 37
REMARK H PARENT 10 38 2 40 2 41 1 43 1 44 1 45 6 47 7 49 7 50 7 51 23 56 24 58
REMARK H PARENT 26 60 26 61 27 63 27 64 29 67 29 68 29 69 33 71 33 72
REMARK Flexibility Score: inf
ROOT
ATOM      1  N   UNL     1     -45.300  39.656  27.515  1.00  0.00    -0.299 N 
ATOM      2  C   UNL     1     -45.301  40.656  26.563  1.00  0.00     0.021 A 
ATOM      3  C   UNL     1     -44.272  41.536  26.822  1.00  0.00     0.033 A 
ATOM      4  C   UNL     1     -43.612  41.101  28.001  1.00  0.00     0.071 A 
ATOM      5  C   UNL     1     -42.553  41.542  28.815  1.00  0.00     0.137 A 
ATOM      6  N   UNL     1     -42.169  40.793  29.863  1.00  0.00    -0.219 NA
ATOM      7  C   UNL     1     -42.826  39.649  30.108  1.00  0.00     0.120 A 
ATOM      8  N   UNL     1     -43.869  39.153  29.435  1.00  0.00    -0.218 NA
ATOM      9  C   UNL     1     -44.246  39.920  28.393  1.00  0.00     0.150 A 
ATOM     10  H   UNL     1     -46.036  40.698  25.772  1.00  0.00     0.083 H 
ATOM     11  H   UNL     1     -42.476  39.063  30.952  1.00  0.00     0.106 H 
ENDROOT
BRANCH   1  12
ATOM     12  C   UNL     1     -46.212  38.557  27.553  1.00  0.00     0.066 A 
ATOM     13  C   UNL     1     -46.740  36.202  27.240  1.00  0.00     0.010 A 
ATOM     14  C   UNL     1     -48.055  36.517  27.560  1.00  0.00     0.034 A 
ATOM     15  C   UNL     1     -45.808  37.249  27.272  1.00  0.00    -0.028 A 
ATOM     16  N   UNL     1     -48.483  37.759  27.872  1.00  0.00    -0.262 NA
ATOM     17  H   UNL     1     -48.831  35.756  27.577  1.00  0.00     0.084 H 
ATOM     18  H   UNL     1     -44.764  37.014  27.086  1.00  0.00     0.065 H 
ATOM     19  C   UNL     1     -47.555  38.750  27.858  1.00  0.00     0.051 A 
ATOM     20  H   UNL     1     -47.976  39.725  28.080  1.00  0.00     0.086 H 
BRANCH  13  21
ATOM     21  C   UNL     1     -46.368  34.774  26.919  1.00  0.00     0.115 C 
ATOM     22  H   UNL     1     -46.220  34.715  25.833  1.00  0.00     0.076 H 
ATOM     23  H   UNL     1     -45.409  34.495  27.372  1.00  0.00     0.076 H 
BRANCH  21  24
ATOM     24  O   UNL     1     -47.369  33.798  27.230  1.00  0.00    -0.489 OA
BRANCH  24  25
ATOM     25  C   UNL     1     -47.845  33.008  26.220  1.00  0.00     0.122 A 
ATOM     26  C   UNL     1     -46.421  30.365  22.539  1.00  0.00     0.043 A 
ATOM     27  C   UNL     1     -47.720  30.095  22.126  1.00  0.00    -0.017 A 
ATOM     28  N   UNL     1     -46.143  31.148  23.601  1.00  0.00    -0.253 NA
ATOM     29  C   UNL     1     -48.798  30.659  22.812  1.00  0.00     0.045 A 
ATOM     30  H   UNL     1     -47.867  29.459  21.262  1.00  0.00     0.066 H 
ATOM     31  C   UNL     1     -47.165  31.647  24.314  1.00  0.00     0.076 A 
ATOM     32  C   UNL     1     -48.518  31.426  23.978  1.00  0.00     0.024 A 
ATOM     33  C   UNL     1     -46.860  32.421  25.424  1.00  0.00     0.007 A 
ATOM     34  C   UNL     1     -49.511  31.982  24.824  1.00  0.00    -0.047 A 
ATOM     35  H   UNL     1     -45.813  32.598  25.662  1.00  0.00     0.069 H 
ATOM     36  C   UNL     1     -49.180  32.769  25.929  1.00  0.00    -0.019 A 
ATOM     37  H   UNL     1     -50.564  31.802  24.627  1.00  0.00     0.063 H 
ATOM     38  H   UNL     1     -49.985  33.175  26.530  1.00  0.00     0.066 H 
BRANCH  26  39
ATOM     39  C   UNL     1     -45.245  29.809  21.778  1.00  0.00    -0.013 C 
ATOM     40  H   UNL     1     -45.582  29.471  20.791  1.00  0.00     0.033 H 
ATOM     41  H   UNL     1     -44.506  30.599  21.602  1.00  0.00     0.033 H 
BRANCH  39  42
ATOM     42  C   UNL     1     -44.602  28.646  22.518  1.00  0.00    -0.060 C 
ATOM     43  H   UNL     1     -43.513  28.679  22.401  1.00  0.00     0.023 H 
ATOM     44  H   UNL     1     -44.955  27.685  22.128  1.00  0.00     0.023 H 
ATOM     45  H   UNL     1     -44.831  28.679  23.588  1.00  0.00     0.023 H 
ENDBRANCH  39  42
ENDBRANCH  26  39
BRANCH  29  46
ATOM     46  N   UNL     1     -50.135  30.397  22.443  1.00  0.00    -0.388 N 
ATOM     47  H   UNL     1     -50.308  30.702  21.488  1.00  0.00     0.160 HD
BRANCH  46  48
ATOM     48  C   UNL     1     -50.720  29.091  22.697  1.00  0.00     0.003 C 
ATOM     49  H   UNL     1     -49.952  28.352  22.952  1.00  0.00     0.045 H 
ATOM     50  H   UNL     1     -51.472  29.138  23.492  1.00  0.00     0.045 H 
ATOM     51  H   UNL     1     -51.228  28.744  21.792  1.00  0.00     0.045 H 
ENDBRANCH  46  48
ENDBRANCH  29  46
ENDBRANCH  24  25
ENDBRANCH  21  24
ENDBRANCH  13  21
ENDBRANCH   1  12
BRANCH   3  52
ATOM     52  C   UNL     1     -43.951  42.704  26.008  1.00  0.00     0.095 A 
ATOM     53  C   UNL     1     -42.761  42.889  25.272  1.00  0.00    -0.016 A 
ATOM     54  N   UNL     1     -44.815  43.710  25.826  1.00  0.00    -0.173 NA
ATOM     55  C   UNL     1     -42.923  44.100  24.640  1.00  0.00     0.026 A 
ATOM     56  H   UNL     1     -41.907  42.231  25.203  1.00  0.00     0.066 H 
ATOM     57  N   UNL     1     -44.162  44.547  24.995  1.00  0.00    -0.270 N 
ATOM     58  H   UNL     1     -42.288  44.657  23.965  1.00  0.00     0.084 H 
BRANCH  57  59
ATOM     59  C   UNL     1     -44.792  45.790  24.589  1.00  0.00     0.064 C 
ATOM     60  H   UNL     1     -45.134  45.662  23.556  1.00  0.00     0.054 H 
ATOM     61  H   UNL     1     -44.013  46.561  24.606  1.00  0.00     0.054 H 
BRANCH  59  62
ATOM     62  C   UNL     1     -45.940  46.169  25.515  1.00  0.00     0.066 C 
ATOM     63  H   UNL     1     -46.160  45.324  26.177  1.00  0.00     0.059 H 
ATOM     64  H   UNL     1     -46.845  46.420  24.947  1.00  0.00     0.059 H 
BRANCH  62  65
ATOM     65  O   UNL     1     -45.548  47.281  26.328  1.00  0.00    -0.383 OA
BRANCH  65  66
ATOM     66  C   UNL     1     -45.268  46.879  27.664  1.00  0.00     0.036 C 
ATOM     67  H   UNL     1     -46.000  47.308  28.354  1.00  0.00     0.053 H 
ATOM     68  H   UNL     1     -44.256  47.180  27.949  1.00  0.00     0.053 H 
ATOM     69  H   UNL     1     -45.336  45.788  27.715  1.00  0.00     0.053 H 
ENDBRANCH  65  66
ENDBRANCH  62  65
ENDBRANCH  59  62
ENDBRANCH  57  59
ENDBRANCH   3  52
BRANCH   5  70
ATOM     70  N   UNL     1     -41.868  42.740  28.641  1.00  0.00    -0.383 N 
ATOM     71  H   UNL     1     -42.267  43.244  27.857  1.00  0.00     0.158 HD
ATOM     72  H   UNL     1     -40.862  42.633  28.616  1.00  0.00     0.158 HD
ENDBRANCH   5  70
TORSDOF 14
ENDMDL
MODEL 7
REMARK VINA RESULT:      -8.7      2.220      3.149
REMARK SMILES CCc1cc(NC)c2ccc(OCc3cncc(-n4cc(-c5ccn(CCOC)n5)c5c(N)ncnc54)c3)cc2n1
REMARK SMILES IDX 19 1 20 2 21 3 31 4 32 5 34 6 35 7 36 8 37 9 18 12 14 13
REMARK SMILES IDX 15 14 38 15 16 16 17 19 13 21 12 24 11 25 3 26 4 27 41 28
REMARK SMILES IDX 5 29 40 31 8 32 39 33 9 34 10 36 2 39 1 42 6 46 7 48 22 52
REMARK SMILES IDX 23 53 30 54 24 55 25 57 26 59 27 62 28 65 29 66 33 70
REMARK H PARENT 20 10 35 11 15 17 38 18 17 20 13 22 13 23 4 30 39 35 9 37
REMARK H PARENT 10 38 2 40 2 41 1 43 1 44 1 45 6 47 7 49 7 50 7 51 23 56 24 58
REMARK H PARENT 26 60 26 61 27 63 27 64 29 67 29 68 29 69 33 71 33 72
REMARK Flexibility Score: inf
ROOT
ATOM      1  N   UNL     1     -45.735  39.434  27.644  1.00  0.00    -0.299 N 
ATOM      2  C   UNL     1     -44.557  39.977  27.169  1.00  0.00     0.021 A 
ATOM      3  C   UNL     1     -44.824  41.183  26.555  1.00  0.00     0.033 A 
ATOM      4  C   UNL     1     -46.226  41.401  26.612  1.00  0.00     0.071 A 
ATOM      5  C   UNL     1     -47.140  42.368  26.157  1.00  0.00     0.137 A 
ATOM      6  N   UNL     1     -48.442  42.246  26.472  1.00  0.00    -0.219 NA
ATOM      7  C   UNL     1     -48.828  41.188  27.200  1.00  0.00     0.120 A 
ATOM      8  N   UNL     1     -48.062  40.188  27.647  1.00  0.00    -0.218 NA
ATOM      9  C   UNL     1     -46.763  40.322  27.316  1.00  0.00     0.150 A 
ATOM     10  H   UNL     1     -43.607  39.475  27.275  1.00  0.00     0.083 H 
ATOM     11  H   UNL     1     -49.883  41.134  27.448  1.00  0.00     0.106 H 
ENDROOT
BRANCH   1  12
ATOM     12  C   UNL     1     -45.842  38.200  28.355  1.00  0.00     0.066 A 
ATOM     13  C   UNL     1     -46.040  35.776  28.417  1.00  0.00     0.010 A 
ATOM     14  C   UNL     1     -46.144  35.880  29.798  1.00  0.00     0.034 A 
ATOM     15  C   UNL     1     -45.855  36.966  27.700  1.00  0.00    -0.028 A 
ATOM     16  N   UNL     1     -46.102  37.047  30.476  1.00  0.00    -0.262 NA
ATOM     17  H   UNL     1     -46.269  35.000  30.424  1.00  0.00     0.084 H 
ATOM     18  H   UNL     1     -45.708  36.902  26.626  1.00  0.00     0.065 H 
ATOM     19  C   UNL     1     -45.957  38.179  29.741  1.00  0.00     0.051 A 
ATOM     20  H   UNL     1     -45.969  39.079  30.346  1.00  0.00     0.086 H 
BRANCH  13  21
ATOM     21  C   UNL     1     -46.087  34.415  27.762  1.00  0.00     0.115 C 
ATOM     22  H   UNL     1     -45.350  34.422  26.949  1.00  0.00     0.076 H 
ATOM     23  H   UNL     1     -45.773  33.624  28.452  1.00  0.00     0.076 H 
BRANCH  21  24
ATOM     24  O   UNL     1     -47.338  34.076  27.151  1.00  0.00    -0.489 OA
BRANCH  24  25
ATOM     25  C   UNL     1     -47.325  33.282  26.036  1.00  0.00     0.122 A 
ATOM     26  C   UNL     1     -50.030  30.274  23.546  1.00  0.00     0.043 A 
ATOM     27  C   UNL     1     -49.006  29.959  22.661  1.00  0.00    -0.017 A 
ATOM     28  N   UNL     1     -49.862  31.124  24.580  1.00  0.00    -0.253 NA
ATOM     29  C   UNL     1     -47.738  30.520  22.837  1.00  0.00     0.045 A 
ATOM     30  H   UNL     1     -49.213  29.266  21.855  1.00  0.00     0.066 H 
ATOM     31  C   UNL     1     -48.671  31.724  24.729  1.00  0.00     0.076 A 
ATOM     32  C   UNL     1     -47.571  31.474  23.880  1.00  0.00     0.024 A 
ATOM     33  C   UNL     1     -48.528  32.622  25.776  1.00  0.00     0.007 A 
ATOM     34  C   UNL     1     -46.371  32.190  24.120  1.00  0.00    -0.047 A 
ATOM     35  H   UNL     1     -49.377  32.794  26.434  1.00  0.00     0.069 H 
ATOM     36  C   UNL     1     -46.246  33.080  25.190  1.00  0.00    -0.019 A 
ATOM     37  H   UNL     1     -45.513  32.060  23.466  1.00  0.00     0.063 H 
ATOM     38  H   UNL     1     -45.299  33.587  25.327  1.00  0.00     0.066 H 
BRANCH  26  39
ATOM     39  C   UNL     1     -51.389  29.638  23.403  1.00  0.00    -0.013 C 
ATOM     40  H   UNL     1     -51.477  28.815  24.121  1.00  0.00     0.033 H 
ATOM     41  H   UNL     1     -52.169  30.363  23.661  1.00  0.00     0.033 H 
BRANCH  39  42
ATOM     42  C   UNL     1     -51.610  29.108  21.995  1.00  0.00    -0.060 C 
ATOM     43  H   UNL     1     -52.265  29.784  21.435  1.00  0.00     0.023 H 
ATOM     44  H   UNL     1     -52.082  28.119  22.014  1.00  0.00     0.023 H 
ATOM     45  H   UNL     1     -50.665  29.019  21.450  1.00  0.00     0.023 H 
ENDBRANCH  39  42
ENDBRANCH  26  39
BRANCH  29  46
ATOM     46  N   UNL     1     -46.673  30.246  21.952  1.00  0.00    -0.388 N 
ATOM     47  H   UNL     1     -46.327  31.106  21.534  1.00  0.00     0.160 HD
BRANCH  46  48
ATOM     48  C   UNL     1     -45.582  29.381  22.371  1.00  0.00     0.003 C 
ATOM     49  H   UNL     1     -45.139  28.856  21.518  1.00  0.00     0.045 H 
ATOM     50  H   UNL     1     -44.810  29.943  22.906  1.00  0.00     0.045 H 
ATOM     51  H   UNL     1     -45.970  28.626  23.062  1.00  0.00     0.045 H 
ENDBRANCH  46  48
ENDBRANCH  29  46
ENDBRANCH  24  25
ENDBRANCH  21  24
ENDBRANCH  13  21
ENDBRANCH   1  12
BRANCH   3  52
ATOM     52  C   UNL     1     -43.816  42.053  25.957  1.00  0.00     0.095 A 
ATOM     53  C   UNL     1     -42.597  42.431  26.560  1.00  0.00    -0.016 A 
ATOM     54  N   UNL     1     -43.932  42.535  24.714  1.00  0.00    -0.173 NA
ATOM     55  C   UNL     1     -41.968  43.212  25.619  1.00  0.00     0.026 A 
ATOM     56  H   UNL     1     -42.223  42.165  27.539  1.00  0.00     0.066 H 
ATOM     57  N   UNL     1     -42.797  43.241  24.537  1.00  0.00    -0.270 N 
ATOM     58  H   UNL     1     -41.013  43.719  25.620  1.00  0.00     0.084 H 
BRANCH  57  59
ATOM     59  C   UNL     1     -42.578  43.945  23.287  1.00  0.00     0.064 C 
ATOM     60  H   UNL     1     -42.572  43.197  22.486  1.00  0.00     0.054 H 
ATOM     61  H   UNL     1     -41.583  44.400  23.348  1.00  0.00     0.054 H 
BRANCH  59  62
ATOM     62  C   UNL     1     -43.639  45.011  23.047  1.00  0.00     0.066 C 
ATOM     63  H   UNL     1     -43.517  45.811  23.786  1.00  0.00     0.059 H 
ATOM     64  H   UNL     1     -44.651  44.595  23.139  1.00  0.00     0.059 H 
BRANCH  62  65
ATOM     65  O   UNL     1     -43.460  45.577  21.744  1.00  0.00    -0.383 OA
BRANCH  65  66
ATOM     66  C   UNL     1     -42.363  44.982  21.062  1.00  0.00     0.036 C 
ATOM     67  H   UNL     1     -42.586  43.940  20.815  1.00  0.00     0.053 H 
ATOM     68  H   UNL     1     -41.457  45.041  21.671  1.00  0.00     0.053 H 
ATOM     69  H   UNL     1     -42.196  45.533  20.133  1.00  0.00     0.053 H 
ENDBRANCH  65  66
ENDBRANCH  62  65
ENDBRANCH  59  62
ENDBRANCH  57  59
ENDBRANCH   3  52
BRANCH   5  70
ATOM     70  N   UNL     1     -46.808  43.457  25.359  1.00  0.00    -0.383 N 
ATOM     71  H   UNL     1     -46.009  43.219  24.782  1.00  0.00     0.158 HD
ATOM     72  H   UNL     1     -46.724  44.327  25.871  1.00  0.00     0.158 HD
ENDBRANCH   5  70
TORSDOF 14
ENDMDL
