MODEL 1
REMARK VINA RESULT:     -10.3      0.000      0.000
REMARK SMILES CNc1ccc2ccc(OC[C@H]3O[C@@H](n4cc(C5CCC(F)(F)CC5)c5c(N)ncnc54)[C@H](O)[C@@H]3O)cc2n1
REMARK SMILES IDX 11 1 10 4 9 5 3 6 4 7 39 8 5 9 38 11 6 12 37 14 7 15 8 17
REMARK SMILES IDX 2 20 1 22 12 26 13 27 35 28 14 30 33 31 36 35 15 37 16 38
REMARK SMILES IDX 32 39 17 40 26 42 31 43 27 44 30 45 29 46 18 48 19 49 25 50
REMARK SMILES IDX 20 52 24 55 21 58 22 63 23 64 28 65 34 68
REMARK H PARENT 11 2 11 3 4 10 5 13 37 16 7 18 8 19 2 21 1 23 1 24 1 25 12 29
REMARK H PARENT 35 32 14 33 33 34 36 36 16 41 30 47 18 51 19 53 19 54 25 56
REMARK H PARENT 25 57 20 59 20 60 24 61 24 62 28 66 28 67 34 69
REMARK Flexibility Score: inf
ROOT
ATOM      1  C   UNL     1     -46.959  36.472  27.113  1.00  0.00     0.117 C 
ATOM      2  H   UNL     1     -48.018  36.315  27.352  1.00  0.00     0.073 H 
ATOM      3  H   UNL     1     -46.857  37.534  26.860  1.00  0.00     0.073 H 
ENDROOT
BRANCH   1   4
ATOM      4  O   UNL     1     -46.580  35.766  25.926  1.00  0.00    -0.491 OA
BRANCH   4   5
ATOM      5  C   UNL     1     -47.083  34.514  25.715  1.00  0.00     0.121 A 
ATOM      6  C   UNL     1     -47.114  30.144  23.829  1.00  0.00     0.126 A 
ATOM      7  C   UNL     1     -48.298  29.818  24.482  1.00  0.00    -0.019 A 
ATOM      8  N   UNL     1     -46.532  31.350  23.982  1.00  0.00    -0.231 NA
ATOM      9  C   UNL     1     -48.913  30.765  25.294  1.00  0.00    -0.049 A 
ATOM     10  H   UNL     1     -48.734  28.831  24.370  1.00  0.00     0.066 H 
ATOM     11  C   UNL     1     -47.121  32.272  24.766  1.00  0.00     0.076 A 
ATOM     12  C   UNL     1     -48.327  32.022  25.448  1.00  0.00     0.001 A 
ATOM     13  H   UNL     1     -49.839  30.512  25.803  1.00  0.00     0.063 H 
ATOM     14  C   UNL     1     -46.521  33.517  24.913  1.00  0.00     0.007 A 
ATOM     15  C   UNL     1     -48.904  33.016  26.251  1.00  0.00    -0.049 A 
ATOM     16  H   UNL     1     -45.600  33.677  24.365  1.00  0.00     0.069 H 
ATOM     17  C   UNL     1     -48.281  34.256  26.378  1.00  0.00    -0.019 A 
ATOM     18  H   UNL     1     -49.836  32.833  26.779  1.00  0.00     0.063 H 
ATOM     19  H   UNL     1     -48.731  35.025  27.001  1.00  0.00     0.066 H 
BRANCH   6  20
ATOM     20  N   UNL     1     -46.508  29.152  23.036  1.00  0.00    -0.373 N 
ATOM     21  H   UNL     1     -47.200  28.779  22.393  1.00  0.00     0.161 HD
BRANCH  20  22
ATOM     22  C   UNL     1     -45.311  29.597  22.339  1.00  0.00     0.005 C 
ATOM     23  H   UNL     1     -44.671  30.206  22.988  1.00  0.00     0.045 H 
ATOM     24  H   UNL     1     -44.729  28.719  22.039  1.00  0.00     0.045 H 
ATOM     25  H   UNL     1     -45.557  30.157  21.431  1.00  0.00     0.045 H 
ENDBRANCH  20  22
ENDBRANCH   6  20
ENDBRANCH   4   5
ENDBRANCH   1   4
BRANCH   1  26
ATOM     26  C   UNL     1     -46.030  36.134  28.289  1.00  0.00     0.123 C 
ATOM     27  O   UNL     1     -44.823  36.930  28.178  1.00  0.00    -0.345 OA
ATOM     28  C   UNL     1     -46.658  36.496  29.631  1.00  0.00     0.114 C 
ATOM     29  H   UNL     1     -45.717  35.085  28.254  1.00  0.00     0.067 H 
ATOM     30  C   UNL     1     -44.839  37.943  29.206  1.00  0.00     0.164 C 
ATOM     31  C   UNL     1     -46.244  37.942  29.817  1.00  0.00     0.128 C 
ATOM     32  H   UNL     1     -47.740  36.344  29.675  1.00  0.00     0.066 H 
ATOM     33  H   UNL     1     -44.061  37.701  29.941  1.00  0.00     0.088 H 
ATOM     34  H   UNL     1     -46.923  38.606  29.268  1.00  0.00     0.068 H 
BRANCH  28  35
ATOM     35  O   UNL     1     -46.079  35.703  30.678  1.00  0.00    -0.387 OA
ATOM     36  H   UNL     1     -45.674  34.934  30.223  1.00  0.00     0.211 HD
ENDBRANCH  28  35
BRANCH  30  37
ATOM     37  N   UNL     1     -44.482  39.237  28.628  1.00  0.00    -0.303 N 
ATOM     38  C   UNL     1     -45.134  39.898  27.621  1.00  0.00     0.013 A 
ATOM     39  C   UNL     1     -43.412  39.989  29.043  1.00  0.00     0.147 A 
ATOM     40  C   UNL     1     -44.479  41.093  27.365  1.00  0.00    -0.014 A 
ATOM     41  H   UNL     1     -46.017  39.471  27.159  1.00  0.00     0.082 H 
ATOM     42  C   UNL     1     -43.353  41.144  28.267  1.00  0.00     0.065 A 
ATOM     43  N   UNL     1     -42.583  39.641  30.045  1.00  0.00    -0.218 NA
ATOM     44  C   UNL     1     -42.286  42.016  28.559  1.00  0.00     0.136 A 
ATOM     45  C   UNL     1     -41.617  40.556  30.226  1.00  0.00     0.120 A 
ATOM     46  N   UNL     1     -41.428  41.699  29.549  1.00  0.00    -0.219 NA
ATOM     47  H   UNL     1     -40.901  40.349  31.015  1.00  0.00     0.106 H 
BRANCH  40  48
ATOM     48  C   UNL     1     -44.950  42.087  26.332  1.00  0.00    -0.013 C 
ATOM     49  C   UNL     1     -44.917  43.538  26.830  1.00  0.00    -0.041 C 
ATOM     50  C   UNL     1     -44.260  41.899  24.967  1.00  0.00    -0.041 C 
ATOM     51  H   UNL     1     -46.016  41.868  26.158  1.00  0.00     0.035 H 
ATOM     52  C   UNL     1     -45.522  44.524  25.825  1.00  0.00     0.012 C 
ATOM     53  H   UNL     1     -43.886  43.848  27.028  1.00  0.00     0.027 H 
ATOM     54  H   UNL     1     -45.444  43.630  27.788  1.00  0.00     0.027 H 
ATOM     55  C   UNL     1     -44.192  43.183  24.137  1.00  0.00     0.012 C 
ATOM     56  H   UNL     1     -44.823  41.142  24.404  1.00  0.00     0.027 H 
ATOM     57  H   UNL     1     -43.251  41.482  25.063  1.00  0.00     0.027 H 
ATOM     58  C   UNL     1     -45.402  44.064  24.380  1.00  0.00     0.248 C 
ATOM     59  H   UNL     1     -46.584  44.668  26.060  1.00  0.00     0.033 H 
ATOM     60  H   UNL     1     -45.043  45.501  25.953  1.00  0.00     0.033 H 
ATOM     61  H   UNL     1     -43.280  43.741  24.380  1.00  0.00     0.033 H 
ATOM     62  H   UNL     1     -44.120  42.926  23.074  1.00  0.00     0.033 H 
ATOM     63  F   UNL     1     -46.520  43.368  24.039  1.00  0.00    -0.207 F 
ATOM     64  F   UNL     1     -45.360  45.143  23.562  1.00  0.00    -0.207 F 
ENDBRANCH  40  48
BRANCH  44  65
ATOM     65  N   UNL     1     -42.005  43.200  27.888  1.00  0.00    -0.383 N 
ATOM     66  H   UNL     1     -42.683  43.324  27.143  1.00  0.00     0.158 HD
ATOM     67  H   UNL     1     -41.902  43.997  28.497  1.00  0.00     0.158 HD
ENDBRANCH  44  65
ENDBRANCH  30  37
BRANCH  31  68
ATOM     68  O   UNL     1     -46.290  38.288  31.204  1.00  0.00    -0.386 OA
ATOM     69  H   UNL     1     -47.034  37.772  31.589  1.00  0.00     0.211 HD
ENDBRANCH  31  68
ENDBRANCH   1  26
TORSDOF 10
ENDMDL
MODEL 2
REMARK VINA RESULT:      -9.3      2.621      3.934
REMARK SMILES CNc1ccc2ccc(OC[C@H]3O[C@@H](n4cc(C5CCC(F)(F)CC5)c5c(N)ncnc54)[C@H](O)[C@@H]3O)cc2n1
REMARK SMILES IDX 11 1 10 4 9 5 3 6 4 7 39 8 5 9 38 11 6 12 37 14 7 15 8 17
REMARK SMILES IDX 2 20 1 22 12 26 13 27 35 28 14 30 33 31 36 35 15 37 16 38
REMARK SMILES IDX 32 39 17 40 26 42 31 43 27 44 30 45 29 46 18 48 19 49 25 50
REMARK SMILES IDX 20 52 24 55 21 58 22 63 23 64 28 65 34 68
REMARK H PARENT 11 2 11 3 4 10 5 13 37 16 7 18 8 19 2 21 1 23 1 24 1 25 12 29
REMARK H PARENT 35 32 14 33 33 34 36 36 16 41 30 47 18 51 19 53 19 54 25 56
REMARK H PARENT 25 57 20 59 20 60 24 61 24 62 28 66 28 67 34 69
REMARK Flexibility Score: inf
ROOT
ATOM      1  C   UNL     1     -47.892  34.244  26.179  1.00  0.00     0.117 C 
ATOM      2  H   UNL     1     -48.298  35.248  26.348  1.00  0.00     0.073 H 
ATOM      3  H   UNL     1     -47.812  34.126  25.092  1.00  0.00     0.073 H 
ENDROOT
BRANCH   1   4
ATOM      4  O   UNL     1     -48.811  33.230  26.600  1.00  0.00    -0.491 OA
BRANCH   4   5
ATOM      5  C   UNL     1     -48.969  32.119  25.821  1.00  0.00     0.121 A 
ATOM      6  C   UNL     1     -48.460  27.516  24.721  1.00  0.00     0.126 A 
ATOM      7  C   UNL     1     -49.157  27.674  23.528  1.00  0.00    -0.019 A 
ATOM      8  N   UNL     1     -48.260  28.549  25.564  1.00  0.00    -0.231 NA
ATOM      9  C   UNL     1     -49.641  28.931  23.181  1.00  0.00    -0.049 A 
ATOM     10  H   UNL     1     -49.334  26.824  22.877  1.00  0.00     0.066 H 
ATOM     11  C   UNL     1     -48.725  29.769  25.235  1.00  0.00     0.076 A 
ATOM     12  C   UNL     1     -49.427  30.010  24.039  1.00  0.00     0.001 A 
ATOM     13  H   UNL     1     -50.185  29.056  22.248  1.00  0.00     0.063 H 
ATOM     14  C   UNL     1     -48.508  30.831  26.104  1.00  0.00     0.007 A 
ATOM     15  C   UNL     1     -49.890  31.299  23.740  1.00  0.00    -0.049 A 
ATOM     16  H   UNL     1     -47.955  30.610  27.010  1.00  0.00     0.069 H 
ATOM     17  C   UNL     1     -49.657  32.346  24.630  1.00  0.00    -0.019 A 
ATOM     18  H   UNL     1     -50.431  31.497  22.818  1.00  0.00     0.063 H 
ATOM     19  H   UNL     1     -50.016  33.345  24.394  1.00  0.00     0.066 H 
BRANCH   6  20
ATOM     20  N   UNL     1     -48.006  26.226  25.050  1.00  0.00    -0.373 N 
ATOM     21  H   UNL     1     -48.233  25.595  24.287  1.00  0.00     0.161 HD
BRANCH  20  22
ATOM     22  C   UNL     1     -46.596  26.162  25.400  1.00  0.00     0.005 C 
ATOM     23  H   UNL     1     -46.038  27.005  24.976  1.00  0.00     0.045 H 
ATOM     24  H   UNL     1     -46.498  26.222  26.489  1.00  0.00     0.045 H 
ATOM     25  H   UNL     1     -46.142  25.219  25.078  1.00  0.00     0.045 H 
ENDBRANCH  20  22
ENDBRANCH   6  20
ENDBRANCH   4   5
ENDBRANCH   1   4
BRANCH   1  26
ATOM     26  C   UNL     1     -46.508  34.050  26.818  1.00  0.00     0.123 C 
ATOM     27  O   UNL     1     -45.743  35.271  26.662  1.00  0.00    -0.345 OA
ATOM     28  C   UNL     1     -46.606  33.795  28.318  1.00  0.00     0.114 C 
ATOM     29  H   UNL     1     -45.946  33.262  26.305  1.00  0.00     0.067 H 
ATOM     30  C   UNL     1     -45.630  35.916  27.948  1.00  0.00     0.164 C 
ATOM     31  C   UNL     1     -46.593  35.196  28.898  1.00  0.00     0.128 C 
ATOM     32  H   UNL     1     -47.478  33.208  28.617  1.00  0.00     0.066 H 
ATOM     33  H   UNL     1     -44.586  35.848  28.277  1.00  0.00     0.088 H 
ATOM     34  H   UNL     1     -47.598  35.632  28.859  1.00  0.00     0.068 H 
BRANCH  28  35
ATOM     35  O   UNL     1     -45.444  33.087  28.776  1.00  0.00    -0.387 OA
ATOM     36  H   UNL     1     -44.989  33.707  29.384  1.00  0.00     0.211 HD
ENDBRANCH  28  35
BRANCH  30  37
ATOM     37  N   UNL     1     -45.936  37.338  27.815  1.00  0.00    -0.303 N 
ATOM     38  C   UNL     1     -45.048  38.357  27.597  1.00  0.00     0.013 A 
ATOM     39  C   UNL     1     -47.206  37.854  27.884  1.00  0.00     0.147 A 
ATOM     40  C   UNL     1     -45.740  39.557  27.533  1.00  0.00    -0.014 A 
ATOM     41  H   UNL     1     -43.986  38.155  27.504  1.00  0.00     0.082 H 
ATOM     42  C   UNL     1     -47.132  39.238  27.740  1.00  0.00     0.065 A 
ATOM     43  N   UNL     1     -48.319  37.114  28.054  1.00  0.00    -0.218 NA
ATOM     44  C   UNL     1     -48.362  39.921  27.812  1.00  0.00     0.136 A 
ATOM     45  C   UNL     1     -49.419  37.882  28.099  1.00  0.00     0.120 A 
ATOM     46  N   UNL     1     -49.498  39.217  27.991  1.00  0.00    -0.219 NA
ATOM     47  H   UNL     1     -50.362  37.362  28.239  1.00  0.00     0.106 H 
BRANCH  40  48
ATOM     48  C   UNL     1     -45.069  40.883  27.271  1.00  0.00    -0.013 C 
ATOM     49  C   UNL     1     -43.580  40.889  27.641  1.00  0.00    -0.041 C 
ATOM     50  C   UNL     1     -45.344  41.420  25.854  1.00  0.00    -0.041 C 
ATOM     51  H   UNL     1     -45.537  41.605  27.959  1.00  0.00     0.035 H 
ATOM     52  C   UNL     1     -42.940  42.274  27.500  1.00  0.00     0.012 C 
ATOM     53  H   UNL     1     -43.027  40.195  27.001  1.00  0.00     0.027 H 
ATOM     54  H   UNL     1     -43.434  40.527  28.666  1.00  0.00     0.027 H 
ATOM     55  C   UNL     1     -44.243  42.344  25.329  1.00  0.00     0.012 C 
ATOM     56  H   UNL     1     -46.291  41.977  25.880  1.00  0.00     0.027 H 
ATOM     57  H   UNL     1     -45.512  40.618  25.128  1.00  0.00     0.027 H 
ATOM     58  C   UNL     1     -43.611  43.146  26.450  1.00  0.00     0.248 C 
ATOM     59  H   UNL     1     -42.986  42.791  28.467  1.00  0.00     0.033 H 
ATOM     60  H   UNL     1     -41.875  42.152  27.267  1.00  0.00     0.033 H 
ATOM     61  H   UNL     1     -43.469  41.757  24.820  1.00  0.00     0.033 H 
ATOM     62  H   UNL     1     -44.663  43.018  24.574  1.00  0.00     0.033 H 
ATOM     63  F   UNL     1     -44.578  43.895  27.046  1.00  0.00    -0.207 F 
ATOM     64  F   UNL     1     -42.710  44.022  25.943  1.00  0.00    -0.207 F 
ENDBRANCH  40  48
BRANCH  44  65
ATOM     65  N   UNL     1     -48.525  41.299  27.739  1.00  0.00    -0.383 N 
ATOM     66  H   UNL     1     -49.513  41.517  27.820  1.00  0.00     0.158 HD
ATOM     67  H   UNL     1     -47.930  41.813  28.369  1.00  0.00     0.158 HD
ENDBRANCH  44  65
ENDBRANCH  30  37
BRANCH  31  68
ATOM     68  O   UNL     1     -46.165  35.155  30.262  1.00  0.00    -0.386 OA
ATOM     69  H   UNL     1     -46.974  34.994  30.796  1.00  0.00     0.211 HD
ENDBRANCH  31  68
ENDBRANCH   1  26
TORSDOF 10
ENDMDL
MODEL 3
REMARK VINA RESULT:      -9.2      2.133      3.227
REMARK SMILES CNc1ccc2ccc(OC[C@H]3O[C@@H](n4cc(C5CCC(F)(F)CC5)c5c(N)ncnc54)[C@H](O)[C@@H]3O)cc2n1
REMARK SMILES IDX 11 1 10 4 9 5 3 6 4 7 39 8 5 9 38 11 6 12 37 14 7 15 8 17
REMARK SMILES IDX 2 20 1 22 12 26 13 27 35 28 14 30 33 31 36 35 15 37 16 38
REMARK SMILES IDX 32 39 17 40 26 42 31 43 27 44 30 45 29 46 18 48 19 49 25 50
REMARK SMILES IDX 20 52 24 55 21 58 22 63 23 64 28 65 34 68
REMARK H PARENT 11 2 11 3 4 10 5 13 37 16 7 18 8 19 2 21 1 23 1 24 1 25 12 29
REMARK H PARENT 35 32 14 33 33 34 36 36 16 41 30 47 18 51 19 53 19 54 25 56
REMARK H PARENT 25 57 20 59 20 60 24 61 24 62 28 66 28 67 34 69
REMARK Flexibility Score: inf
ROOT
ATOM      1  C   UNL     1     -47.564  35.854  27.229  1.00  0.00     0.117 C 
ATOM      2  H   UNL     1     -48.228  36.710  27.403  1.00  0.00     0.073 H 
ATOM      3  H   UNL     1     -47.228  35.936  26.189  1.00  0.00     0.073 H 
ENDROOT
BRANCH   1   4
ATOM      4  O   UNL     1     -48.279  34.615  27.296  1.00  0.00    -0.491 OA
BRANCH   4   5
ATOM      5  C   UNL     1     -47.948  33.615  26.426  1.00  0.00     0.121 A 
ATOM      6  C   UNL     1     -48.421  29.338  24.394  1.00  0.00     0.126 A 
ATOM      7  C   UNL     1     -47.340  29.565  23.550  1.00  0.00    -0.019 A 
ATOM      8  N   UNL     1     -48.833  30.267  25.281  1.00  0.00    -0.231 NA
ATOM      9  C   UNL     1     -46.649  30.769  23.634  1.00  0.00    -0.049 A 
ATOM     10  H   UNL     1     -47.043  28.817  22.822  1.00  0.00     0.066 H 
ATOM     11  C   UNL     1     -48.170  31.434  25.369  1.00  0.00     0.076 A 
ATOM     12  C   UNL     1     -47.058  31.732  24.558  1.00  0.00     0.001 A 
ATOM     13  H   UNL     1     -45.804  30.948  22.975  1.00  0.00     0.063 H 
ATOM     14  C   UNL     1     -48.593  32.384  26.290  1.00  0.00     0.007 A 
ATOM     15  C   UNL     1     -46.398  32.962  24.689  1.00  0.00    -0.049 A 
ATOM     16  H   UNL     1     -49.446  32.116  26.904  1.00  0.00     0.069 H 
ATOM     17  C   UNL     1     -46.844  33.895  25.623  1.00  0.00    -0.019 A 
ATOM     18  H   UNL     1     -45.537  33.201  24.069  1.00  0.00     0.063 H 
ATOM     19  H   UNL     1     -46.329  34.848  25.723  1.00  0.00     0.066 H 
BRANCH   6  20
ATOM     20  N   UNL     1     -49.111  28.118  24.263  1.00  0.00    -0.373 N 
ATOM     21  H   UNL     1     -48.544  27.478  23.715  1.00  0.00     0.161 HD
BRANCH  20  22
ATOM     22  C   UNL     1     -49.519  27.527  25.528  1.00  0.00     0.005 C 
ATOM     23  H   UNL     1     -49.709  28.293  26.288  1.00  0.00     0.045 H 
ATOM     24  H   UNL     1     -50.455  26.979  25.378  1.00  0.00     0.045 H 
ATOM     25  H   UNL     1     -48.775  26.814  25.900  1.00  0.00     0.045 H 
ENDBRANCH  20  22
ENDBRANCH   6  20
ENDBRANCH   4   5
ENDBRANCH   1   4
BRANCH   1  26
ATOM     26  C   UNL     1     -46.344  35.852  28.163  1.00  0.00     0.123 C 
ATOM     27  O   UNL     1     -45.410  36.867  27.718  1.00  0.00    -0.345 OA
ATOM     28  C   UNL     1     -46.723  36.218  29.594  1.00  0.00     0.114 C 
ATOM     29  H   UNL     1     -45.813  34.895  28.113  1.00  0.00     0.067 H 
ATOM     30  C   UNL     1     -45.429  37.961  28.659  1.00  0.00     0.164 C 
ATOM     31  C   UNL     1     -46.623  37.731  29.592  1.00  0.00     0.128 C 
ATOM     32  H   UNL     1     -47.702  35.847  29.907  1.00  0.00     0.066 H 
ATOM     33  H   UNL     1     -44.473  37.970  29.196  1.00  0.00     0.088 H 
ATOM     34  H   UNL     1     -47.542  38.171  29.186  1.00  0.00     0.068 H 
BRANCH  28  35
ATOM     35  O   UNL     1     -45.758  35.685  30.512  1.00  0.00    -0.387 OA
ATOM     36  H   UNL     1     -45.753  36.309  31.269  1.00  0.00     0.211 HD
ENDBRANCH  28  35
BRANCH  30  37
ATOM     37  N   UNL     1     -45.519  39.229  27.939  1.00  0.00    -0.303 N 
ATOM     38  C   UNL     1     -44.486  39.948  27.402  1.00  0.00     0.013 A 
ATOM     39  C   UNL     1     -46.701  39.883  27.691  1.00  0.00     0.147 A 
ATOM     40  C   UNL     1     -44.992  41.092  26.803  1.00  0.00    -0.014 A 
ATOM     41  H   UNL     1     -43.464  39.595  27.485  1.00  0.00     0.082 H 
ATOM     42  C   UNL     1     -46.420  41.063  27.008  1.00  0.00     0.065 A 
ATOM     43  N   UNL     1     -47.913  39.424  28.055  1.00  0.00    -0.218 NA
ATOM     44  C   UNL     1     -47.537  41.864  26.699  1.00  0.00     0.136 A 
ATOM     45  C   UNL     1     -48.889  40.273  27.696  1.00  0.00     0.120 A 
ATOM     46  N   UNL     1     -48.768  41.444  27.053  1.00  0.00    -0.219 NA
ATOM     47  H   UNL     1     -49.902  39.979  27.958  1.00  0.00     0.106 H 
BRANCH  40  48
ATOM     48  C   UNL     1     -44.126  42.099  26.084  1.00  0.00    -0.013 C 
ATOM     49  C   UNL     1     -42.625  41.861  26.292  1.00  0.00    -0.041 C 
ATOM     50  C   UNL     1     -44.515  42.267  24.603  1.00  0.00    -0.041 C 
ATOM     51  H   UNL     1     -44.330  43.072  26.558  1.00  0.00     0.035 H 
ATOM     52  C   UNL     1     -41.759  42.963  25.672  1.00  0.00     0.012 C 
ATOM     53  H   UNL     1     -42.327  40.907  25.847  1.00  0.00     0.027 H 
ATOM     54  H   UNL     1     -42.390  41.776  27.360  1.00  0.00     0.027 H 
ATOM     55  C   UNL     1     -43.354  42.725  23.718  1.00  0.00     0.012 C 
ATOM     56  H   UNL     1     -45.320  43.013  24.546  1.00  0.00     0.027 H 
ATOM     57  H   UNL     1     -44.949  41.356  24.179  1.00  0.00     0.027 H 
ATOM     58  C   UNL     1     -42.408  43.638  24.473  1.00  0.00     0.248 C 
ATOM     59  H   UNL     1     -41.550  43.725  26.433  1.00  0.00     0.033 H 
ATOM     60  H   UNL     1     -40.790  42.536  25.388  1.00  0.00     0.033 H 
ATOM     61  H   UNL     1     -42.800  41.856  23.343  1.00  0.00     0.033 H 
ATOM     62  H   UNL     1     -43.750  43.240  22.835  1.00  0.00     0.033 H 
ATOM     63  F   UNL     1     -43.104  44.727  24.898  1.00  0.00    -0.207 F 
ATOM     64  F   UNL     1     -41.447  44.103  23.639  1.00  0.00    -0.207 F 
ENDBRANCH  40  48
BRANCH  44  65
ATOM     65  N   UNL     1     -47.493  43.099  26.063  1.00  0.00    -0.383 N 
ATOM     66  H   UNL     1     -47.048  42.985  25.157  1.00  0.00     0.158 HD
ATOM     67  H   UNL     1     -48.381  43.574  26.036  1.00  0.00     0.158 HD
ENDBRANCH  44  65
ENDBRANCH  30  37
BRANCH  31  68
ATOM     68  O   UNL     1     -46.438  38.209  30.926  1.00  0.00    -0.386 OA
ATOM     69  H   UNL     1     -47.135  38.887  31.071  1.00  0.00     0.211 HD
ENDBRANCH  31  68
ENDBRANCH   1  26
TORSDOF 10
ENDMDL
MODEL 4
REMARK VINA RESULT:      -9.1      5.130      8.604
REMARK SMILES CNc1ccc2ccc(OC[C@H]3O[C@@H](n4cc(C5CCC(F)(F)CC5)c5c(N)ncnc54)[C@H](O)[C@@H]3O)cc2n1
REMARK SMILES IDX 11 1 10 4 9 5 3 6 4 7 39 8 5 9 38 11 6 12 37 14 7 15 8 17
REMARK SMILES IDX 2 20 1 22 12 26 13 27 35 28 14 30 33 31 36 35 15 37 16 38
REMARK SMILES IDX 32 39 17 40 26 42 31 43 27 44 30 45 29 46 18 48 19 49 25 50
REMARK SMILES IDX 20 52 24 55 21 58 22 63 23 64 28 65 34 68
REMARK H PARENT 11 2 11 3 4 10 5 13 37 16 7 18 8 19 2 21 1 23 1 24 1 25 12 29
REMARK H PARENT 35 32 14 33 33 34 36 36 16 41 30 47 18 51 19 53 19 54 25 56
REMARK H PARENT 25 57 20 59 20 60 24 61 24 62 28 66 28 67 34 69
REMARK Flexibility Score: inf
ROOT
ATOM      1  C   UNL     1     -45.261  45.111  26.720  1.00  0.00     0.117 C 
ATOM      2  H   UNL     1     -45.561  44.329  27.428  1.00  0.00     0.073 H 
ATOM      3  H   UNL     1     -45.099  46.017  27.316  1.00  0.00     0.073 H 
ENDROOT
BRANCH   1   4
ATOM      4  O   UNL     1     -46.327  45.439  25.821  1.00  0.00    -0.491 OA
BRANCH   4   5
ATOM      5  C   UNL     1     -47.478  44.706  25.868  1.00  0.00     0.121 A 
ATOM      6  C   UNL     1     -50.481  41.508  27.713  1.00  0.00     0.126 A 
ATOM      7  C   UNL     1     -51.405  41.715  26.693  1.00  0.00    -0.019 A 
ATOM      8  N   UNL     1     -49.320  42.190  27.762  1.00  0.00    -0.231 NA
ATOM      9  C   UNL     1     -51.117  42.630  25.686  1.00  0.00    -0.049 A 
ATOM     10  H   UNL     1     -52.347  41.178  26.688  1.00  0.00     0.066 H 
ATOM     11  C   UNL     1     -49.033  43.077  26.791  1.00  0.00     0.076 A 
ATOM     12  C   UNL     1     -49.911  43.331  25.720  1.00  0.00     0.001 A 
ATOM     13  H   UNL     1     -51.837  42.791  24.889  1.00  0.00     0.063 H 
ATOM     14  C   UNL     1     -47.830  43.771  26.844  1.00  0.00     0.007 A 
ATOM     15  C   UNL     1     -49.567  44.263  24.731  1.00  0.00    -0.049 A 
ATOM     16  H   UNL     1     -47.176  43.542  27.677  1.00  0.00     0.069 H 
ATOM     17  C   UNL     1     -48.352  44.943  24.808  1.00  0.00    -0.019 A 
ATOM     18  H   UNL     1     -50.236  44.464  23.899  1.00  0.00     0.063 H 
ATOM     19  H   UNL     1     -48.088  45.664  24.039  1.00  0.00     0.066 H 
BRANCH   6  20
ATOM     20  N   UNL     1     -50.818  40.593  28.727  1.00  0.00    -0.373 N 
ATOM     21  H   UNL     1     -51.715  40.857  29.122  1.00  0.00     0.161 HD
BRANCH  20  22
ATOM     22  C   UNL     1     -50.806  39.202  28.301  1.00  0.00     0.005 C 
ATOM     23  H   UNL     1     -50.508  39.105  27.251  1.00  0.00     0.045 H 
ATOM     24  H   UNL     1     -50.071  38.654  28.899  1.00  0.00     0.045 H 
ATOM     25  H   UNL     1     -51.780  38.724  28.454  1.00  0.00     0.045 H 
ENDBRANCH  20  22
ENDBRANCH   6  20
ENDBRANCH   4   5
ENDBRANCH   1   4
BRANCH   1  26
ATOM     26  C   UNL     1     -43.972  44.760  25.960  1.00  0.00     0.123 C 
ATOM     27  O   UNL     1     -43.269  43.719  26.684  1.00  0.00    -0.345 OA
ATOM     28  C   UNL     1     -44.265  44.195  24.575  1.00  0.00     0.114 C 
ATOM     29  H   UNL     1     -43.297  45.621  25.916  1.00  0.00     0.067 H 
ATOM     30  C   UNL     1     -43.378  42.485  25.945  1.00  0.00     0.164 C 
ATOM     31  C   UNL     1     -44.420  42.711  24.844  1.00  0.00     0.128 C 
ATOM     32  H   UNL     1     -45.134  44.641  24.083  1.00  0.00     0.066 H 
ATOM     33  H   UNL     1     -42.390  42.235  25.542  1.00  0.00     0.088 H 
ATOM     34  H   UNL     1     -45.435  42.493  25.199  1.00  0.00     0.068 H 
BRANCH  28  35
ATOM     35  O   UNL     1     -43.139  44.400  23.709  1.00  0.00    -0.387 OA
ATOM     36  H   UNL     1     -42.565  43.616  23.845  1.00  0.00     0.211 HD
ENDBRANCH  28  35
BRANCH  30  37
ATOM     37  N   UNL     1     -43.749  41.400  26.850  1.00  0.00    -0.303 N 
ATOM     38  C   UNL     1     -44.775  40.508  26.692  1.00  0.00     0.013 A 
ATOM     39  C   UNL     1     -43.084  41.119  28.017  1.00  0.00     0.147 A 
ATOM     40  C   UNL     1     -44.791  39.637  27.771  1.00  0.00    -0.014 A 
ATOM     41  H   UNL     1     -45.422  40.556  25.822  1.00  0.00     0.082 H 
ATOM     42  C   UNL     1     -43.713  40.044  28.640  1.00  0.00     0.065 A 
ATOM     43  N   UNL     1     -41.999  41.788  28.453  1.00  0.00    -0.218 NA
ATOM     44  C   UNL     1     -43.157  39.648  29.872  1.00  0.00     0.136 A 
ATOM     45  C   UNL     1     -41.564  41.309  29.628  1.00  0.00     0.120 A 
ATOM     46  N   UNL     1     -42.075  40.298  30.347  1.00  0.00    -0.219 NA
ATOM     47  H   UNL     1     -40.692  41.798  30.053  1.00  0.00     0.106 H 
BRANCH  40  48
ATOM     48  C   UNL     1     -45.779  38.503  27.902  1.00  0.00    -0.013 C 
ATOM     49  C   UNL     1     -46.833  38.490  26.788  1.00  0.00    -0.041 C 
ATOM     50  C   UNL     1     -45.094  37.138  28.106  1.00  0.00    -0.041 C 
ATOM     51  H   UNL     1     -46.343  38.694  28.829  1.00  0.00     0.035 H 
ATOM     52  C   UNL     1     -47.909  37.420  27.003  1.00  0.00     0.012 C 
ATOM     53  H   UNL     1     -46.360  38.302  25.819  1.00  0.00     0.027 H 
ATOM     54  H   UNL     1     -47.314  39.471  26.698  1.00  0.00     0.027 H 
ATOM     55  C   UNL     1     -45.932  35.957  27.612  1.00  0.00     0.012 C 
ATOM     56  H   UNL     1     -44.902  37.011  29.181  1.00  0.00     0.027 H 
ATOM     57  H   UNL     1     -44.104  37.093  27.640  1.00  0.00     0.027 H 
ATOM     58  C   UNL     1     -47.415  36.216  27.792  1.00  0.00     0.248 C 
ATOM     59  H   UNL     1     -48.757  37.866  27.538  1.00  0.00     0.033 H 
ATOM     60  H   UNL     1     -48.294  37.101  26.027  1.00  0.00     0.033 H 
ATOM     61  H   UNL     1     -45.722  35.763  26.553  1.00  0.00     0.033 H 
ATOM     62  H   UNL     1     -45.639  35.051  28.154  1.00  0.00     0.033 H 
ATOM     63  F   UNL     1     -47.662  36.418  29.114  1.00  0.00    -0.207 F 
ATOM     64  F   UNL     1     -48.123  35.118  27.436  1.00  0.00    -0.207 F 
ENDBRANCH  40  48
BRANCH  44  65
ATOM     65  N   UNL     1     -43.642  38.632  30.687  1.00  0.00    -0.383 N 
ATOM     66  H   UNL     1     -44.372  38.133  30.189  1.00  0.00     0.158 HD
ATOM     67  H   UNL     1     -42.922  38.044  31.076  1.00  0.00     0.158 HD
ENDBRANCH  44  65
ENDBRANCH  30  37
BRANCH  31  68
ATOM     68  O   UNL     1     -44.188  41.970  23.642  1.00  0.00    -0.386 OA
ATOM     69  H   UNL     1     -44.336  41.025  23.872  1.00  0.00     0.211 HD
ENDBRANCH  31  68
ENDBRANCH   1  26
TORSDOF 10
ENDMDL
MODEL 5
REMARK VINA RESULT:      -9.0      4.087     10.168
REMARK SMILES CNc1ccc2ccc(OC[C@H]3O[C@@H](n4cc(C5CCC(F)(F)CC5)c5c(N)ncnc54)[C@H](O)[C@@H]3O)cc2n1
REMARK SMILES IDX 11 1 10 4 9 5 3 6 4 7 39 8 5 9 38 11 6 12 37 14 7 15 8 17
REMARK SMILES IDX 2 20 1 22 12 26 13 27 35 28 14 30 33 31 36 35 15 37 16 38
REMARK SMILES IDX 32 39 17 40 26 42 31 43 27 44 30 45 29 46 18 48 19 49 25 50
REMARK SMILES IDX 20 52 24 55 21 58 22 63 23 64 28 65 34 68
REMARK H PARENT 11 2 11 3 4 10 5 13 37 16 7 18 8 19 2 21 1 23 1 24 1 25 12 29
REMARK H PARENT 35 32 14 33 33 34 36 36 16 41 30 47 18 51 19 53 19 54 25 56
REMARK H PARENT 25 57 20 59 20 60 24 61 24 62 28 66 28 67 34 69
REMARK Flexibility Score: inf
ROOT
ATOM      1  C   UNL     1     -45.268  38.820  27.343  1.00  0.00     0.117 C 
ATOM      2  H   UNL     1     -45.147  37.796  26.968  1.00  0.00     0.073 H 
ATOM      3  H   UNL     1     -45.822  39.365  26.569  1.00  0.00     0.073 H 
ENDROOT
BRANCH   1   4
ATOM      4  O   UNL     1     -44.008  39.492  27.446  1.00  0.00    -0.491 OA
BRANCH   4   5
ATOM      5  C   UNL     1     -43.872  40.729  26.881  1.00  0.00     0.121 A 
ATOM      6  C   UNL     1     -44.177  43.918  23.362  1.00  0.00     0.126 A 
ATOM      7  C   UNL     1     -43.668  44.930  24.169  1.00  0.00    -0.019 A 
ATOM      8  N   UNL     1     -44.360  42.667  23.829  1.00  0.00    -0.231 NA
ATOM      9  C   UNL     1     -43.315  44.643  25.484  1.00  0.00    -0.049 A 
ATOM     10  H   UNL     1     -43.557  45.938  23.784  1.00  0.00     0.066 H 
ATOM     11  C   UNL     1     -44.020  42.380  25.100  1.00  0.00     0.076 A 
ATOM     12  C   UNL     1     -43.486  43.347  25.973  1.00  0.00     0.001 A 
ATOM     13  H   UNL     1     -42.916  45.432  26.115  1.00  0.00     0.063 H 
ATOM     14  C   UNL     1     -44.202  41.086  25.572  1.00  0.00     0.007 A 
ATOM     15  C   UNL     1     -43.145  42.999  27.288  1.00  0.00    -0.049 A 
ATOM     16  H   UNL     1     -44.606  40.367  24.869  1.00  0.00     0.069 H 
ATOM     17  C   UNL     1     -43.337  41.693  27.734  1.00  0.00    -0.019 A 
ATOM     18  H   UNL     1     -42.729  43.737  27.969  1.00  0.00     0.063 H 
ATOM     19  H   UNL     1     -43.071  41.426  28.754  1.00  0.00     0.066 H 
BRANCH   6  20
ATOM     20  N   UNL     1     -44.546  44.252  22.046  1.00  0.00    -0.373 N 
ATOM     21  H   UNL     1     -45.414  44.778  22.072  1.00  0.00     0.161 HD
BRANCH  20  22
ATOM     22  C   UNL     1     -43.514  44.954  21.299  1.00  0.00     0.005 C 
ATOM     23  H   UNL     1     -43.683  46.037  21.300  1.00  0.00     0.045 H 
ATOM     24  H   UNL     1     -42.546  44.776  21.780  1.00  0.00     0.045 H 
ATOM     25  H   UNL     1     -43.443  44.591  20.268  1.00  0.00     0.045 H 
ENDBRANCH  20  22
ENDBRANCH   6  20
ENDBRANCH   4   5
ENDBRANCH   1   4
BRANCH   1  26
ATOM     26  C   UNL     1     -46.047  38.878  28.666  1.00  0.00     0.123 C 
ATOM     27  O   UNL     1     -47.394  38.393  28.441  1.00  0.00    -0.345 OA
ATOM     28  C   UNL     1     -45.436  37.966  29.725  1.00  0.00     0.114 C 
ATOM     29  H   UNL     1     -46.142  39.910  29.021  1.00  0.00     0.067 H 
ATOM     30  C   UNL     1     -47.531  37.097  29.061  1.00  0.00     0.164 C 
ATOM     31  C   UNL     1     -46.125  36.641  29.465  1.00  0.00     0.128 C 
ATOM     32  H   UNL     1     -44.345  37.904  29.688  1.00  0.00     0.066 H 
ATOM     33  H   UNL     1     -48.204  37.196  29.921  1.00  0.00     0.088 H 
ATOM     34  H   UNL     1     -45.625  36.106  28.649  1.00  0.00     0.068 H 
BRANCH  28  35
ATOM     35  O   UNL     1     -45.787  38.429  31.038  1.00  0.00    -0.387 OA
ATOM     36  H   UNL     1     -46.118  39.342  30.908  1.00  0.00     0.211 HD
ENDBRANCH  28  35
BRANCH  30  37
ATOM     37  N   UNL     1     -48.173  36.170  28.131  1.00  0.00    -0.303 N 
ATOM     38  C   UNL     1     -47.558  35.235  27.343  1.00  0.00     0.013 A 
ATOM     39  C   UNL     1     -49.529  36.112  27.927  1.00  0.00     0.147 A 
ATOM     40  C   UNL     1     -48.519  34.560  26.606  1.00  0.00    -0.014 A 
ATOM     41  H   UNL     1     -46.480  35.116  27.363  1.00  0.00     0.082 H 
ATOM     42  C   UNL     1     -49.791  35.139  26.965  1.00  0.00     0.065 A 
ATOM     43  N   UNL     1     -50.428  36.876  28.575  1.00  0.00    -0.218 NA
ATOM     44  C   UNL     1     -51.148  34.973  26.626  1.00  0.00     0.136 A 
ATOM     45  C   UNL     1     -51.680  36.615  28.167  1.00  0.00     0.120 A 
ATOM     46  N   UNL     1     -52.079  35.726  27.246  1.00  0.00    -0.219 NA
ATOM     47  H   UNL     1     -52.469  37.194  28.639  1.00  0.00     0.106 H 
BRANCH  40  48
ATOM     48  C   UNL     1     -48.189  33.436  25.653  1.00  0.00    -0.013 C 
ATOM     49  C   UNL     1     -46.690  33.325  25.348  1.00  0.00    -0.041 C 
ATOM     50  C   UNL     1     -48.824  32.096  26.072  1.00  0.00    -0.041 C 
ATOM     51  H   UNL     1     -48.658  33.700  24.693  1.00  0.00     0.035 H 
ATOM     52  C   UNL     1     -46.380  32.272  24.279  1.00  0.00     0.012 C 
ATOM     53  H   UNL     1     -46.136  33.059  26.254  1.00  0.00     0.027 H 
ATOM     54  H   UNL     1     -46.287  34.293  25.027  1.00  0.00     0.027 H 
ATOM     55  C   UNL     1     -48.048  30.874  25.575  1.00  0.00     0.012 C 
ATOM     56  H   UNL     1     -49.842  32.060  25.661  1.00  0.00     0.027 H 
ATOM     57  H   UNL     1     -48.958  32.017  27.156  1.00  0.00     0.027 H 
ATOM     58  C   UNL     1     -47.396  31.140  24.232  1.00  0.00     0.248 C 
ATOM     59  H   UNL     1     -46.350  32.756  23.295  1.00  0.00     0.033 H 
ATOM     60  H   UNL     1     -45.374  31.870  24.455  1.00  0.00     0.033 H 
ATOM     61  H   UNL     1     -47.279  30.593  26.305  1.00  0.00     0.033 H 
ATOM     62  H   UNL     1     -48.728  30.017  25.500  1.00  0.00     0.033 H 
ATOM     63  F   UNL     1     -48.367  31.451  23.332  1.00  0.00    -0.207 F 
ATOM     64  F   UNL     1     -46.800  30.013  23.776  1.00  0.00    -0.207 F 
ENDBRANCH  40  48
BRANCH  44  65
ATOM     65  N   UNL     1     -51.638  34.097  25.665  1.00  0.00    -0.383 N 
ATOM     66  H   UNL     1     -50.907  33.437  25.420  1.00  0.00     0.158 HD
ATOM     67  H   UNL     1     -52.518  33.673  25.913  1.00  0.00     0.158 HD
ENDBRANCH  44  65
ENDBRANCH  30  37
BRANCH  31  68
ATOM     68  O   UNL     1     -46.078  35.828  30.641  1.00  0.00    -0.386 OA
ATOM     69  H   UNL     1     -46.196  36.441  31.401  1.00  0.00     0.211 HD
ENDBRANCH  31  68
ENDBRANCH   1  26
TORSDOF 10
ENDMDL
MODEL 6
REMARK VINA RESULT:      -9.0      2.887      3.648
REMARK SMILES CNc1ccc2ccc(OC[C@H]3O[C@@H](n4cc(C5CCC(F)(F)CC5)c5c(N)ncnc54)[C@H](O)[C@@H]3O)cc2n1
REMARK SMILES IDX 11 1 10 4 9 5 3 6 4 7 39 8 5 9 38 11 6 12 37 14 7 15 8 17
REMARK SMILES IDX 2 20 1 22 12 26 13 27 35 28 14 30 33 31 36 35 15 37 16 38
REMARK SMILES IDX 32 39 17 40 26 42 31 43 27 44 30 45 29 46 18 48 19 49 25 50
REMARK SMILES IDX 20 52 24 55 21 58 22 63 23 64 28 65 34 68
REMARK H PARENT 11 2 11 3 4 10 5 13 37 16 7 18 8 19 2 21 1 23 1 24 1 25 12 29
REMARK H PARENT 35 32 14 33 33 34 36 36 16 41 30 47 18 51 19 53 19 54 25 56
REMARK H PARENT 25 57 20 59 20 60 24 61 24 62 28 66 28 67 34 69
REMARK Flexibility Score: inf
ROOT
ATOM      1  C   UNL     1     -48.115  35.941  27.120  1.00  0.00     0.117 C 
ATOM      2  H   UNL     1     -48.836  36.659  27.527  1.00  0.00     0.073 H 
ATOM      3  H   UNL     1     -48.052  36.148  26.045  1.00  0.00     0.073 H 
ENDROOT
BRANCH   1   4
ATOM      4  O   UNL     1     -48.602  34.598  27.215  1.00  0.00    -0.491 OA
BRANCH   4   5
ATOM      5  C   UNL     1     -48.117  33.657  26.351  1.00  0.00     0.121 A 
ATOM      6  C   UNL     1     -48.044  29.417  24.191  1.00  0.00     0.126 A 
ATOM      7  C   UNL     1     -46.926  29.764  23.440  1.00  0.00    -0.019 A 
ATOM      8  N   UNL     1     -48.605  30.279  25.063  1.00  0.00    -0.231 NA
ATOM      9  C   UNL     1     -46.355  31.021  23.606  1.00  0.00    -0.049 A 
ATOM     10  H   UNL     1     -46.508  29.067  22.722  1.00  0.00     0.066 H 
ATOM     11  C   UNL     1     -48.058  31.498  25.230  1.00  0.00     0.076 A 
ATOM     12  C   UNL     1     -46.919  31.916  24.517  1.00  0.00     0.001 A 
ATOM     13  H   UNL     1     -45.481  31.293  23.021  1.00  0.00     0.063 H 
ATOM     14  C   UNL     1     -48.636  32.379  26.137  1.00  0.00     0.007 A 
ATOM     15  C   UNL     1     -46.385  33.196  24.727  1.00  0.00    -0.049 A 
ATOM     16  H   UNL     1     -49.505  32.018  26.675  1.00  0.00     0.069 H 
ATOM     17  C   UNL     1     -46.984  34.058  25.644  1.00  0.00    -0.019 A 
ATOM     18  H   UNL     1     -45.504  33.528  24.184  1.00  0.00     0.063 H 
ATOM     19  H   UNL     1     -46.567  35.048  25.806  1.00  0.00     0.066 H 
BRANCH   6  20
ATOM     20  N   UNL     1     -48.608  28.146  23.979  1.00  0.00    -0.373 N 
ATOM     21  H   UNL     1     -48.254  27.772  23.103  1.00  0.00     0.161 HD
BRANCH  20  22
ATOM     22  C   UNL     1     -48.411  27.216  25.080  1.00  0.00     0.005 C 
ATOM     23  H   UNL     1     -48.307  27.740  26.036  1.00  0.00     0.045 H 
ATOM     24  H   UNL     1     -49.290  26.568  25.158  1.00  0.00     0.045 H 
ATOM     25  H   UNL     1     -47.540  26.572  24.914  1.00  0.00     0.045 H 
ENDBRANCH  20  22
ENDBRANCH   6  20
ENDBRANCH   4   5
ENDBRANCH   1   4
BRANCH   1  26
ATOM     26  C   UNL     1     -46.720  36.080  27.750  1.00  0.00     0.123 C 
ATOM     27  O   UNL     1     -46.050  37.223  27.162  1.00  0.00    -0.345 OA
ATOM     28  C   UNL     1     -46.799  36.355  29.248  1.00  0.00     0.114 C 
ATOM     29  H   UNL     1     -46.100  35.205  27.528  1.00  0.00     0.067 H 
ATOM     30  C   UNL     1     -45.987  38.279  28.143  1.00  0.00     0.164 C 
ATOM     31  C   UNL     1     -46.893  37.867  29.308  1.00  0.00     0.128 C 
ATOM     32  H   UNL     1     -47.624  35.847  29.754  1.00  0.00     0.066 H 
ATOM     33  H   UNL     1     -44.942  38.405  28.448  1.00  0.00     0.088 H 
ATOM     34  H   UNL     1     -47.929  38.190  29.146  1.00  0.00     0.068 H 
BRANCH  28  35
ATOM     35  O   UNL     1     -45.588  35.934  29.892  1.00  0.00    -0.387 OA
ATOM     36  H   UNL     1     -44.940  35.813  29.166  1.00  0.00     0.211 HD
ENDBRANCH  28  35
BRANCH  30  37
ATOM     37  N   UNL     1     -46.401  39.542  27.534  1.00  0.00    -0.303 N 
ATOM     38  C   UNL     1     -47.671  40.048  27.467  1.00  0.00     0.013 A 
ATOM     39  C   UNL     1     -45.533  40.420  26.935  1.00  0.00     0.147 A 
ATOM     40  C   UNL     1     -47.639  41.268  26.809  1.00  0.00    -0.014 A 
ATOM     41  H   UNL     1     -48.507  39.504  27.892  1.00  0.00     0.082 H 
ATOM     42  C   UNL     1     -46.262  41.501  26.445  1.00  0.00     0.065 A 
ATOM     43  N   UNL     1     -44.200  40.240  26.862  1.00  0.00    -0.218 NA
ATOM     44  C   UNL     1     -45.510  42.486  25.777  1.00  0.00     0.136 A 
ATOM     45  C   UNL     1     -43.602  41.250  26.211  1.00  0.00     0.120 A 
ATOM     46  N   UNL     1     -44.173  42.339  25.674  1.00  0.00    -0.219 NA
ATOM     47  H   UNL     1     -42.523  41.180  26.103  1.00  0.00     0.106 H 
BRANCH  40  48
ATOM     48  C   UNL     1     -48.867  42.118  26.587  1.00  0.00    -0.013 C 
ATOM     49  C   UNL     1     -50.177  41.372  26.871  1.00  0.00    -0.041 C 
ATOM     50  C   UNL     1     -48.781  43.484  27.296  1.00  0.00    -0.041 C 
ATOM     51  H   UNL     1     -48.893  42.344  25.509  1.00  0.00     0.035 H 
ATOM     52  C   UNL     1     -51.418  42.197  26.515  1.00  0.00     0.012 C 
ATOM     53  H   UNL     1     -50.241  41.106  27.931  1.00  0.00     0.027 H 
ATOM     54  H   UNL     1     -50.207  40.421  26.324  1.00  0.00     0.027 H 
ATOM     55  C   UNL     1     -50.149  44.074  27.648  1.00  0.00     0.012 C 
ATOM     56  H   UNL     1     -48.256  44.180  26.628  1.00  0.00     0.027 H 
ATOM     57  H   UNL     1     -48.165  43.447  28.200  1.00  0.00     0.027 H 
ATOM     58  C   UNL     1     -51.195  43.698  26.617  1.00  0.00     0.248 C 
ATOM     59  H   UNL     1     -51.726  41.957  25.489  1.00  0.00     0.033 H 
ATOM     60  H   UNL     1     -52.247  41.891  27.165  1.00  0.00     0.033 H 
ATOM     61  H   UNL     1     -50.468  43.722  28.636  1.00  0.00     0.033 H 
ATOM     62  H   UNL     1     -50.066  45.164  27.722  1.00  0.00     0.033 H 
ATOM     63  F   UNL     1     -50.801  44.174  25.405  1.00  0.00    -0.207 F 
ATOM     64  F   UNL     1     -52.368  44.313  26.903  1.00  0.00    -0.207 F 
ENDBRANCH  40  48
BRANCH  44  65
ATOM     65  N   UNL     1     -46.028  43.625  25.172  1.00  0.00    -0.383 N 
ATOM     66  H   UNL     1     -46.077  43.470  24.170  1.00  0.00     0.158 HD
ATOM     67  H   UNL     1     -46.885  43.952  25.588  1.00  0.00     0.158 HD
ENDBRANCH  44  65
ENDBRANCH  30  37
BRANCH  31  68
ATOM     68  O   UNL     1     -46.464  38.332  30.590  1.00  0.00    -0.386 OA
ATOM     69  H   UNL     1     -46.440  37.540  31.172  1.00  0.00     0.211 HD
ENDBRANCH  31  68
ENDBRANCH   1  26
TORSDOF 10
ENDMDL
MODEL 7
REMARK VINA RESULT:      -9.0      5.094      8.244
REMARK SMILES CNc1ccc2ccc(OC[C@H]3O[C@@H](n4cc(C5CCC(F)(F)CC5)c5c(N)ncnc54)[C@H](O)[C@@H]3O)cc2n1
REMARK SMILES IDX 11 1 10 4 9 5 3 6 4 7 39 8 5 9 38 11 6 12 37 14 7 15 8 17
REMARK SMILES IDX 2 20 1 22 12 26 13 27 35 28 14 30 33 31 36 35 15 37 16 38
REMARK SMILES IDX 32 39 17 40 26 42 31 43 27 44 30 45 29 46 18 48 19 49 25 50
REMARK SMILES IDX 20 52 24 55 21 58 22 63 23 64 28 65 34 68
REMARK H PARENT 11 2 11 3 4 10 5 13 37 16 7 18 8 19 2 21 1 23 1 24 1 25 12 29
REMARK H PARENT 35 32 14 33 33 34 36 36 16 41 30 47 18 51 19 53 19 54 25 56
REMARK H PARENT 25 57 20 59 20 60 24 61 24 62 28 66 28 67 34 69
REMARK Flexibility Score: inf
ROOT
ATOM      1  C   UNL     1     -47.424  43.927  25.500  1.00  0.00     0.117 C 
ATOM      2  H   UNL     1     -47.981  44.001  24.559  1.00  0.00     0.073 H 
ATOM      3  H   UNL     1     -47.345  42.857  25.725  1.00  0.00     0.073 H 
ENDROOT
BRANCH   1   4
ATOM      4  O   UNL     1     -48.164  44.485  26.592  1.00  0.00    -0.491 OA
BRANCH   4   5
ATOM      5  C   UNL     1     -48.919  43.654  27.370  1.00  0.00     0.121 A 
ATOM      6  C   UNL     1     -51.407  39.706  28.309  1.00  0.00     0.126 A 
ATOM      7  C   UNL     1     -51.687  40.133  29.603  1.00  0.00    -0.019 A 
ATOM      8  N   UNL     1     -50.661  40.450  27.467  1.00  0.00    -0.231 NA
ATOM      9  C   UNL     1     -51.209  41.365  30.035  1.00  0.00    -0.049 A 
ATOM     10  H   UNL     1     -52.264  39.506  30.275  1.00  0.00     0.066 H 
ATOM     11  C   UNL     1     -50.194  41.643  27.877  1.00  0.00     0.076 A 
ATOM     12  C   UNL     1     -50.448  42.149  29.166  1.00  0.00     0.001 A 
ATOM     13  H   UNL     1     -51.429  41.699  31.045  1.00  0.00     0.063 H 
ATOM     14  C   UNL     1     -49.433  42.409  27.001  1.00  0.00     0.007 A 
ATOM     15  C   UNL     1     -49.942  43.400  29.547  1.00  0.00    -0.049 A 
ATOM     16  H   UNL     1     -49.267  41.992  26.014  1.00  0.00     0.069 H 
ATOM     17  C   UNL     1     -49.183  44.146  28.647  1.00  0.00    -0.019 A 
ATOM     18  H   UNL     1     -50.134  43.800  30.539  1.00  0.00     0.063 H 
ATOM     19  H   UNL     1     -48.793  45.117  28.944  1.00  0.00     0.066 H 
BRANCH   6  20
ATOM     20  N   UNL     1     -51.887  38.444  27.916  1.00  0.00    -0.373 N 
ATOM     21  H   UNL     1     -51.606  38.271  26.955  1.00  0.00     0.161 HD
BRANCH  20  22
ATOM     22  C   UNL     1     -51.491  37.356  28.796  1.00  0.00     0.005 C 
ATOM     23  H   UNL     1     -51.259  37.718  29.804  1.00  0.00     0.045 H 
ATOM     24  H   UNL     1     -52.326  36.653  28.888  1.00  0.00     0.045 H 
ATOM     25  H   UNL     1     -50.634  36.803  28.396  1.00  0.00     0.045 H 
ENDBRANCH  20  22
ENDBRANCH   6  20
ENDBRANCH   4   5
ENDBRANCH   1   4
BRANCH   1  26
ATOM     26  C   UNL     1     -46.016  44.536  25.405  1.00  0.00     0.123 C 
ATOM     27  O   UNL     1     -45.209  44.026  26.497  1.00  0.00    -0.345 OA
ATOM     28  C   UNL     1     -45.306  44.124  24.121  1.00  0.00     0.114 C 
ATOM     29  H   UNL     1     -46.050  45.624  25.523  1.00  0.00     0.067 H 
ATOM     30  C   UNL     1     -44.239  43.100  25.964  1.00  0.00     0.164 C 
ATOM     31  C   UNL     1     -44.634  42.822  24.510  1.00  0.00     0.128 C 
ATOM     32  H   UNL     1     -45.965  44.032  23.253  1.00  0.00     0.066 H 
ATOM     33  H   UNL     1     -43.245  43.555  26.050  1.00  0.00     0.088 H 
ATOM     34  H   UNL     1     -45.346  41.991  24.437  1.00  0.00     0.068 H 
BRANCH  28  35
ATOM     35  O   UNL     1     -44.298  45.089  23.782  1.00  0.00    -0.387 OA
ATOM     36  H   UNL     1     -44.098  45.555  24.621  1.00  0.00     0.211 HD
ENDBRANCH  28  35
BRANCH  30  37
ATOM     37  N   UNL     1     -44.218  41.887  26.779  1.00  0.00    -0.303 N 
ATOM     38  C   UNL     1     -44.983  40.765  26.607  1.00  0.00     0.013 A 
ATOM     39  C   UNL     1     -43.388  41.707  27.857  1.00  0.00     0.147 A 
ATOM     40  C   UNL     1     -44.660  39.840  27.589  1.00  0.00    -0.014 A 
ATOM     41  H   UNL     1     -45.704  40.704  25.798  1.00  0.00     0.082 H 
ATOM     42  C   UNL     1     -43.645  40.455  28.411  1.00  0.00     0.065 A 
ATOM     43  N   UNL     1     -42.480  42.608  28.275  1.00  0.00    -0.218 NA
ATOM     44  C   UNL     1     -42.883  40.128  29.549  1.00  0.00     0.136 A 
ATOM     45  C   UNL     1     -41.818  42.174  29.359  1.00  0.00     0.120 A 
ATOM     46  N   UNL     1     -41.969  41.008  30.006  1.00  0.00    -0.219 NA
ATOM     47  H   UNL     1     -41.068  42.846  29.765  1.00  0.00     0.106 H 
BRANCH  40  48
ATOM     48  C   UNL     1     -45.295  38.474  27.676  1.00  0.00    -0.013 C 
ATOM     49  C   UNL     1     -45.781  38.124  29.089  1.00  0.00    -0.041 C 
ATOM     50  C   UNL     1     -46.366  38.245  26.593  1.00  0.00    -0.041 C 
ATOM     51  H   UNL     1     -44.495  37.749  27.461  1.00  0.00     0.035 H 
ATOM     52  C   UNL     1     -46.301  36.687  29.198  1.00  0.00     0.012 C 
ATOM     53  H   UNL     1     -46.588  38.799  29.391  1.00  0.00     0.027 H 
ATOM     54  H   UNL     1     -44.980  38.274  29.822  1.00  0.00     0.027 H 
ATOM     55  C   UNL     1     -47.437  37.231  27.000  1.00  0.00     0.012 C 
ATOM     56  H   UNL     1     -45.860  37.882  25.687  1.00  0.00     0.027 H 
ATOM     57  H   UNL     1     -46.855  39.175  26.284  1.00  0.00     0.027 H 
ATOM     58  C   UNL     1     -46.863  36.147  27.891  1.00  0.00     0.248 C 
ATOM     59  H   UNL     1     -45.483  36.033  29.524  1.00  0.00     0.033 H 
ATOM     60  H   UNL     1     -47.063  36.642  29.985  1.00  0.00     0.033 H 
ATOM     61  H   UNL     1     -48.257  37.738  27.524  1.00  0.00     0.033 H 
ATOM     62  H   UNL     1     -47.878  36.785  26.101  1.00  0.00     0.033 H 
ATOM     63  F   UNL     1     -45.874  35.505  27.212  1.00  0.00    -0.207 F 
ATOM     64  F   UNL     1     -47.810  35.215  28.155  1.00  0.00    -0.207 F 
ENDBRANCH  40  48
BRANCH  44  65
ATOM     65  N   UNL     1     -42.999  38.958  30.290  1.00  0.00    -0.383 N 
ATOM     66  H   UNL     1     -42.095  38.498  30.319  1.00  0.00     0.158 HD
ATOM     67  H   UNL     1     -43.432  39.088  31.190  1.00  0.00     0.158 HD
ENDBRANCH  44  65
ENDBRANCH  30  37
BRANCH  31  68
ATOM     68  O   UNL     1     -43.534  42.559  23.634  1.00  0.00    -0.386 OA
ATOM     69  H   UNL     1     -43.896  42.611  22.721  1.00  0.00     0.211 HD
ENDBRANCH  31  68
ENDBRANCH   1  26
TORSDOF 10
ENDMDL
