MODEL 1
REMARK VINA RESULT:     -10.2      0.000      0.000
REMARK SMILES CNc1ccc2ccc(OC[C@H]3O[C@@H](n4cc(-c5cc[nH]n5)c5c(N)ncnc54)[C@@H](F)[C@@H]3O)cc2n1
REMARK SMILES IDX 11 1 10 4 9 5 3 6 4 7 36 8 5 9 35 11 6 12 34 14 7 15 8 17
REMARK SMILES IDX 2 20 1 22 12 26 13 27 32 28 14 30 30 31 31 34 33 36 15 38
REMARK SMILES IDX 16 39 29 40 17 41 23 43 28 44 24 45 27 46 26 47 18 49 19 50
REMARK SMILES IDX 22 51 20 52 21 54 25 57
REMARK H PARENT 11 2 11 3 4 10 5 13 34 16 7 18 8 19 2 21 1 23 1 24 1 25 12 29
REMARK H PARENT 32 32 14 33 30 35 33 37 16 42 27 48 19 53 20 55 21 56 25 58
REMARK H PARENT 25 59
REMARK Flexibility Score: inf
ROOT
ATOM      1  C   UNL     1     -45.644  35.350  27.303  1.00  0.00     0.117 C 
ATOM      2  H   UNL     1     -45.277  34.358  27.588  1.00  0.00     0.073 H 
ATOM      3  H   UNL     1     -44.868  35.794  26.669  1.00  0.00     0.073 H 
ENDROOT
BRANCH   1   4
ATOM      4  O   UNL     1     -46.816  35.281  26.479  1.00  0.00    -0.491 OA
BRANCH   4   5
ATOM      5  C   UNL     1     -47.146  34.095  25.887  1.00  0.00     0.121 A 
ATOM      6  C   UNL     1     -46.500  30.488  22.852  1.00  0.00     0.126 A 
ATOM      7  C   UNL     1     -47.632  29.826  23.316  1.00  0.00    -0.019 A 
ATOM      8  N   UNL     1     -46.122  31.676  23.360  1.00  0.00    -0.231 NA
ATOM      9  C   UNL     1     -48.395  30.405  24.327  1.00  0.00    -0.049 A 
ATOM     10  H   UNL     1     -47.907  28.858  22.912  1.00  0.00     0.066 H 
ATOM     11  C   UNL     1     -46.851  32.238  24.341  1.00  0.00     0.076 A 
ATOM     12  C   UNL     1     -48.008  31.635  24.864  1.00  0.00     0.001 A 
ATOM     13  H   UNL     1     -49.275  29.885  24.696  1.00  0.00     0.063 H 
ATOM     14  C   UNL     1     -46.444  33.458  24.864  1.00  0.00     0.007 A 
ATOM     15  C   UNL     1     -48.725  32.261  25.895  1.00  0.00    -0.049 A 
ATOM     16  H   UNL     1     -45.537  33.880  24.452  1.00  0.00     0.069 H 
ATOM     17  C   UNL     1     -48.288  33.484  26.404  1.00  0.00    -0.019 A 
ATOM     18  H   UNL     1     -49.617  31.801  26.310  1.00  0.00     0.063 H 
ATOM     19  H   UNL     1     -48.840  33.962  27.208  1.00  0.00     0.066 H 
BRANCH   6  20
ATOM     20  N   UNL     1     -45.727  29.858  21.860  1.00  0.00    -0.373 N 
ATOM     21  H   UNL     1     -45.242  30.568  21.319  1.00  0.00     0.161 HD
BRANCH  20  22
ATOM     22  C   UNL     1     -44.818  28.843  22.371  1.00  0.00     0.005 C 
ATOM     23  H   UNL     1     -45.261  28.385  23.262  1.00  0.00     0.045 H 
ATOM     24  H   UNL     1     -43.857  29.274  22.669  1.00  0.00     0.045 H 
ATOM     25  H   UNL     1     -44.656  28.046  21.638  1.00  0.00     0.045 H 
ENDBRANCH  20  22
ENDBRANCH   6  20
ENDBRANCH   4   5
ENDBRANCH   1   4
BRANCH   1  26
ATOM     26  C   UNL     1     -45.873  36.262  28.512  1.00  0.00     0.123 C 
ATOM     27  O   UNL     1     -44.748  37.132  28.743  1.00  0.00    -0.345 OA
ATOM     28  C   UNL     1     -47.053  37.201  28.317  1.00  0.00     0.119 C 
ATOM     29  H   UNL     1     -46.003  35.644  29.410  1.00  0.00     0.067 H 
ATOM     30  C   UNL     1     -45.247  38.359  29.337  1.00  0.00     0.169 C 
ATOM     31  C   UNL     1     -46.769  38.260  29.362  1.00  0.00     0.173 C 
ATOM     32  H   UNL     1     -47.056  37.647  27.315  1.00  0.00     0.066 H 
ATOM     33  H   UNL     1     -44.835  38.416  30.350  1.00  0.00     0.088 H 
ATOM     34  F   UNL     1     -47.404  39.406  29.021  1.00  0.00    -0.239 F 
ATOM     35  H   UNL     1     -47.134  37.951  30.348  1.00  0.00     0.074 H 
BRANCH  28  36
ATOM     36  O   UNL     1     -48.300  36.551  28.522  1.00  0.00    -0.387 OA
ATOM     37  H   UNL     1     -48.843  37.141  29.079  1.00  0.00     0.211 HD
ENDBRANCH  28  36
BRANCH  30  38
ATOM     38  N   UNL     1     -44.734  39.494  28.584  1.00  0.00    -0.302 N 
ATOM     39  C   UNL     1     -45.296  40.078  27.476  1.00  0.00     0.019 A 
ATOM     40  C   UNL     1     -43.573  40.150  28.906  1.00  0.00     0.148 A 
ATOM     41  C   UNL     1     -44.466  41.105  27.063  1.00  0.00     0.033 A 
ATOM     42  H   UNL     1     -46.213  39.698  27.049  1.00  0.00     0.083 H 
ATOM     43  C   UNL     1     -43.377  41.178  27.990  1.00  0.00     0.071 A 
ATOM     44  N   UNL     1     -42.778  39.833  29.944  1.00  0.00    -0.218 NA
ATOM     45  C   UNL     1     -42.235  41.973  28.194  1.00  0.00     0.137 A 
ATOM     46  C   UNL     1     -41.713  40.645  30.015  1.00  0.00     0.120 A 
ATOM     47  N   UNL     1     -41.399  41.674  29.209  1.00  0.00    -0.219 NA
ATOM     48  H   UNL     1     -41.017  40.450  30.824  1.00  0.00     0.106 H 
BRANCH  41  49
ATOM     49  C   UNL     1     -44.669  41.952  25.882  1.00  0.00     0.094 A 
ATOM     50  C   UNL     1     -43.870  41.901  24.717  1.00  0.00    -0.016 A 
ATOM     51  N   UNL     1     -45.619  42.894  25.785  1.00  0.00    -0.176 NA
ATOM     52  C   UNL     1     -44.398  42.853  23.878  1.00  0.00     0.022 A 
ATOM     53  H   UNL     1     -43.027  41.256  24.510  1.00  0.00     0.066 H 
ATOM     54  N   UNL     1     -45.441  43.408  24.555  1.00  0.00    -0.285 N 
ATOM     55  H   UNL     1     -44.130  43.175  22.881  1.00  0.00     0.083 H 
ATOM     56  H   UNL     1     -46.071  44.141  24.244  1.00  0.00     0.189 HD
ENDBRANCH  41  49
BRANCH  45  57
ATOM     57  N   UNL     1     -41.896  43.066  27.408  1.00  0.00    -0.383 N 
ATOM     58  H   UNL     1     -41.013  43.465  27.690  1.00  0.00     0.158 HD
ATOM     59  H   UNL     1     -42.025  42.881  26.410  1.00  0.00     0.158 HD
ENDBRANCH  45  57
ENDBRANCH  30  38
ENDBRANCH   1  26
TORSDOF 9
ENDMDL
MODEL 2
REMARK VINA RESULT:      -9.6      3.238     11.556
REMARK SMILES CNc1ccc2ccc(OC[C@H]3O[C@@H](n4cc(-c5cc[nH]n5)c5c(N)ncnc54)[C@@H](F)[C@@H]3O)cc2n1
REMARK SMILES IDX 11 1 10 4 9 5 3 6 4 7 36 8 5 9 35 11 6 12 34 14 7 15 8 17
REMARK SMILES IDX 2 20 1 22 12 26 13 27 32 28 14 30 30 31 31 34 33 36 15 38
REMARK SMILES IDX 16 39 29 40 17 41 23 43 28 44 24 45 27 46 26 47 18 49 19 50
REMARK SMILES IDX 22 51 20 52 21 54 25 57
REMARK H PARENT 11 2 11 3 4 10 5 13 34 16 7 18 8 19 2 21 1 23 1 24 1 25 12 29
REMARK H PARENT 32 32 14 33 30 35 33 37 16 42 27 48 19 53 20 55 21 56 25 58
REMARK H PARENT 25 59
REMARK Flexibility Score: inf
ROOT
ATOM      1  C   UNL     1     -46.931  33.510  26.787  1.00  0.00     0.117 C 
ATOM      2  H   UNL     1     -45.869  33.688  26.588  1.00  0.00     0.073 H 
ATOM      3  H   UNL     1     -46.975  32.651  27.467  1.00  0.00     0.073 H 
ENDROOT
BRANCH   1   4
ATOM      4  O   UNL     1     -47.539  34.594  27.503  1.00  0.00    -0.491 OA
BRANCH   4   5
ATOM      5  C   UNL     1     -46.846  35.761  27.662  1.00  0.00     0.121 A 
ATOM      6  C   UNL     1     -45.719  40.258  26.596  1.00  0.00     0.126 A 
ATOM      7  C   UNL     1     -44.805  40.332  27.642  1.00  0.00    -0.019 A 
ATOM      8  N   UNL     1     -46.420  39.135  26.352  1.00  0.00    -0.231 NA
ATOM      9  C   UNL     1     -44.607  39.220  28.456  1.00  0.00    -0.049 A 
ATOM     10  H   UNL     1     -44.268  41.253  27.838  1.00  0.00     0.066 H 
ATOM     11  C   UNL     1     -46.239  38.059  27.138  1.00  0.00     0.076 A 
ATOM     12  C   UNL     1     -45.334  38.052  28.215  1.00  0.00     0.001 A 
ATOM     13  H   UNL     1     -43.901  39.279  29.280  1.00  0.00     0.063 H 
ATOM     14  C   UNL     1     -46.976  36.910  26.883  1.00  0.00     0.007 A 
ATOM     15  C   UNL     1     -45.193  36.903  29.009  1.00  0.00    -0.049 A 
ATOM     16  H   UNL     1     -47.678  36.961  26.061  1.00  0.00     0.069 H 
ATOM     17  C   UNL     1     -45.952  35.767  28.731  1.00  0.00    -0.019 A 
ATOM     18  H   UNL     1     -44.501  36.889  29.847  1.00  0.00     0.063 H 
ATOM     19  H   UNL     1     -45.847  34.882  29.353  1.00  0.00     0.066 H 
BRANCH   6  20
ATOM     20  N   UNL     1     -45.927  41.412  25.818  1.00  0.00    -0.373 N 
ATOM     21  H   UNL     1     -46.056  41.137  24.849  1.00  0.00     0.161 HD
BRANCH  20  22
ATOM     22  C   UNL     1     -47.006  42.263  26.296  1.00  0.00     0.005 C 
ATOM     23  H   UNL     1     -47.964  41.807  26.027  1.00  0.00     0.045 H 
ATOM     24  H   UNL     1     -46.974  43.255  25.831  1.00  0.00     0.045 H 
ATOM     25  H   UNL     1     -46.983  42.363  27.386  1.00  0.00     0.045 H 
ENDBRANCH  20  22
ENDBRANCH   6  20
ENDBRANCH   4   5
ENDBRANCH   1   4
BRANCH   1  26
ATOM     26  C   UNL     1     -47.720  33.175  25.518  1.00  0.00     0.123 C 
ATOM     27  O   UNL     1     -47.002  32.257  24.672  1.00  0.00    -0.345 OA
ATOM     28  C   UNL     1     -49.035  32.475  25.819  1.00  0.00     0.119 C 
ATOM     29  H   UNL     1     -47.884  34.096  24.942  1.00  0.00     0.067 H 
ATOM     30  C   UNL     1     -47.977  31.459  23.951  1.00  0.00     0.169 C 
ATOM     31  C   UNL     1     -49.355  31.848  24.478  1.00  0.00     0.173 C 
ATOM     32  H   UNL     1     -48.916  31.697  26.583  1.00  0.00     0.066 H 
ATOM     33  H   UNL     1     -47.873  31.706  22.889  1.00  0.00     0.088 H 
ATOM     34  F   UNL     1     -50.193  30.801  24.662  1.00  0.00    -0.239 F 
ATOM     35  H   UNL     1     -49.849  32.566  23.814  1.00  0.00     0.074 H 
BRANCH  28  36
ATOM     36  O   UNL     1     -50.042  33.379  26.253  1.00  0.00    -0.387 OA
ATOM     37  H   UNL     1     -50.887  32.890  26.252  1.00  0.00     0.211 HD
ENDBRANCH  28  36
BRANCH  30  38
ATOM     38  N   UNL     1     -47.651  30.050  24.114  1.00  0.00    -0.302 N 
ATOM     39  C   UNL     1     -48.324  29.124  24.872  1.00  0.00     0.019 A 
ATOM     40  C   UNL     1     -46.582  29.447  23.501  1.00  0.00     0.148 A 
ATOM     41  C   UNL     1     -47.658  27.916  24.766  1.00  0.00     0.033 A 
ATOM     42  H   UNL     1     -49.194  29.401  25.451  1.00  0.00     0.083 H 
ATOM     43  C   UNL     1     -46.561  28.105  23.867  1.00  0.00     0.071 A 
ATOM     44  N   UNL     1     -45.717  30.073  22.682  1.00  0.00    -0.218 NA
ATOM     45  C   UNL     1     -45.533  27.330  23.300  1.00  0.00     0.137 A 
ATOM     46  C   UNL     1     -44.773  29.235  22.229  1.00  0.00     0.120 A 
ATOM     47  N   UNL     1     -44.631  27.925  22.493  1.00  0.00    -0.219 NA
ATOM     48  H   UNL     1     -44.030  29.666  21.566  1.00  0.00     0.106 H 
BRANCH  41  49
ATOM     49  C   UNL     1     -48.015  26.674  25.463  1.00  0.00     0.094 A 
ATOM     50  C   UNL     1     -47.152  25.973  26.337  1.00  0.00    -0.016 A 
ATOM     51  N   UNL     1     -49.191  26.045  25.326  1.00  0.00    -0.176 NA
ATOM     52  C   UNL     1     -47.875  24.882  26.755  1.00  0.00     0.022 A 
ATOM     53  H   UNL     1     -46.143  26.229  26.629  1.00  0.00     0.066 H 
ATOM     54  N   UNL     1     -49.084  24.976  26.134  1.00  0.00    -0.285 N 
ATOM     55  H   UNL     1     -47.642  24.067  27.427  1.00  0.00     0.083 H 
ATOM     56  H   UNL     1     -49.877  24.347  26.210  1.00  0.00     0.189 HD
ENDBRANCH  41  49
BRANCH  45  57
ATOM     57  N   UNL     1     -45.375  25.968  23.516  1.00  0.00    -0.383 N 
ATOM     58  H   UNL     1     -44.743  25.558  22.844  1.00  0.00     0.158 HD
ATOM     59  H   UNL     1     -45.210  25.749  24.502  1.00  0.00     0.158 HD
ENDBRANCH  45  57
ENDBRANCH  30  38
ENDBRANCH   1  26
TORSDOF 9
ENDMDL
MODEL 3
REMARK VINA RESULT:      -9.3      2.560      4.448
REMARK SMILES CNc1ccc2ccc(OC[C@H]3O[C@@H](n4cc(-c5cc[nH]n5)c5c(N)ncnc54)[C@@H](F)[C@@H]3O)cc2n1
REMARK SMILES IDX 11 1 10 4 9 5 3 6 4 7 36 8 5 9 35 11 6 12 34 14 7 15 8 17
REMARK SMILES IDX 2 20 1 22 12 26 13 27 32 28 14 30 30 31 31 34 33 36 15 38
REMARK SMILES IDX 16 39 29 40 17 41 23 43 28 44 24 45 27 46 26 47 18 49 19 50
REMARK SMILES IDX 22 51 20 52 21 54 25 57
REMARK H PARENT 11 2 11 3 4 10 5 13 34 16 7 18 8 19 2 21 1 23 1 24 1 25 12 29
REMARK H PARENT 32 32 14 33 30 35 33 37 16 42 27 48 19 53 20 55 21 56 25 58
REMARK H PARENT 25 59
REMARK Flexibility Score: inf
ROOT
ATOM      1  C   UNL     1     -45.560  38.505  28.880  1.00  0.00     0.117 C 
ATOM      2  H   UNL     1     -45.769  38.980  29.844  1.00  0.00     0.073 H 
ATOM      3  H   UNL     1     -45.319  37.458  29.101  1.00  0.00     0.073 H 
ENDROOT
BRANCH   1   4
ATOM      4  O   UNL     1     -46.718  38.459  28.034  1.00  0.00    -0.491 OA
BRANCH   4   5
ATOM      5  C   UNL     1     -47.149  37.254  27.558  1.00  0.00     0.121 A 
ATOM      6  C   UNL     1     -46.590  33.022  25.457  1.00  0.00     0.126 A 
ATOM      7  C   UNL     1     -47.929  32.694  25.644  1.00  0.00    -0.019 A 
ATOM      8  N   UNL     1     -46.091  34.202  25.870  1.00  0.00    -0.231 NA
ATOM      9  C   UNL     1     -48.775  33.606  26.269  1.00  0.00    -0.049 A 
ATOM     10  H   UNL     1     -48.307  31.729  25.327  1.00  0.00     0.066 H 
ATOM     11  C   UNL     1     -46.900  35.086  26.480  1.00  0.00     0.076 A 
ATOM     12  C   UNL     1     -48.265  34.831  26.705  1.00  0.00     0.001 A 
ATOM     13  H   UNL     1     -49.819  33.348  26.423  1.00  0.00     0.063 H 
ATOM     14  C   UNL     1     -46.371  36.295  26.911  1.00  0.00     0.007 A 
ATOM     15  C   UNL     1     -49.061  35.786  27.356  1.00  0.00    -0.049 A 
ATOM     16  H   UNL     1     -45.313  36.445  26.740  1.00  0.00     0.069 H 
ATOM     17  C   UNL     1     -48.499  36.988  27.783  1.00  0.00    -0.019 A 
ATOM     18  H   UNL     1     -50.116  35.597  27.541  1.00  0.00     0.063 H 
ATOM     19  H   UNL     1     -49.117  37.722  28.294  1.00  0.00     0.066 H 
BRANCH   6  20
ATOM     20  N   UNL     1     -45.752  32.062  24.861  1.00  0.00    -0.373 N 
ATOM     21  H   UNL     1     -45.300  31.520  25.591  1.00  0.00     0.161 HD
BRANCH  20  22
ATOM     22  C   UNL     1     -46.418  31.217  23.883  1.00  0.00     0.005 C 
ATOM     23  H   UNL     1     -46.644  30.250  24.343  1.00  0.00     0.045 H 
ATOM     24  H   UNL     1     -45.779  31.024  23.014  1.00  0.00     0.045 H 
ATOM     25  H   UNL     1     -47.367  31.655  23.556  1.00  0.00     0.045 H 
ENDBRANCH  20  22
ENDBRANCH   6  20
ENDBRANCH   4   5
ENDBRANCH   1   4
BRANCH   1  26
ATOM     26  C   UNL     1     -44.371  39.141  28.155  1.00  0.00     0.123 C 
ATOM     27  O   UNL     1     -44.742  39.629  26.851  1.00  0.00    -0.345 OA
ATOM     28  C   UNL     1     -43.831  40.360  28.884  1.00  0.00     0.119 C 
ATOM     29  H   UNL     1     -43.588  38.384  28.014  1.00  0.00     0.067 H 
ATOM     30  C   UNL     1     -43.899  40.770  26.545  1.00  0.00     0.169 C 
ATOM     31  C   UNL     1     -43.050  41.047  27.783  1.00  0.00     0.173 C 
ATOM     32  H   UNL     1     -44.638  41.012  29.240  1.00  0.00     0.066 H 
ATOM     33  H   UNL     1     -43.275  40.489  25.690  1.00  0.00     0.088 H 
ATOM     34  F   UNL     1     -42.918  42.361  28.080  1.00  0.00    -0.239 F 
ATOM     35  H   UNL     1     -42.046  40.619  27.683  1.00  0.00     0.074 H 
BRANCH  28  36
ATOM     36  O   UNL     1     -43.016  40.010  29.994  1.00  0.00    -0.387 OA
ATOM     37  H   UNL     1     -42.542  39.190  29.754  1.00  0.00     0.211 HD
ENDBRANCH  28  36
BRANCH  30  38
ATOM     38  N   UNL     1     -44.739  41.886  26.136  1.00  0.00    -0.302 N 
ATOM     39  C   UNL     1     -46.072  42.066  26.409  1.00  0.00     0.019 A 
ATOM     40  C   UNL     1     -44.279  42.944  25.393  1.00  0.00     0.148 A 
ATOM     41  C   UNL     1     -46.480  43.243  25.806  1.00  0.00     0.033 A 
ATOM     42  H   UNL     1     -46.631  41.333  26.974  1.00  0.00     0.083 H 
ATOM     43  C   UNL     1     -45.333  43.826  25.180  1.00  0.00     0.071 A 
ATOM     44  N   UNL     1     -43.013  43.080  24.960  1.00  0.00    -0.218 NA
ATOM     45  C   UNL     1     -45.022  44.988  24.450  1.00  0.00     0.137 A 
ATOM     46  C   UNL     1     -42.851  44.212  24.258  1.00  0.00     0.120 A 
ATOM     47  N   UNL     1     -43.770  45.152  23.978  1.00  0.00    -0.219 NA
ATOM     48  H   UNL     1     -41.856  44.393  23.866  1.00  0.00     0.106 H 
BRANCH  41  49
ATOM     49  C   UNL     1     -47.846  43.780  25.806  1.00  0.00     0.094 A 
ATOM     50  C   UNL     1     -48.624  43.983  26.968  1.00  0.00    -0.016 A 
ATOM     51  N   UNL     1     -48.524  44.111  24.697  1.00  0.00    -0.176 NA
ATOM     52  C   UNL     1     -49.820  44.486  26.515  1.00  0.00     0.022 A 
ATOM     53  H   UNL     1     -48.352  43.796  27.997  1.00  0.00     0.066 H 
ATOM     54  N   UNL     1     -49.707  44.552  25.159  1.00  0.00    -0.285 N 
ATOM     55  H   UNL     1     -50.720  44.797  27.027  1.00  0.00     0.083 H 
ATOM     56  H   UNL     1     -50.394  44.882  24.489  1.00  0.00     0.189 HD
ENDBRANCH  41  49
BRANCH  45  57
ATOM     57  N   UNL     1     -45.931  46.000  24.173  1.00  0.00    -0.383 N 
ATOM     58  H   UNL     1     -46.806  45.628  23.832  1.00  0.00     0.158 HD
ATOM     59  H   UNL     1     -45.982  46.692  24.926  1.00  0.00     0.158 HD
ENDBRANCH  45  57
ENDBRANCH  30  38
ENDBRANCH   1  26
TORSDOF 9
ENDMDL
MODEL 4
REMARK VINA RESULT:      -9.3      1.574      2.154
REMARK SMILES CNc1ccc2ccc(OC[C@H]3O[C@@H](n4cc(-c5cc[nH]n5)c5c(N)ncnc54)[C@@H](F)[C@@H]3O)cc2n1
REMARK SMILES IDX 11 1 10 4 9 5 3 6 4 7 36 8 5 9 35 11 6 12 34 14 7 15 8 17
REMARK SMILES IDX 2 20 1 22 12 26 13 27 32 28 14 30 30 31 31 34 33 36 15 38
REMARK SMILES IDX 16 39 29 40 17 41 23 43 28 44 24 45 27 46 26 47 18 49 19 50
REMARK SMILES IDX 22 51 20 52 21 54 25 57
REMARK H PARENT 11 2 11 3 4 10 5 13 34 16 7 18 8 19 2 21 1 23 1 24 1 25 12 29
REMARK H PARENT 32 32 14 33 30 35 33 37 16 42 27 48 19 53 20 55 21 56 25 58
REMARK H PARENT 25 59
REMARK Flexibility Score: inf
ROOT
ATOM      1  C   UNL     1     -46.903  36.096  26.853  1.00  0.00     0.117 C 
ATOM      2  H   UNL     1     -45.915  35.977  26.393  1.00  0.00     0.073 H 
ATOM      3  H   UNL     1     -47.552  36.519  26.078  1.00  0.00     0.073 H 
ENDROOT
BRANCH   1   4
ATOM      4  O   UNL     1     -47.495  34.836  27.200  1.00  0.00    -0.491 OA
BRANCH   4   5
ATOM      5  C   UNL     1     -47.513  33.830  26.277  1.00  0.00     0.121 A 
ATOM      6  C   UNL     1     -49.518  30.242  23.880  1.00  0.00     0.126 A 
ATOM      7  C   UNL     1     -48.380  30.058  23.102  1.00  0.00    -0.019 A 
ATOM      8  N   UNL     1     -49.572  31.192  24.834  1.00  0.00    -0.231 NA
ATOM      9  C   UNL     1     -47.269  30.870  23.312  1.00  0.00    -0.049 A 
ATOM     10  H   UNL     1     -48.364  29.304  22.322  1.00  0.00     0.066 H 
ATOM     11  C   UNL     1     -48.505  31.984  25.038  1.00  0.00     0.076 A 
ATOM     12  C   UNL     1     -47.317  31.861  24.295  1.00  0.00     0.001 A 
ATOM     13  H   UNL     1     -46.382  30.733  22.699  1.00  0.00     0.063 H 
ATOM     14  C   UNL     1     -48.577  32.967  26.016  1.00  0.00     0.007 A 
ATOM     15  C   UNL     1     -46.238  32.723  24.544  1.00  0.00    -0.049 A 
ATOM     16  H   UNL     1     -49.514  33.045  26.552  1.00  0.00     0.069 H 
ATOM     17  C   UNL     1     -46.343  33.704  25.529  1.00  0.00    -0.019 A 
ATOM     18  H   UNL     1     -45.318  32.641  23.971  1.00  0.00     0.063 H 
ATOM     19  H   UNL     1     -45.509  34.376  25.714  1.00  0.00     0.066 H 
BRANCH   6  20
ATOM     20  N   UNL     1     -50.638  29.434  23.615  1.00  0.00    -0.373 N 
ATOM     21  H   UNL     1     -50.744  28.759  24.367  1.00  0.00     0.161 HD
BRANCH  20  22
ATOM     22  C   UNL     1     -51.863  30.179  23.370  1.00  0.00     0.005 C 
ATOM     23  H   UNL     1     -52.714  29.593  23.733  1.00  0.00     0.045 H 
ATOM     24  H   UNL     1     -52.021  30.357  22.301  1.00  0.00     0.045 H 
ATOM     25  H   UNL     1     -51.866  31.132  23.910  1.00  0.00     0.045 H 
ENDBRANCH  20  22
ENDBRANCH   6  20
ENDBRANCH   4   5
ENDBRANCH   1   4
BRANCH   1  26
ATOM     26  C   UNL     1     -46.883  37.046  28.053  1.00  0.00     0.123 C 
ATOM     27  O   UNL     1     -45.588  37.652  28.231  1.00  0.00    -0.345 OA
ATOM     28  C   UNL     1     -47.837  38.217  27.882  1.00  0.00     0.119 C 
ATOM     29  H   UNL     1     -47.110  36.480  28.966  1.00  0.00     0.067 H 
ATOM     30  C   UNL     1     -45.786  38.963  28.820  1.00  0.00     0.169 C 
ATOM     31  C   UNL     1     -47.291  39.199  28.899  1.00  0.00     0.173 C 
ATOM     32  H   UNL     1     -47.780  38.645  26.874  1.00  0.00     0.066 H 
ATOM     33  H   UNL     1     -45.335  38.939  29.818  1.00  0.00     0.088 H 
ATOM     34  F   UNL     1     -47.674  40.453  28.560  1.00  0.00    -0.239 F 
ATOM     35  H   UNL     1     -47.678  38.986  29.901  1.00  0.00     0.074 H 
BRANCH  28  36
ATOM     36  O   UNL     1     -49.186  37.857  28.141  1.00  0.00    -0.387 OA
ATOM     37  H   UNL     1     -49.560  37.523  27.303  1.00  0.00     0.211 HD
ENDBRANCH  28  36
BRANCH  30  38
ATOM     38  N   UNL     1     -45.067  39.953  28.031  1.00  0.00    -0.302 N 
ATOM     39  C   UNL     1     -45.493  40.566  26.879  1.00  0.00     0.019 A 
ATOM     40  C   UNL     1     -43.817  40.416  28.359  1.00  0.00     0.148 A 
ATOM     41  C   UNL     1     -44.489  41.412  26.445  1.00  0.00     0.033 A 
ATOM     42  H   UNL     1     -46.452  40.327  26.441  1.00  0.00     0.083 H 
ATOM     43  C   UNL     1     -43.425  41.346  27.401  1.00  0.00     0.071 A 
ATOM     44  N   UNL     1     -43.114  40.021  29.435  1.00  0.00    -0.218 NA
ATOM     45  C   UNL     1     -42.168  41.942  27.604  1.00  0.00     0.137 A 
ATOM     46  C   UNL     1     -41.926  40.641  29.501  1.00  0.00     0.120 A 
ATOM     47  N   UNL     1     -41.420  41.557  28.658  1.00  0.00    -0.219 NA
ATOM     48  H   UNL     1     -41.293  40.372  30.341  1.00  0.00     0.106 H 
BRANCH  41  49
ATOM     49  C   UNL     1     -44.514  42.218  25.219  1.00  0.00     0.094 A 
ATOM     50  C   UNL     1     -45.409  43.288  24.985  1.00  0.00    -0.016 A 
ATOM     51  N   UNL     1     -43.709  42.012  24.166  1.00  0.00    -0.176 NA
ATOM     52  C   UNL     1     -45.094  43.751  23.730  1.00  0.00     0.022 A 
ATOM     53  H   UNL     1     -46.176  43.675  25.641  1.00  0.00     0.066 H 
ATOM     54  N   UNL     1     -44.071  42.966  23.290  1.00  0.00    -0.285 N 
ATOM     55  H   UNL     1     -45.497  44.553  23.127  1.00  0.00     0.083 H 
ATOM     56  H   UNL     1     -43.576  43.021  22.405  1.00  0.00     0.189 HD
ENDBRANCH  41  49
BRANCH  45  57
ATOM     57  N   UNL     1     -41.627  42.918  26.778  1.00  0.00    -0.383 N 
ATOM     58  H   UNL     1     -40.733  42.633  26.406  1.00  0.00     0.158 HD
ATOM     59  H   UNL     1     -42.312  43.286  26.113  1.00  0.00     0.158 HD
ENDBRANCH  45  57
ENDBRANCH  30  38
ENDBRANCH   1  26
TORSDOF 9
ENDMDL
MODEL 5
REMARK VINA RESULT:      -9.3      1.991      2.666
REMARK SMILES CNc1ccc2ccc(OC[C@H]3O[C@@H](n4cc(-c5cc[nH]n5)c5c(N)ncnc54)[C@@H](F)[C@@H]3O)cc2n1
REMARK SMILES IDX 11 1 10 4 9 5 3 6 4 7 36 8 5 9 35 11 6 12 34 14 7 15 8 17
REMARK SMILES IDX 2 20 1 22 12 26 13 27 32 28 14 30 30 31 31 34 33 36 15 38
REMARK SMILES IDX 16 39 29 40 17 41 23 43 28 44 24 45 27 46 26 47 18 49 19 50
REMARK SMILES IDX 22 51 20 52 21 54 25 57
REMARK H PARENT 11 2 11 3 4 10 5 13 34 16 7 18 8 19 2 21 1 23 1 24 1 25 12 29
REMARK H PARENT 32 32 14 33 30 35 33 37 16 42 27 48 19 53 20 55 21 56 25 58
REMARK H PARENT 25 59
REMARK Flexibility Score: inf
ROOT
ATOM      1  C   UNL     1     -46.356  34.222  26.352  1.00  0.00     0.117 C 
ATOM      2  H   UNL     1     -45.682  33.393  26.597  1.00  0.00     0.073 H 
ATOM      3  H   UNL     1     -45.761  34.943  25.780  1.00  0.00     0.073 H 
ENDROOT
BRANCH   1   4
ATOM      4  O   UNL     1     -47.415  33.818  25.473  1.00  0.00    -0.491 OA
BRANCH   4   5
ATOM      5  C   UNL     1     -47.449  32.533  25.014  1.00  0.00     0.121 A 
ATOM      6  C   UNL     1     -49.230  28.131  24.707  1.00  0.00     0.126 A 
ATOM      7  C   UNL     1     -48.277  27.755  23.767  1.00  0.00    -0.019 A 
ATOM      8  N   UNL     1     -49.248  29.371  25.233  1.00  0.00    -0.231 NA
ATOM      9  C   UNL     1     -47.317  28.678  23.360  1.00  0.00    -0.049 A 
ATOM     10  H   UNL     1     -48.293  26.760  23.336  1.00  0.00     0.066 H 
ATOM     11  C   UNL     1     -48.329  30.270  24.840  1.00  0.00     0.076 A 
ATOM     12  C   UNL     1     -47.331  29.968  23.895  1.00  0.00     0.001 A 
ATOM     13  H   UNL     1     -46.577  28.389  22.618  1.00  0.00     0.063 H 
ATOM     14  C   UNL     1     -48.365  31.548  25.381  1.00  0.00     0.007 A 
ATOM     15  C   UNL     1     -46.403  30.949  23.514  1.00  0.00    -0.049 A 
ATOM     16  H   UNL     1     -49.160  31.748  26.088  1.00  0.00     0.069 H 
ATOM     17  C   UNL     1     -46.469  32.225  24.071  1.00  0.00    -0.019 A 
ATOM     18  H   UNL     1     -45.632  30.728  22.780  1.00  0.00     0.063 H 
ATOM     19  H   UNL     1     -45.753  32.985  23.767  1.00  0.00     0.066 H 
BRANCH   6  20
ATOM     20  N   UNL     1     -50.211  27.190  25.067  1.00  0.00    -0.373 N 
ATOM     21  H   UNL     1     -50.542  26.721  24.229  1.00  0.00     0.161 HD
BRANCH  20  22
ATOM     22  C   UNL     1     -49.784  26.248  26.090  1.00  0.00     0.005 C 
ATOM     23  H   UNL     1     -48.730  26.431  26.324  1.00  0.00     0.045 H 
ATOM     24  H   UNL     1     -49.867  25.211  25.744  1.00  0.00     0.045 H 
ATOM     25  H   UNL     1     -50.354  26.377  27.016  1.00  0.00     0.045 H 
ENDBRANCH  20  22
ENDBRANCH   6  20
ENDBRANCH   4   5
ENDBRANCH   1   4
BRANCH   1  26
ATOM     26  C   UNL     1     -46.909  34.918  27.599  1.00  0.00     0.123 C 
ATOM     27  O   UNL     1     -45.901  35.711  28.256  1.00  0.00    -0.345 OA
ATOM     28  C   UNL     1     -48.020  35.901  27.271  1.00  0.00     0.119 C 
ATOM     29  H   UNL     1     -47.249  34.159  28.315  1.00  0.00     0.067 H 
ATOM     30  C   UNL     1     -46.564  36.829  28.902  1.00  0.00     0.169 C 
ATOM     31  C   UNL     1     -48.039  36.760  28.519  1.00  0.00     0.173 C 
ATOM     32  H   UNL     1     -47.777  36.512  26.393  1.00  0.00     0.066 H 
ATOM     33  H   UNL     1     -46.427  36.703  29.982  1.00  0.00     0.088 H 
ATOM     34  F   UNL     1     -48.591  37.961  28.227  1.00  0.00    -0.239 F 
ATOM     35  H   UNL     1     -48.637  36.295  29.310  1.00  0.00     0.074 H 
BRANCH  28  36
ATOM     36  O   UNL     1     -49.263  35.253  27.036  1.00  0.00    -0.387 OA
ATOM     37  H   UNL     1     -49.832  35.434  27.808  1.00  0.00     0.211 HD
ENDBRANCH  28  36
BRANCH  30  38
ATOM     38  N   UNL     1     -45.902  38.065  28.511  1.00  0.00    -0.302 N 
ATOM     39  C   UNL     1     -46.255  38.909  27.488  1.00  0.00     0.019 A 
ATOM     40  C   UNL     1     -44.792  38.561  29.149  1.00  0.00     0.148 A 
ATOM     41  C   UNL     1     -45.341  39.945  27.450  1.00  0.00     0.033 A 
ATOM     42  H   UNL     1     -47.100  38.689  26.849  1.00  0.00     0.083 H 
ATOM     43  C   UNL     1     -44.419  39.748  28.527  1.00  0.00     0.071 A 
ATOM     44  N   UNL     1     -44.190  37.977  30.200  1.00  0.00    -0.218 NA
ATOM     45  C   UNL     1     -43.305  40.405  29.078  1.00  0.00     0.137 A 
ATOM     46  C   UNL     1     -43.129  38.685  30.615  1.00  0.00     0.120 A 
ATOM     47  N   UNL     1     -42.658  39.841  30.118  1.00  0.00    -0.219 NA
ATOM     48  H   UNL     1     -42.583  38.275  31.459  1.00  0.00     0.106 H 
BRANCH  41  49
ATOM     49  C   UNL     1     -45.321  41.039  26.470  1.00  0.00     0.094 A 
ATOM     50  C   UNL     1     -44.322  41.210  25.485  1.00  0.00    -0.016 A 
ATOM     51  N   UNL     1     -46.235  42.019  26.418  1.00  0.00    -0.176 NA
ATOM     52  C   UNL     1     -44.684  42.345  24.800  1.00  0.00     0.022 A 
ATOM     53  H   UNL     1     -43.457  40.590  25.293  1.00  0.00     0.066 H 
ATOM     54  N   UNL     1     -45.833  42.782  25.387  1.00  0.00    -0.285 N 
ATOM     55  H   UNL     1     -44.238  42.865  23.964  1.00  0.00     0.083 H 
ATOM     56  H   UNL     1     -46.393  43.592  25.139  1.00  0.00     0.189 HD
ENDBRANCH  41  49
BRANCH  45  57
ATOM     57  N   UNL     1     -42.810  41.618  28.619  1.00  0.00    -0.383 N 
ATOM     58  H   UNL     1     -42.174  42.033  29.284  1.00  0.00     0.158 HD
ATOM     59  H   UNL     1     -42.496  41.565  27.646  1.00  0.00     0.158 HD
ENDBRANCH  45  57
ENDBRANCH  30  38
ENDBRANCH   1  26
TORSDOF 9
ENDMDL
MODEL 6
REMARK VINA RESULT:      -9.1      2.541      3.669
REMARK SMILES CNc1ccc2ccc(OC[C@H]3O[C@@H](n4cc(-c5cc[nH]n5)c5c(N)ncnc54)[C@@H](F)[C@@H]3O)cc2n1
REMARK SMILES IDX 11 1 10 4 9 5 3 6 4 7 36 8 5 9 35 11 6 12 34 14 7 15 8 17
REMARK SMILES IDX 2 20 1 22 12 26 13 27 32 28 14 30 30 31 31 34 33 36 15 38
REMARK SMILES IDX 16 39 29 40 17 41 23 43 28 44 24 45 27 46 26 47 18 49 19 50
REMARK SMILES IDX 22 51 20 52 21 54 25 57
REMARK H PARENT 11 2 11 3 4 10 5 13 34 16 7 18 8 19 2 21 1 23 1 24 1 25 12 29
REMARK H PARENT 32 32 14 33 30 35 33 37 16 42 27 48 19 53 20 55 21 56 25 58
REMARK H PARENT 25 59
REMARK Flexibility Score: inf
ROOT
ATOM      1  C   UNL     1     -47.473  35.280  28.253  1.00  0.00     0.117 C 
ATOM      2  H   UNL     1     -48.214  35.644  28.973  1.00  0.00     0.073 H 
ATOM      3  H   UNL     1     -47.227  34.256  28.558  1.00  0.00     0.073 H 
ENDROOT
BRANCH   1   4
ATOM      4  O   UNL     1     -48.013  35.165  26.929  1.00  0.00    -0.491 OA
BRANCH   4   5
ATOM      5  C   UNL     1     -47.772  34.031  26.206  1.00  0.00     0.121 A 
ATOM      6  C   UNL     1     -48.766  29.649  24.642  1.00  0.00     0.126 A 
ATOM      7  C   UNL     1     -47.635  29.625  23.834  1.00  0.00    -0.019 A 
ATOM      8  N   UNL     1     -49.060  30.716  25.409  1.00  0.00    -0.231 NA
ATOM      9  C   UNL     1     -46.783  30.726  23.817  1.00  0.00    -0.049 A 
ATOM     10  H   UNL     1     -47.427  28.766  23.204  1.00  0.00     0.066 H 
ATOM     11  C   UNL     1     -48.246  31.786  25.393  1.00  0.00     0.076 A 
ATOM     12  C   UNL     1     -47.083  31.840  24.605  1.00  0.00     0.001 A 
ATOM     13  H   UNL     1     -45.903  30.712  23.179  1.00  0.00     0.063 H 
ATOM     14  C   UNL     1     -48.566  32.885  26.180  1.00  0.00     0.007 A 
ATOM     15  C   UNL     1     -46.275  32.987  24.619  1.00  0.00    -0.049 A 
ATOM     16  H   UNL     1     -49.480  32.814  26.755  1.00  0.00     0.069 H 
ATOM     17  C   UNL     1     -46.626  34.077  25.415  1.00  0.00    -0.019 A 
ATOM     18  H   UNL     1     -45.377  33.042  24.009  1.00  0.00     0.063 H 
ATOM     19  H   UNL     1     -46.002  34.967  25.417  1.00  0.00     0.066 H 
BRANCH   6  20
ATOM     20  N   UNL     1     -49.628  28.538  24.605  1.00  0.00    -0.373 N 
ATOM     21  H   UNL     1     -50.588  28.864  24.667  1.00  0.00     0.161 HD
BRANCH  20  22
ATOM     22  C   UNL     1     -49.418  27.661  23.464  1.00  0.00     0.005 C 
ATOM     23  H   UNL     1     -49.460  28.256  22.546  1.00  0.00     0.045 H 
ATOM     24  H   UNL     1     -50.199  26.896  23.393  1.00  0.00     0.045 H 
ATOM     25  H   UNL     1     -48.433  27.183  23.502  1.00  0.00     0.045 H 
ENDBRANCH  20  22
ENDBRANCH   6  20
ENDBRANCH   4   5
ENDBRANCH   1   4
BRANCH   1  26
ATOM     26  C   UNL     1     -46.191  36.116  28.255  1.00  0.00     0.123 C 
ATOM     27  O   UNL     1     -46.143  37.022  27.136  1.00  0.00    -0.345 OA
ATOM     28  C   UNL     1     -46.081  37.010  29.480  1.00  0.00     0.119 C 
ATOM     29  H   UNL     1     -45.324  35.447  28.174  1.00  0.00     0.067 H 
ATOM     30  C   UNL     1     -45.387  38.193  27.540  1.00  0.00     0.169 C 
ATOM     31  C   UNL     1     -45.054  38.024  29.020  1.00  0.00     0.173 C 
ATOM     32  H   UNL     1     -47.032  37.508  29.706  1.00  0.00     0.066 H 
ATOM     33  H   UNL     1     -44.478  38.215  26.929  1.00  0.00     0.088 H 
ATOM     34  F   UNL     1     -45.188  39.157  29.749  1.00  0.00    -0.239 F 
ATOM     35  H   UNL     1     -44.036  37.648  29.161  1.00  0.00     0.074 H 
BRANCH  28  36
ATOM     36  O   UNL     1     -45.664  36.295  30.634  1.00  0.00    -0.387 OA
ATOM     37  H   UNL     1     -45.569  36.946  31.356  1.00  0.00     0.211 HD
ENDBRANCH  28  36
BRANCH  30  38
ATOM     38  N   UNL     1     -46.159  39.388  27.234  1.00  0.00    -0.302 N 
ATOM     39  C   UNL     1     -47.488  39.607  27.493  1.00  0.00     0.019 A 
ATOM     40  C   UNL     1     -45.625  40.493  26.620  1.00  0.00     0.148 A 
ATOM     41  C   UNL     1     -47.820  40.860  27.011  1.00  0.00     0.033 A 
ATOM     42  H   UNL     1     -48.099  38.848  27.962  1.00  0.00     0.083 H 
ATOM     43  C   UNL     1     -46.628  41.447  26.478  1.00  0.00     0.071 A 
ATOM     44  N   UNL     1     -44.342  40.609  26.235  1.00  0.00    -0.218 NA
ATOM     45  C   UNL     1     -46.240  42.662  25.886  1.00  0.00     0.137 A 
ATOM     46  C   UNL     1     -44.105  41.799  25.663  1.00  0.00     0.120 A 
ATOM     47  N   UNL     1     -44.968  42.810  25.464  1.00  0.00    -0.219 NA
ATOM     48  H   UNL     1     -43.090  41.969  25.317  1.00  0.00     0.106 H 
BRANCH  41  49
ATOM     49  C   UNL     1     -49.158  41.465  27.036  1.00  0.00     0.094 A 
ATOM     50  C   UNL     1     -50.024  41.440  28.152  1.00  0.00    -0.016 A 
ATOM     51  N   UNL     1     -49.723  42.085  25.989  1.00  0.00    -0.176 NA
ATOM     52  C   UNL     1     -51.155  42.105  27.743  1.00  0.00     0.022 A 
ATOM     53  H   UNL     1     -49.850  41.003  29.126  1.00  0.00     0.066 H 
ATOM     54  N   UNL     1     -50.922  42.477  26.454  1.00  0.00    -0.285 N 
ATOM     55  H   UNL     1     -52.082  42.344  28.246  1.00  0.00     0.083 H 
ATOM     56  H   UNL     1     -51.535  42.995  25.831  1.00  0.00     0.189 HD
ENDBRANCH  41  49
BRANCH  45  57
ATOM     57  N   UNL     1     -47.090  43.744  25.698  1.00  0.00    -0.383 N 
ATOM     58  H   UNL     1     -47.617  43.949  26.534  1.00  0.00     0.158 HD
ATOM     59  H   UNL     1     -46.620  44.530  25.240  1.00  0.00     0.158 HD
ENDBRANCH  45  57
ENDBRANCH  30  38
ENDBRANCH   1  26
TORSDOF 9
ENDMDL
MODEL 7
REMARK VINA RESULT:      -9.0      3.497     11.895
REMARK SMILES CNc1ccc2ccc(OC[C@H]3O[C@@H](n4cc(-c5cc[nH]n5)c5c(N)ncnc54)[C@@H](F)[C@@H]3O)cc2n1
REMARK SMILES IDX 11 1 10 4 9 5 3 6 4 7 36 8 5 9 35 11 6 12 34 14 7 15 8 17
REMARK SMILES IDX 2 20 1 22 12 26 13 27 32 28 14 30 30 31 31 34 33 36 15 38
REMARK SMILES IDX 16 39 29 40 17 41 23 43 28 44 24 45 27 46 26 47 18 49 19 50
REMARK SMILES IDX 22 51 20 52 21 54 25 57
REMARK H PARENT 11 2 11 3 4 10 5 13 34 16 7 18 8 19 2 21 1 23 1 24 1 25 12 29
REMARK H PARENT 32 32 14 33 30 35 33 37 16 42 27 48 19 53 20 55 21 56 25 58
REMARK H PARENT 25 59
REMARK Flexibility Score: inf
ROOT
ATOM      1  C   UNL     1     -46.684  33.179  26.951  1.00  0.00     0.117 C 
ATOM      2  H   UNL     1     -45.628  33.284  26.681  1.00  0.00     0.073 H 
ATOM      3  H   UNL     1     -46.781  32.200  27.436  1.00  0.00     0.073 H 
ENDROOT
BRANCH   1   4
ATOM      4  O   UNL     1     -47.091  34.136  27.938  1.00  0.00    -0.491 OA
BRANCH   4   5
ATOM      5  C   UNL     1     -46.643  35.423  27.844  1.00  0.00     0.121 A 
ATOM      6  C   UNL     1     -44.061  39.177  29.214  1.00  0.00     0.126 A 
ATOM      7  C   UNL     1     -44.507  39.941  28.141  1.00  0.00    -0.019 A 
ATOM      8  N   UNL     1     -44.477  37.910  29.396  1.00  0.00    -0.231 NA
ATOM      9  C   UNL     1     -45.408  39.387  27.235  1.00  0.00    -0.049 A 
ATOM     10  H   UNL     1     -44.141  40.952  27.996  1.00  0.00     0.066 H 
ATOM     11  C   UNL     1     -45.342  37.365  28.522  1.00  0.00     0.076 A 
ATOM     12  C   UNL     1     -45.841  38.071  27.413  1.00  0.00     0.001 A 
ATOM     13  H   UNL     1     -45.751  39.980  26.391  1.00  0.00     0.063 H 
ATOM     14  C   UNL     1     -45.755  36.054  28.715  1.00  0.00     0.007 A 
ATOM     15  C   UNL     1     -46.734  37.450  26.526  1.00  0.00    -0.049 A 
ATOM     16  H   UNL     1     -45.332  35.536  29.566  1.00  0.00     0.069 H 
ATOM     17  C   UNL     1     -47.126  36.130  26.744  1.00  0.00    -0.019 A 
ATOM     18  H   UNL     1     -47.122  37.984  25.663  1.00  0.00     0.063 H 
ATOM     19  H   UNL     1     -47.812  35.649  26.051  1.00  0.00     0.066 H 
BRANCH   6  20
ATOM     20  N   UNL     1     -43.119  39.751  30.087  1.00  0.00    -0.373 N 
ATOM     21  H   UNL     1     -42.538  39.014  30.475  1.00  0.00     0.161 HD
BRANCH  20  22
ATOM     22  C   UNL     1     -42.329  40.817  29.491  1.00  0.00     0.005 C 
ATOM     23  H   UNL     1     -41.351  40.853  29.984  1.00  0.00     0.045 H 
ATOM     24  H   UNL     1     -42.801  41.796  29.631  1.00  0.00     0.045 H 
ATOM     25  H   UNL     1     -42.154  40.638  28.425  1.00  0.00     0.045 H 
ENDBRANCH  20  22
ENDBRANCH   6  20
ENDBRANCH   4   5
ENDBRANCH   1   4
BRANCH   1  26
ATOM     26  C   UNL     1     -47.609  33.216  25.731  1.00  0.00     0.123 C 
ATOM     27  O   UNL     1     -47.338  32.131  24.824  1.00  0.00    -0.345 OA
ATOM     28  C   UNL     1     -49.073  33.050  26.105  1.00  0.00     0.119 C 
ATOM     29  H   UNL     1     -47.444  34.153  25.182  1.00  0.00     0.067 H 
ATOM     30  C   UNL     1     -48.580  31.787  24.155  1.00  0.00     0.169 C 
ATOM     31  C   UNL     1     -49.678  32.644  24.778  1.00  0.00     0.173 C 
ATOM     32  H   UNL     1     -49.215  32.255  26.847  1.00  0.00     0.066 H 
ATOM     33  H   UNL     1     -48.448  32.019  23.093  1.00  0.00     0.088 H 
ATOM     34  F   UNL     1     -50.838  31.982  24.999  1.00  0.00    -0.239 F 
ATOM     35  H   UNL     1     -49.900  33.521  24.160  1.00  0.00     0.074 H 
BRANCH  28  36
ATOM     36  O   UNL     1     -49.638  34.248  26.619  1.00  0.00    -0.387 OA
ATOM     37  H   UNL     1     -49.678  34.154  27.590  1.00  0.00     0.211 HD
ENDBRANCH  28  36
BRANCH  30  38
ATOM     38  N   UNL     1     -48.802  30.353  24.274  1.00  0.00    -0.302 N 
ATOM     39  C   UNL     1     -48.310  29.513  25.240  1.00  0.00     0.019 A 
ATOM     40  C   UNL     1     -49.569  29.634  23.391  1.00  0.00     0.148 A 
ATOM     41  C   UNL     1     -48.742  28.230  24.956  1.00  0.00     0.033 A 
ATOM     42  H   UNL     1     -47.665  29.882  26.026  1.00  0.00     0.083 H 
ATOM     43  C   UNL     1     -49.574  28.302  23.793  1.00  0.00     0.071 A 
ATOM     44  N   UNL     1     -50.203  30.157  22.327  1.00  0.00    -0.218 NA
ATOM     45  C   UNL     1     -50.341  27.426  23.005  1.00  0.00     0.137 A 
ATOM     46  C   UNL     1     -50.877  29.219  21.645  1.00  0.00     0.120 A 
ATOM     47  N   UNL     1     -50.973  27.906  21.915  1.00  0.00    -0.219 NA
ATOM     48  H   UNL     1     -51.412  29.560  20.764  1.00  0.00     0.106 H 
BRANCH  41  49
ATOM     49  C   UNL     1     -48.396  27.019  25.711  1.00  0.00     0.094 A 
ATOM     50  C   UNL     1     -47.101  26.455  25.765  1.00  0.00    -0.016 A 
ATOM     51  N   UNL     1     -49.278  26.291  26.412  1.00  0.00    -0.176 NA
ATOM     52  C   UNL     1     -47.227  25.344  26.564  1.00  0.00     0.022 A 
ATOM     53  H   UNL     1     -46.196  26.810  25.292  1.00  0.00     0.066 H 
ATOM     54  N   UNL     1     -48.538  25.297  26.931  1.00  0.00    -0.285 N 
ATOM     55  H   UNL     1     -46.515  24.602  26.898  1.00  0.00     0.083 H 
ATOM     56  H   UNL     1     -48.996  24.616  27.529  1.00  0.00     0.189 HD
ENDBRANCH  41  49
BRANCH  45  57
ATOM     57  N   UNL     1     -50.498  26.073  23.272  1.00  0.00    -0.383 N 
ATOM     58  H   UNL     1     -49.962  25.505  22.632  1.00  0.00     0.158 HD
ATOM     59  H   UNL     1     -50.406  25.862  24.270  1.00  0.00     0.158 HD
ENDBRANCH  45  57
ENDBRANCH  30  38
ENDBRANCH   1  26
TORSDOF 9
ENDMDL
