MODEL 1
REMARK VINA RESULT:     -11.7      0.000      0.000
REMARK SMILES O=C(NCc1ccc2cc(CN3C[C@H]4CCC[C@H]4C3)[nH]c2c1)c1cc(=O)n2ccccc2n1
REMARK SMILES IDX 5 1 6 2 7 3 8 4 9 5 10 6 20 7 21 8 22 9 4 15 3 18 1 19 2 20
REMARK SMILES IDX 23 22 24 23 33 24 25 25 32 27 26 28 27 29 31 30 28 31 30 32
REMARK SMILES IDX 29 34 11 38 12 41 13 42 19 43 14 44 18 47 15 50 17 52 16 54
REMARK H PARENT 6 10 7 11 9 12 20 13 22 14 4 16 4 17 3 21 24 26 31 33 28 35
REMARK H PARENT 30 36 29 37 11 39 11 40 13 45 13 46 19 48 19 49 14 51 18 53
REMARK H PARENT 15 55 15 56 17 57 17 58 16 59 16 60
REMARK Flexibility Score: inf
ROOT
ATOM      1  C   UNL     1     -47.858  35.135  26.947  1.00  0.00    -0.027 A 
ATOM      2  C   UNL     1     -46.552  35.075  26.447  1.00  0.00    -0.057 A 
ATOM      3  C   UNL     1     -46.140  34.021  25.620  1.00  0.00    -0.052 A 
ATOM      4  C   UNL     1     -47.059  33.012  25.281  1.00  0.00    -0.000 A 
ATOM      5  C   UNL     1     -46.988  31.834  24.488  1.00  0.00    -0.032 A 
ATOM      6  C   UNL     1     -48.222  31.214  24.524  1.00  0.00     0.030 A 
ATOM      7  N   UNL     1     -49.044  32.002  25.296  1.00  0.00    -0.357 N 
ATOM      8  C   UNL     1     -48.357  33.093  25.777  1.00  0.00     0.046 A 
ATOM      9  C   UNL     1     -48.787  34.137  26.605  1.00  0.00    -0.033 A 
ATOM     10  H   UNL     1     -45.834  35.854  26.699  1.00  0.00     0.063 H 
ATOM     11  H   UNL     1     -45.122  33.988  25.244  1.00  0.00     0.063 H 
ATOM     12  H   UNL     1     -46.120  31.474  23.951  1.00  0.00     0.065 H 
ATOM     13  H   UNL     1     -50.013  31.802  25.498  1.00  0.00     0.166 HD
ATOM     14  H   UNL     1     -49.810  34.179  26.970  1.00  0.00     0.065 H 
ENDROOT
BRANCH   1  15
ATOM     15  C   UNL     1     -48.288  36.292  27.810  1.00  0.00     0.043 C 
ATOM     16  H   UNL     1     -49.267  36.671  27.492  1.00  0.00     0.054 H 
ATOM     17  H   UNL     1     -48.394  35.983  28.856  1.00  0.00     0.054 H 
BRANCH  15  18
ATOM     18  N   UNL     1     -47.325  37.360  27.750  1.00  0.00    -0.347 N 
ATOM     19  O   UNL     1     -46.467  37.024  29.852  1.00  0.00    -0.268 OA
ATOM     20  C   UNL     1     -46.453  37.612  28.777  1.00  0.00     0.270 C 
ATOM     21  H   UNL     1     -47.168  37.856  26.878  1.00  0.00     0.164 HD
BRANCH  20  22
ATOM     22  C   UNL     1     -45.457  38.694  28.437  1.00  0.00     0.136 A 
ATOM     23  C   UNL     1     -45.637  39.323  27.274  1.00  0.00     0.035 A 
ATOM     24  N   UNL     1     -44.443  38.965  29.328  1.00  0.00    -0.225 NA
ATOM     25  C   UNL     1     -44.691  40.382  26.902  1.00  0.00     0.258 A 
ATOM     26  H   UNL     1     -46.439  39.101  26.582  1.00  0.00     0.071 H 
ATOM     27  C   UNL     1     -43.609  39.902  28.995  1.00  0.00     0.140 A 
ATOM     28  O   UNL     1     -44.848  40.967  25.831  1.00  0.00    -0.269 OA
ATOM     29  N   UNL     1     -43.678  40.635  27.816  1.00  0.00    -0.268 N 
ATOM     30  C   UNL     1     -42.494  40.229  29.929  1.00  0.00    -0.019 A 
ATOM     31  C   UNL     1     -42.743  41.626  27.535  1.00  0.00     0.014 A 
ATOM     32  C   UNL     1     -41.619  41.190  29.614  1.00  0.00    -0.057 A 
ATOM     33  H   UNL     1     -42.431  39.662  30.850  1.00  0.00     0.066 H 
ATOM     34  C   UNL     1     -41.744  41.913  28.377  1.00  0.00    -0.045 A 
ATOM     35  H   UNL     1     -42.857  42.159  26.594  1.00  0.00     0.082 H 
ATOM     36  H   UNL     1     -40.800  41.442  30.281  1.00  0.00     0.062 H 
ATOM     37  H   UNL     1     -41.020  42.688  28.148  1.00  0.00     0.064 H 
ENDBRANCH  20  22
ENDBRANCH  15  18
ENDBRANCH   1  15
BRANCH   6  38
ATOM     38  C   UNL     1     -48.713  29.968  23.867  1.00  0.00     0.039 C 
ATOM     39  H   UNL     1     -49.809  30.004  23.794  1.00  0.00     0.050 H 
ATOM     40  H   UNL     1     -48.360  29.952  22.828  1.00  0.00     0.050 H 
BRANCH  38  41
ATOM     41  N   UNL     1     -48.330  28.720  24.514  1.00  0.00    -0.297 NA
ATOM     42  C   UNL     1     -47.593  27.763  23.693  1.00  0.00     0.002 C 
ATOM     43  C   UNL     1     -49.420  27.966  25.130  1.00  0.00     0.002 C 
ATOM     44  C   UNL     1     -47.525  26.533  24.595  1.00  0.00    -0.025 C 
ATOM     45  H   UNL     1     -48.137  27.501  22.779  1.00  0.00     0.043 H 
ATOM     46  H   UNL     1     -46.601  28.131  23.413  1.00  0.00     0.043 H 
ATOM     47  C   UNL     1     -48.734  26.667  25.544  1.00  0.00    -0.025 C 
ATOM     48  H   UNL     1     -49.863  28.494  25.982  1.00  0.00     0.043 H 
ATOM     49  H   UNL     1     -50.215  27.734  24.412  1.00  0.00     0.043 H 
ATOM     50  C   UNL     1     -46.291  26.482  25.503  1.00  0.00    -0.049 C 
ATOM     51  H   UNL     1     -47.596  25.612  24.005  1.00  0.00     0.032 H 
ATOM     52  C   UNL     1     -48.148  26.685  26.960  1.00  0.00    -0.049 C 
ATOM     53  H   UNL     1     -49.412  25.812  25.430  1.00  0.00     0.032 H 
ATOM     54  C   UNL     1     -46.824  25.953  26.823  1.00  0.00    -0.053 C 
ATOM     55  H   UNL     1     -45.509  25.838  25.089  1.00  0.00     0.027 H 
ATOM     56  H   UNL     1     -45.857  27.479  25.646  1.00  0.00     0.027 H 
ATOM     57  H   UNL     1     -48.813  26.198  27.680  1.00  0.00     0.027 H 
ATOM     58  H   UNL     1     -47.975  27.710  27.309  1.00  0.00     0.027 H 
ATOM     59  H   UNL     1     -46.147  26.158  27.657  1.00  0.00     0.027 H 
ATOM     60  H   UNL     1     -46.988  24.872  26.765  1.00  0.00     0.027 H 
ENDBRANCH  38  41
ENDBRANCH   6  38
TORSDOF 5
ENDMDL
MODEL 2
REMARK VINA RESULT:     -11.1      1.415      2.166
REMARK SMILES O=C(NCc1ccc2cc(CN3C[C@H]4CCC[C@H]4C3)[nH]c2c1)c1cc(=O)n2ccccc2n1
REMARK SMILES IDX 5 1 6 2 7 3 8 4 9 5 10 6 20 7 21 8 22 9 4 15 3 18 1 19 2 20
REMARK SMILES IDX 23 22 24 23 33 24 25 25 32 27 26 28 27 29 31 30 28 31 30 32
REMARK SMILES IDX 29 34 11 38 12 41 13 42 19 43 14 44 18 47 15 50 17 52 16 54
REMARK H PARENT 6 10 7 11 9 12 20 13 22 14 4 16 4 17 3 21 24 26 31 33 28 35
REMARK H PARENT 30 36 29 37 11 39 11 40 13 45 13 46 19 48 19 49 14 51 18 53
REMARK H PARENT 15 55 15 56 17 57 17 58 16 59 16 60
REMARK Flexibility Score: inf
ROOT
ATOM      1  C   UNL     1     -48.290  34.539  26.502  1.00  0.00    -0.027 A 
ATOM      2  C   UNL     1     -47.032  34.655  25.899  1.00  0.00    -0.057 A 
ATOM      3  C   UNL     1     -46.503  33.617  25.120  1.00  0.00    -0.052 A 
ATOM      4  C   UNL     1     -47.254  32.443  24.935  1.00  0.00    -0.000 A 
ATOM      5  C   UNL     1     -47.036  31.229  24.228  1.00  0.00    -0.032 A 
ATOM      6  C   UNL     1     -48.138  30.416  24.414  1.00  0.00     0.030 A 
ATOM      7  N   UNL     1     -49.028  31.120  25.192  1.00  0.00    -0.357 N 
ATOM      8  C   UNL     1     -48.509  32.348  25.532  1.00  0.00     0.046 A 
ATOM      9  C   UNL     1     -49.054  33.374  26.313  1.00  0.00    -0.033 A 
ATOM     10  H   UNL     1     -46.445  35.563  26.031  1.00  0.00     0.063 H 
ATOM     11  H   UNL     1     -45.524  33.723  24.663  1.00  0.00     0.063 H 
ATOM     12  H   UNL     1     -46.159  30.974  23.648  1.00  0.00     0.065 H 
ATOM     13  H   UNL     1     -49.931  30.779  25.489  1.00  0.00     0.166 HD
ATOM     14  H   UNL     1     -50.041  33.276  26.759  1.00  0.00     0.065 H 
ENDROOT
BRANCH   1  15
ATOM     15  C   UNL     1     -48.853  35.679  27.310  1.00  0.00     0.043 C 
ATOM     16  H   UNL     1     -49.723  36.119  26.808  1.00  0.00     0.054 H 
ATOM     17  H   UNL     1     -49.199  35.331  28.291  1.00  0.00     0.054 H 
BRANCH  15  18
ATOM     18  N   UNL     1     -47.860  36.699  27.517  1.00  0.00    -0.347 N 
ATOM     19  O   UNL     1     -47.077  35.868  29.507  1.00  0.00    -0.268 OA
ATOM     20  C   UNL     1     -47.013  36.682  28.595  1.00  0.00     0.270 C 
ATOM     21  H   UNL     1     -47.662  37.373  26.783  1.00  0.00     0.164 HD
BRANCH  20  22
ATOM     22  C   UNL     1     -45.977  37.779  28.532  1.00  0.00     0.136 A 
ATOM     23  C   UNL     1     -45.169  37.896  29.587  1.00  0.00     0.035 A 
ATOM     24  N   UNL     1     -45.926  38.577  27.411  1.00  0.00    -0.225 NA
ATOM     25  C   UNL     1     -44.148  38.950  29.568  1.00  0.00     0.258 A 
ATOM     26  H   UNL     1     -45.220  37.261  30.462  1.00  0.00     0.071 H 
ATOM     27  C   UNL     1     -45.021  39.507  27.398  1.00  0.00     0.140 A 
ATOM     28  O   UNL     1     -43.399  39.066  30.537  1.00  0.00    -0.269 OA
ATOM     29  N   UNL     1     -44.117  39.741  28.429  1.00  0.00    -0.268 N 
ATOM     30  C   UNL     1     -44.930  40.397  26.205  1.00  0.00    -0.019 A 
ATOM     31  C   UNL     1     -43.176  40.760  28.336  1.00  0.00     0.014 A 
ATOM     32  C   UNL     1     -44.008  41.364  26.163  1.00  0.00    -0.057 A 
ATOM     33  H   UNL     1     -45.631  40.223  25.397  1.00  0.00     0.066 H 
ATOM     34  C   UNL     1     -43.100  41.555  27.262  1.00  0.00    -0.045 A 
ATOM     35  H   UNL     1     -42.501  40.887  29.179  1.00  0.00     0.082 H 
ATOM     36  H   UNL     1     -43.925  42.022  25.303  1.00  0.00     0.062 H 
ATOM     37  H   UNL     1     -42.361  42.348  27.200  1.00  0.00     0.064 H 
ENDBRANCH  20  22
ENDBRANCH  15  18
ENDBRANCH   1  15
BRANCH   6  38
ATOM     38  C   UNL     1     -48.451  29.053  23.894  1.00  0.00     0.039 C 
ATOM     39  H   UNL     1     -49.526  28.984  23.681  1.00  0.00     0.050 H 
ATOM     40  H   UNL     1     -47.960  28.923  22.921  1.00  0.00     0.050 H 
BRANCH  38  41
ATOM     41  N   UNL     1     -48.075  27.945  24.762  1.00  0.00    -0.297 NA
ATOM     42  C   UNL     1     -48.515  28.032  26.152  1.00  0.00     0.002 C 
ATOM     43  C   UNL     1     -46.647  27.637  24.811  1.00  0.00     0.002 C 
ATOM     44  C   UNL     1     -47.807  26.844  26.800  1.00  0.00    -0.025 C 
ATOM     45  H   UNL     1     -48.172  28.954  26.635  1.00  0.00     0.043 H 
ATOM     46  H   UNL     1     -49.604  27.973  26.249  1.00  0.00     0.043 H 
ATOM     47  C   UNL     1     -46.571  26.584  25.913  1.00  0.00    -0.025 C 
ATOM     48  H   UNL     1     -46.267  27.265  23.852  1.00  0.00     0.043 H 
ATOM     49  H   UNL     1     -46.049  28.506  25.108  1.00  0.00     0.043 H 
ATOM     50  C   UNL     1     -48.612  25.540  26.779  1.00  0.00    -0.049 C 
ATOM     51  H   UNL     1     -47.504  27.083  27.827  1.00  0.00     0.032 H 
ATOM     52  C   UNL     1     -46.713  25.140  25.420  1.00  0.00    -0.049 C 
ATOM     53  H   UNL     1     -45.647  26.693  26.496  1.00  0.00     0.032 H 
ATOM     54  C   UNL     1     -47.576  24.471  26.475  1.00  0.00    -0.053 C 
ATOM     55  H   UNL     1     -49.118  25.360  27.733  1.00  0.00     0.027 H 
ATOM     56  H   UNL     1     -49.378  25.555  25.995  1.00  0.00     0.027 H 
ATOM     57  H   UNL     1     -45.740  24.650  25.316  1.00  0.00     0.027 H 
ATOM     58  H   UNL     1     -47.212  25.097  24.445  1.00  0.00     0.027 H 
ATOM     59  H   UNL     1     -48.030  23.544  26.115  1.00  0.00     0.027 H 
ATOM     60  H   UNL     1     -46.985  24.244  27.368  1.00  0.00     0.027 H 
ENDBRANCH  38  41
ENDBRANCH   6  38
TORSDOF 5
ENDMDL
MODEL 3
REMARK VINA RESULT:     -10.9      1.843      3.102
REMARK SMILES O=C(NCc1ccc2cc(CN3C[C@H]4CCC[C@H]4C3)[nH]c2c1)c1cc(=O)n2ccccc2n1
REMARK SMILES IDX 5 1 6 2 7 3 8 4 9 5 10 6 20 7 21 8 22 9 4 15 3 18 1 19 2 20
REMARK SMILES IDX 23 22 24 23 33 24 25 25 32 27 26 28 27 29 31 30 28 31 30 32
REMARK SMILES IDX 29 34 11 38 12 41 13 42 19 43 14 44 18 47 15 50 17 52 16 54
REMARK H PARENT 6 10 7 11 9 12 20 13 22 14 4 16 4 17 3 21 24 26 31 33 28 35
REMARK H PARENT 30 36 29 37 11 39 11 40 13 45 13 46 19 48 19 49 14 51 18 53
REMARK H PARENT 15 55 15 56 17 57 17 58 16 59 16 60
REMARK Flexibility Score: inf
ROOT
ATOM      1  C   UNL     1     -46.357  35.813  28.094  1.00  0.00    -0.027 A 
ATOM      2  C   UNL     1     -47.740  35.852  27.881  1.00  0.00    -0.057 A 
ATOM      3  C   UNL     1     -48.354  35.009  26.945  1.00  0.00    -0.052 A 
ATOM      4  C   UNL     1     -47.566  34.101  26.214  1.00  0.00    -0.000 A 
ATOM      5  C   UNL     1     -47.845  33.127  25.218  1.00  0.00    -0.032 A 
ATOM      6  C   UNL     1     -46.654  32.531  24.850  1.00  0.00     0.030 A 
ATOM      7  N   UNL     1     -45.667  33.102  25.620  1.00  0.00    -0.357 N 
ATOM      8  C   UNL     1     -46.194  34.067  26.446  1.00  0.00     0.046 A 
ATOM      9  C   UNL     1     -45.562  34.901  27.377  1.00  0.00    -0.033 A 
ATOM     10  H   UNL     1     -48.361  36.547  28.446  1.00  0.00     0.063 H 
ATOM     11  H   UNL     1     -49.428  35.055  26.790  1.00  0.00     0.063 H 
ATOM     12  H   UNL     1     -48.818  32.891  24.806  1.00  0.00     0.065 H 
ATOM     13  H   UNL     1     -44.687  32.860  25.575  1.00  0.00     0.166 HD
ATOM     14  H   UNL     1     -44.490  34.846  27.544  1.00  0.00     0.065 H 
ENDROOT
BRANCH   1  15
ATOM     15  C   UNL     1     -45.722  36.707  29.126  1.00  0.00     0.043 C 
ATOM     16  H   UNL     1     -46.476  37.095  29.821  1.00  0.00     0.054 H 
ATOM     17  H   UNL     1     -44.993  36.153  29.729  1.00  0.00     0.054 H 
BRANCH  15  18
ATOM     18  N   UNL     1     -45.044  37.810  28.499  1.00  0.00    -0.347 N 
ATOM     19  O   UNL     1     -46.830  39.250  28.558  1.00  0.00    -0.268 OA
ATOM     20  C   UNL     1     -45.654  39.023  28.304  1.00  0.00     0.270 C 
ATOM     21  H   UNL     1     -44.045  37.762  28.326  1.00  0.00     0.164 HD
BRANCH  20  22
ATOM     22  C   UNL     1     -44.709  40.060  27.747  1.00  0.00     0.136 A 
ATOM     23  C   UNL     1     -43.634  40.344  28.485  1.00  0.00     0.035 A 
ATOM     24  N   UNL     1     -45.004  40.640  26.534  1.00  0.00    -0.225 NA
ATOM     25  C   UNL     1     -42.689  41.348  27.981  1.00  0.00     0.258 A 
ATOM     26  H   UNL     1     -43.414  39.880  29.438  1.00  0.00     0.071 H 
ATOM     27  C   UNL     1     -44.166  41.528  26.092  1.00  0.00     0.140 A 
ATOM     28  O   UNL     1     -41.696  41.617  28.656  1.00  0.00    -0.269 OA
ATOM     29  N   UNL     1     -43.009  41.918  26.758  1.00  0.00    -0.268 N 
ATOM     30  C   UNL     1     -44.445  42.183  24.782  1.00  0.00    -0.019 A 
ATOM     31  C   UNL     1     -42.161  42.877  26.214  1.00  0.00     0.014 A 
ATOM     32  C   UNL     1     -43.600  43.101  24.301  1.00  0.00    -0.057 A 
ATOM     33  H   UNL     1     -45.344  41.886  24.257  1.00  0.00     0.066 H 
ATOM     34  C   UNL     1     -42.418  43.462  25.039  1.00  0.00    -0.045 A 
ATOM     35  H   UNL     1     -41.275  43.135  26.789  1.00  0.00     0.082 H 
ATOM     36  H   UNL     1     -43.785  43.590  23.350  1.00  0.00     0.062 H 
ATOM     37  H   UNL     1     -41.750  44.210  24.624  1.00  0.00     0.064 H 
ENDBRANCH  20  22
ENDBRANCH  15  18
ENDBRANCH   1  15
BRANCH   6  38
ATOM     38  C   UNL     1     -46.362  31.445  23.870  1.00  0.00     0.039 C 
ATOM     39  H   UNL     1     -46.262  31.879  22.866  1.00  0.00     0.050 H 
ATOM     40  H   UNL     1     -45.375  31.020  24.095  1.00  0.00     0.050 H 
BRANCH  38  41
ATOM     41  N   UNL     1     -47.338  30.364  23.815  1.00  0.00    -0.297 NA
ATOM     42  C   UNL     1     -46.812  29.027  23.557  1.00  0.00     0.002 C 
ATOM     43  C   UNL     1     -48.437  30.554  22.871  1.00  0.00     0.002 C 
ATOM     44  C   UNL     1     -48.082  28.198  23.378  1.00  0.00    -0.025 C 
ATOM     45  H   UNL     1     -46.230  28.986  22.629  1.00  0.00     0.043 H 
ATOM     46  H   UNL     1     -46.185  28.660  24.376  1.00  0.00     0.043 H 
ATOM     47  C   UNL     1     -49.156  29.208  22.924  1.00  0.00    -0.025 C 
ATOM     48  H   UNL     1     -49.091  31.387  23.153  1.00  0.00     0.043 H 
ATOM     49  H   UNL     1     -48.077  30.724  21.850  1.00  0.00     0.043 H 
ATOM     50  C   UNL     1     -48.619  27.578  24.672  1.00  0.00    -0.049 C 
ATOM     51  H   UNL     1     -47.937  27.420  22.620  1.00  0.00     0.032 H 
ATOM     52  C   UNL     1     -50.270  29.127  23.973  1.00  0.00    -0.049 C 
ATOM     53  H   UNL     1     -49.550  28.936  21.936  1.00  0.00     0.032 H 
ATOM     54  C   UNL     1     -50.126  27.733  24.559  1.00  0.00    -0.053 C 
ATOM     55  H   UNL     1     -48.321  26.529  24.774  1.00  0.00     0.027 H 
ATOM     56  H   UNL     1     -48.252  28.114  25.556  1.00  0.00     0.027 H 
ATOM     57  H   UNL     1     -51.258  29.283  23.529  1.00  0.00     0.027 H 
ATOM     58  H   UNL     1     -50.136  29.879  24.759  1.00  0.00     0.027 H 
ATOM     59  H   UNL     1     -50.627  27.634  25.526  1.00  0.00     0.027 H 
ATOM     60  H   UNL     1     -50.538  26.984  23.876  1.00  0.00     0.027 H 
ENDBRANCH  38  41
ENDBRANCH   6  38
TORSDOF 5
ENDMDL
MODEL 4
REMARK VINA RESULT:     -10.9      1.352      1.956
REMARK SMILES O=C(NCc1ccc2cc(CN3C[C@H]4CCC[C@H]4C3)[nH]c2c1)c1cc(=O)n2ccccc2n1
REMARK SMILES IDX 5 1 6 2 7 3 8 4 9 5 10 6 20 7 21 8 22 9 4 15 3 18 1 19 2 20
REMARK SMILES IDX 23 22 24 23 33 24 25 25 32 27 26 28 27 29 31 30 28 31 30 32
REMARK SMILES IDX 29 34 11 38 12 41 13 42 19 43 14 44 18 47 15 50 17 52 16 54
REMARK H PARENT 6 10 7 11 9 12 20 13 22 14 4 16 4 17 3 21 24 26 31 33 28 35
REMARK H PARENT 30 36 29 37 11 39 11 40 13 45 13 46 19 48 19 49 14 51 18 53
REMARK H PARENT 15 55 15 56 17 57 17 58 16 59 16 60
REMARK Flexibility Score: inf
ROOT
ATOM      1  C   UNL     1     -47.748  35.230  26.848  1.00  0.00    -0.027 A 
ATOM      2  C   UNL     1     -46.479  35.040  26.288  1.00  0.00    -0.057 A 
ATOM      3  C   UNL     1     -46.189  33.907  25.517  1.00  0.00    -0.052 A 
ATOM      4  C   UNL     1     -47.194  32.948  25.296  1.00  0.00    -0.000 A 
ATOM      5  C   UNL     1     -47.250  31.719  24.585  1.00  0.00    -0.032 A 
ATOM      6  C   UNL     1     -48.521  31.195  24.726  1.00  0.00     0.030 A 
ATOM      7  N   UNL     1     -49.241  32.092  25.482  1.00  0.00    -0.357 N 
ATOM      8  C   UNL     1     -48.454  33.158  25.850  1.00  0.00     0.046 A 
ATOM      9  C   UNL     1     -48.763  34.284  26.623  1.00  0.00    -0.033 A 
ATOM     10  H   UNL     1     -45.695  35.779  26.448  1.00  0.00     0.063 H 
ATOM     11  H   UNL     1     -45.198  33.774  25.093  1.00  0.00     0.063 H 
ATOM     12  H   UNL     1     -46.441  31.260  24.031  1.00  0.00     0.065 H 
ATOM     13  H   UNL     1     -50.209  31.978  25.745  1.00  0.00     0.166 HD
ATOM     14  H   UNL     1     -49.758  34.425  27.036  1.00  0.00     0.065 H 
ENDROOT
BRANCH   1  15
ATOM     15  C   UNL     1     -48.047  36.471  27.648  1.00  0.00     0.043 C 
ATOM     16  H   UNL     1     -49.009  36.903  27.350  1.00  0.00     0.054 H 
ATOM     17  H   UNL     1     -48.124  36.239  28.717  1.00  0.00     0.054 H 
BRANCH  15  18
ATOM     18  N   UNL     1     -47.011  37.454  27.473  1.00  0.00    -0.347 N 
ATOM     19  O   UNL     1     -48.380  39.283  27.699  1.00  0.00    -0.268 OA
ATOM     20  C   UNL     1     -47.263  38.799  27.558  1.00  0.00     0.270 C 
ATOM     21  H   UNL     1     -46.038  37.167  27.435  1.00  0.00     0.164 HD
BRANCH  20  22
ATOM     22  C   UNL     1     -46.005  39.628  27.467  1.00  0.00     0.136 A 
ATOM     23  C   UNL     1     -45.103  39.449  28.434  1.00  0.00     0.035 A 
ATOM     24  N   UNL     1     -45.863  40.502  26.412  1.00  0.00    -0.225 NA
ATOM     25  C   UNL     1     -43.865  40.236  28.384  1.00  0.00     0.258 A 
ATOM     26  H   UNL     1     -45.226  38.758  29.257  1.00  0.00     0.071 H 
ATOM     27  C   UNL     1     -44.767  41.196  26.373  1.00  0.00     0.140 A 
ATOM     28  O   UNL     1     -43.028  40.078  29.272  1.00  0.00    -0.269 OA
ATOM     29  N   UNL     1     -43.746  41.109  27.313  1.00  0.00    -0.268 N 
ATOM     30  C   UNL     1     -44.570  42.156  25.249  1.00  0.00    -0.019 A 
ATOM     31  C   UNL     1     -42.600  41.889  27.197  1.00  0.00     0.014 A 
ATOM     32  C   UNL     1     -43.451  42.885  25.181  1.00  0.00    -0.057 A 
ATOM     33  H   UNL     1     -45.360  42.231  24.512  1.00  0.00     0.066 H 
ATOM     34  C   UNL     1     -42.431  42.749  26.187  1.00  0.00    -0.045 A 
ATOM     35  H   UNL     1     -41.843  41.771  27.969  1.00  0.00     0.082 H 
ATOM     36  H   UNL     1     -43.289  43.589  24.372  1.00  0.00     0.062 H 
ATOM     37  H   UNL     1     -41.532  43.353  26.106  1.00  0.00     0.064 H 
ENDBRANCH  20  22
ENDBRANCH  15  18
ENDBRANCH   1  15
BRANCH   6  38
ATOM     38  C   UNL     1     -49.135  29.948  24.183  1.00  0.00     0.039 C 
ATOM     39  H   UNL     1     -50.217  29.965  24.372  1.00  0.00     0.050 H 
ATOM     40  H   UNL     1     -49.038  29.952  23.090  1.00  0.00     0.050 H 
BRANCH  38  41
ATOM     41  N   UNL     1     -48.590  28.700  24.700  1.00  0.00    -0.297 NA
ATOM     42  C   UNL     1     -47.805  27.898  23.766  1.00  0.00     0.002 C 
ATOM     43  C   UNL     1     -49.561  27.786  25.298  1.00  0.00     0.002 C 
ATOM     44  C   UNL     1     -47.562  26.613  24.553  1.00  0.00    -0.025 C 
ATOM     45  H   UNL     1     -48.370  27.655  22.859  1.00  0.00     0.043 H 
ATOM     46  H   UNL     1     -46.873  28.392  23.473  1.00  0.00     0.043 H 
ATOM     47  C   UNL     1     -48.724  26.538  25.566  1.00  0.00    -0.025 C 
ATOM     48  H   UNL     1     -50.009  28.192  26.212  1.00  0.00     0.043 H 
ATOM     49  H   UNL     1     -50.367  27.530  24.601  1.00  0.00     0.043 H 
ATOM     50  C   UNL     1     -46.281  26.620  25.394  1.00  0.00    -0.049 C 
ATOM     51  H   UNL     1     -47.570  25.740  23.889  1.00  0.00     0.032 H 
ATOM     52  C   UNL     1     -48.066  26.503  26.949  1.00  0.00    -0.049 C 
ATOM     53  H   UNL     1     -49.316  25.629  25.408  1.00  0.00     0.032 H 
ATOM     54  C   UNL     1     -46.683  25.931  26.687  1.00  0.00    -0.053 C 
ATOM     55  H   UNL     1     -45.461  26.099  24.890  1.00  0.00     0.027 H 
ATOM     56  H   UNL     1     -45.945  27.643  25.604  1.00  0.00     0.027 H 
ATOM     57  H   UNL     1     -48.636  25.890  27.654  1.00  0.00     0.027 H 
ATOM     58  H   UNL     1     -47.979  27.509  27.378  1.00  0.00     0.027 H 
ATOM     59  H   UNL     1     -45.985  26.137  27.503  1.00  0.00     0.027 H 
ATOM     60  H   UNL     1     -46.738  24.847  26.543  1.00  0.00     0.027 H 
ENDBRANCH  38  41
ENDBRANCH   6  38
TORSDOF 5
ENDMDL
MODEL 5
REMARK VINA RESULT:     -10.8      2.754     11.604
REMARK SMILES O=C(NCc1ccc2cc(CN3C[C@H]4CCC[C@H]4C3)[nH]c2c1)c1cc(=O)n2ccccc2n1
REMARK SMILES IDX 5 1 6 2 7 3 8 4 9 5 10 6 20 7 21 8 22 9 4 15 3 18 1 19 2 20
REMARK SMILES IDX 23 22 24 23 33 24 25 25 32 27 26 28 27 29 31 30 28 31 30 32
REMARK SMILES IDX 29 34 11 38 12 41 13 42 19 43 14 44 18 47 15 50 17 52 16 54
REMARK H PARENT 6 10 7 11 9 12 20 13 22 14 4 16 4 17 3 21 24 26 31 33 28 35
REMARK H PARENT 30 36 29 37 11 39 11 40 13 45 13 46 19 48 19 49 14 51 18 53
REMARK H PARENT 15 55 15 56 17 57 17 58 16 59 16 60
REMARK Flexibility Score: inf
ROOT
ATOM      1  C   UNL     1     -48.267  34.066  26.404  1.00  0.00    -0.027 A 
ATOM      2  C   UNL     1     -46.956  33.579  26.461  1.00  0.00    -0.057 A 
ATOM      3  C   UNL     1     -45.911  34.366  26.965  1.00  0.00    -0.052 A 
ATOM      4  C   UNL     1     -46.189  35.664  27.429  1.00  0.00    -0.000 A 
ATOM      5  C   UNL     1     -45.400  36.705  27.990  1.00  0.00    -0.032 A 
ATOM      6  C   UNL     1     -46.226  37.780  28.253  1.00  0.00     0.030 A 
ATOM      7  N   UNL     1     -47.499  37.405  27.891  1.00  0.00    -0.357 N 
ATOM      8  C   UNL     1     -47.500  36.129  27.376  1.00  0.00     0.046 A 
ATOM      9  C   UNL     1     -48.557  35.358  26.876  1.00  0.00    -0.033 A 
ATOM     10  H   UNL     1     -46.730  32.573  26.110  1.00  0.00     0.063 H 
ATOM     11  H   UNL     1     -44.899  33.973  26.999  1.00  0.00     0.063 H 
ATOM     12  H   UNL     1     -44.334  36.672  28.176  1.00  0.00     0.065 H 
ATOM     13  H   UNL     1     -48.319  37.988  27.974  1.00  0.00     0.166 HD
ATOM     14  H   UNL     1     -49.572  35.744  26.856  1.00  0.00     0.065 H 
ENDROOT
BRANCH   1  15
ATOM     15  C   UNL     1     -49.379  33.193  25.886  1.00  0.00     0.043 C 
ATOM     16  H   UNL     1     -50.252  33.241  26.549  1.00  0.00     0.054 H 
ATOM     17  H   UNL     1     -49.715  33.529  24.899  1.00  0.00     0.054 H 
BRANCH  15  18
ATOM     18  N   UNL     1     -48.946  31.825  25.774  1.00  0.00    -0.347 N 
ATOM     19  O   UNL     1     -49.304  31.648  23.514  1.00  0.00    -0.268 OA
ATOM     20  C   UNL     1     -48.904  31.172  24.569  1.00  0.00     0.270 C 
ATOM     21  H   UNL     1     -48.514  31.361  26.567  1.00  0.00     0.164 HD
BRANCH  20  22
ATOM     22  C   UNL     1     -48.297  29.794  24.681  1.00  0.00     0.136 A 
ATOM     23  C   UNL     1     -47.282  29.522  23.859  1.00  0.00     0.035 A 
ATOM     24  N   UNL     1     -48.815  28.916  25.607  1.00  0.00    -0.225 NA
ATOM     25  C   UNL     1     -46.663  28.193  23.934  1.00  0.00     0.258 A 
ATOM     26  H   UNL     1     -46.884  30.222  23.135  1.00  0.00     0.071 H 
ATOM     27  C   UNL     1     -48.265  27.742  25.669  1.00  0.00     0.140 A 
ATOM     28  O   UNL     1     -45.727  27.933  23.179  1.00  0.00    -0.269 OA
ATOM     29  N   UNL     1     -47.203  27.327  24.873  1.00  0.00    -0.268 N 
ATOM     30  C   UNL     1     -48.794  26.758  26.656  1.00  0.00    -0.019 A 
ATOM     31  C   UNL     1     -46.669  26.050  25.004  1.00  0.00     0.014 A 
ATOM     32  C   UNL     1     -48.247  25.541  26.744  1.00  0.00    -0.057 A 
ATOM     33  H   UNL     1     -49.622  27.072  27.281  1.00  0.00     0.066 H 
ATOM     34  C   UNL     1     -47.149  25.171  25.892  1.00  0.00    -0.045 A 
ATOM     35  H   UNL     1     -45.840  25.792  24.349  1.00  0.00     0.082 H 
ATOM     36  H   UNL     1     -48.618  24.810  27.457  1.00  0.00     0.062 H 
ATOM     37  H   UNL     1     -46.725  24.177  25.985  1.00  0.00     0.064 H 
ENDBRANCH  20  22
ENDBRANCH  15  18
ENDBRANCH   1  15
BRANCH   6  38
ATOM     38  C   UNL     1     -45.938  39.117  28.851  1.00  0.00     0.039 C 
ATOM     39  H   UNL     1     -46.875  39.566  29.205  1.00  0.00     0.050 H 
ATOM     40  H   UNL     1     -45.330  38.977  29.755  1.00  0.00     0.050 H 
BRANCH  38  41
ATOM     41  N   UNL     1     -45.267  40.068  27.975  1.00  0.00    -0.297 NA
ATOM     42  C   UNL     1     -45.468  39.884  26.540  1.00  0.00     0.002 C 
ATOM     43  C   UNL     1     -43.823  40.194  28.166  1.00  0.00     0.002 C 
ATOM     44  C   UNL     1     -44.500  40.897  25.935  1.00  0.00    -0.025 C 
ATOM     45  H   UNL     1     -45.179  38.879  26.211  1.00  0.00     0.043 H 
ATOM     46  H   UNL     1     -46.505  40.064  26.239  1.00  0.00     0.043 H 
ATOM     47  C   UNL     1     -43.412  41.101  27.010  1.00  0.00    -0.025 C 
ATOM     48  H   UNL     1     -43.566  40.620  29.142  1.00  0.00     0.043 H 
ATOM     49  H   UNL     1     -43.310  39.231  28.061  1.00  0.00     0.043 H 
ATOM     50  C   UNL     1     -45.107  42.284  25.694  1.00  0.00    -0.049 C 
ATOM     51  H   UNL     1     -44.061  40.513  25.007  1.00  0.00     0.032 H 
ATOM     52  C   UNL     1     -43.434  42.597  27.342  1.00  0.00    -0.049 C 
ATOM     53  H   UNL     1     -42.426  40.817  26.621  1.00  0.00     0.032 H 
ATOM     54  C   UNL     1     -44.000  43.246  26.091  1.00  0.00    -0.053 C 
ATOM     55  H   UNL     1     -45.411  42.418  24.650  1.00  0.00     0.027 H 
ATOM     56  H   UNL     1     -45.991  42.450  26.320  1.00  0.00     0.027 H 
ATOM     57  H   UNL     1     -42.434  42.974  27.582  1.00  0.00     0.027 H 
ATOM     58  H   UNL     1     -44.082  42.808  28.200  1.00  0.00     0.027 H 
ATOM     59  H   UNL     1     -44.376  44.256  26.279  1.00  0.00     0.027 H 
ATOM     60  H   UNL     1     -43.238  43.300  25.307  1.00  0.00     0.027 H 
ENDBRANCH  38  41
ENDBRANCH   6  38
TORSDOF 5
ENDMDL
MODEL 6
REMARK VINA RESULT:     -10.6      2.872     11.827
REMARK SMILES O=C(NCc1ccc2cc(CN3C[C@H]4CCC[C@H]4C3)[nH]c2c1)c1cc(=O)n2ccccc2n1
REMARK SMILES IDX 5 1 6 2 7 3 8 4 9 5 10 6 20 7 21 8 22 9 4 15 3 18 1 19 2 20
REMARK SMILES IDX 23 22 24 23 33 24 25 25 32 27 26 28 27 29 31 30 28 31 30 32
REMARK SMILES IDX 29 34 11 38 12 41 13 42 19 43 14 44 18 47 15 50 17 52 16 54
REMARK H PARENT 6 10 7 11 9 12 20 13 22 14 4 16 4 17 3 21 24 26 31 33 28 35
REMARK H PARENT 30 36 29 37 11 39 11 40 13 45 13 46 19 48 19 49 14 51 18 53
REMARK H PARENT 15 55 15 56 17 57 17 58 16 59 16 60
REMARK Flexibility Score: inf
ROOT
ATOM      1  C   UNL     1     -47.011  33.742  25.694  1.00  0.00    -0.027 A 
ATOM      2  C   UNL     1     -48.371  33.775  26.024  1.00  0.00    -0.057 A 
ATOM      3  C   UNL     1     -48.908  34.824  26.783  1.00  0.00    -0.052 A 
ATOM      4  C   UNL     1     -48.065  35.864  27.213  1.00  0.00    -0.000 A 
ATOM      5  C   UNL     1     -48.264  37.049  27.973  1.00  0.00    -0.032 A 
ATOM      6  C   UNL     1     -47.049  37.696  28.091  1.00  0.00     0.030 A 
ATOM      7  N   UNL     1     -46.127  36.946  27.397  1.00  0.00    -0.357 N 
ATOM      8  C   UNL     1     -46.717  35.822  26.867  1.00  0.00     0.046 A 
ATOM      9  C   UNL     1     -46.162  34.784  26.109  1.00  0.00    -0.033 A 
ATOM     10  H   UNL     1     -49.034  32.977  25.691  1.00  0.00     0.063 H 
ATOM     11  H   UNL     1     -49.964  34.831  27.033  1.00  0.00     0.063 H 
ATOM     12  H   UNL     1     -49.200  37.390  28.396  1.00  0.00     0.065 H 
ATOM     13  H   UNL     1     -45.148  37.176  27.303  1.00  0.00     0.166 HD
ATOM     14  H   UNL     1     -45.108  34.782  25.845  1.00  0.00     0.065 H 
ENDROOT
BRANCH   1  15
ATOM     15  C   UNL     1     -46.461  32.622  24.851  1.00  0.00     0.043 C 
ATOM     16  H   UNL     1     -46.488  32.886  23.787  1.00  0.00     0.054 H 
ATOM     17  H   UNL     1     -45.412  32.423  25.099  1.00  0.00     0.054 H 
BRANCH  15  18
ATOM     18  N   UNL     1     -47.211  31.411  25.057  1.00  0.00    -0.347 N 
ATOM     19  O   UNL     1     -48.224  31.405  22.998  1.00  0.00    -0.268 OA
ATOM     20  C   UNL     1     -48.009  30.874  24.081  1.00  0.00     0.270 C 
ATOM     21  H   UNL     1     -47.044  30.843  25.883  1.00  0.00     0.164 HD
BRANCH  20  22
ATOM     22  C   UNL     1     -48.593  29.541  24.481  1.00  0.00     0.136 A 
ATOM     23  C   UNL     1     -49.904  29.382  24.287  1.00  0.00     0.035 A 
ATOM     24  N   UNL     1     -47.756  28.584  25.011  1.00  0.00    -0.225 NA
ATOM     25  C   UNL     1     -50.513  28.101  24.664  1.00  0.00     0.258 A 
ATOM     26  H   UNL     1     -50.551  30.142  23.869  1.00  0.00     0.071 H 
ATOM     27  C   UNL     1     -48.299  27.453  25.343  1.00  0.00     0.140 A 
ATOM     28  O   UNL     1     -51.721  27.947  24.490  1.00  0.00    -0.269 OA
ATOM     29  N   UNL     1     -49.649  27.155  25.196  1.00  0.00    -0.268 N 
ATOM     30  C   UNL     1     -47.431  26.388  25.922  1.00  0.00    -0.019 A 
ATOM     31  C   UNL     1     -50.152  25.915  25.576  1.00  0.00     0.014 A 
ATOM     32  C   UNL     1     -47.962  25.211  26.272  1.00  0.00    -0.057 A 
ATOM     33  H   UNL     1     -46.378  26.611  26.040  1.00  0.00     0.066 H 
ATOM     34  C   UNL     1     -49.368  24.964  26.095  1.00  0.00    -0.045 A 
ATOM     35  H   UNL     1     -51.218  25.750  25.434  1.00  0.00     0.082 H 
ATOM     36  H   UNL     1     -47.347  24.423  26.696  1.00  0.00     0.062 H 
ATOM     37  H   UNL     1     -49.771  24.000  26.389  1.00  0.00     0.064 H 
ENDBRANCH  20  22
ENDBRANCH  15  18
ENDBRANCH   1  15
BRANCH   6  38
ATOM     38  C   UNL     1     -46.679  38.977  28.761  1.00  0.00     0.039 C 
ATOM     39  H   UNL     1     -47.594  39.513  29.049  1.00  0.00     0.050 H 
ATOM     40  H   UNL     1     -46.174  38.748  29.709  1.00  0.00     0.050 H 
BRANCH  38  41
ATOM     41  N   UNL     1     -45.837  39.876  27.984  1.00  0.00    -0.297 NA
ATOM     42  C   UNL     1     -46.123  39.960  26.554  1.00  0.00     0.002 C 
ATOM     43  C   UNL     1     -44.398  39.647  28.094  1.00  0.00     0.002 C 
ATOM     44  C   UNL     1     -44.969  40.812  26.033  1.00  0.00    -0.025 C 
ATOM     45  H   UNL     1     -46.084  38.978  26.069  1.00  0.00     0.043 H 
ATOM     46  H   UNL     1     -47.100  40.410  26.351  1.00  0.00     0.043 H 
ATOM     47  C   UNL     1     -43.827  40.604  27.051  1.00  0.00    -0.025 C 
ATOM     48  H   UNL     1     -44.018  39.853  29.101  1.00  0.00     0.043 H 
ATOM     49  H   UNL     1     -44.124  38.621  27.821  1.00  0.00     0.043 H 
ATOM     50  C   UNL     1     -45.248  42.319  26.028  1.00  0.00    -0.049 C 
ATOM     51  H   UNL     1     -44.661  40.484  25.033  1.00  0.00     0.032 H 
ATOM     52  C   UNL     1     -43.494  42.000  27.589  1.00  0.00    -0.049 C 
ATOM     53  H   UNL     1     -42.947  40.170  26.561  1.00  0.00     0.032 H 
ATOM     54  C   UNL     1     -43.938  42.940  26.481  1.00  0.00    -0.053 C 
ATOM     55  H   UNL     1     -45.548  42.674  25.036  1.00  0.00     0.027 H 
ATOM     56  H   UNL     1     -46.050  42.581  26.730  1.00  0.00     0.027 H 
ATOM     57  H   UNL     1     -42.427  42.104  27.811  1.00  0.00     0.027 H 
ATOM     58  H   UNL     1     -44.048  42.218  28.509  1.00  0.00     0.027 H 
ATOM     59  H   UNL     1     -44.064  43.967  26.833  1.00  0.00     0.027 H 
ATOM     60  H   UNL     1     -43.210  42.940  25.663  1.00  0.00     0.027 H 
ENDBRANCH  38  41
ENDBRANCH   6  38
TORSDOF 5
ENDMDL
MODEL 7
REMARK VINA RESULT:     -10.4      2.464      3.726
REMARK SMILES O=C(NCc1ccc2cc(CN3C[C@H]4CCC[C@H]4C3)[nH]c2c1)c1cc(=O)n2ccccc2n1
REMARK SMILES IDX 5 1 6 2 7 3 8 4 9 5 10 6 20 7 21 8 22 9 4 15 3 18 1 19 2 20
REMARK SMILES IDX 23 22 24 23 33 24 25 25 32 27 26 28 27 29 31 30 28 31 30 32
REMARK SMILES IDX 29 34 11 38 12 41 13 42 19 43 14 44 18 47 15 50 17 52 16 54
REMARK H PARENT 6 10 7 11 9 12 20 13 22 14 4 16 4 17 3 21 24 26 31 33 28 35
REMARK H PARENT 30 36 29 37 11 39 11 40 13 45 13 46 19 48 19 49 14 51 18 53
REMARK H PARENT 15 55 15 56 17 57 17 58 16 59 16 60
REMARK Flexibility Score: inf
ROOT
ATOM      1  C   UNL     1     -46.399  35.939  27.833  1.00  0.00    -0.027 A 
ATOM      2  C   UNL     1     -47.795  35.885  27.751  1.00  0.00    -0.057 A 
ATOM      3  C   UNL     1     -48.438  34.948  26.931  1.00  0.00    -0.052 A 
ATOM      4  C   UNL     1     -47.665  34.042  26.183  1.00  0.00    -0.000 A 
ATOM      5  C   UNL     1     -47.972  32.991  25.278  1.00  0.00    -0.032 A 
ATOM      6  C   UNL     1     -46.785  32.441  24.834  1.00  0.00     0.030 A 
ATOM      7  N   UNL     1     -45.769  33.116  25.469  1.00  0.00    -0.357 N 
ATOM      8  C   UNL     1     -46.277  34.102  26.284  1.00  0.00     0.046 A 
ATOM      9  C   UNL     1     -45.617  35.030  27.098  1.00  0.00    -0.033 A 
ATOM     10  H   UNL     1     -48.404  36.578  28.331  1.00  0.00     0.063 H 
ATOM     11  H   UNL     1     -49.522  34.923  26.877  1.00  0.00     0.063 H 
ATOM     12  H   UNL     1     -48.962  32.672  24.977  1.00  0.00     0.065 H 
ATOM     13  H   UNL     1     -44.784  32.929  25.345  1.00  0.00     0.166 HD
ATOM     14  H   UNL     1     -44.533  35.047  27.164  1.00  0.00     0.065 H 
ENDROOT
BRANCH   1  15
ATOM     15  C   UNL     1     -45.729  36.934  28.744  1.00  0.00     0.043 C 
ATOM     16  H   UNL     1     -46.410  37.248  29.544  1.00  0.00     0.054 H 
ATOM     17  H   UNL     1     -44.853  36.490  29.232  1.00  0.00     0.054 H 
BRANCH  15  18
ATOM     18  N   UNL     1     -45.298  38.092  28.008  1.00  0.00    -0.347 N 
ATOM     19  O   UNL     1     -47.135  39.379  28.493  1.00  0.00    -0.268 OA
ATOM     20  C   UNL     1     -46.030  39.251  27.980  1.00  0.00     0.270 C 
ATOM     21  H   UNL     1     -44.361  38.127  27.617  1.00  0.00     0.164 HD
BRANCH  20  22
ATOM     22  C   UNL     1     -45.319  40.365  27.251  1.00  0.00     0.136 A 
ATOM     23  C   UNL     1     -46.084  41.193  26.536  1.00  0.00     0.035 A 
ATOM     24  N   UNL     1     -43.950  40.462  27.365  1.00  0.00    -0.225 NA
ATOM     25  C   UNL     1     -45.432  42.290  25.811  1.00  0.00     0.258 A 
ATOM     26  H   UNL     1     -47.159  41.106  26.455  1.00  0.00     0.071 H 
ATOM     27  C   UNL     1     -43.378  41.435  26.722  1.00  0.00     0.140 A 
ATOM     28  O   UNL     1     -46.130  43.057  25.149  1.00  0.00    -0.269 OA
ATOM     29  N   UNL     1     -44.054  42.366  25.941  1.00  0.00    -0.268 N 
ATOM     30  C   UNL     1     -41.897  41.578  26.816  1.00  0.00    -0.019 A 
ATOM     31  C   UNL     1     -43.365  43.380  25.284  1.00  0.00     0.014 A 
ATOM     32  C   UNL     1     -41.280  42.570  26.165  1.00  0.00    -0.057 A 
ATOM     33  H   UNL     1     -41.363  40.856  27.421  1.00  0.00     0.066 H 
ATOM     34  C   UNL     1     -42.036  43.503  25.372  1.00  0.00    -0.045 A 
ATOM     35  H   UNL     1     -43.956  44.073  24.690  1.00  0.00     0.082 H 
ATOM     36  H   UNL     1     -40.203  42.691  26.220  1.00  0.00     0.062 H 
ATOM     37  H   UNL     1     -41.508  44.298  24.855  1.00  0.00     0.064 H 
ENDBRANCH  20  22
ENDBRANCH  15  18
ENDBRANCH   1  15
BRANCH   6  38
ATOM     38  C   UNL     1     -46.516  31.312  23.896  1.00  0.00     0.039 C 
ATOM     39  H   UNL     1     -45.603  31.525  23.323  1.00  0.00     0.050 H 
ATOM     40  H   UNL     1     -46.280  30.413  24.481  1.00  0.00     0.050 H 
BRANCH  38  41
ATOM     41  N   UNL     1     -47.589  30.997  22.963  1.00  0.00    -0.297 NA
ATOM     42  C   UNL     1     -48.550  29.986  23.395  1.00  0.00     0.002 C 
ATOM     43  C   UNL     1     -47.164  30.601  21.621  1.00  0.00     0.002 C 
ATOM     44  C   UNL     1     -49.394  29.770  22.141  1.00  0.00    -0.025 C 
ATOM     45  H   UNL     1     -48.061  29.041  23.658  1.00  0.00     0.043 H 
ATOM     46  H   UNL     1     -49.148  30.318  24.250  1.00  0.00     0.043 H 
ATOM     47  C   UNL     1     -48.476  30.176  20.968  1.00  0.00    -0.025 C 
ATOM     48  H   UNL     1     -46.674  31.418  21.080  1.00  0.00     0.043 H 
ATOM     49  H   UNL     1     -46.484  29.742  21.643  1.00  0.00     0.043 H 
ATOM     50  C   UNL     1     -50.621  30.683  22.041  1.00  0.00    -0.049 C 
ATOM     51  H   UNL     1     -49.697  28.721  22.050  1.00  0.00     0.032 H 
ATOM     52  C   UNL     1     -49.214  31.304  20.238  1.00  0.00    -0.049 C 
ATOM     53  H   UNL     1     -48.320  29.329  20.289  1.00  0.00     0.032 H 
ATOM     54  C   UNL     1     -50.676  31.068  20.572  1.00  0.00    -0.053 C 
ATOM     55  H   UNL     1     -51.534  30.173  22.365  1.00  0.00     0.027 H 
ATOM     56  H   UNL     1     -50.504  31.581  22.660  1.00  0.00     0.027 H 
ATOM     57  H   UNL     1     -49.031  31.276  19.159  1.00  0.00     0.027 H 
ATOM     58  H   UNL     1     -48.901  32.290  20.603  1.00  0.00     0.027 H 
ATOM     59  H   UNL     1     -51.292  31.955  20.398  1.00  0.00     0.027 H 
ATOM     60  H   UNL     1     -51.079  30.243  19.974  1.00  0.00     0.027 H 
ENDBRANCH  38  41
ENDBRANCH   6  38
TORSDOF 5
ENDMDL
