MODEL 1
REMARK VINA RESULT:      -9.5      0.000      0.000
REMARK SMILES Cc1nc(N)c2ccn([C@@H]3C[C@H](CCc4ccc5ccc(N)nc5c4)[C@@H](O)[C@H]3O)c2n1
REMARK SMILES IDX 13 1 12 4 10 5 11 6 28 7 26 11 9 15 2 16 3 17 31 18 4 19
REMARK SMILES IDX 30 20 6 21 7 22 8 23 1 26 5 30 29 33 27 35 14 37 15 40 16 41
REMARK SMILES IDX 25 42 17 43 24 45 18 47 23 49 19 50 21 51 20 52 22 55
REMARK H PARENT 13 2 13 3 10 8 11 9 11 10 28 12 12 13 26 14 7 24 8 25 1 27
REMARK H PARENT 1 28 1 29 5 31 5 32 29 34 27 36 14 38 14 39 16 44 25 46 17 48
REMARK H PARENT 19 53 20 54 22 56 22 57
REMARK Flexibility Score: inf
ROOT
ATOM      1  C   UNL     1     -47.115  35.991  26.626  1.00  0.00    -0.044 C 
ATOM      2  H   UNL     1     -46.573  35.823  25.686  1.00  0.00     0.027 H 
ATOM      3  H   UNL     1     -47.666  36.930  26.493  1.00  0.00     0.027 H 
ENDROOT
BRANCH   1   4
ATOM      4  C   UNL     1     -46.094  36.139  27.769  1.00  0.00    -0.010 C 
ATOM      5  C   UNL     1     -45.974  38.380  28.803  1.00  0.00     0.064 C 
ATOM      6  C   UNL     1     -45.380  37.501  27.691  1.00  0.00    -0.024 C 
ATOM      7  C   UNL     1     -46.300  37.366  29.903  1.00  0.00     0.101 C 
ATOM      8  H   UNL     1     -45.189  39.057  29.166  1.00  0.00     0.056 H 
ATOM      9  H   UNL     1     -45.438  37.958  26.697  1.00  0.00     0.029 H 
ATOM     10  H   UNL     1     -44.315  37.340  27.903  1.00  0.00     0.029 H 
ATOM     11  C   UNL     1     -46.743  36.089  29.165  1.00  0.00     0.085 C 
ATOM     12  H   UNL     1     -47.038  37.709  30.631  1.00  0.00     0.065 H 
ATOM     13  H   UNL     1     -45.349  35.342  27.656  1.00  0.00     0.033 H 
ATOM     14  H   UNL     1     -47.830  36.028  29.109  1.00  0.00     0.063 H 
BRANCH   5  15
ATOM     15  N   UNL     1     -47.028  39.259  28.321  1.00  0.00    -0.327 N 
ATOM     16  C   UNL     1     -46.030  41.960  26.221  1.00  0.00     0.130 A 
ATOM     17  N   UNL     1     -47.217  42.559  25.995  1.00  0.00    -0.216 NA
ATOM     18  N   UNL     1     -45.813  40.861  26.969  1.00  0.00    -0.215 NA
ATOM     19  C   UNL     1     -48.327  42.031  26.541  1.00  0.00     0.136 A 
ATOM     20  C   UNL     1     -46.936  40.362  27.506  1.00  0.00     0.146 A 
ATOM     21  C   UNL     1     -48.212  40.885  27.338  1.00  0.00     0.061 A 
ATOM     22  C   UNL     1     -49.105  40.053  28.064  1.00  0.00    -0.031 A 
ATOM     23  C   UNL     1     -48.355  39.063  28.657  1.00  0.00     0.007 A 
ATOM     24  H   UNL     1     -50.178  40.164  28.138  1.00  0.00     0.065 H 
ATOM     25  H   UNL     1     -48.652  38.234  29.288  1.00  0.00     0.082 H 
BRANCH  16  26
ATOM     26  C   UNL     1     -44.833  42.562  25.551  1.00  0.00    -0.004 C 
ATOM     27  H   UNL     1     -45.068  43.560  25.170  1.00  0.00     0.031 H 
ATOM     28  H   UNL     1     -44.508  41.943  24.709  1.00  0.00     0.031 H 
ATOM     29  H   UNL     1     -44.011  42.641  26.268  1.00  0.00     0.031 H 
ENDBRANCH  16  26
BRANCH  19  30
ATOM     30  N   UNL     1     -49.529  42.676  26.292  1.00  0.00    -0.383 N 
ATOM     31  H   UNL     1     -50.026  42.989  27.115  1.00  0.00     0.158 HD
ATOM     32  H   UNL     1     -49.430  43.346  25.538  1.00  0.00     0.158 HD
ENDBRANCH  19  30
ENDBRANCH   5  15
BRANCH   7  33
ATOM     33  O   UNL     1     -45.094  37.082  30.640  1.00  0.00    -0.388 OA
ATOM     34  H   UNL     1     -44.851  37.943  31.046  1.00  0.00     0.211 HD
ENDBRANCH   7  33
BRANCH  11  35
ATOM     35  O   UNL     1     -46.289  34.943  29.896  1.00  0.00    -0.390 OA
ATOM     36  H   UNL     1     -47.033  34.641  30.448  1.00  0.00     0.211 HD
ENDBRANCH  11  35
ENDBRANCH   1   4
BRANCH   1  37
ATOM     37  C   UNL     1     -48.100  34.837  26.842  1.00  0.00    -0.027 C 
ATOM     38  H   UNL     1     -49.127  35.143  26.612  1.00  0.00     0.032 H 
ATOM     39  H   UNL     1     -48.101  34.545  27.899  1.00  0.00     0.032 H 
BRANCH  37  40
ATOM     40  C   UNL     1     -47.756  33.649  25.978  1.00  0.00    -0.046 A 
ATOM     41  C   UNL     1     -46.573  33.632  25.233  1.00  0.00    -0.058 A 
ATOM     42  C   UNL     1     -48.609  32.536  25.924  1.00  0.00    -0.033 A 
ATOM     43  C   UNL     1     -46.260  32.523  24.449  1.00  0.00    -0.053 A 
ATOM     44  H   UNL     1     -45.888  34.475  25.266  1.00  0.00     0.063 H 
ATOM     45  C   UNL     1     -48.321  31.420  25.148  1.00  0.00     0.073 A 
ATOM     46  H   UNL     1     -49.531  32.527  26.502  1.00  0.00     0.065 H 
ATOM     47  C   UNL     1     -47.127  31.420  24.402  1.00  0.00     0.000 A 
ATOM     48  H   UNL     1     -45.335  32.525  23.877  1.00  0.00     0.063 H 
ATOM     49  N   UNL     1     -49.179  30.385  25.135  1.00  0.00    -0.231 NA
ATOM     50  C   UNL     1     -46.846  30.291  23.625  1.00  0.00    -0.049 A 
ATOM     51  C   UNL     1     -48.892  29.310  24.384  1.00  0.00     0.124 A 
ATOM     52  C   UNL     1     -47.739  29.225  23.617  1.00  0.00    -0.019 A 
ATOM     53  H   UNL     1     -45.939  30.237  23.030  1.00  0.00     0.063 H 
ATOM     54  H   UNL     1     -47.529  28.346  23.018  1.00  0.00     0.066 H 
BRANCH  51  55
ATOM     55  N   UNL     1     -49.806  28.251  24.392  1.00  0.00    -0.384 N 
ATOM     56  H   UNL     1     -50.562  28.449  23.745  1.00  0.00     0.158 HD
ATOM     57  H   UNL     1     -49.342  27.399  24.091  1.00  0.00     0.158 HD
ENDBRANCH  51  55
ENDBRANCH  37  40
ENDBRANCH   1  37
TORSDOF 9
ENDMDL
MODEL 2
REMARK VINA RESULT:      -9.5      3.881     11.001
REMARK SMILES Cc1nc(N)c2ccn([C@@H]3C[C@H](CCc4ccc5ccc(N)nc5c4)[C@@H](O)[C@H]3O)c2n1
REMARK SMILES IDX 13 1 12 4 10 5 11 6 28 7 26 11 9 15 2 16 3 17 31 18 4 19
REMARK SMILES IDX 30 20 6 21 7 22 8 23 1 26 5 30 29 33 27 35 14 37 15 40 16 41
REMARK SMILES IDX 25 42 17 43 24 45 18 47 23 49 19 50 21 51 20 52 22 55
REMARK H PARENT 13 2 13 3 10 8 11 9 11 10 28 12 12 13 26 14 7 24 8 25 1 27
REMARK H PARENT 1 28 1 29 5 31 5 32 29 34 27 36 14 38 14 39 16 44 25 46 17 48
REMARK H PARENT 19 53 20 54 22 56 22 57
REMARK Flexibility Score: inf
ROOT
ATOM      1  C   UNL     1     -47.170  31.434  24.246  1.00  0.00    -0.044 C 
ATOM      2  H   UNL     1     -46.525  32.285  23.989  1.00  0.00     0.027 H 
ATOM      3  H   UNL     1     -46.497  30.587  24.424  1.00  0.00     0.027 H 
ENDROOT
BRANCH   1   4
ATOM      4  C   UNL     1     -48.091  31.131  23.049  1.00  0.00    -0.010 C 
ATOM      5  C   UNL     1     -48.391  28.737  22.520  1.00  0.00     0.064 C 
ATOM      6  C   UNL     1     -47.529  29.970  22.208  1.00  0.00    -0.024 C 
ATOM      7  C   UNL     1     -49.773  29.342  22.782  1.00  0.00     0.101 C 
ATOM      8  H   UNL     1     -48.442  28.112  21.617  1.00  0.00     0.056 H 
ATOM      9  H   UNL     1     -46.458  29.805  22.368  1.00  0.00     0.029 H 
ATOM     10  H   UNL     1     -47.654  30.226  21.147  1.00  0.00     0.029 H 
ATOM     11  C   UNL     1     -49.505  30.690  23.474  1.00  0.00     0.085 C 
ATOM     12  H   UNL     1     -50.447  28.701  23.355  1.00  0.00     0.065 H 
ATOM     13  H   UNL     1     -48.134  32.032  22.425  1.00  0.00     0.033 H 
ATOM     14  H   UNL     1     -49.596  30.598  24.557  1.00  0.00     0.063 H 
BRANCH   5  15
ATOM     15  N   UNL     1     -47.795  27.877  23.531  1.00  0.00    -0.327 N 
ATOM     16  C   UNL     1     -50.031  26.307  25.820  1.00  0.00     0.130 A 
ATOM     17  N   UNL     1     -49.163  25.634  26.604  1.00  0.00    -0.216 NA
ATOM     18  N   UNL     1     -49.725  27.089  24.768  1.00  0.00    -0.215 NA
ATOM     19  C   UNL     1     -47.847  25.712  26.333  1.00  0.00     0.136 A 
ATOM     20  C   UNL     1     -48.407  27.153  24.527  1.00  0.00     0.146 A 
ATOM     21  C   UNL     1     -47.421  26.500  25.256  1.00  0.00     0.061 A 
ATOM     22  C   UNL     1     -46.174  26.830  24.665  1.00  0.00    -0.031 A 
ATOM     23  C   UNL     1     -46.430  27.675  23.608  1.00  0.00     0.007 A 
ATOM     24  H   UNL     1     -45.197  26.482  24.974  1.00  0.00     0.065 H 
ATOM     25  H   UNL     1     -45.758  28.148  22.903  1.00  0.00     0.082 H 
BRANCH  16  26
ATOM     26  C   UNL     1     -51.487  26.148  26.137  1.00  0.00    -0.004 C 
ATOM     27  H   UNL     1     -51.665  26.295  27.206  1.00  0.00     0.031 H 
ATOM     28  H   UNL     1     -51.835  25.146  25.867  1.00  0.00     0.031 H 
ATOM     29  H   UNL     1     -52.068  26.886  25.576  1.00  0.00     0.031 H 
ENDBRANCH  16  26
BRANCH  19  30
ATOM     30  N   UNL     1     -46.984  25.012  27.162  1.00  0.00    -0.383 N 
ATOM     31  H   UNL     1     -46.238  24.522  26.688  1.00  0.00     0.158 HD
ATOM     32  H   UNL     1     -46.722  25.571  27.966  1.00  0.00     0.158 HD
ENDBRANCH  19  30
ENDBRANCH   5  15
BRANCH   7  33
ATOM     33  O   UNL     1     -50.416  29.589  21.515  1.00  0.00    -0.388 OA
ATOM     34  H   UNL     1     -49.698  29.475  20.854  1.00  0.00     0.211 HD
ENDBRANCH   7  33
BRANCH  11  35
ATOM     35  O   UNL     1     -50.485  31.643  23.043  1.00  0.00    -0.390 OA
ATOM     36  H   UNL     1     -50.099  32.529  23.168  1.00  0.00     0.211 HD
ENDBRANCH  11  35
ENDBRANCH   1   4
BRANCH   1  37
ATOM     37  C   UNL     1     -47.939  31.766  25.530  1.00  0.00    -0.027 C 
ATOM     38  H   UNL     1     -47.631  31.116  26.356  1.00  0.00     0.032 H 
ATOM     39  H   UNL     1     -49.009  31.577  25.379  1.00  0.00     0.032 H 
BRANCH  37  40
ATOM     40  C   UNL     1     -47.722  33.199  25.948  1.00  0.00    -0.046 A 
ATOM     41  C   UNL     1     -46.508  33.840  25.683  1.00  0.00    -0.058 A 
ATOM     42  C   UNL     1     -48.741  33.915  26.594  1.00  0.00    -0.033 A 
ATOM     43  C   UNL     1     -46.324  35.168  26.063  1.00  0.00    -0.053 A 
ATOM     44  H   UNL     1     -45.705  33.313  25.174  1.00  0.00     0.063 H 
ATOM     45  C   UNL     1     -48.582  35.239  26.985  1.00  0.00     0.073 A 
ATOM     46  H   UNL     1     -49.696  33.436  26.803  1.00  0.00     0.065 H 
ATOM     47  C   UNL     1     -47.353  35.869  26.713  1.00  0.00     0.000 A 
ATOM     48  H   UNL     1     -45.375  35.653  25.848  1.00  0.00     0.063 H 
ATOM     49  N   UNL     1     -49.596  35.872  27.602  1.00  0.00    -0.231 NA
ATOM     50  C   UNL     1     -47.203  37.202  27.110  1.00  0.00    -0.049 A 
ATOM     51  C   UNL     1     -49.433  37.151  27.975  1.00  0.00     0.124 A 
ATOM     52  C   UNL     1     -48.256  37.849  27.748  1.00  0.00    -0.019 A 
ATOM     53  H   UNL     1     -46.277  37.737  26.925  1.00  0.00     0.063 H 
ATOM     54  H   UNL     1     -48.149  38.882  28.059  1.00  0.00     0.066 H 
BRANCH  51  55
ATOM     55  N   UNL     1     -50.506  37.781  28.616  1.00  0.00    -0.384 N 
ATOM     56  H   UNL     1     -50.181  38.625  29.075  1.00  0.00     0.158 HD
ATOM     57  H   UNL     1     -51.208  38.039  27.930  1.00  0.00     0.158 HD
ENDBRANCH  51  55
ENDBRANCH  37  40
ENDBRANCH   1  37
TORSDOF 9
ENDMDL
MODEL 3
REMARK VINA RESULT:      -9.2      4.326      9.856
REMARK SMILES Cc1nc(N)c2ccn([C@@H]3C[C@H](CCc4ccc5ccc(N)nc5c4)[C@@H](O)[C@H]3O)c2n1
REMARK SMILES IDX 13 1 12 4 10 5 11 6 28 7 26 11 9 15 2 16 3 17 31 18 4 19
REMARK SMILES IDX 30 20 6 21 7 22 8 23 1 26 5 30 29 33 27 35 14 37 15 40 16 41
REMARK SMILES IDX 25 42 17 43 24 45 18 47 23 49 19 50 21 51 20 52 22 55
REMARK H PARENT 13 2 13 3 10 8 11 9 11 10 28 12 12 13 26 14 7 24 8 25 1 27
REMARK H PARENT 1 28 1 29 5 31 5 32 29 34 27 36 14 38 14 39 16 44 25 46 17 48
REMARK H PARENT 19 53 20 54 22 56 22 57
REMARK Flexibility Score: inf
ROOT
ATOM      1  C   UNL     1     -48.702  29.950  25.163  1.00  0.00    -0.044 C 
ATOM      2  H   UNL     1     -47.740  29.870  24.638  1.00  0.00     0.027 H 
ATOM      3  H   UNL     1     -48.465  29.927  26.233  1.00  0.00     0.027 H 
ENDROOT
BRANCH   1   4
ATOM      4  C   UNL     1     -49.572  28.735  24.792  1.00  0.00    -0.010 C 
ATOM      5  C   UNL     1     -50.282  28.619  22.428  1.00  0.00     0.064 C 
ATOM      6  C   UNL     1     -50.690  29.142  23.814  1.00  0.00    -0.024 C 
ATOM      7  C   UNL     1     -49.518  27.333  22.759  1.00  0.00     0.101 C 
ATOM      8  H   UNL     1     -51.194  28.358  21.873  1.00  0.00     0.056 H 
ATOM      9  H   UNL     1     -50.901  30.216  23.829  1.00  0.00     0.029 H 
ATOM     10  H   UNL     1     -51.614  28.634  24.122  1.00  0.00     0.029 H 
ATOM     11  C   UNL     1     -48.780  27.623  24.078  1.00  0.00     0.085 C 
ATOM     12  H   UNL     1     -48.848  26.988  21.968  1.00  0.00     0.065 H 
ATOM     13  H   UNL     1     -50.029  28.357  25.715  1.00  0.00     0.033 H 
ATOM     14  H   UNL     1     -47.745  27.914  23.891  1.00  0.00     0.063 H 
BRANCH   5  15
ATOM     15  N   UNL     1     -49.631  29.635  21.615  1.00  0.00    -0.327 N 
ATOM     16  C   UNL     1     -46.081  29.852  21.854  1.00  0.00     0.130 A 
ATOM     17  N   UNL     1     -45.832  30.880  21.017  1.00  0.00    -0.216 NA
ATOM     18  N   UNL     1     -47.287  29.330  22.150  1.00  0.00    -0.215 NA
ATOM     19  C   UNL     1     -46.863  31.466  20.381  1.00  0.00     0.136 A 
ATOM     20  C   UNL     1     -48.295  29.939  21.506  1.00  0.00     0.146 A 
ATOM     21  C   UNL     1     -48.161  30.998  20.618  1.00  0.00     0.061 A 
ATOM     22  C   UNL     1     -49.464  31.330  20.162  1.00  0.00    -0.031 A 
ATOM     23  C   UNL     1     -50.348  30.479  20.787  1.00  0.00     0.007 A 
ATOM     24  H   UNL     1     -49.725  32.101  19.450  1.00  0.00     0.065 H 
ATOM     25  H   UNL     1     -51.426  30.401  20.713  1.00  0.00     0.082 H 
BRANCH  16  26
ATOM     26  C   UNL     1     -44.895  29.205  22.500  1.00  0.00    -0.004 C 
ATOM     27  H   UNL     1     -44.248  28.748  21.745  1.00  0.00     0.031 H 
ATOM     28  H   UNL     1     -45.211  28.424  23.198  1.00  0.00     0.031 H 
ATOM     29  H   UNL     1     -44.320  29.957  23.049  1.00  0.00     0.031 H 
ENDBRANCH  16  26
BRANCH  19  30
ATOM     30  N   UNL     1     -46.570  32.523  19.533  1.00  0.00    -0.383 N 
ATOM     31  H   UNL     1     -45.646  32.917  19.643  1.00  0.00     0.158 HD
ATOM     32  H   UNL     1     -46.869  32.320  18.586  1.00  0.00     0.158 HD
ENDBRANCH  19  30
ENDBRANCH   5  15
BRANCH   7  33
ATOM     33  O   UNL     1     -50.472  26.275  22.982  1.00  0.00    -0.388 OA
ATOM     34  H   UNL     1     -51.178  26.696  23.520  1.00  0.00     0.211 HD
ENDBRANCH   7  33
BRANCH  11  35
ATOM     35  O   UNL     1     -48.751  26.430  24.872  1.00  0.00    -0.390 OA
ATOM     36  H   UNL     1     -49.491  26.486  25.502  1.00  0.00     0.211 HD
ENDBRANCH  11  35
ENDBRANCH   1   4
BRANCH   1  37
ATOM     37  C   UNL     1     -49.352  31.290  24.803  1.00  0.00    -0.027 C 
ATOM     38  H   UNL     1     -50.357  31.371  25.230  1.00  0.00     0.032 H 
ATOM     39  H   UNL     1     -49.478  31.360  23.716  1.00  0.00     0.032 H 
BRANCH  37  40
ATOM     40  C   UNL     1     -48.531  32.453  25.302  1.00  0.00    -0.046 A 
ATOM     41  C   UNL     1     -47.180  32.567  24.962  1.00  0.00    -0.058 A 
ATOM     42  C   UNL     1     -49.116  33.448  26.101  1.00  0.00    -0.033 A 
ATOM     43  C   UNL     1     -46.435  33.652  25.419  1.00  0.00    -0.053 A 
ATOM     44  H   UNL     1     -46.704  31.817  24.335  1.00  0.00     0.063 H 
ATOM     45  C   UNL     1     -48.395  34.539  26.571  1.00  0.00     0.073 A 
ATOM     46  H   UNL     1     -50.169  33.381  26.371  1.00  0.00     0.065 H 
ATOM     47  C   UNL     1     -47.034  34.637  26.221  1.00  0.00     0.000 A 
ATOM     48  H   UNL     1     -45.386  33.727  25.144  1.00  0.00     0.063 H 
ATOM     49  N   UNL     1     -49.011  35.459  27.335  1.00  0.00    -0.231 NA
ATOM     50  C   UNL     1     -46.318  35.738  26.699  1.00  0.00    -0.049 A 
ATOM     51  C   UNL     1     -48.307  36.510  27.783  1.00  0.00     0.124 A 
ATOM     52  C   UNL     1     -46.962  36.685  27.489  1.00  0.00    -0.019 A 
ATOM     53  H   UNL     1     -45.266  35.864  26.460  1.00  0.00     0.063 H 
ATOM     54  H   UNL     1     -46.415  37.543  27.863  1.00  0.00     0.066 H 
BRANCH  51  55
ATOM     55  N   UNL     1     -48.976  37.447  28.577  1.00  0.00    -0.384 N 
ATOM     56  H   UNL     1     -48.756  38.385  28.256  1.00  0.00     0.158 HD
ATOM     57  H   UNL     1     -49.979  37.309  28.494  1.00  0.00     0.158 HD
ENDBRANCH  51  55
ENDBRANCH  37  40
ENDBRANCH   1  37
TORSDOF 9
ENDMDL
MODEL 4
REMARK VINA RESULT:      -9.1      4.317     10.884
REMARK SMILES Cc1nc(N)c2ccn([C@@H]3C[C@H](CCc4ccc5ccc(N)nc5c4)[C@@H](O)[C@H]3O)c2n1
REMARK SMILES IDX 13 1 12 4 10 5 11 6 28 7 26 11 9 15 2 16 3 17 31 18 4 19
REMARK SMILES IDX 30 20 6 21 7 22 8 23 1 26 5 30 29 33 27 35 14 37 15 40 16 41
REMARK SMILES IDX 25 42 17 43 24 45 18 47 23 49 19 50 21 51 20 52 22 55
REMARK H PARENT 13 2 13 3 10 8 11 9 11 10 28 12 12 13 26 14 7 24 8 25 1 27
REMARK H PARENT 1 28 1 29 5 31 5 32 29 34 27 36 14 38 14 39 16 44 25 46 17 48
REMARK H PARENT 19 53 20 54 22 56 22 57
REMARK Flexibility Score: inf
ROOT
ATOM      1  C   UNL     1     -50.393  31.707  24.293  1.00  0.00    -0.044 C 
ATOM      2  H   UNL     1     -51.188  31.132  24.786  1.00  0.00     0.027 H 
ATOM      3  H   UNL     1     -50.648  32.763  24.441  1.00  0.00     0.027 H 
ENDROOT
BRANCH   1   4
ATOM      4  C   UNL     1     -50.397  31.372  22.790  1.00  0.00    -0.010 C 
ATOM      5  C   UNL     1     -49.957  29.007  22.228  1.00  0.00     0.064 C 
ATOM      6  C   UNL     1     -49.279  30.368  22.452  1.00  0.00    -0.024 C 
ATOM      7  C   UNL     1     -51.312  29.394  21.629  1.00  0.00     0.101 C 
ATOM      8  H   UNL     1     -49.381  28.453  21.474  1.00  0.00     0.056 H 
ATOM      9  H   UNL     1     -48.485  30.341  23.206  1.00  0.00     0.029 H 
ATOM     10  H   UNL     1     -48.810  30.684  21.511  1.00  0.00     0.029 H 
ATOM     11  C   UNL     1     -51.706  30.709  22.324  1.00  0.00     0.085 C 
ATOM     12  H   UNL     1     -52.082  28.624  21.716  1.00  0.00     0.065 H 
ATOM     13  H   UNL     1     -50.213  32.304  22.240  1.00  0.00     0.033 H 
ATOM     14  H   UNL     1     -52.388  30.523  23.155  1.00  0.00     0.063 H 
BRANCH   5  15
ATOM     15  N   UNL     1     -49.925  28.163  23.413  1.00  0.00    -0.327 N 
ATOM     16  C   UNL     1     -46.749  26.861  24.371  1.00  0.00     0.130 A 
ATOM     17  N   UNL     1     -47.089  26.129  25.452  1.00  0.00    -0.216 NA
ATOM     18  N   UNL     1     -47.579  27.586  23.597  1.00  0.00    -0.215 NA
ATOM     19  C   UNL     1     -48.377  26.104  25.842  1.00  0.00     0.136 A 
ATOM     20  C   UNL     1     -48.856  27.536  24.006  1.00  0.00     0.146 A 
ATOM     21  C   UNL     1     -49.323  26.827  25.105  1.00  0.00     0.061 A 
ATOM     22  C   UNL     1     -50.723  27.052  25.184  1.00  0.00    -0.031 A 
ATOM     23  C   UNL     1     -51.068  27.875  24.137  1.00  0.00     0.007 A 
ATOM     24  H   UNL     1     -51.401  26.660  25.930  1.00  0.00     0.065 H 
ATOM     25  H   UNL     1     -52.028  28.282  23.844  1.00  0.00     0.082 H 
BRANCH  16  26
ATOM     26  C   UNL     1     -45.296  26.892  24.008  1.00  0.00    -0.004 C 
ATOM     27  H   UNL     1     -45.102  27.674  23.267  1.00  0.00     0.031 H 
ATOM     28  H   UNL     1     -44.982  25.934  23.583  1.00  0.00     0.031 H 
ATOM     29  H   UNL     1     -44.698  27.095  24.901  1.00  0.00     0.031 H 
ENDBRANCH  16  26
BRANCH  19  30
ATOM     30  N   UNL     1     -48.691  25.337  26.954  1.00  0.00    -0.383 N 
ATOM     31  H   UNL     1     -49.676  25.276  27.167  1.00  0.00     0.158 HD
ATOM     32  H   UNL     1     -48.171  24.467  26.950  1.00  0.00     0.158 HD
ENDBRANCH  19  30
ENDBRANCH   5  15
BRANCH   7  33
ATOM     33  O   UNL     1     -51.139  29.646  20.220  1.00  0.00    -0.388 OA
ATOM     34  H   UNL     1     -50.233  30.019  20.152  1.00  0.00     0.211 HD
ENDBRANCH   7  33
BRANCH  11  35
ATOM     35  O   UNL     1     -52.395  31.548  21.388  1.00  0.00    -0.390 OA
ATOM     36  H   UNL     1     -52.675  30.981  20.647  1.00  0.00     0.211 HD
ENDBRANCH  11  35
ENDBRANCH   1   4
BRANCH   1  37
ATOM     37  C   UNL     1     -49.058  31.394  24.978  1.00  0.00    -0.027 C 
ATOM     38  H   UNL     1     -48.380  30.863  24.302  1.00  0.00     0.032 H 
ATOM     39  H   UNL     1     -49.228  30.721  25.828  1.00  0.00     0.032 H 
BRANCH  37  40
ATOM     40  C   UNL     1     -48.370  32.652  25.447  1.00  0.00    -0.046 A 
ATOM     41  C   UNL     1     -47.032  32.893  25.120  1.00  0.00    -0.058 A 
ATOM     42  C   UNL     1     -49.067  33.607  26.203  1.00  0.00    -0.033 A 
ATOM     43  C   UNL     1     -46.411  34.065  25.548  1.00  0.00    -0.053 A 
ATOM     44  H   UNL     1     -46.471  32.176  24.525  1.00  0.00     0.063 H 
ATOM     45  C   UNL     1     -48.470  34.782  26.644  1.00  0.00     0.073 A 
ATOM     46  H   UNL     1     -50.111  33.441  26.461  1.00  0.00     0.065 H 
ATOM     47  C   UNL     1     -47.121  35.008  26.308  1.00  0.00     0.000 A 
ATOM     48  H   UNL     1     -45.370  34.238  25.284  1.00  0.00     0.063 H 
ATOM     49  N   UNL     1     -49.190  35.658  27.367  1.00  0.00    -0.231 NA
ATOM     50  C   UNL     1     -46.530  36.193  26.755  1.00  0.00    -0.049 A 
ATOM     51  C   UNL     1     -48.605  36.790  27.787  1.00  0.00     0.124 A 
ATOM     52  C   UNL     1     -47.281  37.094  27.503  1.00  0.00    -0.019 A 
ATOM     53  H   UNL     1     -45.493  36.419  26.525  1.00  0.00     0.063 H 
ATOM     54  H   UNL     1     -46.831  38.016  27.854  1.00  0.00     0.066 H 
BRANCH  51  55
ATOM     55  N   UNL     1     -49.380  37.680  28.538  1.00  0.00    -0.384 N 
ATOM     56  H   UNL     1     -48.899  38.570  28.615  1.00  0.00     0.158 HD
ATOM     57  H   UNL     1     -50.268  37.835  28.071  1.00  0.00     0.158 HD
ENDBRANCH  51  55
ENDBRANCH  37  40
ENDBRANCH   1  37
TORSDOF 9
ENDMDL
MODEL 5
REMARK VINA RESULT:      -9.0      1.736      2.458
REMARK SMILES Cc1nc(N)c2ccn([C@@H]3C[C@H](CCc4ccc5ccc(N)nc5c4)[C@@H](O)[C@H]3O)c2n1
REMARK SMILES IDX 13 1 12 4 10 5 11 6 28 7 26 11 9 15 2 16 3 17 31 18 4 19
REMARK SMILES IDX 30 20 6 21 7 22 8 23 1 26 5 30 29 33 27 35 14 37 15 40 16 41
REMARK SMILES IDX 25 42 17 43 24 45 18 47 23 49 19 50 21 51 20 52 22 55
REMARK H PARENT 13 2 13 3 10 8 11 9 11 10 28 12 12 13 26 14 7 24 8 25 1 27
REMARK H PARENT 1 28 1 29 5 31 5 32 29 34 27 36 14 38 14 39 16 44 25 46 17 48
REMARK H PARENT 19 53 20 54 22 56 22 57
REMARK Flexibility Score: inf
ROOT
ATOM      1  C   UNL     1     -47.349  36.526  27.979  1.00  0.00    -0.044 C 
ATOM      2  H   UNL     1     -47.847  37.504  28.022  1.00  0.00     0.027 H 
ATOM      3  H   UNL     1     -48.080  35.798  28.351  1.00  0.00     0.027 H 
ENDROOT
BRANCH   1   4
ATOM      4  C   UNL     1     -46.119  36.554  28.905  1.00  0.00    -0.010 C 
ATOM      5  C   UNL     1     -44.706  38.573  28.733  1.00  0.00     0.064 C 
ATOM      6  C   UNL     1     -44.901  37.153  28.177  1.00  0.00    -0.024 C 
ATOM      7  C   UNL     1     -45.166  38.437  30.186  1.00  0.00     0.101 C 
ATOM      8  H   UNL     1     -43.631  38.805  28.721  1.00  0.00     0.056 H 
ATOM      9  H   UNL     1     -44.996  37.122  27.086  1.00  0.00     0.029 H 
ATOM     10  H   UNL     1     -44.019  36.552  28.435  1.00  0.00     0.029 H 
ATOM     11  C   UNL     1     -46.327  37.427  30.156  1.00  0.00     0.085 C 
ATOM     12  H   UNL     1     -45.442  39.381  30.664  1.00  0.00     0.065 H 
ATOM     13  H   UNL     1     -45.888  35.518  29.185  1.00  0.00     0.033 H 
ATOM     14  H   UNL     1     -47.290  37.938  30.142  1.00  0.00     0.063 H 
BRANCH   5  15
ATOM     15  N   UNL     1     -45.315  39.593  27.893  1.00  0.00    -0.327 N 
ATOM     16  C   UNL     1     -43.120  42.001  26.447  1.00  0.00     0.130 A 
ATOM     17  N   UNL     1     -43.998  42.778  25.780  1.00  0.00    -0.216 NA
ATOM     18  N   UNL     1     -43.409  40.914  27.188  1.00  0.00    -0.215 NA
ATOM     19  C   UNL     1     -45.306  42.464  25.821  1.00  0.00     0.136 A 
ATOM     20  C   UNL     1     -44.720  40.631  27.215  1.00  0.00     0.146 A 
ATOM     21  C   UNL     1     -45.714  41.350  26.564  1.00  0.00     0.061 A 
ATOM     22  C   UNL     1     -46.949  40.709  26.847  1.00  0.00    -0.031 A 
ATOM     23  C   UNL     1     -46.678  39.634  27.663  1.00  0.00     0.007 A 
ATOM     24  H   UNL     1     -47.927  40.999  26.488  1.00  0.00     0.065 H 
ATOM     25  H   UNL     1     -47.336  38.893  28.098  1.00  0.00     0.082 H 
BRANCH  16  26
ATOM     26  C   UNL     1     -41.672  42.367  26.331  1.00  0.00    -0.004 C 
ATOM     27  H   UNL     1     -41.372  42.414  25.279  1.00  0.00     0.031 H 
ATOM     28  H   UNL     1     -41.043  41.625  26.832  1.00  0.00     0.031 H 
ATOM     29  H   UNL     1     -41.501  43.344  26.792  1.00  0.00     0.031 H 
ENDBRANCH  16  26
BRANCH  19  30
ATOM     30  N   UNL     1     -46.180  43.289  25.128  1.00  0.00    -0.383 N 
ATOM     31  H   UNL     1     -45.775  44.146  24.779  1.00  0.00     0.158 HD
ATOM     32  H   UNL     1     -46.743  42.753  24.478  1.00  0.00     0.158 HD
ENDBRANCH  19  30
ENDBRANCH   5  15
BRANCH   7  33
ATOM     33  O   UNL     1     -44.086  37.882  30.963  1.00  0.00    -0.388 OA
ATOM     34  H   UNL     1     -43.783  37.110  30.437  1.00  0.00     0.211 HD
ENDBRANCH   7  33
BRANCH  11  35
ATOM     35  O   UNL     1     -46.286  36.628  31.346  1.00  0.00    -0.390 OA
ATOM     36  H   UNL     1     -47.163  36.691  31.764  1.00  0.00     0.211 HD
ENDBRANCH  11  35
ENDBRANCH   1   4
BRANCH   1  37
ATOM     37  C   UNL     1     -46.999  36.213  26.520  1.00  0.00    -0.027 C 
ATOM     38  H   UNL     1     -45.921  36.289  26.345  1.00  0.00     0.032 H 
ATOM     39  H   UNL     1     -47.467  36.955  25.860  1.00  0.00     0.032 H 
BRANCH  37  40
ATOM     40  C   UNL     1     -47.444  34.825  26.131  1.00  0.00    -0.046 A 
ATOM     41  C   UNL     1     -48.674  34.324  26.569  1.00  0.00    -0.058 A 
ATOM     42  C   UNL     1     -46.639  34.022  25.309  1.00  0.00    -0.033 A 
ATOM     43  C   UNL     1     -49.080  33.045  26.194  1.00  0.00    -0.053 A 
ATOM     44  H   UNL     1     -49.324  34.929  27.198  1.00  0.00     0.063 H 
ATOM     45  C   UNL     1     -47.019  32.742  24.922  1.00  0.00     0.073 A 
ATOM     46  H   UNL     1     -45.681  34.396  24.952  1.00  0.00     0.065 H 
ATOM     47  C   UNL     1     -48.260  32.253  25.375  1.00  0.00     0.000 A 
ATOM     48  H   UNL     1     -50.040  32.672  26.542  1.00  0.00     0.063 H 
ATOM     49  N   UNL     1     -46.202  32.020  24.135  1.00  0.00    -0.231 NA
ATOM     50  C   UNL     1     -48.633  30.965  24.979  1.00  0.00    -0.049 A 
ATOM     51  C   UNL     1     -46.579  30.786  23.765  1.00  0.00     0.124 A 
ATOM     52  C   UNL     1     -47.783  30.224  24.165  1.00  0.00    -0.019 A 
ATOM     53  H   UNL     1     -49.579  30.537  25.298  1.00  0.00     0.063 H 
ATOM     54  H   UNL     1     -48.065  29.225  23.853  1.00  0.00     0.066 H 
BRANCH  51  55
ATOM     55  N   UNL     1     -45.707  30.060  22.947  1.00  0.00    -0.384 N 
ATOM     56  H   UNL     1     -46.160  29.854  22.063  1.00  0.00     0.158 HD
ATOM     57  H   UNL     1     -44.877  30.614  22.759  1.00  0.00     0.158 HD
ENDBRANCH  51  55
ENDBRANCH  37  40
ENDBRANCH   1  37
TORSDOF 9
ENDMDL
MODEL 6
REMARK VINA RESULT:      -8.6      3.832      7.601
REMARK SMILES Cc1nc(N)c2ccn([C@@H]3C[C@H](CCc4ccc5ccc(N)nc5c4)[C@@H](O)[C@H]3O)c2n1
REMARK SMILES IDX 13 1 12 4 10 5 11 6 28 7 26 11 9 15 2 16 3 17 31 18 4 19
REMARK SMILES IDX 30 20 6 21 7 22 8 23 1 26 5 30 29 33 27 35 14 37 15 40 16 41
REMARK SMILES IDX 25 42 17 43 24 45 18 47 23 49 19 50 21 51 20 52 22 55
REMARK H PARENT 13 2 13 3 10 8 11 9 11 10 28 12 12 13 26 14 7 24 8 25 1 27
REMARK H PARENT 1 28 1 29 5 31 5 32 29 34 27 36 14 38 14 39 16 44 25 46 17 48
REMARK H PARENT 19 53 20 54 22 56 22 57
REMARK Flexibility Score: inf
ROOT
ATOM      1  C   UNL     1     -45.099  36.345  28.946  1.00  0.00    -0.044 C 
ATOM      2  H   UNL     1     -44.857  36.827  27.989  1.00  0.00     0.027 H 
ATOM      3  H   UNL     1     -44.277  35.649  29.150  1.00  0.00     0.027 H 
ENDROOT
BRANCH   1   4
ATOM      4  C   UNL     1     -46.419  35.569  28.791  1.00  0.00    -0.010 C 
ATOM      5  C   UNL     1     -48.282  36.832  27.774  1.00  0.00     0.064 C 
ATOM      6  C   UNL     1     -47.625  36.470  29.114  1.00  0.00    -0.024 C 
ATOM      7  C   UNL     1     -48.035  35.583  26.923  1.00  0.00     0.101 C 
ATOM      8  H   UNL     1     -49.364  36.942  27.936  1.00  0.00     0.056 H 
ATOM      9  H   UNL     1     -47.356  37.344  29.717  1.00  0.00     0.029 H 
ATOM     10  H   UNL     1     -48.340  35.885  29.708  1.00  0.00     0.029 H 
ATOM     11  C   UNL     1     -46.654  35.060  27.357  1.00  0.00     0.085 C 
ATOM     12  H   UNL     1     -48.104  35.748  25.845  1.00  0.00     0.065 H 
ATOM     13  H   UNL     1     -46.401  34.734  29.504  1.00  0.00     0.033 H 
ATOM     14  H   UNL     1     -45.875  35.397  26.671  1.00  0.00     0.063 H 
BRANCH   5  15
ATOM     15  N   UNL     1     -47.850  38.126  27.267  1.00  0.00    -0.327 N 
ATOM     16  C   UNL     1     -49.452  41.001  28.635  1.00  0.00     0.130 A 
ATOM     17  N   UNL     1     -48.845  41.986  27.941  1.00  0.00    -0.216 NA
ATOM     18  N   UNL     1     -49.226  39.678  28.520  1.00  0.00    -0.215 NA
ATOM     19  C   UNL     1     -47.899  41.659  27.041  1.00  0.00     0.136 A 
ATOM     20  C   UNL     1     -48.285  39.384  27.610  1.00  0.00     0.146 A 
ATOM     21  C   UNL     1     -47.587  40.308  26.844  1.00  0.00     0.061 A 
ATOM     22  C   UNL     1     -46.687  39.579  26.024  1.00  0.00    -0.031 A 
ATOM     23  C   UNL     1     -46.866  38.243  26.302  1.00  0.00     0.007 A 
ATOM     24  H   UNL     1     -45.981  39.987  25.312  1.00  0.00     0.065 H 
ATOM     25  H   UNL     1     -46.378  37.364  25.899  1.00  0.00     0.082 H 
BRANCH  16  26
ATOM     26  C   UNL     1     -50.463  41.422  29.657  1.00  0.00    -0.004 C 
ATOM     27  H   UNL     1     -50.339  42.481  29.906  1.00  0.00     0.031 H 
ATOM     28  H   UNL     1     -50.349  40.840  30.577  1.00  0.00     0.031 H 
ATOM     29  H   UNL     1     -51.471  41.266  29.264  1.00  0.00     0.031 H 
ENDBRANCH  16  26
BRANCH  19  30
ATOM     30  N   UNL     1     -47.300  42.696  26.342  1.00  0.00    -0.383 N 
ATOM     31  H   UNL     1     -47.939  43.375  25.951  1.00  0.00     0.158 HD
ATOM     32  H   UNL     1     -46.503  43.061  26.850  1.00  0.00     0.158 HD
ENDBRANCH  19  30
ENDBRANCH   5  15
BRANCH   7  33
ATOM     33  O   UNL     1     -49.031  34.595  27.254  1.00  0.00    -0.388 OA
ATOM     34  H   UNL     1     -49.457  34.945  28.067  1.00  0.00     0.211 HD
ENDBRANCH   7  33
BRANCH  11  35
ATOM     35  O   UNL     1     -46.662  33.627  27.320  1.00  0.00    -0.390 OA
ATOM     36  H   UNL     1     -47.098  33.363  26.490  1.00  0.00     0.211 HD
ENDBRANCH  11  35
ENDBRANCH   1   4
BRANCH   1  37
ATOM     37  C   UNL     1     -45.154  37.418  30.039  1.00  0.00    -0.027 C 
ATOM     38  H   UNL     1     -44.819  37.020  31.003  1.00  0.00     0.032 H 
ATOM     39  H   UNL     1     -46.193  37.739  30.189  1.00  0.00     0.032 H 
BRANCH  37  40
ATOM     40  C   UNL     1     -44.292  38.606  29.691  1.00  0.00    -0.046 A 
ATOM     41  C   UNL     1     -43.136  38.884  30.427  1.00  0.00    -0.058 A 
ATOM     42  C   UNL     1     -44.628  39.439  28.613  1.00  0.00    -0.033 A 
ATOM     43  C   UNL     1     -42.341  39.977  30.088  1.00  0.00    -0.053 A 
ATOM     44  H   UNL     1     -42.846  38.249  31.260  1.00  0.00     0.063 H 
ATOM     45  C   UNL     1     -43.853  40.536  28.256  1.00  0.00     0.073 A 
ATOM     46  H   UNL     1     -45.520  39.235  28.023  1.00  0.00     0.065 H 
ATOM     47  C   UNL     1     -42.694  40.804  29.009  1.00  0.00     0.000 A 
ATOM     48  H   UNL     1     -41.444  40.179  30.669  1.00  0.00     0.063 H 
ATOM     49  N   UNL     1     -44.228  41.299  27.214  1.00  0.00    -0.231 NA
ATOM     50  C   UNL     1     -41.921  41.909  28.641  1.00  0.00    -0.049 A 
ATOM     51  C   UNL     1     -43.473  42.356  26.876  1.00  0.00     0.124 A 
ATOM     52  C   UNL     1     -42.316  42.694  27.562  1.00  0.00    -0.019 A 
ATOM     53  H   UNL     1     -41.016  42.162  29.187  1.00  0.00     0.063 H 
ATOM     54  H   UNL     1     -41.722  43.553  27.270  1.00  0.00     0.066 H 
BRANCH  51  55
ATOM     55  N   UNL     1     -43.891  43.129  25.788  1.00  0.00    -0.384 N 
ATOM     56  H   UNL     1     -43.196  43.842  25.589  1.00  0.00     0.158 HD
ATOM     57  H   UNL     1     -43.987  42.539  24.967  1.00  0.00     0.158 HD
ENDBRANCH  51  55
ENDBRANCH  37  40
ENDBRANCH   1  37
TORSDOF 9
ENDMDL
MODEL 7
REMARK VINA RESULT:      -8.6      3.348      5.446
REMARK SMILES Cc1nc(N)c2ccn([C@@H]3C[C@H](CCc4ccc5ccc(N)nc5c4)[C@@H](O)[C@H]3O)c2n1
REMARK SMILES IDX 13 1 12 4 10 5 11 6 28 7 26 11 9 15 2 16 3 17 31 18 4 19
REMARK SMILES IDX 30 20 6 21 7 22 8 23 1 26 5 30 29 33 27 35 14 37 15 40 16 41
REMARK SMILES IDX 25 42 17 43 24 45 18 47 23 49 19 50 21 51 20 52 22 55
REMARK H PARENT 13 2 13 3 10 8 11 9 11 10 28 12 12 13 26 14 7 24 8 25 1 27
REMARK H PARENT 1 28 1 29 5 31 5 32 29 34 27 36 14 38 14 39 16 44 25 46 17 48
REMARK H PARENT 19 53 20 54 22 56 22 57
REMARK Flexibility Score: inf
ROOT
ATOM      1  C   UNL     1     -45.070  39.945  27.330  1.00  0.00    -0.044 C 
ATOM      2  H   UNL     1     -45.177  39.335  26.423  1.00  0.00     0.027 H 
ATOM      3  H   UNL     1     -45.579  40.893  27.118  1.00  0.00     0.027 H 
ENDROOT
BRANCH   1   4
ATOM      4  C   UNL     1     -43.573  40.198  27.585  1.00  0.00    -0.010 C 
ATOM      5  C   UNL     1     -42.782  42.485  27.088  1.00  0.00     0.064 C 
ATOM      6  C   UNL     1     -42.973  41.087  26.480  1.00  0.00    -0.024 C 
ATOM      7  C   UNL     1     -42.462  42.180  28.554  1.00  0.00     0.101 C 
ATOM      8  H   UNL     1     -41.901  42.949  26.622  1.00  0.00     0.056 H 
ATOM      9  H   UNL     1     -43.570  41.090  25.561  1.00  0.00     0.029 H 
ATOM     10  H   UNL     1     -41.987  40.683  26.214  1.00  0.00     0.029 H 
ATOM     11  C   UNL     1     -43.304  40.940  28.907  1.00  0.00     0.085 C 
ATOM     12  H   UNL     1     -42.633  43.014  29.239  1.00  0.00     0.065 H 
ATOM     13  H   UNL     1     -43.063  39.226  27.572  1.00  0.00     0.033 H 
ATOM     14  H   UNL     1     -44.229  41.227  29.410  1.00  0.00     0.063 H 
BRANCH   5  15
ATOM     15  N   UNL     1     -43.882  43.386  26.780  1.00  0.00    -0.327 N 
ATOM     16  C   UNL     1     -44.482  46.033  29.091  1.00  0.00     0.130 A 
ATOM     17  N   UNL     1     -45.552  46.629  28.523  1.00  0.00    -0.216 NA
ATOM     18  N   UNL     1     -43.824  44.953  28.629  1.00  0.00    -0.215 NA
ATOM     19  C   UNL     1     -46.035  46.135  27.369  1.00  0.00     0.136 A 
ATOM     20  C   UNL     1     -44.334  44.479  27.481  1.00  0.00     0.146 A 
ATOM     21  C   UNL     1     -45.421  45.012  26.801  1.00  0.00     0.061 A 
ATOM     22  C   UNL     1     -45.619  44.219  25.640  1.00  0.00    -0.031 A 
ATOM     23  C   UNL     1     -44.662  43.230  25.649  1.00  0.00     0.007 A 
ATOM     24  H   UNL     1     -46.374  44.361  24.878  1.00  0.00     0.065 H 
ATOM     25  H   UNL     1     -44.467  42.428  24.947  1.00  0.00     0.082 H 
BRANCH  16  26
ATOM     26  C   UNL     1     -43.956  46.651  30.350  1.00  0.00    -0.004 C 
ATOM     27  H   UNL     1     -43.632  45.876  31.051  1.00  0.00     0.031 H 
ATOM     28  H   UNL     1     -44.728  47.253  30.839  1.00  0.00     0.031 H 
ATOM     29  H   UNL     1     -43.103  47.294  30.115  1.00  0.00     0.031 H 
ENDBRANCH  16  26
BRANCH  19  30
ATOM     30  N   UNL     1     -47.138  46.770  26.817  1.00  0.00    -0.383 N 
ATOM     31  H   UNL     1     -47.856  46.152  26.466  1.00  0.00     0.158 HD
ATOM     32  H   UNL     1     -47.444  47.537  27.404  1.00  0.00     0.158 HD
ENDBRANCH  19  30
ENDBRANCH   5  15
BRANCH   7  33
ATOM     33  O   UNL     1     -41.066  41.839  28.660  1.00  0.00    -0.388 OA
ATOM     34  H   UNL     1     -40.743  42.376  29.417  1.00  0.00     0.211 HD
ENDBRANCH   7  33
BRANCH  11  35
ATOM     35  O   UNL     1     -42.565  40.113  29.814  1.00  0.00    -0.390 OA
ATOM     36  H   UNL     1     -43.067  39.285  29.922  1.00  0.00     0.211 HD
ENDBRANCH  11  35
ENDBRANCH   1   4
BRANCH   1  37
ATOM     37  C   UNL     1     -45.768  39.230  28.492  1.00  0.00    -0.027 C 
ATOM     38  H   UNL     1     -46.466  39.899  29.008  1.00  0.00     0.032 H 
ATOM     39  H   UNL     1     -45.025  38.932  29.242  1.00  0.00     0.032 H 
BRANCH  37  40
ATOM     40  C   UNL     1     -46.535  38.022  28.016  1.00  0.00    -0.046 A 
ATOM     41  C   UNL     1     -47.928  37.974  28.131  1.00  0.00    -0.058 A 
ATOM     42  C   UNL     1     -45.864  36.935  27.434  1.00  0.00    -0.033 A 
ATOM     43  C   UNL     1     -48.626  36.857  27.677  1.00  0.00    -0.053 A 
ATOM     44  H   UNL     1     -48.475  38.807  28.568  1.00  0.00     0.063 H 
ATOM     45  C   UNL     1     -46.537  35.809  26.975  1.00  0.00     0.073 A 
ATOM     46  H   UNL     1     -44.781  36.957  27.329  1.00  0.00     0.065 H 
ATOM     47  C   UNL     1     -47.940  35.776  27.101  1.00  0.00     0.000 A 
ATOM     48  H   UNL     1     -49.710  36.836  27.772  1.00  0.00     0.063 H 
ATOM     49  N   UNL     1     -45.838  34.799  26.429  1.00  0.00    -0.231 NA
ATOM     50  C   UNL     1     -48.607  34.640  26.635  1.00  0.00    -0.049 A 
ATOM     51  C   UNL     1     -46.497  33.716  25.987  1.00  0.00     0.124 A 
ATOM     52  C   UNL     1     -47.877  33.598  26.072  1.00  0.00    -0.019 A 
ATOM     53  H   UNL     1     -49.688  34.561  26.707  1.00  0.00     0.063 H 
ATOM     54  H   UNL     1     -48.386  32.713  25.708  1.00  0.00     0.066 H 
BRANCH  51  55
ATOM     55  N   UNL     1     -45.741  32.682  25.425  1.00  0.00    -0.384 N 
ATOM     56  H   UNL     1     -46.109  32.451  24.508  1.00  0.00     0.158 HD
ATOM     57  H   UNL     1     -44.778  32.985  25.316  1.00  0.00     0.158 HD
ENDBRANCH  51  55
ENDBRANCH  37  40
ENDBRANCH   1  37
TORSDOF 9
ENDMDL
