MODEL 1
REMARK VINA RESULT:      -9.9      0.000      0.000
REMARK SMILES CCNc1ccc2ccc(OCc3cncc(-n4cc([C@H]5CCCO5)c5c(N)ncnc54)c3)cc2n1
REMARK SMILES IDX 11 1 10 2 4 3 5 4 36 5 6 6 35 8 7 9 34 11 8 12 9 14 3 17
REMARK SMILES IDX 2 19 1 22 12 26 13 29 14 30 33 31 15 32 17 34 16 36 18 38
REMARK SMILES IDX 19 39 32 40 20 41 26 43 31 44 27 45 30 46 29 47 21 49 22 50
REMARK SMILES IDX 25 51 23 53 24 56 28 61
REMARK H PARENT 5 7 6 10 34 13 8 15 9 16 3 18 2 20 2 21 1 23 1 24 1 25 12 27
REMARK H PARENT 12 28 14 33 33 35 16 37 19 42 30 48 21 52 22 54 22 55 23 57
REMARK H PARENT 23 58 24 59 24 60 28 62 28 63
REMARK Flexibility Score: inf
ROOT
ATOM      1  O   UNL     1     -46.986  33.833  25.163  1.00  0.00    -0.489 OA
ENDROOT
BRANCH   1   2
ATOM      2  C   UNL     1     -47.100  32.523  24.786  1.00  0.00     0.122 A 
ATOM      3  C   UNL     1     -48.881  28.123  25.015  1.00  0.00     0.126 A 
ATOM      4  C   UNL     1     -48.088  27.684  23.966  1.00  0.00    -0.019 A 
ATOM      5  N   UNL     1     -48.828  29.386  25.478  1.00  0.00    -0.231 NA
ATOM      6  C   UNL     1     -47.225  28.585  23.351  1.00  0.00    -0.049 A 
ATOM      7  H   UNL     1     -48.121  26.652  23.637  1.00  0.00     0.066 H 
ATOM      8  C   UNL     1     -47.996  30.263  24.888  1.00  0.00     0.076 A 
ATOM      9  C   UNL     1     -47.168  29.905  23.807  1.00  0.00     0.001 A 
ATOM     10  H   UNL     1     -46.600  28.249  22.528  1.00  0.00     0.063 H 
ATOM     11  C   UNL     1     -47.948  31.571  25.356  1.00  0.00     0.007 A 
ATOM     12  C   UNL     1     -46.319  30.855  23.221  1.00  0.00    -0.049 A 
ATOM     13  H   UNL     1     -48.611  31.818  26.179  1.00  0.00     0.069 H 
ATOM     14  C   UNL     1     -46.292  32.159  23.710  1.00  0.00    -0.019 A 
ATOM     15  H   UNL     1     -45.676  30.586  22.386  1.00  0.00     0.063 H 
ATOM     16  H   UNL     1     -45.632  32.893  23.254  1.00  0.00     0.066 H 
BRANCH   3  17
ATOM     17  N   UNL     1     -49.761  27.281  25.690  1.00  0.00    -0.370 N 
ATOM     18  H   UNL     1     -50.668  27.461  25.259  1.00  0.00     0.162 HD
BRANCH  17  19
ATOM     19  C   UNL     1     -49.434  25.859  25.702  1.00  0.00     0.013 C 
ATOM     20  H   UNL     1     -50.297  25.243  25.979  1.00  0.00     0.049 H 
ATOM     21  H   UNL     1     -49.170  25.572  24.677  1.00  0.00     0.049 H 
BRANCH  19  22
ATOM     22  C   UNL     1     -48.250  25.555  26.607  1.00  0.00    -0.048 C 
ATOM     23  H   UNL     1     -48.383  24.605  27.137  1.00  0.00     0.025 H 
ATOM     24  H   UNL     1     -48.115  26.341  27.356  1.00  0.00     0.025 H 
ATOM     25  H   UNL     1     -47.331  25.485  26.017  1.00  0.00     0.025 H 
ENDBRANCH  19  22
ENDBRANCH  17  19
ENDBRANCH   3  17
ENDBRANCH   1   2
BRANCH   1  26
ATOM     26  C   UNL     1     -46.659  34.126  26.525  1.00  0.00     0.115 C 
ATOM     27  H   UNL     1     -45.569  34.030  26.605  1.00  0.00     0.076 H 
ATOM     28  H   UNL     1     -47.083  33.372  27.201  1.00  0.00     0.076 H 
BRANCH  26  29
ATOM     29  C   UNL     1     -47.018  35.529  26.940  1.00  0.00     0.010 A 
ATOM     30  C   UNL     1     -48.320  35.827  27.314  1.00  0.00     0.034 A 
ATOM     31  C   UNL     1     -46.072  36.561  27.024  1.00  0.00    -0.028 A 
ATOM     32  N   UNL     1     -48.725  37.045  27.728  1.00  0.00    -0.262 NA
ATOM     33  H   UNL     1     -49.106  35.075  27.294  1.00  0.00     0.084 H 
ATOM     34  C   UNL     1     -46.450  37.845  27.442  1.00  0.00     0.066 A 
ATOM     35  H   UNL     1     -45.044  36.323  26.768  1.00  0.00     0.065 H 
ATOM     36  C   UNL     1     -47.787  38.025  27.780  1.00  0.00     0.051 A 
ATOM     37  H   UNL     1     -48.200  38.975  28.098  1.00  0.00     0.086 H 
BRANCH  34  38
ATOM     38  N   UNL     1     -45.501  38.916  27.504  1.00  0.00    -0.299 N 
ATOM     39  C   UNL     1     -45.366  39.916  26.552  1.00  0.00     0.018 A 
ATOM     40  C   UNL     1     -44.551  39.164  28.494  1.00  0.00     0.150 A 
ATOM     41  C   UNL     1     -44.380  40.812  26.924  1.00  0.00     0.012 A 
ATOM     42  H   UNL     1     -46.003  39.942  25.679  1.00  0.00     0.083 H 
ATOM     43  C   UNL     1     -43.850  40.321  28.158  1.00  0.00     0.067 A 
ATOM     44  N   UNL     1     -44.313  38.411  29.587  1.00  0.00    -0.218 NA
ATOM     45  C   UNL     1     -42.835  40.728  29.044  1.00  0.00     0.136 A 
ATOM     46  C   UNL     1     -43.327  38.896  30.350  1.00  0.00     0.120 A 
ATOM     47  N   UNL     1     -42.591  39.999  30.147  1.00  0.00    -0.219 NA
ATOM     48  H   UNL     1     -43.092  38.328  31.246  1.00  0.00     0.106 H 
BRANCH  41  49
ATOM     49  C   UNL     1     -43.913  42.030  26.182  1.00  0.00     0.085 C 
ATOM     50  C   UNL     1     -44.550  42.251  24.815  1.00  0.00    -0.020 C 
ATOM     51  O   UNL     1     -44.170  43.243  26.931  1.00  0.00    -0.373 OA
ATOM     52  H   UNL     1     -42.823  41.965  26.065  1.00  0.00     0.066 H 
ATOM     53  C   UNL     1     -44.394  43.739  24.632  1.00  0.00    -0.027 C 
ATOM     54  H   UNL     1     -44.073  41.664  24.023  1.00  0.00     0.030 H 
ATOM     55  H   UNL     1     -45.619  42.004  24.822  1.00  0.00     0.030 H 
ATOM     56  C   UNL     1     -44.664  44.244  26.030  1.00  0.00     0.048 C 
ATOM     57  H   UNL     1     -43.363  43.972  24.339  1.00  0.00     0.029 H 
ATOM     58  H   UNL     1     -45.069  44.165  23.886  1.00  0.00     0.029 H 
ATOM     59  H   UNL     1     -44.173  45.199  26.236  1.00  0.00     0.057 H 
ATOM     60  H   UNL     1     -45.738  44.356  26.212  1.00  0.00     0.057 H 
ENDBRANCH  41  49
BRANCH  45  61
ATOM     61  N   UNL     1     -42.062  41.867  28.857  1.00  0.00    -0.383 N 
ATOM     62  H   UNL     1     -42.633  42.621  28.495  1.00  0.00     0.158 HD
ATOM     63  H   UNL     1     -41.208  41.673  28.332  1.00  0.00     0.158 HD
ENDBRANCH  45  61
ENDBRANCH  34  38
ENDBRANCH  26  29
ENDBRANCH   1  26
TORSDOF 9
ENDMDL
MODEL 2
REMARK VINA RESULT:      -9.8      2.701     11.973
REMARK SMILES CCNc1ccc2ccc(OCc3cncc(-n4cc([C@H]5CCCO5)c5c(N)ncnc54)c3)cc2n1
REMARK SMILES IDX 11 1 10 2 4 3 5 4 36 5 6 6 35 8 7 9 34 11 8 12 9 14 3 17
REMARK SMILES IDX 2 19 1 22 12 26 13 29 14 30 33 31 15 32 17 34 16 36 18 38
REMARK SMILES IDX 19 39 32 40 20 41 26 43 31 44 27 45 30 46 29 47 21 49 22 50
REMARK SMILES IDX 25 51 23 53 24 56 28 61
REMARK H PARENT 5 7 6 10 34 13 8 15 9 16 3 18 2 20 2 21 1 23 1 24 1 25 12 27
REMARK H PARENT 12 28 14 33 33 35 16 37 19 42 30 48 21 52 22 54 22 55 23 57
REMARK H PARENT 23 58 24 59 24 60 28 62 28 63
REMARK Flexibility Score: inf
ROOT
ATOM      1  O   UNL     1     -46.950  37.370  27.853  1.00  0.00    -0.489 OA
ENDROOT
BRANCH   1   2
ATOM      2  C   UNL     1     -45.890  38.144  28.240  1.00  0.00     0.122 A 
ATOM      3  C   UNL     1     -43.007  41.914  28.003  1.00  0.00     0.126 A 
ATOM      4  C   UNL     1     -42.253  41.479  29.081  1.00  0.00    -0.019 A 
ATOM      5  N   UNL     1     -44.055  41.215  27.529  1.00  0.00    -0.231 NA
ATOM      6  C   UNL     1     -42.603  40.290  29.713  1.00  0.00    -0.049 A 
ATOM      7  H   UNL     1     -41.390  42.040  29.420  1.00  0.00     0.066 H 
ATOM      8  C   UNL     1     -44.401  40.065  28.135  1.00  0.00     0.076 A 
ATOM      9  C   UNL     1     -43.698  39.558  29.245  1.00  0.00     0.001 A 
ATOM     10  H   UNL     1     -42.016  39.942  30.558  1.00  0.00     0.063 H 
ATOM     11  C   UNL     1     -45.489  39.346  27.654  1.00  0.00     0.007 A 
ATOM     12  C   UNL     1     -44.097  38.356  29.846  1.00  0.00    -0.049 A 
ATOM     13  H   UNL     1     -46.019  39.773  26.809  1.00  0.00     0.069 H 
ATOM     14  C   UNL     1     -45.193  37.657  29.344  1.00  0.00    -0.019 A 
ATOM     15  H   UNL     1     -43.560  37.958  30.703  1.00  0.00     0.063 H 
ATOM     16  H   UNL     1     -45.499  36.725  29.812  1.00  0.00     0.066 H 
BRANCH   3  17
ATOM     17  N   UNL     1     -42.715  43.086  27.311  1.00  0.00    -0.370 N 
ATOM     18  H   UNL     1     -42.201  43.658  27.981  1.00  0.00     0.162 HD
BRANCH  17  19
ATOM     19  C   UNL     1     -41.996  42.945  26.049  1.00  0.00     0.013 C 
ATOM     20  H   UNL     1     -40.915  43.064  26.178  1.00  0.00     0.049 H 
ATOM     21  H   UNL     1     -42.151  41.919  25.694  1.00  0.00     0.049 H 
BRANCH  19  22
ATOM     22  C   UNL     1     -42.515  43.903  24.987  1.00  0.00    -0.048 C 
ATOM     23  H   UNL     1     -41.984  44.860  25.016  1.00  0.00     0.025 H 
ATOM     24  H   UNL     1     -43.582  44.107  25.128  1.00  0.00     0.025 H 
ATOM     25  H   UNL     1     -42.380  43.472  23.990  1.00  0.00     0.025 H 
ENDBRANCH  19  22
ENDBRANCH  17  19
ENDBRANCH   3  17
ENDBRANCH   1   2
BRANCH   1  26
ATOM     26  C   UNL     1     -46.866  36.673  26.606  1.00  0.00     0.115 C 
ATOM     27  H   UNL     1     -45.933  37.001  26.133  1.00  0.00     0.076 H 
ATOM     28  H   UNL     1     -47.675  36.978  25.930  1.00  0.00     0.076 H 
BRANCH  26  29
ATOM     29  C   UNL     1     -46.789  35.176  26.760  1.00  0.00     0.010 A 
ATOM     30  C   UNL     1     -46.194  34.626  27.886  1.00  0.00     0.034 A 
ATOM     31  C   UNL     1     -47.350  34.287  25.829  1.00  0.00    -0.028 A 
ATOM     32  N   UNL     1     -46.107  33.301  28.121  1.00  0.00    -0.262 NA
ATOM     33  H   UNL     1     -45.753  35.250  28.660  1.00  0.00     0.084 H 
ATOM     34  C   UNL     1     -47.275  32.901  26.030  1.00  0.00     0.066 A 
ATOM     35  H   UNL     1     -47.849  34.714  24.965  1.00  0.00     0.065 H 
ATOM     36  C   UNL     1     -46.644  32.470  27.192  1.00  0.00     0.051 A 
ATOM     37  H   UNL     1     -46.509  31.425  27.445  1.00  0.00     0.086 H 
BRANCH  34  38
ATOM     38  N   UNL     1     -47.818  31.982  25.075  1.00  0.00    -0.299 N 
ATOM     39  C   UNL     1     -49.015  31.296  25.222  1.00  0.00     0.018 A 
ATOM     40  C   UNL     1     -47.276  31.599  23.849  1.00  0.00     0.150 A 
ATOM     41  C   UNL     1     -49.266  30.513  24.110  1.00  0.00     0.012 A 
ATOM     42  H   UNL     1     -49.629  31.431  26.101  1.00  0.00     0.083 H 
ATOM     43  C   UNL     1     -48.146  30.697  23.240  1.00  0.00     0.067 A 
ATOM     44  N   UNL     1     -46.097  32.000  23.331  1.00  0.00    -0.218 NA
ATOM     45  C   UNL     1     -47.759  30.190  21.986  1.00  0.00     0.136 A 
ATOM     46  C   UNL     1     -45.838  31.450  22.138  1.00  0.00     0.120 A 
ATOM     47  N   UNL     1     -46.595  30.587  21.445  1.00  0.00    -0.219 NA
ATOM     48  H   UNL     1     -44.899  31.738  21.673  1.00  0.00     0.106 H 
BRANCH  41  49
ATOM     49  C   UNL     1     -50.441  29.613  23.862  1.00  0.00     0.085 C 
ATOM     50  C   UNL     1     -51.340  30.011  22.698  1.00  0.00    -0.020 C 
ATOM     51  O   UNL     1     -50.023  28.254  23.585  1.00  0.00    -0.373 OA
ATOM     52  H   UNL     1     -51.041  29.569  24.782  1.00  0.00     0.066 H 
ATOM     53  C   UNL     1     -51.974  28.694  22.325  1.00  0.00    -0.027 C 
ATOM     54  H   UNL     1     -52.069  30.782  22.966  1.00  0.00     0.030 H 
ATOM     55  H   UNL     1     -50.757  30.379  21.844  1.00  0.00     0.030 H 
ATOM     56  C   UNL     1     -50.814  27.742  22.502  1.00  0.00     0.048 C 
ATOM     57  H   UNL     1     -52.773  28.451  23.035  1.00  0.00     0.029 H 
ATOM     58  H   UNL     1     -52.391  28.676  21.316  1.00  0.00     0.029 H 
ATOM     59  H   UNL     1     -51.137  26.723  22.732  1.00  0.00     0.057 H 
ATOM     60  H   UNL     1     -50.180  27.716  21.609  1.00  0.00     0.057 H 
ENDBRANCH  41  49
BRANCH  45  61
ATOM     61  N   UNL     1     -48.526  29.298  21.247  1.00  0.00    -0.383 N 
ATOM     62  H   UNL     1     -48.898  29.755  20.424  1.00  0.00     0.158 HD
ATOM     63  H   UNL     1     -49.212  28.808  21.824  1.00  0.00     0.158 HD
ENDBRANCH  45  61
ENDBRANCH  34  38
ENDBRANCH  26  29
ENDBRANCH   1  26
TORSDOF 9
ENDMDL
MODEL 3
REMARK VINA RESULT:      -9.8      2.265      3.035
REMARK SMILES CCNc1ccc2ccc(OCc3cncc(-n4cc([C@H]5CCCO5)c5c(N)ncnc54)c3)cc2n1
REMARK SMILES IDX 11 1 10 2 4 3 5 4 36 5 6 6 35 8 7 9 34 11 8 12 9 14 3 17
REMARK SMILES IDX 2 19 1 22 12 26 13 29 14 30 33 31 15 32 17 34 16 36 18 38
REMARK SMILES IDX 19 39 32 40 20 41 26 43 31 44 27 45 30 46 29 47 21 49 22 50
REMARK SMILES IDX 25 51 23 53 24 56 28 61
REMARK H PARENT 5 7 6 10 34 13 8 15 9 16 3 18 2 20 2 21 1 23 1 24 1 25 12 27
REMARK H PARENT 12 28 14 33 33 35 16 37 19 42 30 48 21 52 22 54 22 55 23 57
REMARK H PARENT 23 58 24 59 24 60 28 62 28 63
REMARK Flexibility Score: inf
ROOT
ATOM      1  O   UNL     1     -46.001  34.292  27.105  1.00  0.00    -0.489 OA
ENDROOT
BRANCH   1   2
ATOM      2  C   UNL     1     -46.733  33.522  26.243  1.00  0.00     0.122 A 
ATOM      3  C   UNL     1     -47.389  30.839  22.375  1.00  0.00     0.126 A 
ATOM      4  C   UNL     1     -48.722  30.617  22.683  1.00  0.00    -0.019 A 
ATOM      5  N   UNL     1     -46.589  31.600  23.146  1.00  0.00    -0.231 NA
ATOM      6  C   UNL     1     -49.249  31.181  23.841  1.00  0.00    -0.049 A 
ATOM      7  H   UNL     1     -49.355  30.032  22.027  1.00  0.00     0.066 H 
ATOM      8  C   UNL     1     -47.091  32.147  24.267  1.00  0.00     0.076 A 
ATOM      9  C   UNL     1     -48.430  31.961  24.662  1.00  0.00     0.001 A 
ATOM     10  H   UNL     1     -50.293  31.012  24.089  1.00  0.00     0.063 H 
ATOM     11  C   UNL     1     -46.265  32.925  25.070  1.00  0.00     0.007 A 
ATOM     12  C   UNL     1     -48.908  32.549  25.842  1.00  0.00    -0.049 A 
ATOM     13  H   UNL     1     -45.235  33.035  24.746  1.00  0.00     0.069 H 
ATOM     14  C   UNL     1     -48.057  33.322  26.628  1.00  0.00    -0.019 A 
ATOM     15  H   UNL     1     -49.940  32.409  26.153  1.00  0.00     0.063 H 
ATOM     16  H   UNL     1     -48.431  33.777  27.542  1.00  0.00     0.066 H 
BRANCH   3  17
ATOM     17  N   UNL     1     -46.790  30.320  21.230  1.00  0.00    -0.370 N 
ATOM     18  H   UNL     1     -47.567  30.132  20.598  1.00  0.00     0.162 HD
BRANCH  17  19
ATOM     19  C   UNL     1     -45.757  31.137  20.599  1.00  0.00     0.013 C 
ATOM     20  H   UNL     1     -45.221  31.753  21.329  1.00  0.00     0.049 H 
ATOM     21  H   UNL     1     -45.014  30.455  20.169  1.00  0.00     0.049 H 
BRANCH  19  22
ATOM     22  C   UNL     1     -46.320  32.002  19.482  1.00  0.00    -0.048 C 
ATOM     23  H   UNL     1     -45.538  32.603  19.006  1.00  0.00     0.025 H 
ATOM     24  H   UNL     1     -47.086  32.686  19.861  1.00  0.00     0.025 H 
ATOM     25  H   UNL     1     -46.777  31.373  18.711  1.00  0.00     0.025 H 
ENDBRANCH  19  22
ENDBRANCH  17  19
ENDBRANCH   3  17
ENDBRANCH   1   2
BRANCH   1  26
ATOM     26  C   UNL     1     -46.670  34.893  28.219  1.00  0.00     0.115 C 
ATOM     27  H   UNL     1     -45.984  34.806  29.070  1.00  0.00     0.076 H 
ATOM     28  H   UNL     1     -47.568  34.324  28.491  1.00  0.00     0.076 H 
BRANCH  26  29
ATOM     29  C   UNL     1     -46.962  36.358  28.024  1.00  0.00     0.010 A 
ATOM     30  C   UNL     1     -48.274  36.809  28.039  1.00  0.00     0.034 A 
ATOM     31  C   UNL     1     -45.952  37.321  27.880  1.00  0.00    -0.028 A 
ATOM     32  N   UNL     1     -48.627  38.103  27.903  1.00  0.00    -0.262 NA
ATOM     33  H   UNL     1     -49.111  36.125  28.164  1.00  0.00     0.084 H 
ATOM     34  C   UNL     1     -46.274  38.677  27.728  1.00  0.00     0.066 A 
ATOM     35  H   UNL     1     -44.922  36.977  27.905  1.00  0.00     0.065 H 
ATOM     36  C   UNL     1     -47.625  39.006  27.748  1.00  0.00     0.051 A 
ATOM     37  H   UNL     1     -47.995  40.017  27.622  1.00  0.00     0.086 H 
BRANCH  34  38
ATOM     38  N   UNL     1     -45.254  39.667  27.552  1.00  0.00    -0.299 N 
ATOM     39  C   UNL     1     -45.173  40.543  26.478  1.00  0.00     0.018 A 
ATOM     40  C   UNL     1     -44.172  39.944  28.387  1.00  0.00     0.150 A 
ATOM     41  C   UNL     1     -44.089  41.391  26.624  1.00  0.00     0.012 A 
ATOM     42  H   UNL     1     -45.911  40.525  25.690  1.00  0.00     0.083 H 
ATOM     43  C   UNL     1     -43.443  40.996  27.837  1.00  0.00     0.067 A 
ATOM     44  N   UNL     1     -43.851  39.298  29.526  1.00  0.00    -0.218 NA
ATOM     45  C   UNL     1     -42.300  41.414  28.543  1.00  0.00     0.136 A 
ATOM     46  C   UNL     1     -42.746  39.782  30.106  1.00  0.00     0.120 A 
ATOM     47  N   UNL     1     -41.969  40.792  29.688  1.00  0.00    -0.219 NA
ATOM     48  H   UNL     1     -42.439  39.298  31.028  1.00  0.00     0.106 H 
BRANCH  41  49
ATOM     49  C   UNL     1     -43.638  42.478  25.693  1.00  0.00     0.085 C 
ATOM     50  C   UNL     1     -44.463  42.638  24.421  1.00  0.00    -0.020 C 
ATOM     51  O   UNL     1     -43.661  43.776  26.337  1.00  0.00    -0.373 OA
ATOM     52  H   UNL     1     -42.591  42.288  25.422  1.00  0.00     0.066 H 
ATOM     53  C   UNL     1     -44.203  44.078  24.056  1.00  0.00    -0.027 C 
ATOM     54  H   UNL     1     -44.173  41.933  23.635  1.00  0.00     0.030 H 
ATOM     55  H   UNL     1     -45.535  42.508  24.614  1.00  0.00     0.030 H 
ATOM     56  C   UNL     1     -44.200  44.736  25.417  1.00  0.00     0.048 C 
ATOM     57  H   UNL     1     -43.216  44.172  23.590  1.00  0.00     0.029 H 
ATOM     58  H   UNL     1     -44.948  44.502  23.379  1.00  0.00     0.029 H 
ATOM     59  H   UNL     1     -43.598  45.648  25.442  1.00  0.00     0.057 H 
ATOM     60  H   UNL     1     -45.218  44.978  25.744  1.00  0.00     0.057 H 
ENDBRANCH  41  49
BRANCH  45  61
ATOM     61  N   UNL     1     -41.481  42.459  28.133  1.00  0.00    -0.383 N 
ATOM     62  H   UNL     1     -41.855  43.342  28.457  1.00  0.00     0.158 HD
ATOM     63  H   UNL     1     -41.266  42.413  27.136  1.00  0.00     0.158 HD
ENDBRANCH  45  61
ENDBRANCH  34  38
ENDBRANCH  26  29
ENDBRANCH   1  26
TORSDOF 9
ENDMDL
MODEL 4
REMARK VINA RESULT:      -9.6      2.563      4.168
REMARK SMILES CCNc1ccc2ccc(OCc3cncc(-n4cc([C@H]5CCCO5)c5c(N)ncnc54)c3)cc2n1
REMARK SMILES IDX 11 1 10 2 4 3 5 4 36 5 6 6 35 8 7 9 34 11 8 12 9 14 3 17
REMARK SMILES IDX 2 19 1 22 12 26 13 29 14 30 33 31 15 32 17 34 16 36 18 38
REMARK SMILES IDX 19 39 32 40 20 41 26 43 31 44 27 45 30 46 29 47 21 49 22 50
REMARK SMILES IDX 25 51 23 53 24 56 28 61
REMARK H PARENT 5 7 6 10 34 13 8 15 9 16 3 18 2 20 2 21 1 23 1 24 1 25 12 27
REMARK H PARENT 12 28 14 33 33 35 16 37 19 42 30 48 21 52 22 54 22 55 23 57
REMARK H PARENT 23 58 24 59 24 60 28 62 28 63
REMARK Flexibility Score: inf
ROOT
ATOM      1  O   UNL     1     -47.143  34.069  26.947  1.00  0.00    -0.489 OA
ENDROOT
BRANCH   1   2
ATOM      2  C   UNL     1     -47.314  33.044  26.058  1.00  0.00     0.122 A 
ATOM      3  C   UNL     1     -46.461  30.650  22.043  1.00  0.00     0.126 A 
ATOM      4  C   UNL     1     -47.367  29.654  22.375  1.00  0.00    -0.019 A 
ATOM      5  N   UNL     1     -46.237  31.712  22.837  1.00  0.00    -0.231 NA
ATOM      6  C   UNL     1     -48.051  29.741  23.583  1.00  0.00    -0.049 A 
ATOM      7  H   UNL     1     -47.558  28.828  21.700  1.00  0.00     0.066 H 
ATOM      8  C   UNL     1     -46.894  31.803  24.007  1.00  0.00     0.076 A 
ATOM      9  C   UNL     1     -47.820  30.829  24.428  1.00  0.00     0.001 A 
ATOM     10  H   UNL     1     -48.763  28.965  23.850  1.00  0.00     0.063 H 
ATOM     11  C   UNL     1     -46.657  32.895  24.835  1.00  0.00     0.007 A 
ATOM     12  C   UNL     1     -48.479  30.965  25.659  1.00  0.00    -0.049 A 
ATOM     13  H   UNL     1     -45.925  33.618  24.489  1.00  0.00     0.069 H 
ATOM     14  C   UNL     1     -48.220  32.068  26.468  1.00  0.00    -0.019 A 
ATOM     15  H   UNL     1     -49.195  30.217  25.991  1.00  0.00     0.063 H 
ATOM     16  H   UNL     1     -48.734  32.171  27.421  1.00  0.00     0.066 H 
BRANCH   3  17
ATOM     17  N   UNL     1     -45.745  30.641  20.848  1.00  0.00    -0.370 N 
ATOM     18  H   UNL     1     -45.946  29.730  20.436  1.00  0.00     0.162 HD
BRANCH  17  19
ATOM     19  C   UNL     1     -46.007  31.732  19.915  1.00  0.00     0.013 C 
ATOM     20  H   UNL     1     -45.690  32.700  20.319  1.00  0.00     0.049 H 
ATOM     21  H   UNL     1     -45.395  31.558  19.023  1.00  0.00     0.049 H 
BRANCH  19  22
ATOM     22  C   UNL     1     -47.468  31.783  19.495  1.00  0.00    -0.048 C 
ATOM     23  H   UNL     1     -47.587  32.246  18.509  1.00  0.00     0.025 H 
ATOM     24  H   UNL     1     -48.064  32.359  20.210  1.00  0.00     0.025 H 
ATOM     25  H   UNL     1     -47.882  30.771  19.443  1.00  0.00     0.025 H 
ENDBRANCH  19  22
ENDBRANCH  17  19
ENDBRANCH   3  17
ENDBRANCH   1   2
BRANCH   1  26
ATOM     26  C   UNL     1     -47.543  35.386  26.556  1.00  0.00     0.115 C 
ATOM     27  H   UNL     1     -48.591  35.492  26.863  1.00  0.00     0.076 H 
ATOM     28  H   UNL     1     -47.533  35.492  25.464  1.00  0.00     0.076 H 
BRANCH  26  29
ATOM     29  C   UNL     1     -46.763  36.479  27.240  1.00  0.00     0.010 A 
ATOM     30  C   UNL     1     -46.024  36.192  28.378  1.00  0.00     0.034 A 
ATOM     31  C   UNL     1     -46.698  37.789  26.743  1.00  0.00    -0.028 A 
ATOM     32  N   UNL     1     -45.273  37.098  29.037  1.00  0.00    -0.262 NA
ATOM     33  H   UNL     1     -46.009  35.195  28.812  1.00  0.00     0.084 H 
ATOM     34  C   UNL     1     -45.936  38.766  27.401  1.00  0.00     0.066 A 
ATOM     35  H   UNL     1     -47.245  38.009  25.832  1.00  0.00     0.065 H 
ATOM     36  C   UNL     1     -45.247  38.361  28.539  1.00  0.00     0.051 A 
ATOM     37  H   UNL     1     -44.641  39.029  29.140  1.00  0.00     0.086 H 
BRANCH  34  38
ATOM     38  N   UNL     1     -45.883  40.115  26.922  1.00  0.00    -0.299 N 
ATOM     39  C   UNL     1     -44.721  40.797  26.592  1.00  0.00     0.018 A 
ATOM     40  C   UNL     1     -46.946  40.988  26.699  1.00  0.00     0.150 A 
ATOM     41  C   UNL     1     -45.017  42.068  26.134  1.00  0.00     0.012 A 
ATOM     42  H   UNL     1     -43.754  40.322  26.678  1.00  0.00     0.083 H 
ATOM     43  C   UNL     1     -46.439  42.193  26.217  1.00  0.00     0.067 A 
ATOM     44  N   UNL     1     -48.252  40.740  26.928  1.00  0.00    -0.218 NA
ATOM     45  C   UNL     1     -47.372  43.209  25.939  1.00  0.00     0.136 A 
ATOM     46  C   UNL     1     -49.041  41.779  26.629  1.00  0.00     0.120 A 
ATOM     47  N   UNL     1     -48.680  42.978  26.148  1.00  0.00    -0.219 NA
ATOM     48  H   UNL     1     -50.104  41.636  26.795  1.00  0.00     0.106 H 
BRANCH  41  49
ATOM     49  C   UNL     1     -44.059  43.131  25.680  1.00  0.00     0.085 C 
ATOM     50  C   UNL     1     -42.581  42.796  25.843  1.00  0.00    -0.020 C 
ATOM     51  O   UNL     1     -44.235  43.444  24.277  1.00  0.00    -0.373 OA
ATOM     52  H   UNL     1     -44.283  44.054  26.231  1.00  0.00     0.066 H 
ATOM     53  C   UNL     1     -41.942  43.677  24.800  1.00  0.00    -0.027 C 
ATOM     54  H   UNL     1     -42.211  42.985  26.856  1.00  0.00     0.030 H 
ATOM     55  H   UNL     1     -42.374  41.747  25.597  1.00  0.00     0.030 H 
ATOM     56  C   UNL     1     -42.942  43.579  23.671  1.00  0.00     0.048 C 
ATOM     57  H   UNL     1     -41.888  44.709  25.166  1.00  0.00     0.029 H 
ATOM     58  H   UNL     1     -40.938  43.360  24.510  1.00  0.00     0.029 H 
ATOM     59  H   UNL     1     -42.930  44.457  23.020  1.00  0.00     0.057 H 
ATOM     60  H   UNL     1     -42.764  42.687  23.059  1.00  0.00     0.057 H 
ENDBRANCH  41  49
BRANCH  45  61
ATOM     61  N   UNL     1     -47.024  44.457  25.439  1.00  0.00    -0.383 N 
ATOM     62  H   UNL     1     -47.582  45.178  25.880  1.00  0.00     0.158 HD
ATOM     63  H   UNL     1     -47.013  44.475  24.418  1.00  0.00     0.158 HD
ENDBRANCH  45  61
ENDBRANCH  34  38
ENDBRANCH  26  29
ENDBRANCH   1  26
TORSDOF 9
ENDMDL
MODEL 5
REMARK VINA RESULT:      -9.5      2.336     12.151
REMARK SMILES CCNc1ccc2ccc(OCc3cncc(-n4cc([C@H]5CCCO5)c5c(N)ncnc54)c3)cc2n1
REMARK SMILES IDX 11 1 10 2 4 3 5 4 36 5 6 6 35 8 7 9 34 11 8 12 9 14 3 17
REMARK SMILES IDX 2 19 1 22 12 26 13 29 14 30 33 31 15 32 17 34 16 36 18 38
REMARK SMILES IDX 19 39 32 40 20 41 26 43 31 44 27 45 30 46 29 47 21 49 22 50
REMARK SMILES IDX 25 51 23 53 24 56 28 61
REMARK H PARENT 5 7 6 10 34 13 8 15 9 16 3 18 2 20 2 21 1 23 1 24 1 25 12 27
REMARK H PARENT 12 28 14 33 33 35 16 37 19 42 30 48 21 52 22 54 22 55 23 57
REMARK H PARENT 23 58 24 59 24 60 28 62 28 63
REMARK Flexibility Score: inf
ROOT
ATOM      1  O   UNL     1     -48.118  37.108  27.152  1.00  0.00    -0.489 OA
ENDROOT
BRANCH   1   2
ATOM      2  C   UNL     1     -47.030  37.565  27.845  1.00  0.00     0.122 A 
ATOM      3  C   UNL     1     -43.331  40.443  28.628  1.00  0.00     0.126 A 
ATOM      4  C   UNL     1     -43.004  39.797  29.811  1.00  0.00    -0.019 A 
ATOM      5  N   UNL     1     -44.368  40.057  27.861  1.00  0.00    -0.231 NA
ATOM      6  C   UNL     1     -43.788  38.729  30.234  1.00  0.00    -0.049 A 
ATOM      7  H   UNL     1     -42.142  40.103  30.391  1.00  0.00     0.066 H 
ATOM      8  C   UNL     1     -45.130  39.025  28.264  1.00  0.00     0.076 A 
ATOM      9  C   UNL     1     -44.878  38.324  29.459  1.00  0.00     0.001 A 
ATOM     10  H   UNL     1     -43.538  38.218  31.159  1.00  0.00     0.063 H 
ATOM     11  C   UNL     1     -46.207  38.632  27.478  1.00  0.00     0.007 A 
ATOM     12  C   UNL     1     -45.703  37.256  29.840  1.00  0.00    -0.049 A 
ATOM     13  H   UNL     1     -46.385  39.203  26.574  1.00  0.00     0.069 H 
ATOM     14  C   UNL     1     -46.776  36.884  29.034  1.00  0.00    -0.019 A 
ATOM     15  H   UNL     1     -45.514  36.710  30.761  1.00  0.00     0.063 H 
ATOM     16  H   UNL     1     -47.413  36.056  29.333  1.00  0.00     0.066 H 
BRANCH   3  17
ATOM     17  N   UNL     1     -42.591  41.512  28.131  1.00  0.00    -0.370 N 
ATOM     18  H   UNL     1     -41.654  41.133  27.993  1.00  0.00     0.162 HD
BRANCH  17  19
ATOM     19  C   UNL     1     -43.100  42.162  26.927  1.00  0.00     0.013 C 
ATOM     20  H   UNL     1     -42.363  42.154  26.116  1.00  0.00     0.049 H 
ATOM     21  H   UNL     1     -43.954  41.576  26.571  1.00  0.00     0.049 H 
BRANCH  19  22
ATOM     22  C   UNL     1     -43.572  43.582  27.203  1.00  0.00    -0.048 C 
ATOM     23  H   UNL     1     -43.717  44.145  26.276  1.00  0.00     0.025 H 
ATOM     24  H   UNL     1     -42.846  44.126  27.817  1.00  0.00     0.025 H 
ATOM     25  H   UNL     1     -44.526  43.565  27.740  1.00  0.00     0.025 H 
ENDBRANCH  19  22
ENDBRANCH  17  19
ENDBRANCH   3  17
ENDBRANCH   1   2
BRANCH   1  26
ATOM     26  C   UNL     1     -48.598  35.788  27.427  1.00  0.00     0.115 C 
ATOM     27  H   UNL     1     -49.678  35.810  27.240  1.00  0.00     0.076 H 
ATOM     28  H   UNL     1     -48.476  35.539  28.489  1.00  0.00     0.076 H 
BRANCH  26  29
ATOM     29  C   UNL     1     -48.007  34.735  26.526  1.00  0.00     0.010 A 
ATOM     30  C   UNL     1     -46.775  34.950  25.926  1.00  0.00     0.034 A 
ATOM     31  C   UNL     1     -48.626  33.496  26.300  1.00  0.00    -0.028 A 
ATOM     32  N   UNL     1     -46.158  34.053  25.130  1.00  0.00    -0.262 NA
ATOM     33  H   UNL     1     -46.226  35.877  26.068  1.00  0.00     0.084 H 
ATOM     34  C   UNL     1     -48.024  32.536  25.473  1.00  0.00     0.066 A 
ATOM     35  H   UNL     1     -49.573  33.308  26.797  1.00  0.00     0.065 H 
ATOM     36  C   UNL     1     -46.793  32.871  24.919  1.00  0.00     0.051 A 
ATOM     37  H   UNL     1     -46.242  32.220  24.250  1.00  0.00     0.086 H 
BRANCH  34  38
ATOM     38  N   UNL     1     -48.658  31.279  25.210  1.00  0.00    -0.299 N 
ATOM     39  C   UNL     1     -48.293  30.069  25.785  1.00  0.00     0.018 A 
ATOM     40  C   UNL     1     -49.728  31.019  24.355  1.00  0.00     0.150 A 
ATOM     41  C   UNL     1     -49.123  29.053  25.344  1.00  0.00     0.012 A 
ATOM     42  H   UNL     1     -47.481  30.013  26.494  1.00  0.00     0.083 H 
ATOM     43  C   UNL     1     -50.029  29.660  24.420  1.00  0.00     0.067 A 
ATOM     44  N   UNL     1     -50.363  31.912  23.569  1.00  0.00    -0.218 NA
ATOM     45  C   UNL     1     -51.087  29.205  23.611  1.00  0.00     0.136 A 
ATOM     46  C   UNL     1     -51.346  31.362  22.846  1.00  0.00     0.120 A 
ATOM     47  N   UNL     1     -51.742  30.081  22.829  1.00  0.00    -0.219 NA
ATOM     48  H   UNL     1     -51.893  32.036  22.193  1.00  0.00     0.106 H 
BRANCH  41  49
ATOM     49  C   UNL     1     -49.073  27.599  25.711  1.00  0.00     0.085 C 
ATOM     50  C   UNL     1     -48.194  26.726  24.823  1.00  0.00    -0.020 C 
ATOM     51  O   UNL     1     -48.577  27.405  27.059  1.00  0.00    -0.373 OA
ATOM     52  H   UNL     1     -50.098  27.206  25.701  1.00  0.00     0.066 H 
ATOM     53  C   UNL     1     -47.857  25.580  25.743  1.00  0.00    -0.027 C 
ATOM     54  H   UNL     1     -48.698  26.411  23.904  1.00  0.00     0.030 H 
ATOM     55  H   UNL     1     -47.266  27.241  24.541  1.00  0.00     0.030 H 
ATOM     56  C   UNL     1     -47.666  26.297  27.059  1.00  0.00     0.048 C 
ATOM     57  H   UNL     1     -48.708  24.892  25.807  1.00  0.00     0.029 H 
ATOM     58  H   UNL     1     -46.976  25.012  25.434  1.00  0.00     0.029 H 
ATOM     59  H   UNL     1     -47.867  25.655  27.921  1.00  0.00     0.057 H 
ATOM     60  H   UNL     1     -46.651  26.699  27.150  1.00  0.00     0.057 H 
ENDBRANCH  41  49
BRANCH  45  61
ATOM     61  N   UNL     1     -51.517  27.885  23.578  1.00  0.00    -0.383 N 
ATOM     62  H   UNL     1     -52.017  27.659  24.429  1.00  0.00     0.158 HD
ATOM     63  H   UNL     1     -50.767  27.240  23.326  1.00  0.00     0.158 HD
ENDBRANCH  45  61
ENDBRANCH  34  38
ENDBRANCH  26  29
ENDBRANCH   1  26
TORSDOF 9
ENDMDL
MODEL 6
REMARK VINA RESULT:      -9.5      2.260      3.632
REMARK SMILES CCNc1ccc2ccc(OCc3cncc(-n4cc([C@H]5CCCO5)c5c(N)ncnc54)c3)cc2n1
REMARK SMILES IDX 11 1 10 2 4 3 5 4 36 5 6 6 35 8 7 9 34 11 8 12 9 14 3 17
REMARK SMILES IDX 2 19 1 22 12 26 13 29 14 30 33 31 15 32 17 34 16 36 18 38
REMARK SMILES IDX 19 39 32 40 20 41 26 43 31 44 27 45 30 46 29 47 21 49 22 50
REMARK SMILES IDX 25 51 23 53 24 56 28 61
REMARK H PARENT 5 7 6 10 34 13 8 15 9 16 3 18 2 20 2 21 1 23 1 24 1 25 12 27
REMARK H PARENT 12 28 14 33 33 35 16 37 19 42 30 48 21 52 22 54 22 55 23 57
REMARK H PARENT 23 58 24 59 24 60 28 62 28 63
REMARK Flexibility Score: inf
ROOT
ATOM      1  O   UNL     1     -48.281  32.469  24.432  1.00  0.00    -0.489 OA
ENDROOT
BRANCH   1   2
ATOM      2  C   UNL     1     -48.783  31.205  24.286  1.00  0.00     0.122 A 
ATOM      3  C   UNL     1     -49.612  26.726  25.640  1.00  0.00     0.126 A 
ATOM      4  C   UNL     1     -50.322  26.446  24.482  1.00  0.00    -0.019 A 
ATOM      5  N   UNL     1     -49.058  27.931  25.870  1.00  0.00    -0.231 NA
ATOM      6  C   UNL     1     -50.490  27.450  23.535  1.00  0.00    -0.049 A 
ATOM      7  H   UNL     1     -50.725  25.456  24.303  1.00  0.00     0.066 H 
ATOM      8  C   UNL     1     -49.217  28.907  24.959  1.00  0.00     0.076 A 
ATOM      9  C   UNL     1     -49.935  28.712  23.764  1.00  0.00     0.001 A 
ATOM     10  H   UNL     1     -51.044  27.238  22.625  1.00  0.00     0.063 H 
ATOM     11  C   UNL     1     -48.654  30.156  25.199  1.00  0.00     0.007 A 
ATOM     12  C   UNL     1     -50.077  29.762  22.844  1.00  0.00    -0.049 A 
ATOM     13  H   UNL     1     -48.122  30.278  26.136  1.00  0.00     0.069 H 
ATOM     14  C   UNL     1     -49.505  31.003  23.111  1.00  0.00    -0.019 A 
ATOM     15  H   UNL     1     -50.631  29.619  21.919  1.00  0.00     0.063 H 
ATOM     16  H   UNL     1     -49.616  31.814  22.396  1.00  0.00     0.066 H 
BRANCH   3  17
ATOM     17  N   UNL     1     -49.390  25.773  26.630  1.00  0.00    -0.370 N 
ATOM     18  H   UNL     1     -49.796  24.916  26.256  1.00  0.00     0.162 HD
BRANCH  17  19
ATOM     19  C   UNL     1     -48.009  25.580  27.063  1.00  0.00     0.013 C 
ATOM     20  H   UNL     1     -47.597  26.483  27.527  1.00  0.00     0.049 H 
ATOM     21  H   UNL     1     -48.012  24.809  27.841  1.00  0.00     0.049 H 
BRANCH  19  22
ATOM     22  C   UNL     1     -47.117  25.112  25.923  1.00  0.00    -0.048 C 
ATOM     23  H   UNL     1     -46.899  24.041  25.997  1.00  0.00     0.025 H 
ATOM     24  H   UNL     1     -46.163  25.650  25.924  1.00  0.00     0.025 H 
ATOM     25  H   UNL     1     -47.608  25.290  24.961  1.00  0.00     0.025 H 
ENDBRANCH  19  22
ENDBRANCH  17  19
ENDBRANCH   3  17
ENDBRANCH   1   2
BRANCH   1  26
ATOM     26  C   UNL     1     -46.903  32.620  24.789  1.00  0.00     0.115 C 
ATOM     27  H   UNL     1     -46.439  33.197  23.981  1.00  0.00     0.076 H 
ATOM     28  H   UNL     1     -46.393  31.648  24.803  1.00  0.00     0.076 H 
BRANCH  26  29
ATOM     29  C   UNL     1     -46.695  33.389  26.068  1.00  0.00     0.010 A 
ATOM     30  C   UNL     1     -46.257  32.731  27.207  1.00  0.00     0.034 A 
ATOM     31  C   UNL     1     -46.872  34.779  26.155  1.00  0.00    -0.028 A 
ATOM     32  N   UNL     1     -46.015  33.342  28.384  1.00  0.00    -0.262 NA
ATOM     33  H   UNL     1     -46.079  31.658  27.213  1.00  0.00     0.084 H 
ATOM     34  C   UNL     1     -46.640  35.454  27.361  1.00  0.00     0.066 A 
ATOM     35  H   UNL     1     -47.179  35.304  25.256  1.00  0.00     0.065 H 
ATOM     36  C   UNL     1     -46.214  34.685  28.438  1.00  0.00     0.051 A 
ATOM     37  H   UNL     1     -46.021  35.091  29.424  1.00  0.00     0.086 H 
BRANCH  34  38
ATOM     38  N   UNL     1     -46.844  36.868  27.472  1.00  0.00    -0.299 N 
ATOM     39  C   UNL     1     -45.850  37.828  27.342  1.00  0.00     0.018 A 
ATOM     40  C   UNL     1     -48.035  37.546  27.727  1.00  0.00     0.150 A 
ATOM     41  C   UNL     1     -46.382  39.098  27.474  1.00  0.00     0.012 A 
ATOM     42  H   UNL     1     -44.828  37.545  27.136  1.00  0.00     0.083 H 
ATOM     43  C   UNL     1     -47.776  38.915  27.734  1.00  0.00     0.067 A 
ATOM     44  N   UNL     1     -49.242  36.990  27.957  1.00  0.00    -0.218 NA
ATOM     45  C   UNL     1     -48.867  39.767  27.985  1.00  0.00     0.136 A 
ATOM     46  C   UNL     1     -50.199  37.898  28.185  1.00  0.00     0.120 A 
ATOM     47  N   UNL     1     -50.082  39.234  28.204  1.00  0.00    -0.219 NA
ATOM     48  H   UNL     1     -51.194  37.506  28.377  1.00  0.00     0.106 H 
BRANCH  41  49
ATOM     49  C   UNL     1     -45.658  40.411  27.406  1.00  0.00     0.085 C 
ATOM     50  C   UNL     1     -44.137  40.323  27.366  1.00  0.00    -0.020 C 
ATOM     51  O   UNL     1     -46.035  41.168  26.229  1.00  0.00    -0.373 OA
ATOM     52  H   UNL     1     -45.962  41.017  28.270  1.00  0.00     0.066 H 
ATOM     53  C   UNL     1     -43.763  41.622  26.698  1.00  0.00    -0.027 C 
ATOM     54  H   UNL     1     -43.692  40.202  28.359  1.00  0.00     0.030 H 
ATOM     55  H   UNL     1     -43.797  39.489  26.739  1.00  0.00     0.030 H 
ATOM     56  C   UNL     1     -44.853  41.749  25.659  1.00  0.00     0.048 C 
ATOM     57  H   UNL     1     -43.832  42.444  27.420  1.00  0.00     0.029 H 
ATOM     58  H   UNL     1     -42.760  41.622  26.267  1.00  0.00     0.029 H 
ATOM     59  H   UNL     1     -45.051  42.788  25.382  1.00  0.00     0.057 H 
ATOM     60  H   UNL     1     -44.607  41.186  24.753  1.00  0.00     0.057 H 
ENDBRANCH  41  49
BRANCH  45  61
ATOM     61  N   UNL     1     -48.772  41.152  28.008  1.00  0.00    -0.383 N 
ATOM     62  H   UNL     1     -48.570  41.473  28.946  1.00  0.00     0.158 HD
ATOM     63  H   UNL     1     -49.569  41.601  27.553  1.00  0.00     0.158 HD
ENDBRANCH  45  61
ENDBRANCH  34  38
ENDBRANCH  26  29
ENDBRANCH   1  26
TORSDOF 9
ENDMDL
MODEL 7
REMARK VINA RESULT:      -9.3      2.791      5.359
REMARK SMILES CCNc1ccc2ccc(OCc3cncc(-n4cc([C@H]5CCCO5)c5c(N)ncnc54)c3)cc2n1
REMARK SMILES IDX 11 1 10 2 4 3 5 4 36 5 6 6 35 8 7 9 34 11 8 12 9 14 3 17
REMARK SMILES IDX 2 19 1 22 12 26 13 29 14 30 33 31 15 32 17 34 16 36 18 38
REMARK SMILES IDX 19 39 32 40 20 41 26 43 31 44 27 45 30 46 29 47 21 49 22 50
REMARK SMILES IDX 25 51 23 53 24 56 28 61
REMARK H PARENT 5 7 6 10 34 13 8 15 9 16 3 18 2 20 2 21 1 23 1 24 1 25 12 27
REMARK H PARENT 12 28 14 33 33 35 16 37 19 42 30 48 21 52 22 54 22 55 23 57
REMARK H PARENT 23 58 24 59 24 60 28 62 28 63
REMARK Flexibility Score: inf
ROOT
ATOM      1  O   UNL     1     -46.383  38.099  27.557  1.00  0.00    -0.489 OA
ENDROOT
BRANCH   1   2
ATOM      2  C   UNL     1     -46.910  36.899  27.165  1.00  0.00     0.122 A 
ATOM      3  C   UNL     1     -46.783  32.608  25.126  1.00  0.00     0.126 A 
ATOM      4  C   UNL     1     -48.106  32.350  25.451  1.00  0.00    -0.019 A 
ATOM      5  N   UNL     1     -46.177  33.767  25.445  1.00  0.00    -0.231 NA
ATOM      6  C   UNL     1     -48.827  33.310  26.153  1.00  0.00    -0.049 A 
ATOM      7  H   UNL     1     -48.582  31.425  25.149  1.00  0.00     0.066 H 
ATOM      8  C   UNL     1     -46.867  34.700  26.124  1.00  0.00     0.076 A 
ATOM      9  C   UNL     1     -48.210  34.513  26.507  1.00  0.00     0.001 A 
ATOM     10  H   UNL     1     -49.864  33.115  26.410  1.00  0.00     0.063 H 
ATOM     11  C   UNL     1     -46.241  35.893  26.464  1.00  0.00     0.007 A 
ATOM     12  C   UNL     1     -48.889  35.514  27.217  1.00  0.00    -0.049 A 
ATOM     13  H   UNL     1     -45.202  35.998  26.170  1.00  0.00     0.069 H 
ATOM     14  C   UNL     1     -48.235  36.699  27.546  1.00  0.00    -0.019 A 
ATOM     15  H   UNL     1     -49.925  35.376  27.516  1.00  0.00     0.063 H 
ATOM     16  H   UNL     1     -48.765  37.472  28.096  1.00  0.00     0.066 H 
BRANCH   3  17
ATOM     17  N   UNL     1     -45.997  31.704  24.416  1.00  0.00    -0.370 N 
ATOM     18  H   UNL     1     -45.661  31.049  25.121  1.00  0.00     0.162 HD
BRANCH  17  19
ATOM     19  C   UNL     1     -46.630  31.022  23.292  1.00  0.00     0.013 C 
ATOM     20  H   UNL     1     -47.588  30.571  23.575  1.00  0.00     0.049 H 
ATOM     21  H   UNL     1     -46.860  31.778  22.533  1.00  0.00     0.049 H 
BRANCH  19  22
ATOM     22  C   UNL     1     -45.714  29.979  22.670  1.00  0.00    -0.048 C 
ATOM     23  H   UNL     1     -44.672  30.126  22.975  1.00  0.00     0.025 H 
ATOM     24  H   UNL     1     -45.754  30.021  21.577  1.00  0.00     0.025 H 
ATOM     25  H   UNL     1     -46.017  28.974  22.984  1.00  0.00     0.025 H 
ENDBRANCH  19  22
ENDBRANCH  17  19
ENDBRANCH   3  17
ENDBRANCH   1   2
BRANCH   1  26
ATOM     26  C   UNL     1     -45.471  38.117  28.659  1.00  0.00     0.115 C 
ATOM     27  H   UNL     1     -44.851  37.217  28.560  1.00  0.00     0.076 H 
ATOM     28  H   UNL     1     -46.005  38.015  29.613  1.00  0.00     0.076 H 
BRANCH  26  29
ATOM     29  C   UNL     1     -44.543  39.304  28.652  1.00  0.00     0.010 A 
ATOM     30  C   UNL     1     -43.528  39.394  29.593  1.00  0.00     0.034 A 
ATOM     31  C   UNL     1     -44.617  40.319  27.685  1.00  0.00    -0.028 A 
ATOM     32  N   UNL     1     -42.635  40.403  29.643  1.00  0.00    -0.262 NA
ATOM     33  H   UNL     1     -43.395  38.637  30.363  1.00  0.00     0.084 H 
ATOM     34  C   UNL     1     -43.712  41.390  27.704  1.00  0.00     0.066 A 
ATOM     35  H   UNL     1     -45.385  40.232  26.924  1.00  0.00     0.065 H 
ATOM     36  C   UNL     1     -42.746  41.377  28.704  1.00  0.00     0.051 A 
ATOM     37  H   UNL     1     -42.007  42.159  28.831  1.00  0.00     0.086 H 
BRANCH  34  38
ATOM     38  N   UNL     1     -43.794  42.448  26.741  1.00  0.00    -0.299 N 
ATOM     39  C   UNL     1     -43.661  42.287  25.369  1.00  0.00     0.018 A 
ATOM     40  C   UNL     1     -44.013  43.805  26.973  1.00  0.00     0.150 A 
ATOM     41  C   UNL     1     -43.822  43.498  24.720  1.00  0.00     0.012 A 
ATOM     42  H   UNL     1     -43.487  41.311  24.939  1.00  0.00     0.083 H 
ATOM     43  C   UNL     1     -44.032  44.469  25.749  1.00  0.00     0.067 A 
ATOM     44  N   UNL     1     -44.158  44.402  28.175  1.00  0.00    -0.218 NA
ATOM     45  C   UNL     1     -44.235  45.861  25.784  1.00  0.00     0.136 A 
ATOM     46  C   UNL     1     -44.342  45.724  28.081  1.00  0.00     0.120 A 
ATOM     47  N   UNL     1     -44.395  46.474  26.970  1.00  0.00    -0.219 NA
ATOM     48  H   UNL     1     -44.464  46.257  29.019  1.00  0.00     0.106 H 
BRANCH  41  49
ATOM     49  C   UNL     1     -43.751  43.770  23.246  1.00  0.00     0.085 C 
ATOM     50  C   UNL     1     -45.058  44.207  22.594  1.00  0.00    -0.020 C 
ATOM     51  O   UNL     1     -42.796  44.816  22.942  1.00  0.00    -0.373 OA
ATOM     52  H   UNL     1     -43.384  42.864  22.746  1.00  0.00     0.066 H 
ATOM     53  C   UNL     1     -44.569  44.966  21.387  1.00  0.00    -0.027 C 
ATOM     54  H   UNL     1     -45.710  43.365  22.342  1.00  0.00     0.030 H 
ATOM     55  H   UNL     1     -45.623  44.892  23.240  1.00  0.00     0.030 H 
ATOM     56  C   UNL     1     -43.364  45.683  21.950  1.00  0.00     0.048 C 
ATOM     57  H   UNL     1     -44.257  44.262  20.606  1.00  0.00     0.029 H 
ATOM     58  H   UNL     1     -45.311  45.646  20.963  1.00  0.00     0.029 H 
ATOM     59  H   UNL     1     -42.614  45.911  21.188  1.00  0.00     0.057 H 
ATOM     60  H   UNL     1     -43.653  46.615  22.448  1.00  0.00     0.057 H 
ENDBRANCH  41  49
BRANCH  45  61
ATOM     61  N   UNL     1     -44.297  46.658  24.648  1.00  0.00    -0.383 N 
ATOM     62  H   UNL     1     -44.575  46.105  23.848  1.00  0.00     0.158 HD
ATOM     63  H   UNL     1     -43.452  47.218  24.522  1.00  0.00     0.158 HD
ENDBRANCH  45  61
ENDBRANCH  34  38
ENDBRANCH  26  29
ENDBRANCH   1  26
TORSDOF 9
ENDMDL
