MODEL 1
REMARK VINA RESULT:     -11.4      0.000      0.000
REMARK SMILES O=C(NCc1ccc2cc(CN[C@@H]3CCC[C@@H]3O)[nH]c2c1)c1cc(=O)n2ccccc2n1
REMARK SMILES IDX 5 1 6 2 7 3 8 4 9 5 10 6 19 7 20 8 21 9 4 15 3 18 1 19 2 20
REMARK SMILES IDX 22 22 23 23 32 24 24 25 31 27 25 28 26 29 30 30 27 31 29 32
REMARK SMILES IDX 28 34 11 38 12 41 13 43 14 44 17 45 15 47 16 50 18 56
REMARK H PARENT 6 10 7 11 9 12 19 13 21 14 4 16 4 17 3 21 23 26 30 33 27 35
REMARK H PARENT 29 36 28 37 11 39 11 40 12 42 13 46 14 48 14 49 17 51 15 52
REMARK H PARENT 15 53 16 54 16 55 18 57
REMARK Flexibility Score: inf
ROOT
ATOM      1  C   UNL     1     -48.027  35.097  26.664  1.00  0.00    -0.027 A 
ATOM      2  C   UNL     1     -46.774  35.097  26.038  1.00  0.00    -0.057 A 
ATOM      3  C   UNL     1     -46.317  33.978  25.330  1.00  0.00    -0.052 A 
ATOM      4  C   UNL     1     -47.136  32.838  25.240  1.00  0.00    -0.000 A 
ATOM      5  C   UNL     1     -46.998  31.566  24.617  1.00  0.00    -0.032 A 
ATOM      6  C   UNL     1     -48.147  30.841  24.864  1.00  0.00     0.030 A 
ATOM      7  N   UNL     1     -48.973  31.639  25.619  1.00  0.00    -0.357 N 
ATOM      8  C   UNL     1     -48.383  32.857  25.861  1.00  0.00     0.046 A 
ATOM      9  C   UNL     1     -48.858  33.966  26.572  1.00  0.00    -0.033 A 
ATOM     10  H   UNL     1     -46.136  35.977  26.094  1.00  0.00     0.063 H 
ATOM     11  H   UNL     1     -45.341  33.993  24.854  1.00  0.00     0.063 H 
ATOM     12  H   UNL     1     -46.144  31.221  24.049  1.00  0.00     0.065 H 
ATOM     13  H   UNL     1     -49.898  31.368  25.926  1.00  0.00     0.166 HD
ATOM     14  H   UNL     1     -49.840  33.956  27.036  1.00  0.00     0.065 H 
ENDROOT
BRANCH   1  15
ATOM     15  C   UNL     1     -48.512  36.324  27.391  1.00  0.00     0.043 C 
ATOM     16  H   UNL     1     -49.413  36.727  26.914  1.00  0.00     0.054 H 
ATOM     17  H   UNL     1     -48.783  36.086  28.427  1.00  0.00     0.054 H 
BRANCH  15  18
ATOM     18  N   UNL     1     -47.495  37.342  27.410  1.00  0.00    -0.347 N 
ATOM     19  O   UNL     1     -46.701  36.845  29.505  1.00  0.00    -0.268 OA
ATOM     20  C   UNL     1     -46.641  37.500  28.471  1.00  0.00     0.270 C 
ATOM     21  H   UNL     1     -47.313  37.898  26.580  1.00  0.00     0.164 HD
BRANCH  20  22
ATOM     22  C   UNL     1     -45.606  38.570  28.224  1.00  0.00     0.136 A 
ATOM     23  C   UNL     1     -45.700  39.234  27.071  1.00  0.00     0.035 A 
ATOM     24  N   UNL     1     -44.644  38.795  29.183  1.00  0.00    -0.225 NA
ATOM     25  C   UNL     1     -44.713  40.284  26.790  1.00  0.00     0.258 A 
ATOM     26  H   UNL     1     -46.461  39.048  26.324  1.00  0.00     0.071 H 
ATOM     27  C   UNL     1     -43.774  39.722  28.930  1.00  0.00     0.140 A 
ATOM     28  O   UNL     1     -44.793  40.902  25.729  1.00  0.00    -0.269 OA
ATOM     29  N   UNL     1     -43.755  40.489  27.771  1.00  0.00    -0.268 N 
ATOM     30  C   UNL     1     -42.712  40.000  29.940  1.00  0.00    -0.019 A 
ATOM     31  C   UNL     1     -42.784  41.467  27.576  1.00  0.00     0.014 A 
ATOM     32  C   UNL     1     -41.800  40.950  29.708  1.00  0.00    -0.057 A 
ATOM     33  H   UNL     1     -42.718  39.407  30.847  1.00  0.00     0.066 H 
ATOM     34  C   UNL     1     -41.834  41.710  28.487  1.00  0.00    -0.045 A 
ATOM     35  H   UNL     1     -42.829  42.029  26.646  1.00  0.00     0.082 H 
ATOM     36  H   UNL     1     -41.019  41.165  30.431  1.00  0.00     0.062 H 
ATOM     37  H   UNL     1     -41.081  42.475  28.324  1.00  0.00     0.064 H 
ENDBRANCH  20  22
ENDBRANCH  15  18
ENDBRANCH   1  15
BRANCH   6  38
ATOM     38  C   UNL     1     -48.544  29.464  24.467  1.00  0.00     0.036 C 
ATOM     39  H   UNL     1     -48.730  29.446  23.386  1.00  0.00     0.049 H 
ATOM     40  H   UNL     1     -49.477  29.191  24.975  1.00  0.00     0.049 H 
BRANCH  38  41
ATOM     41  N   UNL     1     -47.465  28.542  24.817  1.00  0.00    -0.306 NA
ATOM     42  H   UNL     1     -47.079  28.861  25.708  1.00  0.00     0.123 HD
BRANCH  41  43
ATOM     43  C   UNL     1     -47.965  27.171  24.993  1.00  0.00     0.033 C 
ATOM     44  C   UNL     1     -49.492  27.061  24.959  1.00  0.00    -0.035 C 
ATOM     45  C   UNL     1     -47.635  26.612  26.391  1.00  0.00     0.069 C 
ATOM     46  H   UNL     1     -47.528  26.497  24.245  1.00  0.00     0.049 H 
ATOM     47  C   UNL     1     -49.771  25.711  25.608  1.00  0.00    -0.049 C 
ATOM     48  H   UNL     1     -49.962  27.857  25.550  1.00  0.00     0.028 H 
ATOM     49  H   UNL     1     -49.898  27.114  23.945  1.00  0.00     0.028 H 
ATOM     50  C   UNL     1     -48.625  25.467  26.597  1.00  0.00    -0.025 C 
ATOM     51  H   UNL     1     -46.597  26.276  26.474  1.00  0.00     0.062 H 
ATOM     52  H   UNL     1     -49.775  24.922  24.848  1.00  0.00     0.027 H 
ATOM     53  H   UNL     1     -50.747  25.695  26.103  1.00  0.00     0.027 H 
ATOM     54  H   UNL     1     -48.153  24.506  26.364  1.00  0.00     0.029 H 
ATOM     55  H   UNL     1     -48.998  25.423  27.626  1.00  0.00     0.029 H 
BRANCH  45  56
ATOM     56  O   UNL     1     -47.854  27.607  27.393  1.00  0.00    -0.392 OA
ATOM     57  H   UNL     1     -47.263  28.342  27.144  1.00  0.00     0.211 HD
ENDBRANCH  45  56
ENDBRANCH  41  43
ENDBRANCH  38  41
ENDBRANCH   6  38
TORSDOF 7
ENDMDL
MODEL 2
REMARK VINA RESULT:     -11.3      1.490      2.064
REMARK SMILES O=C(NCc1ccc2cc(CN[C@@H]3CCC[C@@H]3O)[nH]c2c1)c1cc(=O)n2ccccc2n1
REMARK SMILES IDX 5 1 6 2 7 3 8 4 9 5 10 6 19 7 20 8 21 9 4 15 3 18 1 19 2 20
REMARK SMILES IDX 22 22 23 23 32 24 24 25 31 27 25 28 26 29 30 30 27 31 29 32
REMARK SMILES IDX 28 34 11 38 12 41 13 43 14 44 17 45 15 47 16 50 18 56
REMARK H PARENT 6 10 7 11 9 12 19 13 21 14 4 16 4 17 3 21 23 26 30 33 27 35
REMARK H PARENT 29 36 28 37 11 39 11 40 12 42 13 46 14 48 14 49 17 51 15 52
REMARK H PARENT 15 53 16 54 16 55 18 57
REMARK Flexibility Score: inf
ROOT
ATOM      1  C   UNL     1     -48.115  34.522  26.452  1.00  0.00    -0.027 A 
ATOM      2  C   UNL     1     -46.845  34.629  25.871  1.00  0.00    -0.057 A 
ATOM      3  C   UNL     1     -46.313  33.593  25.093  1.00  0.00    -0.052 A 
ATOM      4  C   UNL     1     -47.075  32.428  24.884  1.00  0.00    -0.000 A 
ATOM      5  C   UNL     1     -46.857  31.217  24.168  1.00  0.00    -0.032 A 
ATOM      6  C   UNL     1     -47.977  30.425  24.318  1.00  0.00     0.030 A 
ATOM      7  N   UNL     1     -48.863  31.120  25.106  1.00  0.00    -0.357 N 
ATOM      8  C   UNL     1     -48.339  32.341  25.462  1.00  0.00     0.046 A 
ATOM      9  C   UNL     1     -48.887  33.367  26.242  1.00  0.00    -0.033 A 
ATOM     10  H   UNL     1     -46.251  35.529  26.018  1.00  0.00     0.063 H 
ATOM     11  H   UNL     1     -45.325  33.690  24.652  1.00  0.00     0.063 H 
ATOM     12  H   UNL     1     -45.971  30.959  23.603  1.00  0.00     0.065 H 
ATOM     13  H   UNL     1     -49.782  30.785  25.358  1.00  0.00     0.166 HD
ATOM     14  H   UNL     1     -49.881  33.275  26.671  1.00  0.00     0.065 H 
ENDROOT
BRANCH   1  15
ATOM     15  C   UNL     1     -48.679  35.663  27.257  1.00  0.00     0.043 C 
ATOM     16  H   UNL     1     -49.552  36.098  26.756  1.00  0.00     0.054 H 
ATOM     17  H   UNL     1     -49.018  35.320  28.242  1.00  0.00     0.054 H 
BRANCH  15  18
ATOM     18  N   UNL     1     -47.690  36.690  27.451  1.00  0.00    -0.347 N 
ATOM     19  O   UNL     1     -47.064  36.024  29.556  1.00  0.00    -0.268 OA
ATOM     20  C   UNL     1     -46.932  36.767  28.591  1.00  0.00     0.270 C 
ATOM     21  H   UNL     1     -47.450  37.320  26.691  1.00  0.00     0.164 HD
BRANCH  20  22
ATOM     22  C   UNL     1     -45.903  37.870  28.527  1.00  0.00     0.136 A 
ATOM     23  C   UNL     1     -45.077  37.974  29.569  1.00  0.00     0.035 A 
ATOM     24  N   UNL     1     -45.877  38.687  27.420  1.00  0.00    -0.225 NA
ATOM     25  C   UNL     1     -44.061  39.034  29.548  1.00  0.00     0.258 A 
ATOM     26  H   UNL     1     -45.107  37.325  30.434  1.00  0.00     0.071 H 
ATOM     27  C   UNL     1     -44.978  39.622  27.406  1.00  0.00     0.140 A 
ATOM     28  O   UNL     1     -43.294  39.136  30.505  1.00  0.00    -0.269 OA
ATOM     29  N   UNL     1     -44.057  39.843  28.423  1.00  0.00    -0.268 N 
ATOM     30  C   UNL     1     -44.914  40.533  26.226  1.00  0.00    -0.019 A 
ATOM     31  C   UNL     1     -43.123  40.871  28.331  1.00  0.00     0.014 A 
ATOM     32  C   UNL     1     -43.998  41.507  26.183  1.00  0.00    -0.057 A 
ATOM     33  H   UNL     1     -45.628  40.369  25.429  1.00  0.00     0.066 H 
ATOM     34  C   UNL     1     -43.072  41.685  27.269  1.00  0.00    -0.045 A 
ATOM     35  H   UNL     1     -42.432  40.987  29.163  1.00  0.00     0.082 H 
ATOM     36  H   UNL     1     -43.937  42.181  25.334  1.00  0.00     0.062 H 
ATOM     37  H   UNL     1     -42.339  42.483  27.208  1.00  0.00     0.064 H 
ENDBRANCH  20  22
ENDBRANCH  15  18
ENDBRANCH   1  15
BRANCH   6  38
ATOM     38  C   UNL     1     -48.296  29.067  23.800  1.00  0.00     0.036 C 
ATOM     39  H   UNL     1     -47.363  28.504  23.682  1.00  0.00     0.049 H 
ATOM     40  H   UNL     1     -48.767  29.154  22.813  1.00  0.00     0.049 H 
BRANCH  38  41
ATOM     41  N   UNL     1     -49.184  28.397  24.747  1.00  0.00    -0.306 NA
ATOM     42  H   UNL     1     -49.821  27.815  24.198  1.00  0.00     0.123 HD
BRANCH  41  43
ATOM     43  C   UNL     1     -48.434  27.526  25.664  1.00  0.00     0.033 C 
ATOM     44  C   UNL     1     -47.261  26.797  25.002  1.00  0.00    -0.035 C 
ATOM     45  C   UNL     1     -49.292  26.353  26.176  1.00  0.00     0.069 C 
ATOM     46  H   UNL     1     -48.076  28.092  26.534  1.00  0.00     0.049 H 
ATOM     47  C   UNL     1     -46.956  25.657  25.965  1.00  0.00    -0.049 C 
ATOM     48  H   UNL     1     -47.547  26.387  24.025  1.00  0.00     0.028 H 
ATOM     49  H   UNL     1     -46.392  27.444  24.852  1.00  0.00     0.028 H 
ATOM     50  C   UNL     1     -48.282  25.309  26.651  1.00  0.00    -0.025 C 
ATOM     51  H   UNL     1     -49.978  26.652  26.974  1.00  0.00     0.062 H 
ATOM     52  H   UNL     1     -46.227  25.983  26.716  1.00  0.00     0.027 H 
ATOM     53  H   UNL     1     -46.527  24.794  25.445  1.00  0.00     0.027 H 
ATOM     54  H   UNL     1     -48.148  25.372  27.736  1.00  0.00     0.029 H 
ATOM     55  H   UNL     1     -48.595  24.289  26.405  1.00  0.00     0.029 H 
BRANCH  45  56
ATOM     56  O   UNL     1     -50.072  25.800  25.113  1.00  0.00    -0.392 OA
ATOM     57  H   UNL     1     -49.887  26.376  24.347  1.00  0.00     0.211 HD
ENDBRANCH  45  56
ENDBRANCH  41  43
ENDBRANCH  38  41
ENDBRANCH   6  38
TORSDOF 7
ENDMDL
MODEL 3
REMARK VINA RESULT:     -10.4      2.505      3.837
REMARK SMILES O=C(NCc1ccc2cc(CN[C@@H]3CCC[C@@H]3O)[nH]c2c1)c1cc(=O)n2ccccc2n1
REMARK SMILES IDX 5 1 6 2 7 3 8 4 9 5 10 6 19 7 20 8 21 9 4 15 3 18 1 19 2 20
REMARK SMILES IDX 22 22 23 23 32 24 24 25 31 27 25 28 26 29 30 30 27 31 29 32
REMARK SMILES IDX 28 34 11 38 12 41 13 43 14 44 17 45 15 47 16 50 18 56
REMARK H PARENT 6 10 7 11 9 12 19 13 21 14 4 16 4 17 3 21 23 26 30 33 27 35
REMARK H PARENT 29 36 28 37 11 39 11 40 12 42 13 46 14 48 14 49 17 51 15 52
REMARK H PARENT 15 53 16 54 16 55 18 57
REMARK Flexibility Score: inf
ROOT
ATOM      1  C   UNL     1     -46.465  36.430  28.275  1.00  0.00    -0.027 A 
ATOM      2  C   UNL     1     -47.849  36.417  28.061  1.00  0.00    -0.057 A 
ATOM      3  C   UNL     1     -48.441  35.492  27.193  1.00  0.00    -0.052 A 
ATOM      4  C   UNL     1     -47.630  34.552  26.530  1.00  0.00    -0.000 A 
ATOM      5  C   UNL     1     -47.885  33.497  25.610  1.00  0.00    -0.032 A 
ATOM      6  C   UNL     1     -46.680  32.899  25.300  1.00  0.00     0.030 A 
ATOM      7  N   UNL     1     -45.705  33.564  26.004  1.00  0.00    -0.357 N 
ATOM      8  C   UNL     1     -46.256  34.572  26.760  1.00  0.00     0.046 A 
ATOM      9  C   UNL     1     -45.646  35.489  27.625  1.00  0.00    -0.033 A 
ATOM     10  H   UNL     1     -48.487  37.134  28.575  1.00  0.00     0.063 H 
ATOM     11  H   UNL     1     -49.515  35.498  27.035  1.00  0.00     0.063 H 
ATOM     12  H   UNL     1     -48.853  33.209  25.219  1.00  0.00     0.065 H 
ATOM     13  H   UNL     1     -44.725  33.319  25.985  1.00  0.00     0.166 HD
ATOM     14  H   UNL     1     -44.573  35.473  27.793  1.00  0.00     0.065 H 
ENDROOT
BRANCH   1  15
ATOM     15  C   UNL     1     -45.855  37.413  29.239  1.00  0.00     0.043 C 
ATOM     16  H   UNL     1     -46.633  37.910  29.830  1.00  0.00     0.054 H 
ATOM     17  H   UNL     1     -45.193  36.906  29.951  1.00  0.00     0.054 H 
BRANCH  15  18
ATOM     18  N   UNL     1     -45.090  38.409  28.537  1.00  0.00    -0.347 N 
ATOM     19  O   UNL     1     -46.831  39.872  28.229  1.00  0.00    -0.268 OA
ATOM     20  C   UNL     1     -45.646  39.588  28.111  1.00  0.00     0.270 C 
ATOM     21  H   UNL     1     -44.084  38.309  28.441  1.00  0.00     0.164 HD
BRANCH  20  22
ATOM     22  C   UNL     1     -44.630  40.510  27.482  1.00  0.00     0.136 A 
ATOM     23  C   UNL     1     -43.486  40.679  28.148  1.00  0.00     0.035 A 
ATOM     24  N   UNL     1     -44.935  41.111  26.281  1.00  0.00    -0.225 NA
ATOM     25  C   UNL     1     -42.470  41.569  27.571  1.00  0.00     0.258 A 
ATOM     26  H   UNL     1     -43.257  40.201  29.091  1.00  0.00     0.071 H 
ATOM     27  C   UNL     1     -44.035  41.897  25.776  1.00  0.00     0.140 A 
ATOM     28  O   UNL     1     -41.412  41.729  28.178  1.00  0.00    -0.269 OA
ATOM     29  N   UNL     1     -42.803  42.162  26.363  1.00  0.00    -0.268 N 
ATOM     30  C   UNL     1     -44.324  42.571  24.477  1.00  0.00    -0.019 A 
ATOM     31  C   UNL     1     -41.891  43.020  25.755  1.00  0.00     0.014 A 
ATOM     32  C   UNL     1     -43.415  43.387  23.932  1.00  0.00    -0.057 A 
ATOM     33  H   UNL     1     -45.281  42.371  24.013  1.00  0.00     0.066 H 
ATOM     34  C   UNL     1     -42.157  43.621  24.589  1.00  0.00    -0.045 A 
ATOM     35  H   UNL     1     -40.947  43.182  26.270  1.00  0.00     0.082 H 
ATOM     36  H   UNL     1     -43.607  43.887  22.988  1.00  0.00     0.062 H 
ATOM     37  H   UNL     1     -41.438  44.288  24.124  1.00  0.00     0.064 H 
ENDBRANCH  20  22
ENDBRANCH  15  18
ENDBRANCH   1  15
BRANCH   6  38
ATOM     38  C   UNL     1     -46.351  31.764  24.397  1.00  0.00     0.036 C 
ATOM     39  H   UNL     1     -46.424  30.827  24.962  1.00  0.00     0.049 H 
ATOM     40  H   UNL     1     -45.318  31.866  24.042  1.00  0.00     0.049 H 
BRANCH  38  41
ATOM     41  N   UNL     1     -47.293  31.762  23.278  1.00  0.00    -0.306 NA
ATOM     42  H   UNL     1     -46.737  31.777  22.421  1.00  0.00     0.123 HD
BRANCH  41  43
ATOM     43  C   UNL     1     -48.120  30.547  23.273  1.00  0.00     0.033 C 
ATOM     44  C   UNL     1     -47.370  29.288  23.718  1.00  0.00    -0.035 C 
ATOM     45  C   UNL     1     -48.574  30.165  21.851  1.00  0.00     0.069 C 
ATOM     46  H   UNL     1     -49.017  30.683  23.892  1.00  0.00     0.049 H 
ATOM     47  C   UNL     1     -48.239  28.149  23.197  1.00  0.00    -0.049 C 
ATOM     48  H   UNL     1     -46.376  29.232  23.256  1.00  0.00     0.028 H 
ATOM     49  H   UNL     1     -47.239  29.234  24.802  1.00  0.00     0.028 H 
ATOM     50  C   UNL     1     -48.940  28.685  21.944  1.00  0.00    -0.025 C 
ATOM     51  H   UNL     1     -49.413  30.773  21.501  1.00  0.00     0.062 H 
ATOM     52  H   UNL     1     -48.987  27.873  23.949  1.00  0.00     0.027 H 
ATOM     53  H   UNL     1     -47.645  27.255  22.982  1.00  0.00     0.027 H 
ATOM     54  H   UNL     1     -50.022  28.564  22.063  1.00  0.00     0.029 H 
ATOM     55  H   UNL     1     -48.632  28.126  21.053  1.00  0.00     0.029 H 
BRANCH  45  56
ATOM     56  O   UNL     1     -47.499  30.325  20.922  1.00  0.00    -0.392 OA
ATOM     57  H   UNL     1     -46.963  29.516  21.024  1.00  0.00     0.211 HD
ENDBRANCH  45  56
ENDBRANCH  41  43
ENDBRANCH  38  41
ENDBRANCH   6  38
TORSDOF 7
ENDMDL
MODEL 4
REMARK VINA RESULT:     -10.3      1.817     11.625
REMARK SMILES O=C(NCc1ccc2cc(CN[C@@H]3CCC[C@@H]3O)[nH]c2c1)c1cc(=O)n2ccccc2n1
REMARK SMILES IDX 5 1 6 2 7 3 8 4 9 5 10 6 19 7 20 8 21 9 4 15 3 18 1 19 2 20
REMARK SMILES IDX 22 22 23 23 32 24 24 25 31 27 25 28 26 29 30 30 27 31 29 32
REMARK SMILES IDX 28 34 11 38 12 41 13 43 14 44 17 45 15 47 16 50 18 56
REMARK H PARENT 6 10 7 11 9 12 19 13 21 14 4 16 4 17 3 21 23 26 30 33 27 35
REMARK H PARENT 29 36 28 37 11 39 11 40 12 42 13 46 14 48 14 49 17 51 15 52
REMARK H PARENT 15 53 16 54 16 55 18 57
REMARK Flexibility Score: inf
ROOT
ATOM      1  C   UNL     1     -46.908  33.616  25.564  1.00  0.00    -0.027 A 
ATOM      2  C   UNL     1     -48.255  33.802  25.902  1.00  0.00    -0.057 A 
ATOM      3  C   UNL     1     -48.644  34.782  26.823  1.00  0.00    -0.052 A 
ATOM      4  C   UNL     1     -47.663  35.600  27.414  1.00  0.00    -0.000 A 
ATOM      5  C   UNL     1     -47.699  36.665  28.357  1.00  0.00    -0.032 A 
ATOM      6  C   UNL     1     -46.404  37.100  28.559  1.00  0.00     0.030 A 
ATOM      7  N   UNL     1     -45.589  36.327  27.768  1.00  0.00    -0.357 N 
ATOM      8  C   UNL     1     -46.329  35.408  27.061  1.00  0.00     0.046 A 
ATOM      9  C   UNL     1     -45.922  34.435  26.141  1.00  0.00    -0.033 A 
ATOM     10  H   UNL     1     -49.023  33.180  25.445  1.00  0.00     0.063 H 
ATOM     11  H   UNL     1     -49.692  34.910  27.077  1.00  0.00     0.063 H 
ATOM     12  H   UNL     1     -48.583  37.068  28.834  1.00  0.00     0.065 H 
ATOM     13  H   UNL     1     -44.587  36.445  27.700  1.00  0.00     0.166 HD
ATOM     14  H   UNL     1     -44.874  34.317  25.878  1.00  0.00     0.065 H 
ENDROOT
BRANCH   1  15
ATOM     15  C   UNL     1     -46.517  32.578  24.546  1.00  0.00     0.043 C 
ATOM     16  H   UNL     1     -46.801  32.899  23.536  1.00  0.00     0.054 H 
ATOM     17  H   UNL     1     -45.431  32.427  24.535  1.00  0.00     0.054 H 
BRANCH  15  18
ATOM     18  N   UNL     1     -47.149  31.317  24.832  1.00  0.00    -0.347 N 
ATOM     19  O   UNL     1     -48.185  31.102  22.796  1.00  0.00    -0.268 OA
ATOM     20  C   UNL     1     -47.918  30.660  23.907  1.00  0.00     0.270 C 
ATOM     21  H   UNL     1     -46.943  30.827  25.698  1.00  0.00     0.164 HD
BRANCH  20  22
ATOM     22  C   UNL     1     -48.398  29.318  24.405  1.00  0.00     0.136 A 
ATOM     23  C   UNL     1     -49.716  29.113  24.385  1.00  0.00     0.035 A 
ATOM     24  N   UNL     1     -47.468  28.402  24.841  1.00  0.00    -0.225 NA
ATOM     25  C   UNL     1     -50.227  27.822  24.860  1.00  0.00     0.258 A 
ATOM     26  H   UNL     1     -50.438  29.842  24.039  1.00  0.00     0.071 H 
ATOM     27  C   UNL     1     -47.924  27.263  25.261  1.00  0.00     0.140 A 
ATOM     28  O   UNL     1     -51.441  27.624  24.844  1.00  0.00    -0.269 OA
ATOM     29  N   UNL     1     -49.270  26.918  25.295  1.00  0.00    -0.268 N 
ATOM     30  C   UNL     1     -46.952  26.240  25.745  1.00  0.00    -0.019 A 
ATOM     31  C   UNL     1     -49.677  25.672  25.762  1.00  0.00     0.014 A 
ATOM     32  C   UNL     1     -47.392  25.055  26.184  1.00  0.00    -0.057 A 
ATOM     33  H   UNL     1     -45.901  26.499  25.722  1.00  0.00     0.066 H 
ATOM     34  C   UNL     1     -48.799  24.759  26.195  1.00  0.00    -0.045 A 
ATOM     35  H   UNL     1     -50.746  25.469  25.761  1.00  0.00     0.082 H 
ATOM     36  H   UNL     1     -46.700  24.299  26.541  1.00  0.00     0.062 H 
ATOM     37  H   UNL     1     -49.128  23.790  26.557  1.00  0.00     0.064 H 
ENDBRANCH  20  22
ENDBRANCH  15  18
ENDBRANCH   1  15
BRANCH   6  38
ATOM     38  C   UNL     1     -45.853  38.170  29.434  1.00  0.00     0.036 C 
ATOM     39  H   UNL     1     -44.789  37.973  29.607  1.00  0.00     0.049 H 
ATOM     40  H   UNL     1     -46.364  38.148  30.404  1.00  0.00     0.049 H 
BRANCH  38  41
ATOM     41  N   UNL     1     -46.036  39.461  28.773  1.00  0.00    -0.306 NA
ATOM     42  H   UNL     1     -45.896  40.182  29.484  1.00  0.00     0.123 HD
BRANCH  41  43
ATOM     43  C   UNL     1     -45.046  39.664  27.706  1.00  0.00     0.033 C 
ATOM     44  C   UNL     1     -43.838  40.502  28.136  1.00  0.00    -0.035 C 
ATOM     45  C   UNL     1     -45.615  40.496  26.541  1.00  0.00     0.069 C 
ATOM     46  H   UNL     1     -44.705  38.701  27.302  1.00  0.00     0.049 H 
ATOM     47  C   UNL     1     -43.228  40.958  26.816  1.00  0.00    -0.049 C 
ATOM     48  H   UNL     1     -44.148  41.378  28.720  1.00  0.00     0.028 H 
ATOM     49  H   UNL     1     -43.122  39.935  28.738  1.00  0.00     0.028 H 
ATOM     50  C   UNL     1     -44.387  41.044  25.816  1.00  0.00    -0.025 C 
ATOM     51  H   UNL     1     -46.254  39.907  25.877  1.00  0.00     0.062 H 
ATOM     52  H   UNL     1     -42.494  40.223  26.467  1.00  0.00     0.027 H 
ATOM     53  H   UNL     1     -42.708  41.916  26.921  1.00  0.00     0.027 H 
ATOM     54  H   UNL     1     -44.151  40.427  24.943  1.00  0.00     0.029 H 
ATOM     55  H   UNL     1     -44.534  42.074  25.475  1.00  0.00     0.029 H 
BRANCH  45  56
ATOM     56  O   UNL     1     -46.392  41.589  27.039  1.00  0.00    -0.392 OA
ATOM     57  H   UNL     1     -47.312  41.360  26.812  1.00  0.00     0.211 HD
ENDBRANCH  45  56
ENDBRANCH  41  43
ENDBRANCH  38  41
ENDBRANCH   6  38
TORSDOF 7
ENDMDL
MODEL 5
REMARK VINA RESULT:     -10.3      2.952      4.851
REMARK SMILES O=C(NCc1ccc2cc(CN[C@@H]3CCC[C@@H]3O)[nH]c2c1)c1cc(=O)n2ccccc2n1
REMARK SMILES IDX 5 1 6 2 7 3 8 4 9 5 10 6 19 7 20 8 21 9 4 15 3 18 1 19 2 20
REMARK SMILES IDX 22 22 23 23 32 24 24 25 31 27 25 28 26 29 30 30 27 31 29 32
REMARK SMILES IDX 28 34 11 38 12 41 13 43 14 44 17 45 15 47 16 50 18 56
REMARK H PARENT 6 10 7 11 9 12 19 13 21 14 4 16 4 17 3 21 23 26 30 33 27 35
REMARK H PARENT 29 36 28 37 11 39 11 40 12 42 13 46 14 48 14 49 17 51 15 52
REMARK H PARENT 15 53 16 54 16 55 18 57
REMARK Flexibility Score: inf
ROOT
ATOM      1  C   UNL     1     -45.413  37.859  28.236  1.00  0.00    -0.027 A 
ATOM      2  C   UNL     1     -46.521  38.239  27.469  1.00  0.00    -0.057 A 
ATOM      3  C   UNL     1     -47.261  37.295  26.745  1.00  0.00    -0.052 A 
ATOM      4  C   UNL     1     -46.887  35.939  26.798  1.00  0.00    -0.000 A 
ATOM      5  C   UNL     1     -47.398  34.747  26.212  1.00  0.00    -0.032 A 
ATOM      6  C   UNL     1     -46.613  33.693  26.634  1.00  0.00     0.030 A 
ATOM      7  N   UNL     1     -45.642  34.214  27.455  1.00  0.00    -0.357 N 
ATOM      8  C   UNL     1     -45.787  35.577  27.573  1.00  0.00     0.046 A 
ATOM      9  C   UNL     1     -45.037  36.506  28.303  1.00  0.00    -0.033 A 
ATOM     10  H   UNL     1     -46.824  39.283  27.427  1.00  0.00     0.063 H 
ATOM     11  H   UNL     1     -48.115  37.607  26.152  1.00  0.00     0.063 H 
ATOM     12  H   UNL     1     -48.252  34.675  25.551  1.00  0.00     0.065 H 
ATOM     13  H   UNL     1     -44.941  33.660  27.927  1.00  0.00     0.166 HD
ATOM     14  H   UNL     1     -44.190  36.192  28.907  1.00  0.00     0.065 H 
ENDROOT
BRANCH   1  15
ATOM     15  C   UNL     1     -44.653  38.887  29.031  1.00  0.00     0.043 C 
ATOM     16  H   UNL     1     -45.188  39.136  29.956  1.00  0.00     0.054 H 
ATOM     17  H   UNL     1     -43.669  38.506  29.330  1.00  0.00     0.054 H 
BRANCH  15  18
ATOM     18  N   UNL     1     -44.460  40.089  28.263  1.00  0.00    -0.347 N 
ATOM     19  O   UNL     1     -42.418  40.622  29.163  1.00  0.00    -0.268 OA
ATOM     20  C   UNL     1     -43.326  40.851  28.374  1.00  0.00     0.270 C 
ATOM     21  H   UNL     1     -45.118  40.339  27.531  1.00  0.00     0.164 HD
BRANCH  20  22
ATOM     22  C   UNL     1     -43.312  42.009  27.406  1.00  0.00     0.136 A 
ATOM     23  C   UNL     1     -42.203  42.167  26.682  1.00  0.00     0.035 A 
ATOM     24  N   UNL     1     -44.423  42.818  27.326  1.00  0.00    -0.225 NA
ATOM     25  C   UNL     1     -42.147  43.282  25.729  1.00  0.00     0.258 A 
ATOM     26  H   UNL     1     -41.335  41.524  26.754  1.00  0.00     0.071 H 
ATOM     27  C   UNL     1     -44.369  43.802  26.482  1.00  0.00     0.140 A 
ATOM     28  O   UNL     1     -41.127  43.434  25.057  1.00  0.00    -0.269 OA
ATOM     29  N   UNL     1     -43.277  44.082  25.669  1.00  0.00    -0.268 N 
ATOM     30  C   UNL     1     -45.549  44.707  26.364  1.00  0.00    -0.019 A 
ATOM     31  C   UNL     1     -43.299  45.160  24.789  1.00  0.00     0.014 A 
ATOM     32  C   UNL     1     -45.523  45.730  25.502  1.00  0.00    -0.057 A 
ATOM     33  H   UNL     1     -46.405  44.497  26.993  1.00  0.00     0.066 H 
ATOM     34  C   UNL     1     -44.362  45.967  24.687  1.00  0.00    -0.045 A 
ATOM     35  H   UNL     1     -42.410  45.320  24.182  1.00  0.00     0.082 H 
ATOM     36  H   UNL     1     -46.372  46.399  25.403  1.00  0.00     0.062 H 
ATOM     37  H   UNL     1     -44.368  46.805  23.997  1.00  0.00     0.064 H 
ENDBRANCH  20  22
ENDBRANCH  15  18
ENDBRANCH   1  15
BRANCH   6  38
ATOM     38  C   UNL     1     -46.679  32.238  26.333  1.00  0.00     0.036 C 
ATOM     39  H   UNL     1     -47.730  31.948  26.212  1.00  0.00     0.049 H 
ATOM     40  H   UNL     1     -46.266  31.671  27.176  1.00  0.00     0.049 H 
BRANCH  38  41
ATOM     41  N   UNL     1     -45.930  31.975  25.106  1.00  0.00    -0.306 NA
ATOM     42  H   UNL     1     -45.351  31.150  25.281  1.00  0.00     0.123 HD
BRANCH  41  43
ATOM     43  C   UNL     1     -46.827  31.680  23.980  1.00  0.00     0.033 C 
ATOM     44  C   UNL     1     -47.732  30.467  24.212  1.00  0.00    -0.035 C 
ATOM     45  C   UNL     1     -46.050  31.263  22.716  1.00  0.00     0.069 C 
ATOM     46  H   UNL     1     -47.439  32.557  23.729  1.00  0.00     0.049 H 
ATOM     47  C   UNL     1     -48.193  30.088  22.810  1.00  0.00    -0.049 C 
ATOM     48  H   UNL     1     -47.172  29.631  24.653  1.00  0.00     0.028 H 
ATOM     49  H   UNL     1     -48.576  30.688  24.871  1.00  0.00     0.028 H 
ATOM     50  C   UNL     1     -47.070  30.516  21.859  1.00  0.00    -0.025 C 
ATOM     51  H   UNL     1     -45.618  32.119  22.187  1.00  0.00     0.062 H 
ATOM     52  H   UNL     1     -49.114  30.627  22.559  1.00  0.00     0.027 H 
ATOM     53  H   UNL     1     -48.409  29.017  22.732  1.00  0.00     0.027 H 
ATOM     54  H   UNL     1     -47.486  31.179  21.093  1.00  0.00     0.029 H 
ATOM     55  H   UNL     1     -46.631  29.648  21.356  1.00  0.00     0.029 H 
BRANCH  45  56
ATOM     56  O   UNL     1     -44.982  30.375  23.055  1.00  0.00    -0.392 OA
ATOM     57  H   UNL     1     -45.363  29.776  23.724  1.00  0.00     0.211 HD
ENDBRANCH  45  56
ENDBRANCH  41  43
ENDBRANCH  38  41
ENDBRANCH   6  38
TORSDOF 7
ENDMDL
MODEL 6
REMARK VINA RESULT:     -10.1      1.596      2.175
REMARK SMILES O=C(NCc1ccc2cc(CN[C@@H]3CCC[C@@H]3O)[nH]c2c1)c1cc(=O)n2ccccc2n1
REMARK SMILES IDX 5 1 6 2 7 3 8 4 9 5 10 6 19 7 20 8 21 9 4 15 3 18 1 19 2 20
REMARK SMILES IDX 22 22 23 23 32 24 24 25 31 27 25 28 26 29 30 30 27 31 29 32
REMARK SMILES IDX 28 34 11 38 12 41 13 43 14 44 17 45 15 47 16 50 18 56
REMARK H PARENT 6 10 7 11 9 12 19 13 21 14 4 16 4 17 3 21 23 26 30 33 27 35
REMARK H PARENT 29 36 28 37 11 39 11 40 12 42 13 46 14 48 14 49 17 51 15 52
REMARK H PARENT 15 53 16 54 16 55 18 57
REMARK Flexibility Score: inf
ROOT
ATOM      1  C   UNL     1     -46.707  34.369  27.232  1.00  0.00    -0.027 A 
ATOM      2  C   UNL     1     -47.980  34.918  27.027  1.00  0.00    -0.057 A 
ATOM      3  C   UNL     1     -48.986  34.192  26.376  1.00  0.00    -0.052 A 
ATOM      4  C   UNL     1     -48.715  32.886  25.929  1.00  0.00    -0.000 A 
ATOM      5  C   UNL     1     -49.478  31.891  25.256  1.00  0.00    -0.032 A 
ATOM      6  C   UNL     1     -48.674  30.782  25.080  1.00  0.00     0.030 A 
ATOM      7  N   UNL     1     -47.448  31.080  25.626  1.00  0.00    -0.357 N 
ATOM      8  C   UNL     1     -47.447  32.352  26.149  1.00  0.00     0.046 A 
ATOM      9  C   UNL     1     -46.429  33.061  26.798  1.00  0.00    -0.033 A 
ATOM     10  H   UNL     1     -48.203  35.924  27.376  1.00  0.00     0.063 H 
ATOM     11  H   UNL     1     -49.966  34.634  26.221  1.00  0.00     0.063 H 
ATOM     12  H   UNL     1     -50.508  31.982  24.936  1.00  0.00     0.065 H 
ATOM     13  H   UNL     1     -46.670  30.436  25.659  1.00  0.00     0.166 HD
ATOM     14  H   UNL     1     -45.453  32.614  26.965  1.00  0.00     0.065 H 
ENDROOT
BRANCH   1  15
ATOM     15  C   UNL     1     -45.652  35.156  27.963  1.00  0.00     0.043 C 
ATOM     16  H   UNL     1     -45.797  35.085  29.048  1.00  0.00     0.054 H 
ATOM     17  H   UNL     1     -44.651  34.761  27.753  1.00  0.00     0.054 H 
BRANCH  15  18
ATOM     18  N   UNL     1     -45.685  36.541  27.575  1.00  0.00    -0.347 N 
ATOM     19  O   UNL     1     -44.922  37.367  29.575  1.00  0.00    -0.268 OA
ATOM     20  C   UNL     1     -45.282  37.544  28.417  1.00  0.00     0.270 C 
ATOM     21  H   UNL     1     -45.903  36.798  26.617  1.00  0.00     0.164 HD
BRANCH  20  22
ATOM     22  C   UNL     1     -45.321  38.902  27.759  1.00  0.00     0.136 A 
ATOM     23  C   UNL     1     -46.492  39.279  27.243  1.00  0.00     0.035 A 
ATOM     24  N   UNL     1     -44.171  39.657  27.729  1.00  0.00    -0.225 NA
ATOM     25  C   UNL     1     -46.575  40.592  26.592  1.00  0.00     0.258 A 
ATOM     26  H   UNL     1     -47.391  38.676  27.272  1.00  0.00     0.071 H 
ATOM     27  C   UNL     1     -44.249  40.816  27.152  1.00  0.00     0.140 A 
ATOM     28  O   UNL     1     -47.652  40.948  26.114  1.00  0.00    -0.269 OA
ATOM     29  N   UNL     1     -45.403  41.332  26.574  1.00  0.00    -0.268 N 
ATOM     30  C   UNL     1     -43.026  41.669  27.095  1.00  0.00    -0.019 A 
ATOM     31  C   UNL     1     -45.402  42.587  25.974  1.00  0.00     0.014 A 
ATOM     32  C   UNL     1     -43.075  42.869  26.507  1.00  0.00    -0.057 A 
ATOM     33  H   UNL     1     -42.122  41.275  27.543  1.00  0.00     0.066 H 
ATOM     34  C   UNL     1     -44.301  43.347  25.926  1.00  0.00    -0.045 A 
ATOM     35  H   UNL     1     -46.341  42.928  25.542  1.00  0.00     0.082 H 
ATOM     36  H   UNL     1     -42.195  43.503  26.455  1.00  0.00     0.062 H 
ATOM     37  H   UNL     1     -44.312  44.325  25.455  1.00  0.00     0.064 H 
ENDBRANCH  20  22
ENDBRANCH  15  18
ENDBRANCH   1  15
BRANCH   6  38
ATOM     38  C   UNL     1     -48.942  29.467  24.440  1.00  0.00     0.036 C 
ATOM     39  H   UNL     1     -49.160  29.628  23.377  1.00  0.00     0.049 H 
ATOM     40  H   UNL     1     -49.825  29.008  24.901  1.00  0.00     0.049 H 
BRANCH  38  41
ATOM     41  N   UNL     1     -47.764  28.616  24.599  1.00  0.00    -0.306 NA
ATOM     42  H   UNL     1     -47.182  29.046  25.320  1.00  0.00     0.123 HD
BRANCH  41  43
ATOM     43  C   UNL     1     -48.133  27.265  25.045  1.00  0.00     0.033 C 
ATOM     44  C   UNL     1     -48.541  27.191  26.519  1.00  0.00    -0.035 C 
ATOM     45  C   UNL     1     -46.937  26.294  24.995  1.00  0.00     0.069 C 
ATOM     46  H   UNL     1     -48.934  26.851  24.417  1.00  0.00     0.049 H 
ATOM     47  C   UNL     1     -48.416  25.710  26.854  1.00  0.00    -0.049 C 
ATOM     48  H   UNL     1     -47.856  27.770  27.152  1.00  0.00     0.028 H 
ATOM     49  H   UNL     1     -49.554  27.563  26.697  1.00  0.00     0.028 H 
ATOM     50  C   UNL     1     -47.319  25.155  25.938  1.00  0.00    -0.025 C 
ATOM     51  H   UNL     1     -46.730  25.935  23.982  1.00  0.00     0.062 H 
ATOM     52  H   UNL     1     -49.362  25.197  26.648  1.00  0.00     0.027 H 
ATOM     53  H   UNL     1     -48.182  25.554  27.912  1.00  0.00     0.027 H 
ATOM     54  H   UNL     1     -47.722  24.308  25.373  1.00  0.00     0.029 H 
ATOM     55  H   UNL     1     -46.465  24.798  26.523  1.00  0.00     0.029 H 
BRANCH  45  56
ATOM     56  O   UNL     1     -45.754  26.931  25.484  1.00  0.00    -0.392 OA
ATOM     57  H   UNL     1     -45.123  26.880  24.742  1.00  0.00     0.211 HD
ENDBRANCH  45  56
ENDBRANCH  41  43
ENDBRANCH  38  41
ENDBRANCH   6  38
TORSDOF 7
ENDMDL
MODEL 7
REMARK VINA RESULT:     -10.0      2.424      3.474
REMARK SMILES O=C(NCc1ccc2cc(CN[C@@H]3CCC[C@@H]3O)[nH]c2c1)c1cc(=O)n2ccccc2n1
REMARK SMILES IDX 5 1 6 2 7 3 8 4 9 5 10 6 19 7 20 8 21 9 4 15 3 18 1 19 2 20
REMARK SMILES IDX 22 22 23 23 32 24 24 25 31 27 25 28 26 29 30 30 27 31 29 32
REMARK SMILES IDX 28 34 11 38 12 41 13 43 14 44 17 45 15 47 16 50 18 56
REMARK H PARENT 6 10 7 11 9 12 19 13 21 14 4 16 4 17 3 21 23 26 30 33 27 35
REMARK H PARENT 29 36 28 37 11 39 11 40 12 42 13 46 14 48 14 49 17 51 15 52
REMARK H PARENT 15 53 16 54 16 55 18 57
REMARK Flexibility Score: inf
ROOT
ATOM      1  C   UNL     1     -48.069  34.656  26.566  1.00  0.00    -0.027 A 
ATOM      2  C   UNL     1     -46.774  34.722  26.035  1.00  0.00    -0.057 A 
ATOM      3  C   UNL     1     -46.273  33.701  25.218  1.00  0.00    -0.052 A 
ATOM      4  C   UNL     1     -47.088  32.594  24.918  1.00  0.00    -0.000 A 
ATOM      5  C   UNL     1     -46.911  31.415  24.142  1.00  0.00    -0.032 A 
ATOM      6  C   UNL     1     -48.078  30.680  24.208  1.00  0.00     0.030 A 
ATOM      7  N   UNL     1     -48.953  31.381  25.004  1.00  0.00    -0.357 N 
ATOM      8  C   UNL     1     -48.376  32.548  25.447  1.00  0.00     0.046 A 
ATOM      9  C   UNL     1     -48.895  33.559  26.265  1.00  0.00    -0.033 A 
ATOM     10  H   UNL     1     -46.138  35.577  26.254  1.00  0.00     0.063 H 
ATOM     11  H   UNL     1     -45.265  33.766  24.818  1.00  0.00     0.063 H 
ATOM     12  H   UNL     1     -46.020  31.137  23.594  1.00  0.00     0.065 H 
ATOM     13  H   UNL     1     -49.898  31.085  25.205  1.00  0.00     0.166 HD
ATOM     14  H   UNL     1     -49.908  33.500  26.654  1.00  0.00     0.065 H 
ENDROOT
BRANCH   1  15
ATOM     15  C   UNL     1     -48.599  35.781  27.416  1.00  0.00     0.043 C 
ATOM     16  H   UNL     1     -49.498  36.217  26.964  1.00  0.00     0.054 H 
ATOM     17  H   UNL     1     -48.888  35.420  28.410  1.00  0.00     0.054 H 
BRANCH  15  18
ATOM     18  N   UNL     1     -47.607  36.811  27.576  1.00  0.00    -0.347 N 
ATOM     19  O   UNL     1     -46.889  36.130  29.647  1.00  0.00    -0.268 OA
ATOM     20  C   UNL     1     -46.802  36.881  28.683  1.00  0.00     0.270 C 
ATOM     21  H   UNL     1     -47.403  37.448  26.812  1.00  0.00     0.164 HD
BRANCH  20  22
ATOM     22  C   UNL     1     -45.782  37.990  28.585  1.00  0.00     0.136 A 
ATOM     23  C   UNL     1     -44.925  38.103  29.602  1.00  0.00     0.035 A 
ATOM     24  N   UNL     1     -45.793  38.804  27.475  1.00  0.00    -0.225 NA
ATOM     25  C   UNL     1     -43.917  39.168  29.547  1.00  0.00     0.258 A 
ATOM     26  H   UNL     1     -44.926  37.456  30.470  1.00  0.00     0.071 H 
ATOM     27  C   UNL     1     -44.901  39.744  27.431  1.00  0.00     0.140 A 
ATOM     28  O   UNL     1     -43.123  39.278  30.480  1.00  0.00    -0.269 OA
ATOM     29  N   UNL     1     -43.951  39.974  28.419  1.00  0.00    -0.268 N 
ATOM     30  C   UNL     1     -44.877  40.651  26.247  1.00  0.00    -0.019 A 
ATOM     31  C   UNL     1     -43.026  41.007  28.296  1.00  0.00     0.014 A 
ATOM     32  C   UNL     1     -43.968  41.630  26.174  1.00  0.00    -0.057 A 
ATOM     33  H   UNL     1     -45.613  40.480  25.472  1.00  0.00     0.066 H 
ATOM     34  C   UNL     1     -43.011  41.817  27.231  1.00  0.00    -0.045 A 
ATOM     35  H   UNL     1     -42.312  41.129  29.107  1.00  0.00     0.082 H 
ATOM     36  H   UNL     1     -43.936  42.301  25.321  1.00  0.00     0.062 H 
ATOM     37  H   UNL     1     -42.285  42.619  27.145  1.00  0.00     0.064 H 
ENDBRANCH  20  22
ENDBRANCH  15  18
ENDBRANCH   1  15
BRANCH   6  38
ATOM     38  C   UNL     1     -48.452  29.374  23.603  1.00  0.00     0.036 C 
ATOM     39  H   UNL     1     -48.246  28.576  24.326  1.00  0.00     0.049 H 
ATOM     40  H   UNL     1     -47.836  29.193  22.714  1.00  0.00     0.049 H 
BRANCH  38  41
ATOM     41  N   UNL     1     -49.873  29.402  23.260  1.00  0.00    -0.306 NA
ATOM     42  H   UNL     1     -50.257  30.263  23.655  1.00  0.00     0.123 HD
BRANCH  41  43
ATOM     43  C   UNL     1     -50.075  29.428  21.805  1.00  0.00     0.033 C 
ATOM     44  C   UNL     1     -48.772  29.443  21.000  1.00  0.00    -0.035 C 
ATOM     45  C   UNL     1     -50.754  30.731  21.340  1.00  0.00     0.069 C 
ATOM     46  H   UNL     1     -50.700  28.585  21.482  1.00  0.00     0.049 H 
ATOM     47  C   UNL     1     -49.205  29.933  19.624  1.00  0.00    -0.049 C 
ATOM     48  H   UNL     1     -48.047  30.147  21.429  1.00  0.00     0.028 H 
ATOM     49  H   UNL     1     -48.294  28.461  20.950  1.00  0.00     0.028 H 
ATOM     50  C   UNL     1     -50.422  30.835  19.853  1.00  0.00    -0.025 C 
ATOM     51  H   UNL     1     -51.833  30.730  21.520  1.00  0.00     0.062 H 
ATOM     52  H   UNL     1     -49.491  29.081  18.995  1.00  0.00     0.027 H 
ATOM     53  H   UNL     1     -48.395  30.462  19.111  1.00  0.00     0.027 H 
ATOM     54  H   UNL     1     -51.257  30.467  19.247  1.00  0.00     0.029 H 
ATOM     55  H   UNL     1     -50.209  31.865  19.548  1.00  0.00     0.029 H 
BRANCH  45  56
ATOM     56  O   UNL     1     -50.198  31.857  22.024  1.00  0.00    -0.392 OA
ATOM     57  H   UNL     1     -49.370  32.051  21.547  1.00  0.00     0.211 HD
ENDBRANCH  45  56
ENDBRANCH  41  43
ENDBRANCH  38  41
ENDBRANCH   6  38
TORSDOF 7
ENDMDL
