MODEL 1
REMARK VINA RESULT:     -10.7      0.000      0.000
REMARK SMILES Nc1cc(N)c2ccc(OC[C@H]3O[C@@H](n4cc(C5CCCC5)c5c(N)ncnc54)[C@H](O)[C@@H]3O)cc2n1
REMARK SMILES IDX 11 1 10 4 9 5 2 6 3 7 36 8 4 9 35 11 6 12 34 13 7 14 8 16
REMARK SMILES IDX 1 19 5 22 12 25 13 26 32 27 14 29 30 30 33 34 15 36 16 37
REMARK SMILES IDX 29 38 17 39 23 41 28 42 24 43 27 44 26 45 18 47 19 48 22 49
REMARK SMILES IDX 20 51 21 54 25 61 31 64
REMARK H PARENT 11 2 11 3 3 10 34 15 7 17 8 18 1 20 1 21 5 23 5 24 12 28 32 31
REMARK H PARENT 14 32 30 33 33 35 16 40 27 46 18 50 19 52 19 53 22 55 22 56
REMARK H PARENT 20 57 20 58 21 59 21 60 25 62 25 63 31 65
REMARK Flexibility Score: inf
ROOT
ATOM      1  C   UNL     1     -47.452  36.078  27.168  1.00  0.00     0.117 C 
ATOM      2  H   UNL     1     -46.947  36.193  26.203  1.00  0.00     0.073 H 
ATOM      3  H   UNL     1     -47.997  36.996  27.423  1.00  0.00     0.073 H 
ENDROOT
BRANCH   1   4
ATOM      4  O   UNL     1     -48.359  34.975  27.090  1.00  0.00    -0.491 OA
BRANCH   4   5
ATOM      5  C   UNL     1     -48.007  33.927  26.290  1.00  0.00     0.121 A 
ATOM      6  C   UNL     1     -48.716  29.705  24.265  1.00  0.00     0.126 A 
ATOM      7  C   UNL     1     -47.510  29.732  23.587  1.00  0.00     0.004 A 
ATOM      8  N   UNL     1     -49.105  30.676  25.101  1.00  0.00    -0.231 NA
ATOM      9  C   UNL     1     -46.638  30.802  23.788  1.00  0.00     0.045 A 
ATOM     10  H   UNL     1     -47.248  28.917  22.924  1.00  0.00     0.068 H 
ATOM     11  C   UNL     1     -48.311  31.748  25.253  1.00  0.00     0.078 A 
ATOM     12  C   UNL     1     -47.068  31.881  24.596  1.00  0.00     0.024 A 
ATOM     13  C   UNL     1     -48.754  32.767  26.087  1.00  0.00     0.007 A 
ATOM     14  C   UNL     1     -46.328  33.071  24.784  1.00  0.00    -0.047 A 
ATOM     15  H   UNL     1     -49.718  32.629  26.567  1.00  0.00     0.069 H 
ATOM     16  C   UNL     1     -46.798  34.081  25.622  1.00  0.00    -0.019 A 
ATOM     17  H   UNL     1     -45.382  33.228  24.275  1.00  0.00     0.063 H 
ATOM     18  H   UNL     1     -46.209  34.985  25.762  1.00  0.00     0.066 H 
BRANCH   6  19
ATOM     19  N   UNL     1     -49.584  28.624  24.122  1.00  0.00    -0.384 N 
ATOM     20  H   UNL     1     -50.546  28.897  24.288  1.00  0.00     0.158 HD
ATOM     21  H   UNL     1     -49.276  27.911  24.779  1.00  0.00     0.158 HD
ENDBRANCH   6  19
BRANCH   9  22
ATOM     22  N   UNL     1     -45.457  30.857  23.016  1.00  0.00    -0.398 N 
ATOM     23  H   UNL     1     -44.718  31.405  23.443  1.00  0.00     0.156 HD
ATOM     24  H   UNL     1     -45.119  29.944  22.729  1.00  0.00     0.156 HD
ENDBRANCH   9  22
ENDBRANCH   4   5
ENDBRANCH   1   4
BRANCH   1  25
ATOM     25  C   UNL     1     -46.408  35.818  28.266  1.00  0.00     0.123 C 
ATOM     26  O   UNL     1     -45.237  36.624  27.991  1.00  0.00    -0.345 OA
ATOM     27  C   UNL     1     -46.868  36.190  29.671  1.00  0.00     0.114 C 
ATOM     28  H   UNL     1     -46.091  34.772  28.211  1.00  0.00     0.067 H 
ATOM     29  C   UNL     1     -45.180  37.700  28.952  1.00  0.00     0.164 C 
ATOM     30  C   UNL     1     -46.447  37.640  29.813  1.00  0.00     0.128 C 
ATOM     31  H   UNL     1     -47.934  36.026  29.849  1.00  0.00     0.066 H 
ATOM     32  H   UNL     1     -44.268  37.573  29.547  1.00  0.00     0.088 H 
ATOM     33  H   UNL     1     -47.230  38.310  29.441  1.00  0.00     0.068 H 
BRANCH  27  34
ATOM     34  O   UNL     1     -46.153  35.401  30.637  1.00  0.00    -0.387 OA
ATOM     35  H   UNL     1     -46.575  35.612  31.497  1.00  0.00     0.211 HD
ENDBRANCH  27  34
BRANCH  29  36
ATOM     36  N   UNL     1     -45.042  38.979  28.257  1.00  0.00    -0.303 N 
ATOM     37  C   UNL     1     -43.893  39.710  28.087  1.00  0.00     0.013 A 
ATOM     38  C   UNL     1     -46.087  39.630  27.647  1.00  0.00     0.147 A 
ATOM     39  C   UNL     1     -44.179  40.839  27.338  1.00  0.00    -0.014 A 
ATOM     40  H   UNL     1     -42.955  39.358  28.501  1.00  0.00     0.082 H 
ATOM     41  C   UNL     1     -45.595  40.799  27.074  1.00  0.00     0.065 A 
ATOM     42  N   UNL     1     -47.357  39.187  27.611  1.00  0.00    -0.218 NA
ATOM     43  C   UNL     1     -46.536  41.601  26.406  1.00  0.00     0.136 A 
ATOM     44  C   UNL     1     -48.154  40.039  26.945  1.00  0.00     0.120 A 
ATOM     45  N   UNL     1     -47.822  41.200  26.355  1.00  0.00    -0.219 NA
ATOM     46  H   UNL     1     -49.201  39.758  26.873  1.00  0.00     0.106 H 
BRANCH  39  47
ATOM     47  C   UNL     1     -43.212  41.902  26.880  1.00  0.00    -0.014 C 
ATOM     48  C   UNL     1     -41.738  41.477  26.866  1.00  0.00    -0.046 C 
ATOM     49  C   UNL     1     -43.197  43.120  27.805  1.00  0.00    -0.046 C 
ATOM     50  H   UNL     1     -43.496  42.199  25.863  1.00  0.00     0.035 H 
ATOM     51  C   UNL     1     -41.161  41.872  28.227  1.00  0.00    -0.053 C 
ATOM     52  H   UNL     1     -41.208  42.042  26.087  1.00  0.00     0.027 H 
ATOM     53  H   UNL     1     -41.582  40.416  26.648  1.00  0.00     0.027 H 
ATOM     54  C   UNL     1     -42.209  42.751  28.903  1.00  0.00    -0.053 C 
ATOM     55  H   UNL     1     -44.180  43.378  28.213  1.00  0.00     0.027 H 
ATOM     56  H   UNL     1     -42.821  43.994  27.259  1.00  0.00     0.027 H 
ATOM     57  H   UNL     1     -40.945  40.991  28.840  1.00  0.00     0.027 H 
ATOM     58  H   UNL     1     -40.218  42.415  28.096  1.00  0.00     0.027 H 
ATOM     59  H   UNL     1     -41.764  43.636  29.370  1.00  0.00     0.027 H 
ATOM     60  H   UNL     1     -42.716  42.184  29.694  1.00  0.00     0.027 H 
ENDBRANCH  39  47
BRANCH  43  61
ATOM     61  N   UNL     1     -46.246  42.818  25.801  1.00  0.00    -0.383 N 
ATOM     62  H   UNL     1     -46.517  43.622  26.349  1.00  0.00     0.158 HD
ATOM     63  H   UNL     1     -46.585  42.811  24.846  1.00  0.00     0.158 HD
ENDBRANCH  43  61
ENDBRANCH  29  36
BRANCH  30  64
ATOM     64  O   UNL     1     -46.223  37.961  31.194  1.00  0.00    -0.386 OA
ATOM     65  H   UNL     1     -46.753  37.309  31.702  1.00  0.00     0.211 HD
ENDBRANCH  30  64
ENDBRANCH   1  25
TORSDOF 10
ENDMDL
MODEL 2
REMARK VINA RESULT:     -10.4      1.514      2.762
REMARK SMILES Nc1cc(N)c2ccc(OC[C@H]3O[C@@H](n4cc(C5CCCC5)c5c(N)ncnc54)[C@H](O)[C@@H]3O)cc2n1
REMARK SMILES IDX 11 1 10 4 9 5 2 6 3 7 36 8 4 9 35 11 6 12 34 13 7 14 8 16
REMARK SMILES IDX 1 19 5 22 12 25 13 26 32 27 14 29 30 30 33 34 15 36 16 37
REMARK SMILES IDX 29 38 17 39 23 41 28 42 24 43 27 44 26 45 18 47 19 48 22 49
REMARK SMILES IDX 20 51 21 54 25 61 31 64
REMARK H PARENT 11 2 11 3 3 10 34 15 7 17 8 18 1 20 1 21 5 23 5 24 12 28 32 31
REMARK H PARENT 14 32 30 33 33 35 16 40 27 46 18 50 19 52 19 53 22 55 22 56
REMARK H PARENT 20 57 20 58 21 59 21 60 25 62 25 63 31 65
REMARK Flexibility Score: inf
ROOT
ATOM      1  C   UNL     1     -47.316  36.683  27.348  1.00  0.00     0.117 C 
ATOM      2  H   UNL     1     -46.770  36.807  26.406  1.00  0.00     0.073 H 
ATOM      3  H   UNL     1     -47.782  37.631  27.644  1.00  0.00     0.073 H 
ENDROOT
BRANCH   1   4
ATOM      4  O   UNL     1     -48.316  35.676  27.176  1.00  0.00    -0.491 OA
BRANCH   4   5
ATOM      5  C   UNL     1     -47.982  34.577  26.440  1.00  0.00     0.121 A 
ATOM      6  C   UNL     1     -48.771  30.263  24.649  1.00  0.00     0.126 A 
ATOM      7  C   UNL     1     -47.560  30.226  23.982  1.00  0.00     0.004 A 
ATOM      8  N   UNL     1     -49.145  31.289  25.426  1.00  0.00    -0.231 NA
ATOM      9  C   UNL     1     -46.666  31.285  24.130  1.00  0.00     0.045 A 
ATOM     10  H   UNL     1     -47.311  29.368  23.368  1.00  0.00     0.068 H 
ATOM     11  C   UNL     1     -48.327  32.350  25.524  1.00  0.00     0.078 A 
ATOM     12  C   UNL     1     -47.076  32.418  24.872  1.00  0.00     0.024 A 
ATOM     13  C   UNL     1     -48.754  33.425  26.295  1.00  0.00     0.007 A 
ATOM     14  C   UNL     1     -46.312  33.599  24.999  1.00  0.00    -0.047 A 
ATOM     15  H   UNL     1     -49.724  33.336  26.773  1.00  0.00     0.069 H 
ATOM     16  C   UNL     1     -46.764  34.666  25.775  1.00  0.00    -0.019 A 
ATOM     17  H   UNL     1     -45.357  33.706  24.492  1.00  0.00     0.063 H 
ATOM     18  H   UNL     1     -46.156  35.562  25.869  1.00  0.00     0.066 H 
BRANCH   6  19
ATOM     19  N   UNL     1     -49.663  29.196  24.560  1.00  0.00    -0.384 N 
ATOM     20  H   UNL     1     -49.175  28.311  24.481  1.00  0.00     0.158 HD
ATOM     21  H   UNL     1     -50.254  29.373  23.752  1.00  0.00     0.158 HD
ENDBRANCH   6  19
BRANCH   9  22
ATOM     22  N   UNL     1     -45.478  31.270  23.368  1.00  0.00    -0.398 N 
ATOM     23  H   UNL     1     -45.249  32.167  22.953  1.00  0.00     0.156 HD
ATOM     24  H   UNL     1     -44.682  30.883  23.866  1.00  0.00     0.156 HD
ENDBRANCH   9  22
ENDBRANCH   4   5
ENDBRANCH   1   4
BRANCH   1  25
ATOM     25  C   UNL     1     -46.338  36.262  28.456  1.00  0.00     0.123 C 
ATOM     26  O   UNL     1     -45.053  36.878  28.197  1.00  0.00    -0.345 OA
ATOM     27  C   UNL     1     -46.750  36.698  29.858  1.00  0.00     0.114 C 
ATOM     28  H   UNL     1     -46.185  35.179  28.401  1.00  0.00     0.067 H 
ATOM     29  C   UNL     1     -44.840  37.930  29.163  1.00  0.00     0.164 C 
ATOM     30  C   UNL     1     -46.112  38.065  30.010  1.00  0.00     0.128 C 
ATOM     31  H   UNL     1     -47.831  36.701  30.023  1.00  0.00     0.066 H 
ATOM     32  H   UNL     1     -43.966  37.662  29.768  1.00  0.00     0.088 H 
ATOM     33  H   UNL     1     -46.777  38.849  29.632  1.00  0.00     0.068 H 
BRANCH  27  34
ATOM     34  O   UNL     1     -46.177  35.805  30.828  1.00  0.00    -0.387 OA
ATOM     35  H   UNL     1     -45.690  35.138  30.299  1.00  0.00     0.211 HD
ENDBRANCH  27  34
BRANCH  29  36
ATOM     36  N   UNL     1     -44.498  39.173  28.475  1.00  0.00    -0.303 N 
ATOM     37  C   UNL     1     -45.105  39.697  27.361  1.00  0.00     0.013 A 
ATOM     38  C   UNL     1     -43.493  40.016  28.881  1.00  0.00     0.147 A 
ATOM     39  C   UNL     1     -44.511  40.909  27.048  1.00  0.00    -0.014 A 
ATOM     40  H   UNL     1     -45.927  39.172  26.889  1.00  0.00     0.082 H 
ATOM     41  C   UNL     1     -43.459  41.103  28.013  1.00  0.00     0.065 A 
ATOM     42  N   UNL     1     -42.699  39.813  29.949  1.00  0.00    -0.218 NA
ATOM     43  C   UNL     1     -42.477  42.073  28.277  1.00  0.00     0.136 A 
ATOM     44  C   UNL     1     -41.808  40.808  30.094  1.00  0.00     0.120 A 
ATOM     45  N   UNL     1     -41.653  41.903  29.330  1.00  0.00    -0.219 NA
ATOM     46  H   UNL     1     -41.123  40.719  30.933  1.00  0.00     0.106 H 
BRANCH  39  47
ATOM     47  C   UNL     1     -44.884  41.847  25.927  1.00  0.00    -0.014 C 
ATOM     48  C   UNL     1     -44.516  43.318  26.161  1.00  0.00    -0.046 C 
ATOM     49  C   UNL     1     -46.395  41.916  25.697  1.00  0.00    -0.046 C 
ATOM     50  H   UNL     1     -44.375  41.503  25.019  1.00  0.00     0.035 H 
ATOM     51  C   UNL     1     -45.741  43.974  26.801  1.00  0.00    -0.053 C 
ATOM     52  H   UNL     1     -44.330  43.801  25.192  1.00  0.00     0.027 H 
ATOM     53  H   UNL     1     -43.614  43.461  26.763  1.00  0.00     0.027 H 
ATOM     54  C   UNL     1     -46.882  42.967  26.685  1.00  0.00    -0.053 C 
ATOM     55  H   UNL     1     -46.908  40.959  25.837  1.00  0.00     0.027 H 
ATOM     56  H   UNL     1     -46.597  42.259  24.674  1.00  0.00     0.027 H 
ATOM     57  H   UNL     1     -45.556  44.226  27.850  1.00  0.00     0.027 H 
ATOM     58  H   UNL     1     -45.986  44.907  26.282  1.00  0.00     0.027 H 
ATOM     59  H   UNL     1     -47.814  43.438  26.357  1.00  0.00     0.027 H 
ATOM     60  H   UNL     1     -47.074  42.508  27.663  1.00  0.00     0.027 H 
ENDBRANCH  39  47
BRANCH  43  61
ATOM     61  N   UNL     1     -42.264  43.209  27.506  1.00  0.00    -0.383 N 
ATOM     62  H   UNL     1     -42.784  43.219  26.641  1.00  0.00     0.158 HD
ATOM     63  H   UNL     1     -41.268  43.375  27.414  1.00  0.00     0.158 HD
ENDBRANCH  43  61
ENDBRANCH  29  36
BRANCH  30  64
ATOM     64  O   UNL     1     -45.856  38.344  31.394  1.00  0.00    -0.386 OA
ATOM     65  H   UNL     1     -46.737  38.519  31.792  1.00  0.00     0.211 HD
ENDBRANCH  30  64
ENDBRANCH   1  25
TORSDOF 10
ENDMDL
MODEL 3
REMARK VINA RESULT:      -9.9      1.779      3.281
REMARK SMILES Nc1cc(N)c2ccc(OC[C@H]3O[C@@H](n4cc(C5CCCC5)c5c(N)ncnc54)[C@H](O)[C@@H]3O)cc2n1
REMARK SMILES IDX 11 1 10 4 9 5 2 6 3 7 36 8 4 9 35 11 6 12 34 13 7 14 8 16
REMARK SMILES IDX 1 19 5 22 12 25 13 26 32 27 14 29 30 30 33 34 15 36 16 37
REMARK SMILES IDX 29 38 17 39 23 41 28 42 24 43 27 44 26 45 18 47 19 48 22 49
REMARK SMILES IDX 20 51 21 54 25 61 31 64
REMARK H PARENT 11 2 11 3 3 10 34 15 7 17 8 18 1 20 1 21 5 23 5 24 12 28 32 31
REMARK H PARENT 14 32 30 33 33 35 16 40 27 46 18 50 19 52 19 53 22 55 22 56
REMARK H PARENT 20 57 20 58 21 59 21 60 25 62 25 63 31 65
REMARK Flexibility Score: inf
ROOT
ATOM      1  C   UNL     1     -45.936  35.591  27.017  1.00  0.00     0.117 C 
ATOM      2  H   UNL     1     -45.390  34.657  27.194  1.00  0.00     0.073 H 
ATOM      3  H   UNL     1     -45.237  36.393  26.748  1.00  0.00     0.073 H 
ENDROOT
BRANCH   1   4
ATOM      4  O   UNL     1     -46.878  35.385  25.962  1.00  0.00    -0.491 OA
BRANCH   4   5
ATOM      5  C   UNL     1     -47.136  34.097  25.591  1.00  0.00     0.121 A 
ATOM      6  C   UNL     1     -46.193  30.074  23.275  1.00  0.00     0.126 A 
ATOM      7  C   UNL     1     -47.316  29.430  23.764  1.00  0.00     0.004 A 
ATOM      8  N   UNL     1     -45.902  31.350  23.560  1.00  0.00    -0.231 NA
ATOM      9  C   UNL     1     -48.208  30.132  24.573  1.00  0.00     0.045 A 
ATOM     10  H   UNL     1     -47.500  28.396  23.498  1.00  0.00     0.068 H 
ATOM     11  C   UNL     1     -46.712  32.021  24.395  1.00  0.00     0.078 A 
ATOM     12  C   UNL     1     -47.874  31.452  24.960  1.00  0.00     0.024 A 
ATOM     13  C   UNL     1     -46.367  33.329  24.717  1.00  0.00     0.007 A 
ATOM     14  C   UNL     1     -48.634  32.226  25.866  1.00  0.00    -0.047 A 
ATOM     15  H   UNL     1     -45.462  33.726  24.269  1.00  0.00     0.069 H 
ATOM     16  C   UNL     1     -48.264  33.534  26.177  1.00  0.00    -0.019 A 
ATOM     17  H   UNL     1     -49.519  31.818  26.346  1.00  0.00     0.063 H 
ATOM     18  H   UNL     1     -48.867  34.116  26.868  1.00  0.00     0.066 H 
BRANCH   6  19
ATOM     19  N   UNL     1     -45.311  29.412  22.424  1.00  0.00    -0.384 N 
ATOM     20  H   UNL     1     -45.797  28.754  21.825  1.00  0.00     0.158 HD
ATOM     21  H   UNL     1     -44.624  28.948  23.013  1.00  0.00     0.158 HD
ENDBRANCH   6  19
BRANCH   9  22
ATOM     22  N   UNL     1     -49.296  29.431  25.136  1.00  0.00    -0.398 N 
ATOM     23  H   UNL     1     -49.251  28.428  24.995  1.00  0.00     0.156 HD
ATOM     24  H   UNL     1     -49.460  29.657  26.113  1.00  0.00     0.156 HD
ENDBRANCH   9  22
ENDBRANCH   4   5
ENDBRANCH   1   4
BRANCH   1  25
ATOM     25  C   UNL     1     -46.673  36.005  28.301  1.00  0.00     0.123 C 
ATOM     26  O   UNL     1     -45.845  36.948  29.025  1.00  0.00    -0.345 OA
ATOM     27  C   UNL     1     -48.010  36.698  28.062  1.00  0.00     0.114 C 
ATOM     28  H   UNL     1     -46.785  35.126  28.943  1.00  0.00     0.067 H 
ATOM     29  C   UNL     1     -46.435  38.261  28.913  1.00  0.00     0.164 C 
ATOM     30  C   UNL     1     -47.640  38.166  27.970  1.00  0.00     0.128 C 
ATOM     31  H   UNL     1     -48.553  36.330  27.188  1.00  0.00     0.066 H 
ATOM     32  H   UNL     1     -46.720  38.590  29.920  1.00  0.00     0.088 H 
ATOM     33  H   UNL     1     -47.380  38.438  26.941  1.00  0.00     0.068 H 
BRANCH  27  34
ATOM     34  O   UNL     1     -48.863  36.504  29.203  1.00  0.00    -0.387 OA
ATOM     35  H   UNL     1     -49.192  35.583  29.116  1.00  0.00     0.211 HD
ENDBRANCH  27  34
BRANCH  29  36
ATOM     36  N   UNL     1     -45.433  39.215  28.439  1.00  0.00    -0.303 N 
ATOM     37  C   UNL     1     -45.504  40.000  27.315  1.00  0.00     0.013 A 
ATOM     38  C   UNL     1     -44.252  39.467  29.093  1.00  0.00     0.147 A 
ATOM     39  C   UNL     1     -44.372  40.794  27.244  1.00  0.00    -0.014 A 
ATOM     40  H   UNL     1     -46.367  39.943  26.663  1.00  0.00     0.082 H 
ATOM     41  C   UNL     1     -43.556  40.435  28.376  1.00  0.00     0.065 A 
ATOM     42  N   UNL     1     -43.863  38.877  30.239  1.00  0.00    -0.218 NA
ATOM     43  C   UNL     1     -42.309  40.814  28.901  1.00  0.00     0.136 A 
ATOM     44  C   UNL     1     -42.660  39.325  30.636  1.00  0.00     0.120 A 
ATOM     45  N   UNL     1     -41.875  40.240  30.042  1.00  0.00    -0.219 NA
ATOM     46  H   UNL     1     -42.268  38.895  31.554  1.00  0.00     0.106 H 
BRANCH  39  47
ATOM     47  C   UNL     1     -44.048  41.833  26.199  1.00  0.00    -0.014 C 
ATOM     48  C   UNL     1     -43.833  43.252  26.738  1.00  0.00    -0.046 C 
ATOM     49  C   UNL     1     -45.184  42.028  25.193  1.00  0.00    -0.046 C 
ATOM     50  H   UNL     1     -43.133  41.516  25.684  1.00  0.00     0.035 H 
ATOM     51  C   UNL     1     -45.193  43.951  26.671  1.00  0.00    -0.053 C 
ATOM     52  H   UNL     1     -43.135  43.786  26.078  1.00  0.00     0.027 H 
ATOM     53  H   UNL     1     -43.405  43.287  27.744  1.00  0.00     0.027 H 
ATOM     54  C   UNL     1     -46.107  43.041  25.855  1.00  0.00    -0.053 C 
ATOM     55  H   UNL     1     -45.712  41.104  24.937  1.00  0.00     0.027 H 
ATOM     56  H   UNL     1     -44.785  42.455  24.264  1.00  0.00     0.027 H 
ATOM     57  H   UNL     1     -45.606  44.116  27.671  1.00  0.00     0.027 H 
ATOM     58  H   UNL     1     -45.091  44.933  26.196  1.00  0.00     0.027 H 
ATOM     59  H   UNL     1     -46.696  43.601  25.122  1.00  0.00     0.027 H 
ATOM     60  H   UNL     1     -46.814  42.531  26.521  1.00  0.00     0.027 H 
ENDBRANCH  39  47
BRANCH  43  61
ATOM     61  N   UNL     1     -41.453  41.737  28.313  1.00  0.00    -0.383 N 
ATOM     62  H   UNL     1     -41.733  42.021  27.386  1.00  0.00     0.158 HD
ATOM     63  H   UNL     1     -40.496  41.414  28.396  1.00  0.00     0.158 HD
ENDBRANCH  43  61
ENDBRANCH  29  36
BRANCH  30  64
ATOM     64  O   UNL     1     -48.750  38.985  28.368  1.00  0.00    -0.386 OA
ATOM     65  H   UNL     1     -49.552  38.463  28.144  1.00  0.00     0.211 HD
ENDBRANCH  30  64
ENDBRANCH   1  25
TORSDOF 10
ENDMDL
MODEL 4
REMARK VINA RESULT:      -9.8      1.358      3.189
REMARK SMILES Nc1cc(N)c2ccc(OC[C@H]3O[C@@H](n4cc(C5CCCC5)c5c(N)ncnc54)[C@H](O)[C@@H]3O)cc2n1
REMARK SMILES IDX 11 1 10 4 9 5 2 6 3 7 36 8 4 9 35 11 6 12 34 13 7 14 8 16
REMARK SMILES IDX 1 19 5 22 12 25 13 26 32 27 14 29 30 30 33 34 15 36 16 37
REMARK SMILES IDX 29 38 17 39 23 41 28 42 24 43 27 44 26 45 18 47 19 48 22 49
REMARK SMILES IDX 20 51 21 54 25 61 31 64
REMARK H PARENT 11 2 11 3 3 10 34 15 7 17 8 18 1 20 1 21 5 23 5 24 12 28 32 31
REMARK H PARENT 14 32 30 33 33 35 16 40 27 46 18 50 19 52 19 53 22 55 22 56
REMARK H PARENT 20 57 20 58 21 59 21 60 25 62 25 63 31 65
REMARK Flexibility Score: inf
ROOT
ATOM      1  C   UNL     1     -47.847  35.971  26.980  1.00  0.00     0.117 C 
ATOM      2  H   UNL     1     -47.608  36.092  25.917  1.00  0.00     0.073 H 
ATOM      3  H   UNL     1     -48.549  36.752  27.301  1.00  0.00     0.073 H 
ENDROOT
BRANCH   1   4
ATOM      4  O   UNL     1     -48.424  34.679  27.183  1.00  0.00    -0.491 OA
BRANCH   4   5
ATOM      5  C   UNL     1     -48.039  33.679  26.337  1.00  0.00     0.121 A 
ATOM      6  C   UNL     1     -48.576  29.492  24.189  1.00  0.00     0.126 A 
ATOM      7  C   UNL     1     -47.395  29.610  23.478  1.00  0.00     0.004 A 
ATOM      8  N   UNL     1     -48.992  30.412  25.069  1.00  0.00    -0.231 NA
ATOM      9  C   UNL     1     -46.578  30.719  23.690  1.00  0.00     0.045 A 
ATOM     10  H   UNL     1     -47.108  28.832  22.780  1.00  0.00     0.068 H 
ATOM     11  C   UNL     1     -48.254  31.521  25.235  1.00  0.00     0.078 A 
ATOM     12  C   UNL     1     -47.041  31.746  24.547  1.00  0.00     0.024 A 
ATOM     13  C   UNL     1     -48.727  32.486  26.116  1.00  0.00     0.007 A 
ATOM     14  C   UNL     1     -46.363  32.968  24.755  1.00  0.00    -0.047 A 
ATOM     15  H   UNL     1     -49.666  32.279  26.619  1.00  0.00     0.069 H 
ATOM     16  C   UNL     1     -46.861  33.923  25.640  1.00  0.00    -0.019 A 
ATOM     17  H   UNL     1     -45.442  33.195  24.225  1.00  0.00     0.063 H 
ATOM     18  H   UNL     1     -46.319  34.852  25.794  1.00  0.00     0.066 H 
BRANCH   6  19
ATOM     19  N   UNL     1     -49.387  28.369  24.035  1.00  0.00    -0.384 N 
ATOM     20  H   UNL     1     -49.492  27.865  24.908  1.00  0.00     0.158 HD
ATOM     21  H   UNL     1     -48.956  27.792  23.316  1.00  0.00     0.158 HD
ENDBRANCH   6  19
BRANCH   9  22
ATOM     22  N   UNL     1     -45.426  30.866  22.887  1.00  0.00    -0.398 N 
ATOM     23  H   UNL     1     -45.618  30.839  21.892  1.00  0.00     0.156 HD
ATOM     24  H   UNL     1     -44.864  31.677  23.131  1.00  0.00     0.156 HD
ENDBRANCH   9  22
ENDBRANCH   4   5
ENDBRANCH   1   4
BRANCH   1  25
ATOM     25  C   UNL     1     -46.563  36.107  27.813  1.00  0.00     0.123 C 
ATOM     26  O   UNL     1     -45.803  37.234  27.313  1.00  0.00    -0.345 OA
ATOM     27  C   UNL     1     -46.801  36.371  29.296  1.00  0.00     0.114 C 
ATOM     28  H   UNL     1     -45.945  35.216  27.658  1.00  0.00     0.067 H 
ATOM     29  C   UNL     1     -45.888  38.311  28.271  1.00  0.00     0.164 C 
ATOM     30  C   UNL     1     -46.849  37.884  29.387  1.00  0.00     0.128 C 
ATOM     31  H   UNL     1     -47.692  35.881  29.698  1.00  0.00     0.066 H 
ATOM     32  H   UNL     1     -44.877  38.508  28.647  1.00  0.00     0.088 H 
ATOM     33  H   UNL     1     -47.867  38.251  29.216  1.00  0.00     0.068 H 
BRANCH  27  34
ATOM     34  O   UNL     1     -45.678  35.894  30.056  1.00  0.00    -0.387 OA
ATOM     35  H   UNL     1     -46.073  35.423  30.820  1.00  0.00     0.211 HD
ENDBRANCH  27  34
BRANCH  29  36
ATOM     36  N   UNL     1     -46.324  39.536  27.602  1.00  0.00    -0.303 N 
ATOM     37  C   UNL     1     -47.608  40.009  27.495  1.00  0.00     0.013 A 
ATOM     38  C   UNL     1     -45.466  40.411  26.983  1.00  0.00     0.147 A 
ATOM     39  C   UNL     1     -47.591  41.220  26.823  1.00  0.00    -0.014 A 
ATOM     40  H   UNL     1     -48.433  39.452  27.924  1.00  0.00     0.082 H 
ATOM     41  C   UNL     1     -46.215  41.467  26.474  1.00  0.00     0.065 A 
ATOM     42  N   UNL     1     -44.130  40.260  26.908  1.00  0.00    -0.218 NA
ATOM     43  C   UNL     1     -45.494  42.464  25.795  1.00  0.00     0.136 A 
ATOM     44  C   UNL     1     -43.559  41.277  26.239  1.00  0.00     0.120 A 
ATOM     45  N   UNL     1     -44.155  42.347  25.687  1.00  0.00    -0.219 NA
ATOM     46  H   UNL     1     -42.480  41.230  26.128  1.00  0.00     0.106 H 
BRANCH  39  47
ATOM     47  C   UNL     1     -48.769  42.111  26.515  1.00  0.00    -0.014 C 
ATOM     48  C   UNL     1     -48.795  43.440  27.280  1.00  0.00    -0.046 C 
ATOM     49  C   UNL     1     -50.104  41.475  26.907  1.00  0.00    -0.046 C 
ATOM     50  H   UNL     1     -48.751  42.330  25.441  1.00  0.00     0.035 H 
ATOM     51  C   UNL     1     -49.616  43.192  28.548  1.00  0.00    -0.053 C 
ATOM     52  H   UNL     1     -49.314  44.194  26.673  1.00  0.00     0.027 H 
ATOM     53  H   UNL     1     -47.805  43.843  27.507  1.00  0.00     0.027 H 
ATOM     54  C   UNL     1     -50.275  41.827  28.378  1.00  0.00    -0.053 C 
ATOM     55  H   UNL     1     -50.145  40.394  26.739  1.00  0.00     0.027 H 
ATOM     56  H   UNL     1     -50.915  41.936  26.328  1.00  0.00     0.027 H 
ATOM     57  H   UNL     1     -48.983  43.206  29.442  1.00  0.00     0.027 H 
ATOM     58  H   UNL     1     -50.368  43.979  28.672  1.00  0.00     0.027 H 
ATOM     59  H   UNL     1     -51.327  41.838  28.678  1.00  0.00     0.027 H 
ATOM     60  H   UNL     1     -49.764  41.086  29.006  1.00  0.00     0.027 H 
ENDBRANCH  39  47
BRANCH  43  61
ATOM     61  N   UNL     1     -46.065  43.576  25.189  1.00  0.00    -0.383 N 
ATOM     62  H   UNL     1     -46.540  43.371  24.322  1.00  0.00     0.158 HD
ATOM     63  H   UNL     1     -45.384  44.326  25.143  1.00  0.00     0.158 HD
ENDBRANCH  43  61
ENDBRANCH  29  36
BRANCH  30  64
ATOM     64  O   UNL     1     -46.446  38.317  30.694  1.00  0.00    -0.386 OA
ATOM     65  H   UNL     1     -46.597  39.288  30.705  1.00  0.00     0.211 HD
ENDBRANCH  30  64
ENDBRANCH   1  25
TORSDOF 10
ENDMDL
MODEL 5
REMARK VINA RESULT:      -9.2      3.378     11.816
REMARK SMILES Nc1cc(N)c2ccc(OC[C@H]3O[C@@H](n4cc(C5CCCC5)c5c(N)ncnc54)[C@H](O)[C@@H]3O)cc2n1
REMARK SMILES IDX 11 1 10 4 9 5 2 6 3 7 36 8 4 9 35 11 6 12 34 13 7 14 8 16
REMARK SMILES IDX 1 19 5 22 12 25 13 26 32 27 14 29 30 30 33 34 15 36 16 37
REMARK SMILES IDX 29 38 17 39 23 41 28 42 24 43 27 44 26 45 18 47 19 48 22 49
REMARK SMILES IDX 20 51 21 54 25 61 31 64
REMARK H PARENT 11 2 11 3 3 10 34 15 7 17 8 18 1 20 1 21 5 23 5 24 12 28 32 31
REMARK H PARENT 14 32 30 33 33 35 16 40 27 46 18 50 19 52 19 53 22 55 22 56
REMARK H PARENT 20 57 20 58 21 59 21 60 25 62 25 63 31 65
REMARK Flexibility Score: inf
ROOT
ATOM      1  C   UNL     1     -47.031  32.446  24.719  1.00  0.00     0.117 C 
ATOM      2  H   UNL     1     -47.849  31.780  25.016  1.00  0.00     0.073 H 
ATOM      3  H   UNL     1     -47.431  33.336  24.216  1.00  0.00     0.073 H 
ENDROOT
BRANCH   1   4
ATOM      4  O   UNL     1     -46.297  32.828  25.885  1.00  0.00    -0.491 OA
BRANCH   4   5
ATOM      5  C   UNL     1     -46.616  34.021  26.466  1.00  0.00     0.121 A 
ATOM      6  C   UNL     1     -45.581  38.074  28.688  1.00  0.00     0.126 A 
ATOM      7  C   UNL     1     -46.901  38.485  28.733  1.00  0.00     0.004 A 
ATOM      8  N   UNL     1     -45.201  36.897  28.174  1.00  0.00    -0.231 NA
ATOM      9  C   UNL     1     -47.897  37.639  28.247  1.00  0.00     0.045 A 
ATOM     10  H   UNL     1     -47.150  39.448  29.162  1.00  0.00     0.068 H 
ATOM     11  C   UNL     1     -46.138  36.099  27.637  1.00  0.00     0.078 A 
ATOM     12  C   UNL     1     -47.511  36.431  27.618  1.00  0.00     0.024 A 
ATOM     13  C   UNL     1     -45.718  34.903  27.065  1.00  0.00     0.007 A 
ATOM     14  C   UNL     1     -48.412  35.546  26.985  1.00  0.00    -0.047 A 
ATOM     15  H   UNL     1     -44.655  34.689  27.093  1.00  0.00     0.069 H 
ATOM     16  C   UNL     1     -47.964  34.355  26.414  1.00  0.00    -0.019 A 
ATOM     17  H   UNL     1     -49.471  35.775  26.922  1.00  0.00     0.063 H 
ATOM     18  H   UNL     1     -48.675  33.682  25.941  1.00  0.00     0.066 H 
BRANCH   6  19
ATOM     19  N   UNL     1     -44.571  38.877  29.213  1.00  0.00    -0.384 N 
ATOM     20  H   UNL     1     -44.667  39.839  28.909  1.00  0.00     0.158 HD
ATOM     21  H   UNL     1     -43.687  38.473  28.911  1.00  0.00     0.158 HD
ENDBRANCH   6  19
BRANCH   9  22
ATOM     22  N   UNL     1     -49.225  38.116  28.216  1.00  0.00    -0.398 N 
ATOM     23  H   UNL     1     -49.922  37.386  28.318  1.00  0.00     0.156 HD
ATOM     24  H   UNL     1     -49.396  38.880  28.863  1.00  0.00     0.156 HD
ENDBRANCH   9  22
ENDBRANCH   4   5
ENDBRANCH   1   4
BRANCH   1  25
ATOM     25  C   UNL     1     -46.105  31.713  23.736  1.00  0.00     0.123 C 
ATOM     26  O   UNL     1     -46.173  30.292  24.006  1.00  0.00    -0.345 OA
ATOM     27  C   UNL     1     -46.480  31.891  22.268  1.00  0.00     0.114 C 
ATOM     28  H   UNL     1     -45.072  32.022  23.926  1.00  0.00     0.067 H 
ATOM     29  C   UNL     1     -46.908  29.653  22.941  1.00  0.00     0.164 C 
ATOM     30  C   UNL     1     -47.435  30.744  22.001  1.00  0.00     0.128 C 
ATOM     31  H   UNL     1     -46.900  32.873  22.032  1.00  0.00     0.066 H 
ATOM     32  H   UNL     1     -46.230  28.959  22.431  1.00  0.00     0.088 H 
ATOM     33  H   UNL     1     -48.464  31.032  22.240  1.00  0.00     0.068 H 
BRANCH  27  34
ATOM     34  O   UNL     1     -45.310  31.724  21.449  1.00  0.00    -0.387 OA
ATOM     35  H   UNL     1     -45.110  32.623  21.111  1.00  0.00     0.211 HD
ENDBRANCH  27  34
BRANCH  29  36
ATOM     36  N   UNL     1     -47.985  28.837  23.502  1.00  0.00    -0.303 N 
ATOM     37  C   UNL     1     -49.335  29.025  23.342  1.00  0.00     0.013 A 
ATOM     38  C   UNL     1     -47.771  27.726  24.279  1.00  0.00     0.147 A 
ATOM     39  C   UNL     1     -50.015  28.013  23.999  1.00  0.00    -0.014 A 
ATOM     40  H   UNL     1     -49.705  29.858  22.757  1.00  0.00     0.082 H 
ATOM     41  C   UNL     1     -49.009  27.190  24.620  1.00  0.00     0.065 A 
ATOM     42  N   UNL     1     -46.562  27.247  24.625  1.00  0.00    -0.218 NA
ATOM     43  C   UNL     1     -48.981  26.039  25.428  1.00  0.00     0.136 A 
ATOM     44  C   UNL     1     -46.671  26.148  25.393  1.00  0.00     0.120 A 
ATOM     45  N   UNL     1     -47.791  25.532  25.807  1.00  0.00    -0.219 NA
ATOM     46  H   UNL     1     -45.738  25.699  25.721  1.00  0.00     0.106 H 
BRANCH  39  47
ATOM     47  C   UNL     1     -51.507  27.802  24.057  1.00  0.00    -0.014 C 
ATOM     48  C   UNL     1     -52.041  26.687  23.148  1.00  0.00    -0.046 C 
ATOM     49  C   UNL     1     -52.292  29.025  23.578  1.00  0.00    -0.046 C 
ATOM     50  H   UNL     1     -51.772  27.560  25.093  1.00  0.00     0.035 H 
ATOM     51  C   UNL     1     -52.425  27.355  21.825  1.00  0.00    -0.053 C 
ATOM     52  H   UNL     1     -52.948  26.261  23.597  1.00  0.00     0.027 H 
ATOM     53  H   UNL     1     -51.343  25.859  23.000  1.00  0.00     0.027 H 
ATOM     54  C   UNL     1     -52.368  28.860  22.067  1.00  0.00    -0.053 C 
ATOM     55  H   UNL     1     -51.838  29.980  23.861  1.00  0.00     0.027 H 
ATOM     56  H   UNL     1     -53.307  28.999  23.997  1.00  0.00     0.027 H 
ATOM     57  H   UNL     1     -51.740  27.068  21.020  1.00  0.00     0.027 H 
ATOM     58  H   UNL     1     -53.430  27.043  21.521  1.00  0.00     0.027 H 
ATOM     59  H   UNL     1     -53.233  29.378  21.641  1.00  0.00     0.027 H 
ATOM     60  H   UNL     1     -51.471  29.279  21.595  1.00  0.00     0.027 H 
ENDBRANCH  39  47
BRANCH  43  61
ATOM     61  N   UNL     1     -50.110  25.380  25.899  1.00  0.00    -0.383 N 
ATOM     62  H   UNL     1     -50.681  25.939  26.517  1.00  0.00     0.158 HD
ATOM     63  H   UNL     1     -49.846  24.470  26.259  1.00  0.00     0.158 HD
ENDBRANCH  43  61
ENDBRANCH  29  36
BRANCH  30  64
ATOM     64  O   UNL     1     -47.398  30.378  20.614  1.00  0.00    -0.386 OA
ATOM     65  H   UNL     1     -48.262  29.947  20.435  1.00  0.00     0.211 HD
ENDBRANCH  30  64
ENDBRANCH   1  25
TORSDOF 10
ENDMDL
MODEL 6
REMARK VINA RESULT:      -9.2      4.192     11.441
REMARK SMILES Nc1cc(N)c2ccc(OC[C@H]3O[C@@H](n4cc(C5CCCC5)c5c(N)ncnc54)[C@H](O)[C@@H]3O)cc2n1
REMARK SMILES IDX 11 1 10 4 9 5 2 6 3 7 36 8 4 9 35 11 6 12 34 13 7 14 8 16
REMARK SMILES IDX 1 19 5 22 12 25 13 26 32 27 14 29 30 30 33 34 15 36 16 37
REMARK SMILES IDX 29 38 17 39 23 41 28 42 24 43 27 44 26 45 18 47 19 48 22 49
REMARK SMILES IDX 20 51 21 54 25 61 31 64
REMARK H PARENT 11 2 11 3 3 10 34 15 7 17 8 18 1 20 1 21 5 23 5 24 12 28 32 31
REMARK H PARENT 14 32 30 33 33 35 16 40 27 46 18 50 19 52 19 53 22 55 22 56
REMARK H PARENT 20 57 20 58 21 59 21 60 25 62 25 63 31 65
REMARK Flexibility Score: inf
ROOT
ATOM      1  C   UNL     1     -46.013  31.610  24.001  1.00  0.00     0.117 C 
ATOM      2  H   UNL     1     -45.472  32.562  23.968  1.00  0.00     0.073 H 
ATOM      3  H   UNL     1     -45.505  30.909  24.676  1.00  0.00     0.073 H 
ENDROOT
BRANCH   1   4
ATOM      4  O   UNL     1     -47.347  31.849  24.455  1.00  0.00    -0.491 OA
BRANCH   4   5
ATOM      5  C   UNL     1     -47.551  32.925  25.269  1.00  0.00     0.121 A 
ATOM      6  C   UNL     1     -46.171  36.809  27.602  1.00  0.00     0.126 A 
ATOM      7  C   UNL     1     -47.432  37.051  28.117  1.00  0.00     0.004 A 
ATOM      8  N   UNL     1     -45.888  35.749  26.835  1.00  0.00    -0.231 NA
ATOM      9  C   UNL     1     -48.462  36.149  27.854  1.00  0.00     0.045 A 
ATOM     10  H   UNL     1     -47.602  37.926  28.734  1.00  0.00     0.068 H 
ATOM     11  C   UNL     1     -46.883  34.907  26.512  1.00  0.00     0.078 A 
ATOM     12  C   UNL     1     -48.208  35.071  26.972  1.00  0.00     0.024 A 
ATOM     13  C   UNL     1     -46.580  33.839  25.675  1.00  0.00     0.007 A 
ATOM     14  C   UNL     1     -49.194  34.158  26.535  1.00  0.00    -0.047 A 
ATOM     15  H   UNL     1     -45.552  33.753  25.337  1.00  0.00     0.069 H 
ATOM     16  C   UNL     1     -48.865  33.099  25.691  1.00  0.00    -0.019 A 
ATOM     17  H   UNL     1     -50.230  34.264  26.842  1.00  0.00     0.063 H 
ATOM     18  H   UNL     1     -49.635  32.400  25.375  1.00  0.00     0.066 H 
BRANCH   6  19
ATOM     19  N   UNL     1     -45.111  37.667  27.892  1.00  0.00    -0.384 N 
ATOM     20  H   UNL     1     -45.429  38.622  28.008  1.00  0.00     0.158 HD
ATOM     21  H   UNL     1     -44.446  37.581  27.127  1.00  0.00     0.158 HD
ENDBRANCH   6  19
BRANCH   9  22
ATOM     22  N   UNL     1     -49.761  36.463  28.310  1.00  0.00    -0.398 N 
ATOM     23  H   UNL     1     -49.897  37.450  28.502  1.00  0.00     0.156 HD
ATOM     24  H   UNL     1     -50.498  36.100  27.712  1.00  0.00     0.156 HD
ENDBRANCH   9  22
ENDBRANCH   4   5
ENDBRANCH   1   4
BRANCH   1  25
ATOM     25  C   UNL     1     -46.043  30.988  22.596  1.00  0.00     0.123 C 
ATOM     26  O   UNL     1     -46.324  29.573  22.722  1.00  0.00    -0.345 OA
ATOM     27  C   UNL     1     -47.116  31.562  21.678  1.00  0.00     0.114 C 
ATOM     28  H   UNL     1     -45.046  31.073  22.151  1.00  0.00     0.067 H 
ATOM     29  C   UNL     1     -47.672  29.327  22.265  1.00  0.00     0.164 C 
ATOM     30  C   UNL     1     -48.320  30.678  21.939  1.00  0.00     0.128 C 
ATOM     31  H   UNL     1     -47.314  32.626  21.834  1.00  0.00     0.066 H 
ATOM     32  H   UNL     1     -47.617  28.671  21.389  1.00  0.00     0.088 H 
ATOM     33  H   UNL     1     -48.911  31.064  22.777  1.00  0.00     0.068 H 
BRANCH  27  34
ATOM     34  O   UNL     1     -46.712  31.404  20.307  1.00  0.00    -0.387 OA
ATOM     35  H   UNL     1     -45.759  31.638  20.298  1.00  0.00     0.211 HD
ENDBRANCH  27  34
BRANCH  29  36
ATOM     36  N   UNL     1     -48.414  28.588  23.286  1.00  0.00    -0.303 N 
ATOM     37  C   UNL     1     -47.919  28.069  24.456  1.00  0.00     0.013 A 
ATOM     38  C   UNL     1     -49.759  28.321  23.205  1.00  0.00     0.147 A 
ATOM     39  C   UNL     1     -48.953  27.478  25.163  1.00  0.00    -0.014 A 
ATOM     40  H   UNL     1     -46.869  28.177  24.701  1.00  0.00     0.082 H 
ATOM     41  C   UNL     1     -50.132  27.621  24.348  1.00  0.00     0.065 A 
ATOM     42  N   UNL     1     -50.560  28.697  22.191  1.00  0.00    -0.218 NA
ATOM     43  C   UNL     1     -51.487  27.256  24.432  1.00  0.00     0.136 A 
ATOM     44  C   UNL     1     -51.826  28.291  22.391  1.00  0.00     0.120 A 
ATOM     45  N   UNL     1     -52.323  27.602  23.433  1.00  0.00    -0.219 NA
ATOM     46  H   UNL     1     -52.540  28.550  21.614  1.00  0.00     0.106 H 
BRANCH  39  47
ATOM     47  C   UNL     1     -48.875  26.818  26.517  1.00  0.00    -0.014 C 
ATOM     48  C   UNL     1     -47.596  27.114  27.311  1.00  0.00    -0.046 C 
ATOM     49  C   UNL     1     -48.862  25.291  26.426  1.00  0.00    -0.046 C 
ATOM     50  H   UNL     1     -49.734  27.158  27.107  1.00  0.00     0.035 H 
ATOM     51  C   UNL     1     -46.607  25.996  26.971  1.00  0.00    -0.053 C 
ATOM     52  H   UNL     1     -47.820  27.064  28.385  1.00  0.00     0.027 H 
ATOM     53  H   UNL     1     -47.173  28.105  27.122  1.00  0.00     0.027 H 
ATOM     54  C   UNL     1     -47.398  24.934  26.212  1.00  0.00    -0.053 C 
ATOM     55  H   UNL     1     -49.498  24.890  25.630  1.00  0.00     0.027 H 
ATOM     56  H   UNL     1     -49.204  24.861  27.376  1.00  0.00     0.027 H 
ATOM     57  H   UNL     1     -45.779  26.369  26.360  1.00  0.00     0.027 H 
ATOM     58  H   UNL     1     -46.173  25.582  27.888  1.00  0.00     0.027 H 
ATOM     59  H   UNL     1     -47.166  23.923  26.560  1.00  0.00     0.027 H 
ATOM     60  H   UNL     1     -47.149  24.978  25.145  1.00  0.00     0.027 H 
ENDBRANCH  39  47
BRANCH  43  61
ATOM     61  N   UNL     1     -52.043  26.527  25.475  1.00  0.00    -0.383 N 
ATOM     62  H   UNL     1     -52.963  26.162  25.274  1.00  0.00     0.158 HD
ATOM     63  H   UNL     1     -51.967  27.056  26.337  1.00  0.00     0.158 HD
ENDBRANCH  43  61
ENDBRANCH  29  36
BRANCH  30  64
ATOM     64  O   UNL     1     -49.174  30.645  20.786  1.00  0.00    -0.386 OA
ATOM     65  H   UNL     1     -49.655  29.791  20.843  1.00  0.00     0.211 HD
ENDBRANCH  30  64
ENDBRANCH   1  25
TORSDOF 10
ENDMDL
MODEL 7
REMARK VINA RESULT:      -9.1      6.019      9.412
REMARK SMILES Nc1cc(N)c2ccc(OC[C@H]3O[C@@H](n4cc(C5CCCC5)c5c(N)ncnc54)[C@H](O)[C@@H]3O)cc2n1
REMARK SMILES IDX 11 1 10 4 9 5 2 6 3 7 36 8 4 9 35 11 6 12 34 13 7 14 8 16
REMARK SMILES IDX 1 19 5 22 12 25 13 26 32 27 14 29 30 30 33 34 15 36 16 37
REMARK SMILES IDX 29 38 17 39 23 41 28 42 24 43 27 44 26 45 18 47 19 48 22 49
REMARK SMILES IDX 20 51 21 54 25 61 31 64
REMARK H PARENT 11 2 11 3 3 10 34 15 7 17 8 18 1 20 1 21 5 23 5 24 12 28 32 31
REMARK H PARENT 14 32 30 33 33 35 16 40 27 46 18 50 19 52 19 53 22 55 22 56
REMARK H PARENT 20 57 20 58 21 59 21 60 25 62 25 63 31 65
REMARK Flexibility Score: inf
ROOT
ATOM      1  C   UNL     1     -45.142  45.398  26.707  1.00  0.00     0.117 C 
ATOM      2  H   UNL     1     -44.938  46.218  27.405  1.00  0.00     0.073 H 
ATOM      3  H   UNL     1     -45.416  44.490  27.260  1.00  0.00     0.073 H 
ENDROOT
BRANCH   1   4
ATOM      4  O   UNL     1     -46.208  45.784  25.836  1.00  0.00    -0.491 OA
BRANCH   4   5
ATOM      5  C   UNL     1     -47.386  45.105  25.945  1.00  0.00     0.121 A 
ATOM      6  C   UNL     1     -51.319  43.117  24.208  1.00  0.00     0.126 A 
ATOM      7  C   UNL     1     -51.755  42.693  25.451  1.00  0.00     0.004 A 
ATOM      8  N   UNL     1     -50.197  43.827  24.032  1.00  0.00    -0.231 NA
ATOM      9  C   UNL     1     -51.017  43.029  26.585  1.00  0.00     0.045 A 
ATOM     10  H   UNL     1     -52.673  42.123  25.532  1.00  0.00     0.068 H 
ATOM     11  C   UNL     1     -49.436  44.099  25.104  1.00  0.00     0.078 A 
ATOM     12  C   UNL     1     -49.783  43.700  26.414  1.00  0.00     0.024 A 
ATOM     13  C   UNL     1     -48.250  44.794  24.896  1.00  0.00     0.007 A 
ATOM     14  C   UNL     1     -48.889  43.993  27.469  1.00  0.00    -0.047 A 
ATOM     15  H   UNL     1     -48.016  45.077  23.874  1.00  0.00     0.069 H 
ATOM     16  C   UNL     1     -47.704  44.687  27.232  1.00  0.00    -0.019 A 
ATOM     17  H   UNL     1     -49.102  43.679  28.487  1.00  0.00     0.063 H 
ATOM     18  H   UNL     1     -47.035  44.912  28.059  1.00  0.00     0.066 H 
BRANCH   6  19
ATOM     19  N   UNL     1     -52.063  42.840  23.064  1.00  0.00    -0.384 N 
ATOM     20  H   UNL     1     -52.390  43.690  22.618  1.00  0.00     0.158 HD
ATOM     21  H   UNL     1     -52.837  42.245  23.352  1.00  0.00     0.158 HD
ENDBRANCH   6  19
BRANCH   9  22
ATOM     22  N   UNL     1     -51.428  42.507  27.831  1.00  0.00    -0.398 N 
ATOM     23  H   UNL     1     -52.168  43.043  28.272  1.00  0.00     0.156 HD
ATOM     24  H   UNL     1     -51.659  41.519  27.799  1.00  0.00     0.156 HD
ENDBRANCH   9  22
ENDBRANCH   4   5
ENDBRANCH   1   4
BRANCH   1  25
ATOM     25  C   UNL     1     -43.878  45.098  25.886  1.00  0.00     0.123 C 
ATOM     26  O   UNL     1     -43.132  44.050  26.550  1.00  0.00    -0.345 OA
ATOM     27  C   UNL     1     -44.152  44.602  24.470  1.00  0.00     0.114 C 
ATOM     28  H   UNL     1     -43.239  45.987  25.883  1.00  0.00     0.067 H 
ATOM     29  C   UNL     1     -43.259  42.834  25.783  1.00  0.00     0.164 C 
ATOM     30  C   UNL     1     -44.234  43.096  24.628  1.00  0.00     0.128 C 
ATOM     31  H   UNL     1     -45.041  45.041  24.009  1.00  0.00     0.066 H 
ATOM     32  H   UNL     1     -42.261  42.553  25.426  1.00  0.00     0.088 H 
ATOM     33  H   UNL     1     -45.256  42.786  24.874  1.00  0.00     0.068 H 
BRANCH  27  34
ATOM     34  O   UNL     1     -43.035  44.921  23.623  1.00  0.00    -0.387 OA
ATOM     35  H   UNL     1     -42.661  45.746  24.001  1.00  0.00     0.211 HD
ENDBRANCH  27  34
BRANCH  29  36
ATOM     36  N   UNL     1     -43.707  41.744  26.650  1.00  0.00    -0.303 N 
ATOM     37  C   UNL     1     -44.782  40.916  26.450  1.00  0.00     0.013 A 
ATOM     38  C   UNL     1     -43.072  41.390  27.815  1.00  0.00     0.147 A 
ATOM     39  C   UNL     1     -44.840  39.991  27.480  1.00  0.00    -0.014 A 
ATOM     40  H   UNL     1     -45.413  41.040  25.579  1.00  0.00     0.082 H 
ATOM     41  C   UNL     1     -43.752  40.310  28.369  1.00  0.00     0.065 A 
ATOM     42  N   UNL     1     -41.971  41.988  28.307  1.00  0.00    -0.218 NA
ATOM     43  C   UNL     1     -43.240  39.815  29.581  1.00  0.00     0.136 A 
ATOM     44  C   UNL     1     -41.582  41.422  29.463  1.00  0.00     0.120 A 
ATOM     45  N   UNL     1     -42.146  40.392  30.115  1.00  0.00    -0.219 NA
ATOM     46  H   UNL     1     -40.700  41.851  29.932  1.00  0.00     0.106 H 
BRANCH  39  47
ATOM     47  C   UNL     1     -45.834  38.868  27.646  1.00  0.00    -0.014 C 
ATOM     48  C   UNL     1     -46.837  38.713  26.496  1.00  0.00    -0.046 C 
ATOM     49  C   UNL     1     -46.746  39.067  28.858  1.00  0.00    -0.046 C 
ATOM     50  H   UNL     1     -45.270  37.933  27.742  1.00  0.00     0.035 H 
ATOM     51  C   UNL     1     -48.066  39.542  26.880  1.00  0.00    -0.053 C 
ATOM     52  H   UNL     1     -47.139  37.660  26.421  1.00  0.00     0.027 H 
ATOM     53  H   UNL     1     -46.441  38.999  25.517  1.00  0.00     0.027 H 
ATOM     54  C   UNL     1     -47.880  39.940  28.341  1.00  0.00    -0.053 C 
ATOM     55  H   UNL     1     -46.245  39.520  29.719  1.00  0.00     0.027 H 
ATOM     56  H   UNL     1     -47.152  38.098  29.177  1.00  0.00     0.027 H 
ATOM     57  H   UNL     1     -48.161  40.431  26.247  1.00  0.00     0.027 H 
ATOM     58  H   UNL     1     -48.978  38.950  26.746  1.00  0.00     0.027 H 
ATOM     59  H   UNL     1     -48.798  39.808  28.922  1.00  0.00     0.027 H 
ATOM     60  H   UNL     1     -47.602  40.999  28.405  1.00  0.00     0.027 H 
ENDBRANCH  39  47
BRANCH  43  61
ATOM     61  N   UNL     1     -43.798  38.767  30.303  1.00  0.00    -0.383 N 
ATOM     62  H   UNL     1     -44.640  39.018  30.801  1.00  0.00     0.158 HD
ATOM     63  H   UNL     1     -43.081  38.320  30.862  1.00  0.00     0.158 HD
ENDBRANCH  43  61
ENDBRANCH  29  36
BRANCH  30  64
ATOM     64  O   UNL     1     -43.866  42.446  23.403  1.00  0.00    -0.386 OA
ATOM     65  H   UNL     1     -43.555  43.164  22.810  1.00  0.00     0.211 HD
ENDBRANCH  30  64
ENDBRANCH   1  25
TORSDOF 10
ENDMDL
