MODEL 1
REMARK VINA RESULT:     -10.4      0.000      0.000
REMARK SMILES CCNc1ccc2ccc(OCc3cccc(-n4cc(Cl)c5c(N)ncnc54)c3)cc2n1
REMARK SMILES IDX 11 1 10 2 4 3 5 4 32 5 6 6 31 8 7 9 30 11 8 12 9 14 3 17
REMARK SMILES IDX 2 19 1 22 12 26 13 29 14 30 29 31 15 32 17 34 16 36 18 39
REMARK SMILES IDX 19 40 28 41 20 42 22 44 27 45 21 46 23 47 26 48 25 49 24 51
REMARK H PARENT 5 7 6 10 30 13 8 15 9 16 3 18 2 20 2 21 1 23 1 24 1 25 12 27
REMARK H PARENT 12 28 14 33 29 35 15 37 16 38 19 43 26 50 24 52 24 53
REMARK Flexibility Score: inf
ROOT
ATOM      1  O   UNL     1     -48.533  34.476  27.365  1.00  0.00    -0.489 OA
ENDROOT
BRANCH   1   2
ATOM      2  C   UNL     1     -48.052  33.591  26.440  1.00  0.00     0.122 A 
ATOM      3  C   UNL     1     -47.920  29.435  24.122  1.00  0.00     0.126 A 
ATOM      4  C   UNL     1     -46.835  29.843  23.355  1.00  0.00    -0.019 A 
ATOM      5  N   UNL     1     -48.468  30.241  25.053  1.00  0.00    -0.231 NA
ATOM      6  C   UNL     1     -46.306  31.116  23.540  1.00  0.00    -0.049 A 
ATOM      7  H   UNL     1     -46.391  29.170  22.629  1.00  0.00     0.066 H 
ATOM      8  C   UNL     1     -47.962  31.474  25.241  1.00  0.00     0.076 A 
ATOM      9  C   UNL     1     -46.871  31.961  24.498  1.00  0.00     0.001 A 
ATOM     10  H   UNL     1     -45.456  31.434  22.943  1.00  0.00     0.063 H 
ATOM     11  C   UNL     1     -48.531  32.300  26.203  1.00  0.00     0.007 A 
ATOM     12  C   UNL     1     -46.375  33.252  24.732  1.00  0.00    -0.049 A 
ATOM     13  H   UNL     1     -49.358  31.887  26.772  1.00  0.00     0.069 H 
ATOM     14  C   UNL     1     -46.967  34.059  25.701  1.00  0.00    -0.019 A 
ATOM     15  H   UNL     1     -45.530  33.634  24.165  1.00  0.00     0.063 H 
ATOM     16  H   UNL     1     -46.580  35.059  25.881  1.00  0.00     0.066 H 
BRANCH   3  17
ATOM     17  N   UNL     1     -48.409  28.132  23.922  1.00  0.00    -0.370 N 
ATOM     18  H   UNL     1     -47.655  27.477  24.115  1.00  0.00     0.162 HD
BRANCH  17  19
ATOM     19  C   UNL     1     -49.027  27.870  22.624  1.00  0.00     0.013 C 
ATOM     20  H   UNL     1     -49.048  28.761  21.985  1.00  0.00     0.049 H 
ATOM     21  H   UNL     1     -48.403  27.136  22.101  1.00  0.00     0.049 H 
BRANCH  19  22
ATOM     22  C   UNL     1     -50.416  27.270  22.786  1.00  0.00    -0.048 C 
ATOM     23  H   UNL     1     -50.360  26.272  23.234  1.00  0.00     0.025 H 
ATOM     24  H   UNL     1     -51.055  27.885  23.427  1.00  0.00     0.025 H 
ATOM     25  H   UNL     1     -50.904  27.180  21.811  1.00  0.00     0.025 H 
ENDBRANCH  19  22
ENDBRANCH  17  19
ENDBRANCH   3  17
ENDBRANCH   1   2
BRANCH   1  26
ATOM     26  C   UNL     1     -48.424  35.876  27.094  1.00  0.00     0.113 C 
ATOM     27  H   UNL     1     -48.172  35.968  26.030  1.00  0.00     0.076 H 
ATOM     28  H   UNL     1     -49.392  36.376  27.221  1.00  0.00     0.076 H 
BRANCH  26  29
ATOM     29  C   UNL     1     -47.321  36.556  27.876  1.00  0.00    -0.009 A 
ATOM     30  C   UNL     1     -46.963  36.068  29.137  1.00  0.00    -0.055 A 
ATOM     31  C   UNL     1     -46.680  37.710  27.385  1.00  0.00    -0.031 A 
ATOM     32  C   UNL     1     -45.971  36.703  29.879  1.00  0.00    -0.060 A 
ATOM     33  H   UNL     1     -47.452  35.188  29.550  1.00  0.00     0.063 H 
ATOM     34  C   UNL     1     -45.672  38.358  28.122  1.00  0.00     0.047 A 
ATOM     35  H   UNL     1     -47.010  38.087  26.422  1.00  0.00     0.065 H 
ATOM     36  C   UNL     1     -45.327  37.838  29.375  1.00  0.00    -0.038 A 
ATOM     37  H   UNL     1     -45.688  36.314  30.854  1.00  0.00     0.062 H 
ATOM     38  H   UNL     1     -44.545  38.270  29.989  1.00  0.00     0.064 H 
BRANCH  34  39
ATOM     39  N   UNL     1     -45.013  39.518  27.584  1.00  0.00    -0.300 N 
ATOM     40  C   UNL     1     -45.353  40.138  26.392  1.00  0.00     0.030 A 
ATOM     41  C   UNL     1     -43.935  40.228  28.124  1.00  0.00     0.151 A 
ATOM     42  C   UNL     1     -44.516  41.204  26.179  1.00  0.00     0.072 A 
ATOM     43  H   UNL     1     -46.143  39.763  25.758  1.00  0.00     0.084 H 
ATOM     44  C   UNL     1     -43.618  41.281  27.266  1.00  0.00     0.080 A 
ATOM     45  N   UNL     1     -43.306  39.978  29.291  1.00  0.00    -0.218 NA
ATOM     46  Cl  UNL     1     -44.554  42.240  24.830  1.00  0.00    -0.082 Cl
ATOM     47  C   UNL     1     -42.558  42.120  27.645  1.00  0.00     0.137 A 
ATOM     48  C   UNL     1     -42.313  40.839  29.546  1.00  0.00     0.120 A 
ATOM     49  N   UNL     1     -41.906  41.872  28.794  1.00  0.00    -0.219 NA
ATOM     50  H   UNL     1     -41.770  40.683  30.473  1.00  0.00     0.106 H 
BRANCH  47  51
ATOM     51  N   UNL     1     -42.122  43.204  26.902  1.00  0.00    -0.383 N 
ATOM     52  H   UNL     1     -41.775  42.923  25.994  1.00  0.00     0.158 HD
ATOM     53  H   UNL     1     -42.703  44.030  26.941  1.00  0.00     0.158 HD
ENDBRANCH  47  51
ENDBRANCH  34  39
ENDBRANCH  26  29
ENDBRANCH   1  26
TORSDOF 8
ENDMDL
MODEL 2
REMARK VINA RESULT:      -9.9      1.889      2.919
REMARK SMILES CCNc1ccc2ccc(OCc3cccc(-n4cc(Cl)c5c(N)ncnc54)c3)cc2n1
REMARK SMILES IDX 11 1 10 2 4 3 5 4 32 5 6 6 31 8 7 9 30 11 8 12 9 14 3 17
REMARK SMILES IDX 2 19 1 22 12 26 13 29 14 30 29 31 15 32 17 34 16 36 18 39
REMARK SMILES IDX 19 40 28 41 20 42 22 44 27 45 21 46 23 47 26 48 25 49 24 51
REMARK H PARENT 5 7 6 10 30 13 8 15 9 16 3 18 2 20 2 21 1 23 1 24 1 25 12 27
REMARK H PARENT 12 28 14 33 29 35 15 37 16 38 19 43 26 50 24 52 24 53
REMARK Flexibility Score: inf
ROOT
ATOM      1  O   UNL     1     -46.192  35.155  26.722  1.00  0.00    -0.489 OA
ENDROOT
BRANCH   1   2
ATOM      2  C   UNL     1     -46.858  34.136  26.099  1.00  0.00     0.122 A 
ATOM      3  C   UNL     1     -47.334  30.594  22.954  1.00  0.00     0.126 A 
ATOM      4  C   UNL     1     -48.641  30.348  23.359  1.00  0.00    -0.019 A 
ATOM      5  N   UNL     1     -46.596  31.572  23.516  1.00  0.00    -0.231 NA
ATOM      6  C   UNL     1     -49.200  31.116  24.374  1.00  0.00    -0.049 A 
ATOM      7  H   UNL     1     -49.229  29.574  22.876  1.00  0.00     0.066 H 
ATOM      8  C   UNL     1     -47.128  32.322  24.498  1.00  0.00     0.076 A 
ATOM      9  C   UNL     1     -48.440  32.127  24.967  1.00  0.00     0.001 A 
ATOM     10  H   UNL     1     -50.223  30.926  24.688  1.00  0.00     0.063 H 
ATOM     11  C   UNL     1     -46.361  33.329  25.073  1.00  0.00     0.007 A 
ATOM     12  C   UNL     1     -48.954  32.937  25.991  1.00  0.00    -0.049 A 
ATOM     13  H   UNL     1     -45.361  33.466  24.676  1.00  0.00     0.069 H 
ATOM     14  C   UNL     1     -48.162  33.937  26.549  1.00  0.00    -0.019 A 
ATOM     15  H   UNL     1     -49.968  32.795  26.356  1.00  0.00     0.063 H 
ATOM     16  H   UNL     1     -48.563  34.564  27.343  1.00  0.00     0.066 H 
BRANCH   3  17
ATOM     17  N   UNL     1     -46.815  29.812  21.907  1.00  0.00    -0.370 N 
ATOM     18  H   UNL     1     -47.195  28.873  21.994  1.00  0.00     0.162 HD
BRANCH  17  19
ATOM     19  C   UNL     1     -45.360  29.794  21.781  1.00  0.00     0.013 C 
ATOM     20  H   UNL     1     -45.032  29.782  20.734  1.00  0.00     0.049 H 
ATOM     21  H   UNL     1     -44.978  30.728  22.208  1.00  0.00     0.049 H 
BRANCH  19  22
ATOM     22  C   UNL     1     -44.753  28.641  22.566  1.00  0.00    -0.048 C 
ATOM     23  H   UNL     1     -43.952  28.995  23.224  1.00  0.00     0.025 H 
ATOM     24  H   UNL     1     -45.496  28.137  23.192  1.00  0.00     0.025 H 
ATOM     25  H   UNL     1     -44.329  27.899  21.882  1.00  0.00     0.025 H 
ENDBRANCH  19  22
ENDBRANCH  17  19
ENDBRANCH   3  17
ENDBRANCH   1   2
BRANCH   1  26
ATOM     26  C   UNL     1     -46.726  35.676  27.942  1.00  0.00     0.113 C 
ATOM     27  H   UNL     1     -47.730  35.248  28.050  1.00  0.00     0.076 H 
ATOM     28  H   UNL     1     -46.149  35.321  28.806  1.00  0.00     0.076 H 
BRANCH  26  29
ATOM     29  C   UNL     1     -46.879  37.182  27.937  1.00  0.00    -0.009 A 
ATOM     30  C   UNL     1     -48.154  37.750  28.029  1.00  0.00    -0.055 A 
ATOM     31  C   UNL     1     -45.765  38.030  27.784  1.00  0.00    -0.031 A 
ATOM     32  C   UNL     1     -48.310  39.133  27.995  1.00  0.00    -0.060 A 
ATOM     33  H   UNL     1     -49.035  37.120  28.132  1.00  0.00     0.063 H 
ATOM     34  C   UNL     1     -45.908  39.430  27.754  1.00  0.00     0.047 A 
ATOM     35  H   UNL     1     -44.795  37.557  27.673  1.00  0.00     0.065 H 
ATOM     36  C   UNL     1     -47.196  39.968  27.862  1.00  0.00    -0.038 A 
ATOM     37  H   UNL     1     -49.302  39.570  28.079  1.00  0.00     0.062 H 
ATOM     38  H   UNL     1     -47.381  41.036  27.869  1.00  0.00     0.064 H 
BRANCH  34  39
ATOM     39  N   UNL     1     -44.751  40.273  27.627  1.00  0.00    -0.300 N 
ATOM     40  C   UNL     1     -43.680  40.284  28.507  1.00  0.00     0.030 A 
ATOM     41  C   UNL     1     -44.477  41.222  26.635  1.00  0.00     0.151 A 
ATOM     42  C   UNL     1     -42.759  41.213  28.092  1.00  0.00     0.072 A 
ATOM     43  H   UNL     1     -43.658  39.659  29.387  1.00  0.00     0.084 H 
ATOM     44  C   UNL     1     -43.242  41.810  26.907  1.00  0.00     0.080 A 
ATOM     45  N   UNL     1     -45.246  41.519  25.567  1.00  0.00    -0.218 NA
ATOM     46  Cl  UNL     1     -41.298  41.581  28.881  1.00  0.00    -0.082 Cl
ATOM     47  C   UNL     1     -42.787  42.790  26.010  1.00  0.00     0.137 A 
ATOM     48  C   UNL     1     -44.714  42.466  24.786  1.00  0.00     0.120 A 
ATOM     49  N   UNL     1     -43.551  43.114  24.952  1.00  0.00    -0.219 NA
ATOM     50  H   UNL     1     -45.293  42.747  23.911  1.00  0.00     0.106 H 
BRANCH  47  51
ATOM     51  N   UNL     1     -41.586  43.466  26.142  1.00  0.00    -0.383 N 
ATOM     52  H   UNL     1     -40.943  43.241  25.393  1.00  0.00     0.158 HD
ATOM     53  H   UNL     1     -41.652  44.435  26.422  1.00  0.00     0.158 HD
ENDBRANCH  47  51
ENDBRANCH  34  39
ENDBRANCH  26  29
ENDBRANCH   1  26
TORSDOF 8
ENDMDL
MODEL 3
REMARK VINA RESULT:      -9.9      1.983      3.131
REMARK SMILES CCNc1ccc2ccc(OCc3cccc(-n4cc(Cl)c5c(N)ncnc54)c3)cc2n1
REMARK SMILES IDX 11 1 10 2 4 3 5 4 32 5 6 6 31 8 7 9 30 11 8 12 9 14 3 17
REMARK SMILES IDX 2 19 1 22 12 26 13 29 14 30 29 31 15 32 17 34 16 36 18 39
REMARK SMILES IDX 19 40 28 41 20 42 22 44 27 45 21 46 23 47 26 48 25 49 24 51
REMARK H PARENT 5 7 6 10 30 13 8 15 9 16 3 18 2 20 2 21 1 23 1 24 1 25 12 27
REMARK H PARENT 12 28 14 33 29 35 15 37 16 38 19 43 26 50 24 52 24 53
REMARK Flexibility Score: inf
ROOT
ATOM      1  O   UNL     1     -46.221  36.031  26.686  1.00  0.00    -0.489 OA
ENDROOT
BRANCH   1   2
ATOM      2  C   UNL     1     -46.876  34.903  26.276  1.00  0.00     0.122 A 
ATOM      3  C   UNL     1     -47.298  30.785  23.925  1.00  0.00     0.126 A 
ATOM      4  C   UNL     1     -48.611  30.621  24.353  1.00  0.00    -0.019 A 
ATOM      5  N   UNL     1     -46.570  31.861  24.284  1.00  0.00    -0.231 NA
ATOM      6  C   UNL     1     -49.186  31.580  25.179  1.00  0.00    -0.049 A 
ATOM      7  H   UNL     1     -49.189  29.761  24.032  1.00  0.00     0.066 H 
ATOM      8  C   UNL     1     -47.119  32.796  25.081  1.00  0.00     0.076 A 
ATOM      9  C   UNL     1     -48.437  32.695  25.562  1.00  0.00     0.001 A 
ATOM     10  H   UNL     1     -50.213  31.454  25.512  1.00  0.00     0.063 H 
ATOM     11  C   UNL     1     -46.362  33.903  25.447  1.00  0.00     0.007 A 
ATOM     12  C   UNL     1     -48.968  33.696  26.389  1.00  0.00    -0.049 A 
ATOM     13  H   UNL     1     -45.356  33.960  25.044  1.00  0.00     0.069 H 
ATOM     14  C   UNL     1     -48.186  34.794  26.740  1.00  0.00    -0.019 A 
ATOM     15  H   UNL     1     -49.987  33.628  26.760  1.00  0.00     0.063 H 
ATOM     16  H   UNL     1     -48.601  35.569  27.381  1.00  0.00     0.066 H 
BRANCH   3  17
ATOM     17  N   UNL     1     -46.762  29.806  23.070  1.00  0.00    -0.370 N 
ATOM     18  H   UNL     1     -46.719  28.928  23.580  1.00  0.00     0.162 HD
BRANCH  17  19
ATOM     19  C   UNL     1     -45.479  30.129  22.450  1.00  0.00     0.013 C 
ATOM     20  H   UNL     1     -45.597  30.633  21.483  1.00  0.00     0.049 H 
ATOM     21  H   UNL     1     -44.966  30.845  23.103  1.00  0.00     0.049 H 
BRANCH  19  22
ATOM     22  C   UNL     1     -44.598  28.895  22.329  1.00  0.00    -0.048 C 
ATOM     23  H   UNL     1     -43.538  29.167  22.360  1.00  0.00     0.025 H 
ATOM     24  H   UNL     1     -44.780  28.182  23.139  1.00  0.00     0.025 H 
ATOM     25  H   UNL     1     -44.792  28.384  21.381  1.00  0.00     0.025 H 
ENDBRANCH  19  22
ENDBRANCH  17  19
ENDBRANCH   3  17
ENDBRANCH   1   2
BRANCH   1  26
ATOM     26  C   UNL     1     -46.535  36.577  27.971  1.00  0.00     0.113 C 
ATOM     27  H   UNL     1     -47.513  37.061  27.872  1.00  0.00     0.076 H 
ATOM     28  H   UNL     1     -46.664  35.779  28.713  1.00  0.00     0.076 H 
BRANCH  26  29
ATOM     29  C   UNL     1     -45.555  37.634  28.431  1.00  0.00    -0.009 A 
ATOM     30  C   UNL     1     -44.939  37.512  29.681  1.00  0.00    -0.055 A 
ATOM     31  C   UNL     1     -45.288  38.774  27.649  1.00  0.00    -0.031 A 
ATOM     32  C   UNL     1     -44.060  38.493  30.129  1.00  0.00    -0.060 A 
ATOM     33  H   UNL     1     -45.138  36.650  30.315  1.00  0.00     0.063 H 
ATOM     34  C   UNL     1     -44.396  39.771  28.087  1.00  0.00     0.047 A 
ATOM     35  H   UNL     1     -45.814  38.860  26.703  1.00  0.00     0.065 H 
ATOM     36  C   UNL     1     -43.787  39.613  29.337  1.00  0.00    -0.038 A 
ATOM     37  H   UNL     1     -43.574  38.388  31.096  1.00  0.00     0.062 H 
ATOM     38  H   UNL     1     -43.072  40.328  29.729  1.00  0.00     0.064 H 
BRANCH  34  39
ATOM     39  N   UNL     1     -44.120  40.911  27.256  1.00  0.00    -0.300 N 
ATOM     40  C   UNL     1     -42.852  41.322  26.875  1.00  0.00     0.030 A 
ATOM     41  C   UNL     1     -45.030  41.808  26.686  1.00  0.00     0.151 A 
ATOM     42  C   UNL     1     -42.953  42.447  26.095  1.00  0.00     0.072 A 
ATOM     43  H   UNL     1     -41.961  40.812  27.211  1.00  0.00     0.084 H 
ATOM     44  C   UNL     1     -44.322  42.764  25.959  1.00  0.00     0.080 A 
ATOM     45  N   UNL     1     -46.376  41.764  26.784  1.00  0.00    -0.218 NA
ATOM     46  Cl  UNL     1     -41.649  43.307  25.422  1.00  0.00    -0.082 Cl
ATOM     47  C   UNL     1     -45.071  43.753  25.302  1.00  0.00     0.137 A 
ATOM     48  C   UNL     1     -46.981  42.756  26.121  1.00  0.00     0.120 A 
ATOM     49  N   UNL     1     -46.411  43.737  25.405  1.00  0.00    -0.219 NA
ATOM     50  H   UNL     1     -48.066  42.771  26.167  1.00  0.00     0.106 H 
BRANCH  47  51
ATOM     51  N   UNL     1     -44.517  44.770  24.543  1.00  0.00    -0.383 N 
ATOM     52  H   UNL     1     -44.501  44.539  23.557  1.00  0.00     0.158 HD
ATOM     53  H   UNL     1     -44.790  45.711  24.794  1.00  0.00     0.158 HD
ENDBRANCH  47  51
ENDBRANCH  34  39
ENDBRANCH  26  29
ENDBRANCH   1  26
TORSDOF 8
ENDMDL
MODEL 4
REMARK VINA RESULT:      -9.9      2.828     10.833
REMARK SMILES CCNc1ccc2ccc(OCc3cccc(-n4cc(Cl)c5c(N)ncnc54)c3)cc2n1
REMARK SMILES IDX 11 1 10 2 4 3 5 4 32 5 6 6 31 8 7 9 30 11 8 12 9 14 3 17
REMARK SMILES IDX 2 19 1 22 12 26 13 29 14 30 29 31 15 32 17 34 16 36 18 39
REMARK SMILES IDX 19 40 28 41 20 42 22 44 27 45 21 46 23 47 26 48 25 49 24 51
REMARK H PARENT 5 7 6 10 30 13 8 15 9 16 3 18 2 20 2 21 1 23 1 24 1 25 12 27
REMARK H PARENT 12 28 14 33 29 35 15 37 16 38 19 43 26 50 24 52 24 53
REMARK Flexibility Score: inf
ROOT
ATOM      1  O   UNL     1     -46.740  37.712  27.977  1.00  0.00    -0.489 OA
ENDROOT
BRANCH   1   2
ATOM      2  C   UNL     1     -45.662  38.488  28.303  1.00  0.00     0.122 A 
ATOM      3  C   UNL     1     -42.462  41.936  27.575  1.00  0.00     0.126 A 
ATOM      4  C   UNL     1     -41.823  41.662  28.779  1.00  0.00    -0.019 A 
ATOM      5  N   UNL     1     -43.537  41.230  27.172  1.00  0.00    -0.231 NA
ATOM      6  C   UNL     1     -42.307  40.647  29.595  1.00  0.00    -0.049 A 
ATOM      7  H   UNL     1     -40.942  42.224  29.073  1.00  0.00     0.066 H 
ATOM      8  C   UNL     1     -44.012  40.244  27.954  1.00  0.00     0.076 A 
ATOM      9  C   UNL     1     -43.425  39.914  29.189  1.00  0.00     0.001 A 
ATOM     10  H   UNL     1     -41.807  40.430  30.535  1.00  0.00     0.063 H 
ATOM     11  C   UNL     1     -45.122  39.519  27.532  1.00  0.00     0.007 A 
ATOM     12  C   UNL     1     -43.954  38.875  29.970  1.00  0.00    -0.049 A 
ATOM     13  H   UNL     1     -45.538  39.786  26.567  1.00  0.00     0.069 H 
ATOM     14  C   UNL     1     -45.067  38.167  29.522  1.00  0.00    -0.019 A 
ATOM     15  H   UNL     1     -43.503  38.611  30.923  1.00  0.00     0.063 H 
ATOM     16  H   UNL     1     -45.474  37.362  30.129  1.00  0.00     0.066 H 
BRANCH   3  17
ATOM     17  N   UNL     1     -41.925  42.954  26.766  1.00  0.00    -0.370 N 
ATOM     18  H   UNL     1     -41.393  43.584  27.361  1.00  0.00     0.162 HD
BRANCH  17  19
ATOM     19  C   UNL     1     -42.879  43.680  25.932  1.00  0.00     0.013 C 
ATOM     20  H   UNL     1     -42.386  44.267  25.147  1.00  0.00     0.049 H 
ATOM     21  H   UNL     1     -43.498  42.939  25.412  1.00  0.00     0.049 H 
BRANCH  19  22
ATOM     22  C   UNL     1     -43.802  44.546  26.776  1.00  0.00    -0.048 C 
ATOM     23  H   UNL     1     -44.716  44.795  26.225  1.00  0.00     0.025 H 
ATOM     24  H   UNL     1     -44.100  44.045  27.701  1.00  0.00     0.025 H 
ATOM     25  H   UNL     1     -43.301  45.481  27.045  1.00  0.00     0.025 H 
ENDBRANCH  19  22
ENDBRANCH  17  19
ENDBRANCH   3  17
ENDBRANCH   1   2
BRANCH   1  26
ATOM     26  C   UNL     1     -46.715  36.990  26.743  1.00  0.00     0.113 C 
ATOM     27  H   UNL     1     -47.679  37.176  26.254  1.00  0.00     0.076 H 
ATOM     28  H   UNL     1     -45.949  37.394  26.068  1.00  0.00     0.076 H 
BRANCH  26  29
ATOM     29  C   UNL     1     -46.586  35.493  26.924  1.00  0.00    -0.009 A 
ATOM     30  C   UNL     1     -46.202  34.975  28.165  1.00  0.00    -0.055 A 
ATOM     31  C   UNL     1     -46.792  34.606  25.850  1.00  0.00    -0.031 A 
ATOM     32  C   UNL     1     -46.050  33.602  28.336  1.00  0.00    -0.060 A 
ATOM     33  H   UNL     1     -46.020  35.638  29.009  1.00  0.00     0.063 H 
ATOM     34  C   UNL     1     -46.649  33.215  26.010  1.00  0.00     0.047 A 
ATOM     35  H   UNL     1     -47.049  35.042  24.890  1.00  0.00     0.065 H 
ATOM     36  C   UNL     1     -46.275  32.727  27.268  1.00  0.00    -0.038 A 
ATOM     37  H   UNL     1     -45.763  33.203  29.305  1.00  0.00     0.062 H 
ATOM     38  H   UNL     1     -46.168  31.668  27.472  1.00  0.00     0.064 H 
BRANCH  34  39
ATOM     39  N   UNL     1     -46.894  32.329  24.905  1.00  0.00    -0.300 N 
ATOM     40  C   UNL     1     -45.912  31.814  24.072  1.00  0.00     0.030 A 
ATOM     41  C   UNL     1     -48.120  31.828  24.453  1.00  0.00     0.151 A 
ATOM     42  C   UNL     1     -46.495  31.016  23.120  1.00  0.00     0.072 A 
ATOM     43  H   UNL     1     -44.871  32.074  24.189  1.00  0.00     0.084 H 
ATOM     44  C   UNL     1     -47.889  31.007  23.349  1.00  0.00     0.080 A 
ATOM     45  N   UNL     1     -49.335  32.059  24.992  1.00  0.00    -0.218 NA
ATOM     46  Cl  UNL     1     -45.675  30.195  21.877  1.00  0.00    -0.082 Cl
ATOM     47  C   UNL     1     -49.007  30.400  22.757  1.00  0.00     0.137 A 
ATOM     48  C   UNL     1     -50.324  31.432  24.344  1.00  0.00     0.120 A 
ATOM     49  N   UNL     1     -50.228  30.637  23.268  1.00  0.00    -0.219 NA
ATOM     50  H   UNL     1     -51.325  31.584  24.734  1.00  0.00     0.106 H 
BRANCH  47  51
ATOM     51  N   UNL     1     -48.944  29.562  21.656  1.00  0.00    -0.383 N 
ATOM     52  H   UNL     1     -49.853  29.187  21.415  1.00  0.00     0.158 HD
ATOM     53  H   UNL     1     -48.354  29.873  20.896  1.00  0.00     0.158 HD
ENDBRANCH  47  51
ENDBRANCH  34  39
ENDBRANCH  26  29
ENDBRANCH   1  26
TORSDOF 8
ENDMDL
MODEL 5
REMARK VINA RESULT:      -9.8      1.693      2.363
REMARK SMILES CCNc1ccc2ccc(OCc3cccc(-n4cc(Cl)c5c(N)ncnc54)c3)cc2n1
REMARK SMILES IDX 11 1 10 2 4 3 5 4 32 5 6 6 31 8 7 9 30 11 8 12 9 14 3 17
REMARK SMILES IDX 2 19 1 22 12 26 13 29 14 30 29 31 15 32 17 34 16 36 18 39
REMARK SMILES IDX 19 40 28 41 20 42 22 44 27 45 21 46 23 47 26 48 25 49 24 51
REMARK H PARENT 5 7 6 10 30 13 8 15 9 16 3 18 2 20 2 21 1 23 1 24 1 25 12 27
REMARK H PARENT 12 28 14 33 29 35 15 37 16 38 19 43 26 50 24 52 24 53
REMARK Flexibility Score: inf
ROOT
ATOM      1  O   UNL     1     -47.641  34.334  27.171  1.00  0.00    -0.489 OA
ENDROOT
BRANCH   1   2
ATOM      2  C   UNL     1     -47.572  33.289  26.291  1.00  0.00     0.122 A 
ATOM      3  C   UNL     1     -48.858  29.061  24.520  1.00  0.00     0.126 A 
ATOM      4  C   UNL     1     -47.890  29.132  23.524  1.00  0.00    -0.019 A 
ATOM      5  N   UNL     1     -49.006  30.047  25.428  1.00  0.00    -0.231 NA
ATOM      6  C   UNL     1     -47.063  30.246  23.451  1.00  0.00    -0.049 A 
ATOM      7  H   UNL     1     -47.769  28.316  22.819  1.00  0.00     0.066 H 
ATOM      8  C   UNL     1     -48.209  31.128  25.367  1.00  0.00     0.076 A 
ATOM      9  C   UNL     1     -47.214  31.276  24.384  1.00  0.00     0.001 A 
ATOM     10  H   UNL     1     -46.305  30.300  22.674  1.00  0.00     0.063 H 
ATOM     11  C   UNL     1     -48.367  32.141  26.307  1.00  0.00     0.007 A 
ATOM     12  C   UNL     1     -46.403  32.420  24.361  1.00  0.00    -0.049 A 
ATOM     13  H   UNL     1     -49.130  31.988  27.063  1.00  0.00     0.069 H 
ATOM     14  C   UNL     1     -46.586  33.419  25.315  1.00  0.00    -0.019 A 
ATOM     15  H   UNL     1     -45.630  32.539  23.607  1.00  0.00     0.063 H 
ATOM     16  H   UNL     1     -45.955  34.306  25.295  1.00  0.00     0.066 H 
BRANCH   3  17
ATOM     17  N   UNL     1     -49.657  27.906  24.576  1.00  0.00    -0.370 N 
ATOM     18  H   UNL     1     -50.609  28.166  24.329  1.00  0.00     0.162 HD
BRANCH  17  19
ATOM     19  C   UNL     1     -49.613  27.155  25.828  1.00  0.00     0.013 C 
ATOM     20  H   UNL     1     -49.629  27.809  26.708  1.00  0.00     0.049 H 
ATOM     21  H   UNL     1     -50.526  26.550  25.884  1.00  0.00     0.049 H 
BRANCH  19  22
ATOM     22  C   UNL     1     -48.424  26.207  25.861  1.00  0.00    -0.048 C 
ATOM     23  H   UNL     1     -47.489  26.759  26.004  1.00  0.00     0.025 H 
ATOM     24  H   UNL     1     -48.506  25.477  26.673  1.00  0.00     0.025 H 
ATOM     25  H   UNL     1     -48.354  25.656  24.919  1.00  0.00     0.025 H 
ENDBRANCH  19  22
ENDBRANCH  17  19
ENDBRANCH   3  17
ENDBRANCH   1   2
BRANCH   1  26
ATOM     26  C   UNL     1     -46.465  35.117  27.397  1.00  0.00     0.113 C 
ATOM     27  H   UNL     1     -46.003  34.727  28.311  1.00  0.00     0.076 H 
ATOM     28  H   UNL     1     -45.731  34.961  26.595  1.00  0.00     0.076 H 
BRANCH  26  29
ATOM     29  C   UNL     1     -46.755  36.584  27.631  1.00  0.00    -0.009 A 
ATOM     30  C   UNL     1     -48.073  37.008  27.823  1.00  0.00    -0.055 A 
ATOM     31  C   UNL     1     -45.727  37.546  27.603  1.00  0.00    -0.031 A 
ATOM     32  C   UNL     1     -48.355  38.358  28.009  1.00  0.00    -0.060 A 
ATOM     33  H   UNL     1     -48.891  36.290  27.833  1.00  0.00     0.063 H 
ATOM     34  C   UNL     1     -45.997  38.913  27.796  1.00  0.00     0.047 A 
ATOM     35  H   UNL     1     -44.720  37.188  27.409  1.00  0.00     0.065 H 
ATOM     36  C   UNL     1     -47.325  39.305  27.999  1.00  0.00    -0.038 A 
ATOM     37  H   UNL     1     -49.381  38.683  28.171  1.00  0.00     0.062 H 
ATOM     38  H   UNL     1     -47.606  40.336  28.177  1.00  0.00     0.064 H 
BRANCH  34  39
ATOM     39  N   UNL     1     -44.925  39.871  27.792  1.00  0.00    -0.300 N 
ATOM     40  C   UNL     1     -43.879  39.890  28.702  1.00  0.00     0.030 A 
ATOM     41  C   UNL     1     -44.723  40.940  26.912  1.00  0.00     0.151 A 
ATOM     42  C   UNL     1     -43.044  40.940  28.413  1.00  0.00     0.072 A 
ATOM     43  H   UNL     1     -43.816  39.180  29.513  1.00  0.00     0.084 H 
ATOM     44  C   UNL     1     -43.557  41.610  27.281  1.00  0.00     0.080 A 
ATOM     45  N   UNL     1     -45.494  41.274  25.856  1.00  0.00    -0.218 NA
ATOM     46  Cl  UNL     1     -41.643  41.360  29.282  1.00  0.00    -0.082 Cl
ATOM     47  C   UNL     1     -43.181  42.717  26.504  1.00  0.00     0.137 A 
ATOM     48  C   UNL     1     -45.040  42.344  25.193  1.00  0.00     0.120 A 
ATOM     49  N   UNL     1     -43.949  43.077  25.462  1.00  0.00    -0.219 NA
ATOM     50  H   UNL     1     -45.624  42.659  24.335  1.00  0.00     0.106 H 
BRANCH  47  51
ATOM     51  N   UNL     1     -42.054  43.486  26.743  1.00  0.00    -0.383 N 
ATOM     52  H   UNL     1     -41.309  43.274  26.092  1.00  0.00     0.158 HD
ATOM     53  H   UNL     1     -42.220  44.461  26.957  1.00  0.00     0.158 HD
ENDBRANCH  47  51
ENDBRANCH  34  39
ENDBRANCH  26  29
ENDBRANCH   1  26
TORSDOF 8
ENDMDL
MODEL 6
REMARK VINA RESULT:      -9.7      1.858      2.619
REMARK SMILES CCNc1ccc2ccc(OCc3cccc(-n4cc(Cl)c5c(N)ncnc54)c3)cc2n1
REMARK SMILES IDX 11 1 10 2 4 3 5 4 32 5 6 6 31 8 7 9 30 11 8 12 9 14 3 17
REMARK SMILES IDX 2 19 1 22 12 26 13 29 14 30 29 31 15 32 17 34 16 36 18 39
REMARK SMILES IDX 19 40 28 41 20 42 22 44 27 45 21 46 23 47 26 48 25 49 24 51
REMARK H PARENT 5 7 6 10 30 13 8 15 9 16 3 18 2 20 2 21 1 23 1 24 1 25 12 27
REMARK H PARENT 12 28 14 33 29 35 15 37 16 38 19 43 26 50 24 52 24 53
REMARK Flexibility Score: inf
ROOT
ATOM      1  O   UNL     1     -45.702  33.569  26.588  1.00  0.00    -0.489 OA
ENDROOT
BRANCH   1   2
ATOM      2  C   UNL     1     -46.527  32.756  25.860  1.00  0.00     0.122 A 
ATOM      3  C   UNL     1     -48.070  30.635  21.887  1.00  0.00     0.126 A 
ATOM      4  C   UNL     1     -49.114  30.018  22.567  1.00  0.00    -0.019 A 
ATOM      5  N   UNL     1     -47.201  31.448  22.521  1.00  0.00    -0.231 NA
ATOM      6  C   UNL     1     -49.263  30.230  23.932  1.00  0.00    -0.049 A 
ATOM      7  H   UNL     1     -49.819  29.389  22.034  1.00  0.00     0.066 H 
ATOM      8  C   UNL     1     -47.338  31.662  23.843  1.00  0.00     0.076 A 
ATOM      9  C   UNL     1     -48.363  31.065  24.599  1.00  0.00     0.001 A 
ATOM     10  H   UNL     1     -50.081  29.750  24.463  1.00  0.00     0.063 H 
ATOM     11  C   UNL     1     -46.438  32.501  24.490  1.00  0.00     0.007 A 
ATOM     12  C   UNL     1     -48.469  31.320  25.975  1.00  0.00    -0.049 A 
ATOM     13  H   UNL     1     -45.671  32.960  23.875  1.00  0.00     0.069 H 
ATOM     14  C   UNL     1     -47.552  32.164  26.597  1.00  0.00    -0.019 A 
ATOM     15  H   UNL     1     -49.260  30.867  26.565  1.00  0.00     0.063 H 
ATOM     16  H   UNL     1     -47.636  32.360  27.664  1.00  0.00     0.066 H 
BRANCH   3  17
ATOM     17  N   UNL     1     -47.970  30.416  20.502  1.00  0.00    -0.370 N 
ATOM     18  H   UNL     1     -47.241  29.725  20.342  1.00  0.00     0.162 HD
BRANCH  17  19
ATOM     19  C   UNL     1     -47.772  31.605  19.677  1.00  0.00     0.013 C 
ATOM     20  H   UNL     1     -48.301  31.540  18.718  1.00  0.00     0.049 H 
ATOM     21  H   UNL     1     -48.214  32.455  20.209  1.00  0.00     0.049 H 
BRANCH  19  22
ATOM     22  C   UNL     1     -46.293  31.898  19.476  1.00  0.00    -0.048 C 
ATOM     23  H   UNL     1     -45.834  32.242  20.409  1.00  0.00     0.025 H 
ATOM     24  H   UNL     1     -45.743  31.013  19.143  1.00  0.00     0.025 H 
ATOM     25  H   UNL     1     -46.162  32.680  18.722  1.00  0.00     0.025 H 
ENDBRANCH  19  22
ENDBRANCH  17  19
ENDBRANCH   3  17
ENDBRANCH   1   2
BRANCH   1  26
ATOM     26  C   UNL     1     -46.173  34.080  27.838  1.00  0.00     0.113 C 
ATOM     27  H   UNL     1     -47.012  33.442  28.139  1.00  0.00     0.076 H 
ATOM     28  H   UNL     1     -45.410  33.969  28.619  1.00  0.00     0.076 H 
BRANCH  26  29
ATOM     29  C   UNL     1     -46.699  35.497  27.749  1.00  0.00    -0.009 A 
ATOM     30  C   UNL     1     -48.078  35.724  27.699  1.00  0.00    -0.055 A 
ATOM     31  C   UNL     1     -45.824  36.597  27.659  1.00  0.00    -0.031 A 
ATOM     32  C   UNL     1     -48.572  37.020  27.586  1.00  0.00    -0.060 A 
ATOM     33  H   UNL     1     -48.778  34.892  27.750  1.00  0.00     0.063 H 
ATOM     34  C   UNL     1     -46.310  37.913  27.551  1.00  0.00     0.047 A 
ATOM     35  H   UNL     1     -44.759  36.384  27.658  1.00  0.00     0.065 H 
ATOM     36  C   UNL     1     -47.696  38.108  27.516  1.00  0.00    -0.038 A 
ATOM     37  H   UNL     1     -49.645  37.192  27.560  1.00  0.00     0.062 H 
ATOM     38  H   UNL     1     -48.143  39.094  27.457  1.00  0.00     0.064 H 
BRANCH  34  39
ATOM     39  N   UNL     1     -45.395  39.020  27.490  1.00  0.00    -0.300 N 
ATOM     40  C   UNL     1     -45.341  39.945  26.458  1.00  0.00     0.030 A 
ATOM     41  C   UNL     1     -44.408  39.379  28.414  1.00  0.00     0.151 A 
ATOM     42  C   UNL     1     -44.349  40.857  26.716  1.00  0.00     0.072 A 
ATOM     43  H   UNL     1     -45.985  39.875  25.594  1.00  0.00     0.084 H 
ATOM     44  C   UNL     1     -43.753  40.520  27.951  1.00  0.00     0.080 A 
ATOM     45  N   UNL     1     -44.132  38.761  29.582  1.00  0.00    -0.218 NA
ATOM     46  Cl  UNL     1     -43.912  42.158  25.710  1.00  0.00    -0.082 Cl
ATOM     47  C   UNL     1     -42.726  41.040  28.755  1.00  0.00     0.137 A 
ATOM     48  C   UNL     1     -43.136  39.343  30.260  1.00  0.00     0.120 A 
ATOM     49  N   UNL     1     -42.423  40.424  29.911  1.00  0.00    -0.219 NA
ATOM     50  H   UNL     1     -42.869  38.884  31.207  1.00  0.00     0.106 H 
BRANCH  47  51
ATOM     51  N   UNL     1     -41.982  42.163  28.433  1.00  0.00    -0.383 N 
ATOM     52  H   UNL     1     -42.561  42.902  28.054  1.00  0.00     0.158 HD
ATOM     53  H   UNL     1     -41.269  42.428  29.099  1.00  0.00     0.158 HD
ENDBRANCH  47  51
ENDBRANCH  34  39
ENDBRANCH  26  29
ENDBRANCH   1  26
TORSDOF 8
ENDMDL
MODEL 7
REMARK VINA RESULT:      -9.7      3.012     10.737
REMARK SMILES CCNc1ccc2ccc(OCc3cccc(-n4cc(Cl)c5c(N)ncnc54)c3)cc2n1
REMARK SMILES IDX 11 1 10 2 4 3 5 4 32 5 6 6 31 8 7 9 30 11 8 12 9 14 3 17
REMARK SMILES IDX 2 19 1 22 12 26 13 29 14 30 29 31 15 32 17 34 16 36 18 39
REMARK SMILES IDX 19 40 28 41 20 42 22 44 27 45 21 46 23 47 26 48 25 49 24 51
REMARK H PARENT 5 7 6 10 30 13 8 15 9 16 3 18 2 20 2 21 1 23 1 24 1 25 12 27
REMARK H PARENT 12 28 14 33 29 35 15 37 16 38 19 43 26 50 24 52 24 53
REMARK Flexibility Score: inf
ROOT
ATOM      1  O   UNL     1     -46.820  37.728  26.522  1.00  0.00    -0.489 OA
ENDROOT
BRANCH   1   2
ATOM      2  C   UNL     1     -45.856  38.522  27.080  1.00  0.00     0.122 A 
ATOM      3  C   UNL     1     -42.632  42.025  27.075  1.00  0.00     0.126 A 
ATOM      4  C   UNL     1     -42.277  41.763  28.393  1.00  0.00    -0.019 A 
ATOM      5  N   UNL     1     -43.577  41.300  26.443  1.00  0.00    -0.231 NA
ATOM      6  C   UNL     1     -42.915  40.740  29.084  1.00  0.00    -0.049 A 
ATOM      7  H   UNL     1     -41.495  42.340  28.876  1.00  0.00     0.066 H 
ATOM      8  C   UNL     1     -44.199  40.306  27.103  1.00  0.00     0.076 A 
ATOM      9  C   UNL     1     -43.901  39.987  28.440  1.00  0.00     0.001 A 
ATOM     10  H   UNL     1     -42.636  40.532  30.114  1.00  0.00     0.063 H 
ATOM     11  C   UNL     1     -45.173  39.562  26.446  1.00  0.00     0.007 A 
ATOM     12  C   UNL     1     -44.573  38.939  29.086  1.00  0.00    -0.049 A 
ATOM     13  H   UNL     1     -45.366  39.821  25.410  1.00  0.00     0.069 H 
ATOM     14  C   UNL     1     -45.545  38.212  28.403  1.00  0.00    -0.019 A 
ATOM     15  H   UNL     1     -44.345  38.684  30.118  1.00  0.00     0.063 H 
ATOM     16  H   UNL     1     -46.065  37.400  28.906  1.00  0.00     0.066 H 
BRANCH   3  17
ATOM     17  N   UNL     1     -41.945  43.051  26.404  1.00  0.00    -0.370 N 
ATOM     18  H   UNL     1     -41.450  43.608  27.096  1.00  0.00     0.162 HD
BRANCH  17  19
ATOM     19  C   UNL     1     -42.749  43.889  25.517  1.00  0.00     0.013 C 
ATOM     20  H   UNL     1     -43.825  43.731  25.657  1.00  0.00     0.049 H 
ATOM     21  H   UNL     1     -42.559  44.935  25.786  1.00  0.00     0.049 H 
BRANCH  19  22
ATOM     22  C   UNL     1     -42.344  43.701  24.063  1.00  0.00    -0.048 C 
ATOM     23  H   UNL     1     -43.103  44.113  23.390  1.00  0.00     0.025 H 
ATOM     24  H   UNL     1     -41.396  44.197  23.836  1.00  0.00     0.025 H 
ATOM     25  H   UNL     1     -42.230  42.637  23.837  1.00  0.00     0.025 H 
ENDBRANCH  19  22
ENDBRANCH  17  19
ENDBRANCH   3  17
ENDBRANCH   1   2
BRANCH   1  26
ATOM     26  C   UNL     1     -47.580  36.870  27.379  1.00  0.00     0.113 C 
ATOM     27  H   UNL     1     -47.352  37.176  28.407  1.00  0.00     0.076 H 
ATOM     28  H   UNL     1     -48.656  37.038  27.244  1.00  0.00     0.076 H 
BRANCH  26  29
ATOM     29  C   UNL     1     -47.207  35.409  27.252  1.00  0.00    -0.009 A 
ATOM     30  C   UNL     1     -46.215  34.872  28.079  1.00  0.00    -0.055 A 
ATOM     31  C   UNL     1     -47.800  34.585  26.277  1.00  0.00    -0.031 A 
ATOM     32  C   UNL     1     -45.843  33.537  27.952  1.00  0.00    -0.060 A 
ATOM     33  H   UNL     1     -45.728  35.489  28.832  1.00  0.00     0.063 H 
ATOM     34  C   UNL     1     -47.437  33.232  26.140  1.00  0.00     0.047 A 
ATOM     35  H   UNL     1     -48.536  35.043  25.623  1.00  0.00     0.065 H 
ATOM     36  C   UNL     1     -46.450  32.721  26.992  1.00  0.00    -0.038 A 
ATOM     37  H   UNL     1     -45.080  33.121  28.605  1.00  0.00     0.062 H 
ATOM     38  H   UNL     1     -46.136  31.684  26.961  1.00  0.00     0.064 H 
BRANCH  34  39
ATOM     39  N   UNL     1     -48.079  32.405  25.156  1.00  0.00    -0.300 N 
ATOM     40  C   UNL     1     -49.447  32.197  25.069  1.00  0.00     0.030 A 
ATOM     41  C   UNL     1     -47.485  31.665  24.127  1.00  0.00     0.151 A 
ATOM     42  C   UNL     1     -49.713  31.349  24.023  1.00  0.00     0.072 A 
ATOM     43  H   UNL     1     -50.137  32.636  25.774  1.00  0.00     0.084 H 
ATOM     44  C   UNL     1     -48.486  31.008  23.412  1.00  0.00     0.080 A 
ATOM     45  N   UNL     1     -46.169  31.602  23.833  1.00  0.00    -0.218 NA
ATOM     46  Cl  UNL     1     -51.255  30.800  23.559  1.00  0.00    -0.082 Cl
ATOM     47  C   UNL     1     -48.083  30.215  22.326  1.00  0.00     0.137 A 
ATOM     48  C   UNL     1     -45.905  30.816  22.783  1.00  0.00     0.120 A 
ATOM     49  N   UNL     1     -46.774  30.123  22.032  1.00  0.00    -0.219 NA
ATOM     50  H   UNL     1     -44.860  30.726  22.503  1.00  0.00     0.106 H 
BRANCH  47  51
ATOM     51  N   UNL     1     -48.954  29.500  21.521  1.00  0.00    -0.383 N 
ATOM     52  H   UNL     1     -48.862  29.756  20.546  1.00  0.00     0.158 HD
ATOM     53  H   UNL     1     -49.049  28.516  21.735  1.00  0.00     0.158 HD
ENDBRANCH  47  51
ENDBRANCH  34  39
ENDBRANCH  26  29
ENDBRANCH   1  26
TORSDOF 8
ENDMDL
