MODEL 1
REMARK VINA RESULT:     -10.8      0.000      0.000
REMARK SMILES O=C(NCc1cc2[nH]c(CNC[C@]34C[C@](F)(C3)C4)cc2cn1)c1cc(=O)n2ccccc2n1
REMARK SMILES IDX 5 1 6 2 7 3 8 4 9 5 19 6 20 7 21 8 22 9 4 14 3 17 1 18 2 19
REMARK SMILES IDX 23 21 24 22 33 23 25 24 32 26 26 27 27 28 31 29 28 30 30 31
REMARK SMILES IDX 29 33 10 37 11 40 12 42 13 45 14 46 18 47 17 48 15 49 16 56
REMARK H PARENT 6 10 8 11 19 12 21 13 4 15 4 16 3 20 24 25 31 32 28 34 30 35
REMARK H PARENT 29 36 10 38 10 39 11 41 12 43 12 44 14 50 14 51 18 52 18 53
REMARK H PARENT 17 54 17 55
REMARK Flexibility Score: inf
ROOT
ATOM      1  C   UNL     1     -47.780  34.714  26.736  1.00  0.00     0.062 A 
ATOM      2  C   UNL     1     -48.758  33.795  26.357  1.00  0.00    -0.014 A 
ATOM      3  C   UNL     1     -48.333  32.778  25.502  1.00  0.00     0.049 A 
ATOM      4  N   UNL     1     -49.027  31.729  24.944  1.00  0.00    -0.357 N 
ATOM      5  C   UNL     1     -48.193  30.963  24.165  1.00  0.00     0.030 A 
ATOM      6  C   UNL     1     -46.941  31.547  24.212  1.00  0.00    -0.031 A 
ATOM      7  C   UNL     1     -47.017  32.688  25.057  1.00  0.00     0.018 A 
ATOM      8  C   UNL     1     -46.099  33.653  25.484  1.00  0.00     0.037 A 
ATOM      9  N   UNL     1     -46.484  34.652  26.316  1.00  0.00    -0.259 NA
ATOM     10  H   UNL     1     -49.781  33.868  26.704  1.00  0.00     0.067 H 
ATOM     11  H   UNL     1     -50.011  31.549  25.092  1.00  0.00     0.166 HD
ATOM     12  H   UNL     1     -46.062  31.187  23.694  1.00  0.00     0.065 H 
ATOM     13  H   UNL     1     -45.059  33.651  25.181  1.00  0.00     0.085 H 
ENDROOT
BRANCH   1  14
ATOM     14  C   UNL     1     -48.167  35.848  27.665  1.00  0.00     0.060 C 
ATOM     15  H   UNL     1     -49.146  36.247  27.376  1.00  0.00     0.056 H 
ATOM     16  H   UNL     1     -48.229  35.482  28.695  1.00  0.00     0.056 H 
BRANCH  14  17
ATOM     17  N   UNL     1     -47.220  36.934  27.635  1.00  0.00    -0.345 N 
ATOM     18  O   UNL     1     -46.497  36.702  29.792  1.00  0.00    -0.268 OA
ATOM     19  C   UNL     1     -46.453  37.280  28.711  1.00  0.00     0.270 C 
ATOM     20  H   UNL     1     -47.130  37.463  26.770  1.00  0.00     0.164 HD
BRANCH  19  21
ATOM     21  C   UNL     1     -45.544  38.451  28.435  1.00  0.00     0.136 A 
ATOM     22  C   UNL     1     -45.814  39.166  27.340  1.00  0.00     0.035 A 
ATOM     23  N   UNL     1     -44.511  38.713  29.305  1.00  0.00    -0.225 NA
ATOM     24  C   UNL     1     -44.954  40.316  27.030  1.00  0.00     0.258 A 
ATOM     25  H   UNL     1     -46.628  38.951  26.661  1.00  0.00     0.071 H 
ATOM     26  C   UNL     1     -43.754  39.729  29.028  1.00  0.00     0.140 A 
ATOM     27  O   UNL     1     -45.196  40.979  26.023  1.00  0.00    -0.269 OA
ATOM     28  N   UNL     1     -43.921  40.556  27.923  1.00  0.00    -0.268 N 
ATOM     29  C   UNL     1     -42.624  40.048  29.946  1.00  0.00    -0.019 A 
ATOM     30  C   UNL     1     -43.065  41.629  27.698  1.00  0.00     0.014 A 
ATOM     31  C   UNL     1     -41.826  41.090  29.686  1.00  0.00    -0.057 A 
ATOM     32  H   UNL     1     -42.487  39.407  30.809  1.00  0.00     0.066 H 
ATOM     33  C   UNL     1     -42.052  41.909  28.526  1.00  0.00    -0.045 A 
ATOM     34  H   UNL     1     -43.254  42.234  26.814  1.00  0.00     0.082 H 
ATOM     35  H   UNL     1     -40.997  41.338  30.343  1.00  0.00     0.062 H 
ATOM     36  H   UNL     1     -41.389  42.749  28.340  1.00  0.00     0.064 H 
ENDBRANCH  19  21
ENDBRANCH  14  17
ENDBRANCH   1  14
BRANCH   5  37
ATOM     37  C   UNL     1     -48.686  29.759  23.438  1.00  0.00     0.036 C 
ATOM     38  H   UNL     1     -48.508  29.862  22.362  1.00  0.00     0.049 H 
ATOM     39  H   UNL     1     -49.775  29.694  23.555  1.00  0.00     0.049 H 
BRANCH  37  40
ATOM     40  N   UNL     1     -48.101  28.535  23.981  1.00  0.00    -0.311 NA
ATOM     41  H   UNL     1     -47.817  27.941  23.203  1.00  0.00     0.123 HD
BRANCH  40  42
ATOM     42  C   UNL     1     -49.011  27.778  24.840  1.00  0.00     0.002 C 
ATOM     43  H   UNL     1     -49.578  28.429  25.513  1.00  0.00     0.043 H 
ATOM     44  H   UNL     1     -49.754  27.301  24.191  1.00  0.00     0.043 H 
BRANCH  42  45
ATOM     45  C   UNL     1     -48.291  26.717  25.591  1.00  0.00    -0.008 C 
ATOM     46  C   UNL     1     -47.808  26.807  27.100  1.00  0.00    -0.012 C 
ATOM     47  C   UNL     1     -48.791  25.270  26.008  1.00  0.00    -0.012 C 
ATOM     48  C   UNL     1     -46.895  25.996  25.358  1.00  0.00    -0.012 C 
ATOM     49  C   UNL     1     -47.401  25.374  26.683  1.00  0.00     0.112 C 
ATOM     50  H   UNL     1     -48.587  26.903  27.864  1.00  0.00     0.031 H 
ATOM     51  H   UNL     1     -46.999  27.513  27.318  1.00  0.00     0.031 H 
ATOM     52  H   UNL     1     -49.663  25.219  26.669  1.00  0.00     0.031 H 
ATOM     53  H   UNL     1     -48.903  24.534  25.205  1.00  0.00     0.031 H 
ATOM     54  H   UNL     1     -46.001  26.625  25.411  1.00  0.00     0.031 H 
ATOM     55  H   UNL     1     -46.817  25.325  24.497  1.00  0.00     0.031 H 
ATOM     56  F   UNL     1     -46.796  24.463  27.427  1.00  0.00    -0.244 F 
ENDBRANCH  42  45
ENDBRANCH  40  42
ENDBRANCH  37  40
ENDBRANCH   5  37
TORSDOF 7
ENDMDL
MODEL 2
REMARK VINA RESULT:     -10.5      1.579      2.143
REMARK SMILES O=C(NCc1cc2[nH]c(CNC[C@]34C[C@](F)(C3)C4)cc2cn1)c1cc(=O)n2ccccc2n1
REMARK SMILES IDX 5 1 6 2 7 3 8 4 9 5 19 6 20 7 21 8 22 9 4 14 3 17 1 18 2 19
REMARK SMILES IDX 23 21 24 22 33 23 25 24 32 26 26 27 27 28 31 29 28 30 30 31
REMARK SMILES IDX 29 33 10 37 11 40 12 42 13 45 14 46 18 47 17 48 15 49 16 56
REMARK H PARENT 6 10 8 11 19 12 21 13 4 15 4 16 3 20 24 25 31 32 28 34 30 35
REMARK H PARENT 29 36 10 38 10 39 11 41 12 43 12 44 14 50 14 51 18 52 18 53
REMARK H PARENT 17 54 17 55
REMARK Flexibility Score: inf
ROOT
ATOM      1  C   UNL     1     -46.925  34.462  27.406  1.00  0.00     0.062 A 
ATOM      2  C   UNL     1     -46.002  33.663  26.730  1.00  0.00    -0.014 A 
ATOM      3  C   UNL     1     -46.536  32.798  25.776  1.00  0.00     0.049 A 
ATOM      4  N   UNL     1     -45.919  31.888  24.948  1.00  0.00    -0.357 N 
ATOM      5  C   UNL     1     -46.847  31.255  24.156  1.00  0.00     0.030 A 
ATOM      6  C   UNL     1     -48.087  31.758  24.500  1.00  0.00    -0.031 A 
ATOM      7  C   UNL     1     -47.902  32.735  25.515  1.00  0.00     0.018 A 
ATOM      8  C   UNL     1     -48.759  33.570  26.240  1.00  0.00     0.037 A 
ATOM      9  N   UNL     1     -48.268  34.423  27.173  1.00  0.00    -0.259 NA
ATOM     10  H   UNL     1     -44.940  33.713  26.936  1.00  0.00     0.067 H 
ATOM     11  H   UNL     1     -44.923  31.716  24.925  1.00  0.00     0.166 HD
ATOM     12  H   UNL     1     -49.030  31.456  24.062  1.00  0.00     0.065 H 
ATOM     13  H   UNL     1     -49.833  33.580  26.095  1.00  0.00     0.085 H 
ENDROOT
BRANCH   1  14
ATOM     14  C   UNL     1     -46.419  35.428  28.459  1.00  0.00     0.060 C 
ATOM     15  H   UNL     1     -47.144  35.498  29.277  1.00  0.00     0.056 H 
ATOM     16  H   UNL     1     -45.466  35.071  28.866  1.00  0.00     0.056 H 
BRANCH  14  17
ATOM     17  N   UNL     1     -46.210  36.755  27.936  1.00  0.00    -0.345 N 
ATOM     18  O   UNL     1     -44.932  37.517  29.672  1.00  0.00    -0.268 OA
ATOM     19  C   UNL     1     -45.478  37.704  28.590  1.00  0.00     0.270 C 
ATOM     20  H   UNL     1     -46.637  36.985  27.040  1.00  0.00     0.164 HD
BRANCH  19  21
ATOM     21  C   UNL     1     -45.409  39.013  27.844  1.00  0.00     0.136 A 
ATOM     22  C   UNL     1     -46.558  39.467  27.336  1.00  0.00     0.035 A 
ATOM     23  N   UNL     1     -44.197  39.652  27.729  1.00  0.00    -0.225 NA
ATOM     24  C   UNL     1     -46.539  40.738  26.601  1.00  0.00     0.258 A 
ATOM     25  H   UNL     1     -47.507  38.956  27.430  1.00  0.00     0.071 H 
ATOM     26  C   UNL     1     -44.184  40.774  27.079  1.00  0.00     0.140 A 
ATOM     27  O   UNL     1     -47.594  41.163  26.130  1.00  0.00    -0.269 OA
ATOM     28  N   UNL     1     -45.304  41.361  26.500  1.00  0.00    -0.268 N 
ATOM     29  C   UNL     1     -42.890  41.499  26.933  1.00  0.00    -0.019 A 
ATOM     30  C   UNL     1     -45.207  42.569  25.819  1.00  0.00     0.014 A 
ATOM     31  C   UNL     1     -42.846  42.660  26.267  1.00  0.00    -0.057 A 
ATOM     32  H   UNL     1     -42.013  41.049  27.381  1.00  0.00     0.066 H 
ATOM     33  C   UNL     1     -44.041  43.215  25.691  1.00  0.00    -0.045 A 
ATOM     34  H   UNL     1     -46.123  42.970  25.392  1.00  0.00     0.082 H 
ATOM     35  H   UNL     1     -41.913  43.203  26.150  1.00  0.00     0.062 H 
ATOM     36  H   UNL     1     -43.977  44.158  25.157  1.00  0.00     0.064 H 
ENDBRANCH  19  21
ENDBRANCH  14  17
ENDBRANCH   1  14
BRANCH   5  37
ATOM     37  C   UNL     1     -46.452  30.216  23.163  1.00  0.00     0.036 C 
ATOM     38  H   UNL     1     -45.456  30.430  22.761  1.00  0.00     0.049 H 
ATOM     39  H   UNL     1     -47.136  30.263  22.308  1.00  0.00     0.049 H 
BRANCH  37  40
ATOM     40  N   UNL     1     -46.540  28.874  23.737  1.00  0.00    -0.311 NA
ATOM     41  H   UNL     1     -45.903  28.263  23.227  1.00  0.00     0.123 HD
BRANCH  40  42
ATOM     42  C   UNL     1     -47.883  28.299  23.684  1.00  0.00     0.002 C 
ATOM     43  H   UNL     1     -48.659  29.069  23.630  1.00  0.00     0.043 H 
ATOM     44  H   UNL     1     -47.960  27.732  22.749  1.00  0.00     0.043 H 
BRANCH  42  45
ATOM     45  C   UNL     1     -48.120  27.369  24.819  1.00  0.00    -0.008 C 
ATOM     46  C   UNL     1     -47.083  26.312  25.390  1.00  0.00    -0.012 C 
ATOM     47  C   UNL     1     -48.377  27.699  26.349  1.00  0.00    -0.012 C 
ATOM     48  C   UNL     1     -49.180  26.210  25.053  1.00  0.00    -0.012 C 
ATOM     49  C   UNL     1     -48.303  26.154  26.328  1.00  0.00     0.112 C 
ATOM     50  H   UNL     1     -46.163  26.710  25.831  1.00  0.00     0.031 H 
ATOM     51  H   UNL     1     -46.836  25.464  24.743  1.00  0.00     0.031 H 
ATOM     52  H   UNL     1     -47.580  28.230  26.882  1.00  0.00     0.031 H 
ATOM     53  H   UNL     1     -49.343  28.150  26.603  1.00  0.00     0.031 H 
ATOM     54  H   UNL     1     -49.132  25.353  24.375  1.00  0.00     0.031 H 
ATOM     55  H   UNL     1     -50.225  26.509  25.188  1.00  0.00     0.031 H 
ATOM     56  F   UNL     1     -48.425  25.325  27.353  1.00  0.00    -0.244 F 
ENDBRANCH  42  45
ENDBRANCH  40  42
ENDBRANCH  37  40
ENDBRANCH   5  37
TORSDOF 7
ENDMDL
MODEL 3
REMARK VINA RESULT:      -9.9      2.045      3.398
REMARK SMILES O=C(NCc1cc2[nH]c(CNC[C@]34C[C@](F)(C3)C4)cc2cn1)c1cc(=O)n2ccccc2n1
REMARK SMILES IDX 5 1 6 2 7 3 8 4 9 5 19 6 20 7 21 8 22 9 4 14 3 17 1 18 2 19
REMARK SMILES IDX 23 21 24 22 33 23 25 24 32 26 26 27 27 28 31 29 28 30 30 31
REMARK SMILES IDX 29 33 10 37 11 40 12 42 13 45 14 46 18 47 17 48 15 49 16 56
REMARK H PARENT 6 10 8 11 19 12 21 13 4 15 4 16 3 20 24 25 31 32 28 34 30 35
REMARK H PARENT 29 36 10 38 10 39 11 41 12 43 12 44 14 50 14 51 18 52 18 53
REMARK H PARENT 17 54 17 55
REMARK Flexibility Score: inf
ROOT
ATOM      1  C   UNL     1     -46.295  36.117  28.367  1.00  0.00     0.062 A 
ATOM      2  C   UNL     1     -45.488  35.239  27.643  1.00  0.00    -0.014 A 
ATOM      3  C   UNL     1     -46.152  34.421  26.730  1.00  0.00     0.049 A 
ATOM      4  N   UNL     1     -45.668  33.459  25.873  1.00  0.00    -0.357 N 
ATOM      5  C   UNL     1     -46.694  32.906  25.144  1.00  0.00     0.030 A 
ATOM      6  C   UNL     1     -47.863  33.516  25.558  1.00  0.00    -0.031 A 
ATOM      7  C   UNL     1     -47.532  34.476  26.553  1.00  0.00     0.018 A 
ATOM      8  C   UNL     1     -48.268  35.384  27.321  1.00  0.00     0.037 A 
ATOM      9  N   UNL     1     -47.648  36.193  28.216  1.00  0.00    -0.259 NA
ATOM     10  H   UNL     1     -44.415  35.197  27.783  1.00  0.00     0.067 H 
ATOM     11  H   UNL     1     -44.694  33.201  25.791  1.00  0.00     0.166 HD
ATOM     12  H   UNL     1     -48.853  33.296  25.181  1.00  0.00     0.065 H 
ATOM     13  H   UNL     1     -49.344  35.486  27.242  1.00  0.00     0.085 H 
ENDROOT
BRANCH   1  14
ATOM     14  C   UNL     1     -45.645  37.038  29.380  1.00  0.00     0.060 C 
ATOM     15  H   UNL     1     -46.409  37.462  30.041  1.00  0.00     0.056 H 
ATOM     16  H   UNL     1     -44.928  36.476  29.989  1.00  0.00     0.056 H 
BRANCH  14  17
ATOM     17  N   UNL     1     -44.939  38.130  28.758  1.00  0.00    -0.345 N 
ATOM     18  O   UNL     1     -46.774  39.448  28.397  1.00  0.00    -0.268 OA
ATOM     19  C   UNL     1     -45.565  39.259  28.310  1.00  0.00     0.270 C 
ATOM     20  H   UNL     1     -43.931  38.043  28.649  1.00  0.00     0.164 HD
BRANCH  19  21
ATOM     21  C   UNL     1     -44.614  40.254  27.693  1.00  0.00     0.136 A 
ATOM     22  C   UNL     1     -43.502  40.520  28.384  1.00  0.00     0.035 A 
ATOM     23  N   UNL     1     -44.935  40.820  26.482  1.00  0.00    -0.225 NA
ATOM     24  C   UNL     1     -42.547  41.483  27.822  1.00  0.00     0.258 A 
ATOM     25  H   UNL     1     -43.259  40.070  29.338  1.00  0.00     0.071 H 
ATOM     26  C   UNL     1     -44.090  41.670  25.988  1.00  0.00     0.140 A 
ATOM     27  O   UNL     1     -41.521  41.733  28.453  1.00  0.00    -0.269 OA
ATOM     28  N   UNL     1     -42.896  42.038  26.601  1.00  0.00    -0.268 N 
ATOM     29  C   UNL     1     -44.400  42.306  24.677  1.00  0.00    -0.019 A 
ATOM     30  C   UNL     1     -42.041  42.959  26.004  1.00  0.00     0.014 A 
ATOM     31  C   UNL     1     -43.546  43.188  24.143  1.00  0.00    -0.057 A 
ATOM     32  H   UNL     1     -45.328  42.026  24.194  1.00  0.00     0.066 H 
ATOM     33  C   UNL     1     -42.327  43.527  24.826  1.00  0.00    -0.045 A 
ATOM     34  H   UNL     1     -41.125  43.200  26.539  1.00  0.00     0.082 H 
ATOM     35  H   UNL     1     -43.754  43.662  23.189  1.00  0.00     0.062 H 
ATOM     36  H   UNL     1     -41.651  44.244  24.370  1.00  0.00     0.064 H 
ENDBRANCH  19  21
ENDBRANCH  14  17
ENDBRANCH   1  14
BRANCH   5  37
ATOM     37  C   UNL     1     -46.451  31.834  24.137  1.00  0.00     0.036 C 
ATOM     38  H   UNL     1     -45.377  31.697  23.975  1.00  0.00     0.049 H 
ATOM     39  H   UNL     1     -46.861  32.154  23.172  1.00  0.00     0.049 H 
BRANCH  37  40
ATOM     40  N   UNL     1     -47.116  30.589  24.518  1.00  0.00    -0.311 NA
ATOM     41  H   UNL     1     -46.519  29.809  24.248  1.00  0.00     0.123 HD
BRANCH  40  42
ATOM     42  C   UNL     1     -48.428  30.410  23.899  1.00  0.00     0.002 C 
ATOM     43  H   UNL     1     -49.154  31.151  24.249  1.00  0.00     0.043 H 
ATOM     44  H   UNL     1     -48.311  30.592  22.824  1.00  0.00     0.043 H 
BRANCH  42  45
ATOM     45  C   UNL     1     -48.934  29.025  24.088  1.00  0.00    -0.008 C 
ATOM     46  C   UNL     1     -48.833  28.171  25.422  1.00  0.00    -0.012 C 
ATOM     47  C   UNL     1     -50.426  28.488  24.050  1.00  0.00    -0.012 C 
ATOM     48  C   UNL     1     -48.587  27.649  23.375  1.00  0.00    -0.012 C 
ATOM     49  C   UNL     1     -49.610  27.239  24.462  1.00  0.00     0.112 C 
ATOM     50  H   UNL     1     -49.373  28.552  26.295  1.00  0.00     0.031 H 
ATOM     51  H   UNL     1     -47.831  27.851  25.729  1.00  0.00     0.031 H 
ATOM     52  H   UNL     1     -51.118  28.899  24.794  1.00  0.00     0.031 H 
ATOM     53  H   UNL     1     -50.918  28.463  23.072  1.00  0.00     0.031 H 
ATOM     54  H   UNL     1     -47.563  27.280  23.487  1.00  0.00     0.031 H 
ATOM     55  H   UNL     1     -48.903  27.534  22.333  1.00  0.00     0.031 H 
ATOM     56  F   UNL     1     -50.068  26.025  24.719  1.00  0.00    -0.244 F 
ENDBRANCH  42  45
ENDBRANCH  40  42
ENDBRANCH  37  40
ENDBRANCH   5  37
TORSDOF 7
ENDMDL
MODEL 4
REMARK VINA RESULT:      -9.6      2.196      3.252
REMARK SMILES O=C(NCc1cc2[nH]c(CNC[C@]34C[C@](F)(C3)C4)cc2cn1)c1cc(=O)n2ccccc2n1
REMARK SMILES IDX 5 1 6 2 7 3 8 4 9 5 19 6 20 7 21 8 22 9 4 14 3 17 1 18 2 19
REMARK SMILES IDX 23 21 24 22 33 23 25 24 32 26 26 27 27 28 31 29 28 30 30 31
REMARK SMILES IDX 29 33 10 37 11 40 12 42 13 45 14 46 18 47 17 48 15 49 16 56
REMARK H PARENT 6 10 8 11 19 12 21 13 4 15 4 16 3 20 24 25 31 32 28 34 30 35
REMARK H PARENT 29 36 10 38 10 39 11 41 12 43 12 44 14 50 14 51 18 52 18 53
REMARK H PARENT 17 54 17 55
REMARK Flexibility Score: inf
ROOT
ATOM      1  C   UNL     1     -46.676  34.362  26.893  1.00  0.00     0.062 A 
ATOM      2  C   UNL     1     -45.965  33.450  26.112  1.00  0.00    -0.014 A 
ATOM      3  C   UNL     1     -46.735  32.515  25.422  1.00  0.00     0.049 A 
ATOM      4  N   UNL     1     -46.360  31.492  24.581  1.00  0.00    -0.357 N 
ATOM      5  C   UNL     1     -47.468  30.824  24.116  1.00  0.00     0.030 A 
ATOM      6  C   UNL     1     -48.575  31.422  24.688  1.00  0.00    -0.031 A 
ATOM      7  C   UNL     1     -48.125  32.493  25.508  1.00  0.00     0.018 A 
ATOM      8  C   UNL     1     -48.760  33.442  26.315  1.00  0.00     0.037 A 
ATOM      9  N   UNL     1     -48.035  34.365  26.996  1.00  0.00    -0.259 NA
ATOM     10  H   UNL     1     -44.884  33.469  26.048  1.00  0.00     0.067 H 
ATOM     11  H   UNL     1     -45.405  31.270  24.339  1.00  0.00     0.166 HD
ATOM     12  H   UNL     1     -49.602  31.122  24.529  1.00  0.00     0.065 H 
ATOM     13  H   UNL     1     -49.835  33.489  26.434  1.00  0.00     0.085 H 
ENDROOT
BRANCH   1  14
ATOM     14  C   UNL     1     -45.906  35.410  27.672  1.00  0.00     0.060 C 
ATOM     15  H   UNL     1     -45.997  35.214  28.747  1.00  0.00     0.056 H 
ATOM     16  H   UNL     1     -44.846  35.373  27.399  1.00  0.00     0.056 H 
BRANCH  14  17
ATOM     17  N   UNL     1     -46.385  36.746  27.422  1.00  0.00    -0.345 N 
ATOM     18  O   UNL     1     -44.958  37.803  28.863  1.00  0.00    -0.268 OA
ATOM     19  C   UNL     1     -45.869  37.848  28.043  1.00  0.00     0.270 C 
ATOM     20  H   UNL     1     -47.145  36.861  26.754  1.00  0.00     0.164 HD
BRANCH  19  21
ATOM     21  C   UNL     1     -46.539  39.131  27.619  1.00  0.00     0.136 A 
ATOM     22  C   UNL     1     -45.815  39.954  26.857  1.00  0.00     0.035 A 
ATOM     23  N   UNL     1     -47.828  39.377  28.030  1.00  0.00    -0.225 NA
ATOM     24  C   UNL     1     -46.426  41.216  26.420  1.00  0.00     0.258 A 
ATOM     25  H   UNL     1     -44.800  39.752  26.539  1.00  0.00     0.071 H 
ATOM     26  C   UNL     1     -48.365  40.492  27.642  1.00  0.00     0.140 A 
ATOM     27  O   UNL     1     -45.766  41.980  25.718  1.00  0.00    -0.269 OA
ATOM     28  N   UNL     1     -47.726  41.438  26.849  1.00  0.00    -0.268 N 
ATOM     29  C   UNL     1     -49.761  40.797  28.065  1.00  0.00    -0.019 A 
ATOM     30  C   UNL     1     -48.373  42.612  26.475  1.00  0.00     0.014 A 
ATOM     31  C   UNL     1     -50.341  41.940  27.681  1.00  0.00    -0.057 A 
ATOM     32  H   UNL     1     -50.266  40.064  28.684  1.00  0.00     0.066 H 
ATOM     33  C   UNL     1     -49.627  42.879  26.859  1.00  0.00    -0.045 A 
ATOM     34  H   UNL     1     -47.813  43.307  25.854  1.00  0.00     0.082 H 
ATOM     35  H   UNL     1     -51.357  42.180  27.979  1.00  0.00     0.062 H 
ATOM     36  H   UNL     1     -50.122  43.799  26.561  1.00  0.00     0.064 H 
ENDBRANCH  19  21
ENDBRANCH  14  17
ENDBRANCH   1  14
BRANCH   5  37
ATOM     37  C   UNL     1     -47.351  29.665  23.185  1.00  0.00     0.036 C 
ATOM     38  H   UNL     1     -46.608  29.873  22.408  1.00  0.00     0.049 H 
ATOM     39  H   UNL     1     -48.305  29.534  22.660  1.00  0.00     0.049 H 
BRANCH  37  40
ATOM     40  N   UNL     1     -47.063  28.430  23.911  1.00  0.00    -0.311 NA
ATOM     41  H   UNL     1     -46.727  27.736  23.244  1.00  0.00     0.123 HD
BRANCH  40  42
ATOM     42  C   UNL     1     -48.219  27.879  24.618  1.00  0.00     0.002 C 
ATOM     43  H   UNL     1     -48.782  28.652  25.151  1.00  0.00     0.043 H 
ATOM     44  H   UNL     1     -48.905  27.479  23.862  1.00  0.00     0.043 H 
BRANCH  42  45
ATOM     45  C   UNL     1     -47.822  26.773  25.527  1.00  0.00    -0.008 C 
ATOM     46  C   UNL     1     -48.673  25.468  25.832  1.00  0.00    -0.012 C 
ATOM     47  C   UNL     1     -46.611  25.756  25.401  1.00  0.00    -0.012 C 
ATOM     48  C   UNL     1     -47.495  26.725  27.080  1.00  0.00    -0.012 C 
ATOM     49  C   UNL     1     -47.375  25.244  26.645  1.00  0.00     0.112 C 
ATOM     50  H   UNL     1     -48.859  24.791  24.993  1.00  0.00     0.031 H 
ATOM     51  H   UNL     1     -49.601  25.605  26.399  1.00  0.00     0.031 H 
ATOM     52  H   UNL     1     -46.601  25.106  24.519  1.00  0.00     0.031 H 
ATOM     53  H   UNL     1     -45.606  26.161  25.562  1.00  0.00     0.031 H 
ATOM     54  H   UNL     1     -48.311  26.981  27.764  1.00  0.00     0.031 H 
ATOM     55  H   UNL     1     -46.575  27.217  27.412  1.00  0.00     0.031 H 
ATOM     56  F   UNL     1     -47.075  24.204  27.406  1.00  0.00    -0.244 F 
ENDBRANCH  42  45
ENDBRANCH  40  42
ENDBRANCH  37  40
ENDBRANCH   5  37
TORSDOF 7
ENDMDL
MODEL 5
REMARK VINA RESULT:      -9.6      4.449     11.361
REMARK SMILES O=C(NCc1cc2[nH]c(CNC[C@]34C[C@](F)(C3)C4)cc2cn1)c1cc(=O)n2ccccc2n1
REMARK SMILES IDX 5 1 6 2 7 3 8 4 9 5 19 6 20 7 21 8 22 9 4 14 3 17 1 18 2 19
REMARK SMILES IDX 23 21 24 22 33 23 25 24 32 26 26 27 27 28 31 29 28 30 30 31
REMARK SMILES IDX 29 33 10 37 11 40 12 42 13 45 14 46 18 47 17 48 15 49 16 56
REMARK H PARENT 6 10 8 11 19 12 21 13 4 15 4 16 3 20 24 25 31 32 28 34 30 35
REMARK H PARENT 29 36 10 38 10 39 11 41 12 43 12 44 14 50 14 51 18 52 18 53
REMARK H PARENT 17 54 17 55
REMARK Flexibility Score: inf
ROOT
ATOM      1  C   UNL     1     -47.064  36.791  27.849  1.00  0.00     0.062 A 
ATOM      2  C   UNL     1     -46.060  37.515  27.205  1.00  0.00    -0.014 A 
ATOM      3  C   UNL     1     -46.347  38.856  26.955  1.00  0.00     0.049 A 
ATOM      4  N   UNL     1     -45.594  39.834  26.347  1.00  0.00    -0.357 N 
ATOM      5  C   UNL     1     -46.281  41.025  26.327  1.00  0.00     0.030 A 
ATOM      6  C   UNL     1     -47.508  40.797  26.920  1.00  0.00    -0.031 A 
ATOM      7  C   UNL     1     -47.558  39.435  27.325  1.00  0.00     0.018 A 
ATOM      8  C   UNL     1     -48.512  38.638  27.966  1.00  0.00     0.037 A 
ATOM      9  N   UNL     1     -48.259  37.331  28.223  1.00  0.00    -0.259 NA
ATOM     10  H   UNL     1     -45.120  37.062  26.918  1.00  0.00     0.067 H 
ATOM     11  H   UNL     1     -44.666  39.694  25.973  1.00  0.00     0.166 HD
ATOM     12  H   UNL     1     -48.288  41.536  27.051  1.00  0.00     0.065 H 
ATOM     13  H   UNL     1     -49.477  39.015  28.283  1.00  0.00     0.085 H 
ENDROOT
BRANCH   1  14
ATOM     14  C   UNL     1     -46.825  35.326  28.155  1.00  0.00     0.060 C 
ATOM     15  H   UNL     1     -45.764  35.161  28.376  1.00  0.00     0.056 H 
ATOM     16  H   UNL     1     -47.415  35.026  29.028  1.00  0.00     0.056 H 
BRANCH  14  17
ATOM     17  N   UNL     1     -47.188  34.467  27.057  1.00  0.00    -0.345 N 
ATOM     18  O   UNL     1     -46.240  32.562  27.897  1.00  0.00    -0.268 OA
ATOM     19  C   UNL     1     -46.863  33.140  27.013  1.00  0.00     0.270 C 
ATOM     20  H   UNL     1     -47.705  34.878  26.282  1.00  0.00     0.164 HD
BRANCH  19  21
ATOM     21  C   UNL     1     -47.349  32.456  25.759  1.00  0.00     0.136 A 
ATOM     22  C   UNL     1     -48.671  32.324  25.630  1.00  0.00     0.035 A 
ATOM     23  N   UNL     1     -46.426  32.017  24.840  1.00  0.00    -0.225 NA
ATOM     24  C   UNL     1     -49.190  31.664  24.425  1.00  0.00     0.258 A 
ATOM     25  H   UNL     1     -49.390  32.672  26.360  1.00  0.00     0.071 H 
ATOM     26  C   UNL     1     -46.887  31.434  23.777  1.00  0.00     0.140 A 
ATOM     27  O   UNL     1     -50.408  31.538  24.299  1.00  0.00    -0.269 OA
ATOM     28  N   UNL     1     -48.238  31.230  23.516  1.00  0.00    -0.268 N 
ATOM     29  C   UNL     1     -45.920  30.943  22.755  1.00  0.00    -0.019 A 
ATOM     30  C   UNL     1     -48.652  30.596  22.349  1.00  0.00     0.014 A 
ATOM     31  C   UNL     1     -46.367  30.337  21.648  1.00  0.00    -0.057 A 
ATOM     32  H   UNL     1     -44.866  31.098  22.952  1.00  0.00     0.066 H 
ATOM     33  C   UNL     1     -47.778  30.157  21.436  1.00  0.00    -0.045 A 
ATOM     34  H   UNL     1     -49.723  30.470  22.210  1.00  0.00     0.082 H 
ATOM     35  H   UNL     1     -45.678  29.973  20.893  1.00  0.00     0.062 H 
ATOM     36  H   UNL     1     -48.113  29.663  20.529  1.00  0.00     0.064 H 
ENDBRANCH  19  21
ENDBRANCH  14  17
ENDBRANCH   1  14
BRANCH   5  37
ATOM     37  C   UNL     1     -45.698  42.256  25.723  1.00  0.00     0.036 C 
ATOM     38  H   UNL     1     -46.492  42.920  25.366  1.00  0.00     0.049 H 
ATOM     39  H   UNL     1     -45.119  41.977  24.835  1.00  0.00     0.049 H 
BRANCH  37  40
ATOM     40  N   UNL     1     -44.794  42.928  26.656  1.00  0.00    -0.311 NA
ATOM     41  H   UNL     1     -44.949  43.933  26.587  1.00  0.00     0.123 HD
BRANCH  40  42
ATOM     42  C   UNL     1     -43.380  42.653  26.405  1.00  0.00     0.002 C 
ATOM     43  H   UNL     1     -43.236  41.980  25.554  1.00  0.00     0.043 H 
ATOM     44  H   UNL     1     -42.908  43.601  26.119  1.00  0.00     0.043 H 
BRANCH  42  45
ATOM     45  C   UNL     1     -42.703  42.139  27.624  1.00  0.00    -0.008 C 
ATOM     46  C   UNL     1     -43.159  40.886  28.485  1.00  0.00    -0.012 C 
ATOM     47  C   UNL     1     -41.254  41.511  27.776  1.00  0.00    -0.012 C 
ATOM     48  C   UNL     1     -42.397  42.793  29.038  1.00  0.00    -0.012 C 
ATOM     49  C   UNL     1     -41.862  41.349  29.190  1.00  0.00     0.112 C 
ATOM     50  H   UNL     1     -43.136  39.911  27.988  1.00  0.00     0.031 H 
ATOM     51  H   UNL     1     -44.095  40.986  29.044  1.00  0.00     0.031 H 
ATOM     52  H   UNL     1     -41.050  40.594  27.212  1.00  0.00     0.031 H 
ATOM     53  H   UNL     1     -40.405  42.195  27.673  1.00  0.00     0.031 H 
ATOM     54  H   UNL     1     -43.260  43.074  29.649  1.00  0.00     0.031 H 
ATOM     55  H   UNL     1     -41.655  43.599  29.066  1.00  0.00     0.031 H 
ATOM     56  F   UNL     1     -41.292  40.809  30.256  1.00  0.00    -0.244 F 
ENDBRANCH  42  45
ENDBRANCH  40  42
ENDBRANCH  37  40
ENDBRANCH   5  37
TORSDOF 7
ENDMDL
