MODEL 1
REMARK VINA RESULT:     -10.3      0.000      0.000
REMARK SMILES CNc1ccc2ccc(OCc3cc(F)cc(-n4cc(Cl)c5c(N)ncnc54)c3)cc2n1
REMARK SMILES IDX 11 1 10 4 9 5 3 6 4 7 32 8 5 9 31 11 6 12 30 14 7 15 8 17
REMARK SMILES IDX 2 20 1 22 12 26 13 27 29 28 14 29 17 31 15 33 16 34 18 36
REMARK SMILES IDX 19 37 28 38 20 39 22 41 27 42 21 43 23 44 26 45 25 46 24 48
REMARK H PARENT 11 2 11 3 4 10 5 13 30 16 7 18 8 19 2 21 1 23 1 24 1 25 13 30
REMARK H PARENT 29 32 16 35 19 40 26 47 24 49 24 50
REMARK Flexibility Score: inf
ROOT
ATOM      1  C   UNL     1     -46.606  36.762  26.803  1.00  0.00     0.113 C 
ATOM      2  H   UNL     1     -45.745  37.125  26.226  1.00  0.00     0.076 H 
ATOM      3  H   UNL     1     -47.497  37.075  26.247  1.00  0.00     0.076 H 
ENDROOT
BRANCH   1   4
ATOM      4  O   UNL     1     -46.676  37.406  28.078  1.00  0.00    -0.489 OA
BRANCH   4   5
ATOM      5  C   UNL     1     -45.637  38.206  28.468  1.00  0.00     0.122 A 
ATOM      6  C   UNL     1     -42.666  41.895  28.078  1.00  0.00     0.126 A 
ATOM      7  C   UNL     1     -41.975  41.535  29.226  1.00  0.00    -0.019 A 
ATOM      8  N   UNL     1     -43.707  41.181  27.609  1.00  0.00    -0.231 NA
ATOM      9  C   UNL     1     -42.380  40.407  29.930  1.00  0.00    -0.049 A 
ATOM     10  H   UNL     1     -41.118  42.108  29.561  1.00  0.00     0.066 H 
ATOM     11  C   UNL     1     -44.102  40.086  28.284  1.00  0.00     0.076 A 
ATOM     12  C   UNL     1     -43.464  39.658  29.465  1.00  0.00     0.001 A 
ATOM     13  H   UNL     1     -41.843  40.116  30.828  1.00  0.00     0.063 H 
ATOM     14  C   UNL     1     -45.179  39.348  27.806  1.00  0.00     0.007 A 
ATOM     15  C   UNL     1     -43.912  38.509  30.134  1.00  0.00    -0.049 A 
ATOM     16  H   UNL     1     -45.637  39.695  26.886  1.00  0.00     0.069 H 
ATOM     17  C   UNL     1     -44.994  37.790  29.632  1.00  0.00    -0.019 A 
ATOM     18  H   UNL     1     -43.423  38.170  31.043  1.00  0.00     0.063 H 
ATOM     19  H   UNL     1     -45.338  36.899  30.153  1.00  0.00     0.066 H 
BRANCH   6  20
ATOM     20  N   UNL     1     -42.305  43.004  27.310  1.00  0.00    -0.373 N 
ATOM     21  H   UNL     1     -41.330  42.824  27.066  1.00  0.00     0.161 HD
BRANCH  20  22
ATOM     22  C   UNL     1     -43.120  43.195  26.123  1.00  0.00     0.005 C 
ATOM     23  H   UNL     1     -42.865  42.424  25.389  1.00  0.00     0.045 H 
ATOM     24  H   UNL     1     -44.189  43.100  26.349  1.00  0.00     0.045 H 
ATOM     25  H   UNL     1     -42.934  44.166  25.655  1.00  0.00     0.045 H 
ENDBRANCH  20  22
ENDBRANCH   6  20
ENDBRANCH   4   5
ENDBRANCH   1   4
BRANCH   1  26
ATOM     26  C   UNL     1     -46.639  35.252  26.895  1.00  0.00    -0.006 A 
ATOM     27  C   UNL     1     -45.977  34.608  27.944  1.00  0.00    -0.020 A 
ATOM     28  C   UNL     1     -47.276  34.469  25.913  1.00  0.00    -0.031 A 
ATOM     29  C   UNL     1     -45.980  33.221  28.014  1.00  0.00     0.125 A 
ATOM     30  H   UNL     1     -45.458  35.170  28.717  1.00  0.00     0.066 H 
ATOM     31  C   UNL     1     -47.284  33.061  25.984  1.00  0.00     0.050 A 
ATOM     32  H   UNL     1     -47.747  34.996  25.088  1.00  0.00     0.065 H 
ATOM     33  F   UNL     1     -45.351  32.616  29.031  1.00  0.00    -0.207 F 
ATOM     34  C   UNL     1     -46.625  32.446  27.053  1.00  0.00    -0.002 A 
ATOM     35  H   UNL     1     -46.601  31.373  27.197  1.00  0.00     0.068 H 
BRANCH  31  36
ATOM     36  N   UNL     1     -47.965  32.289  24.981  1.00  0.00    -0.300 N 
ATOM     37  C   UNL     1     -49.342  32.162  24.878  1.00  0.00     0.030 A 
ATOM     38  C   UNL     1     -47.405  31.536  23.945  1.00  0.00     0.151 A 
ATOM     39  C   UNL     1     -49.644  31.342  23.818  1.00  0.00     0.072 A 
ATOM     40  H   UNL     1     -50.013  32.633  25.579  1.00  0.00     0.084 H 
ATOM     41  C   UNL     1     -48.432  30.937  23.218  1.00  0.00     0.080 A 
ATOM     42  N   UNL     1     -46.092  31.416  23.655  1.00  0.00    -0.218 NA
ATOM     43  Cl  UNL     1     -51.211  30.903  23.322  1.00  0.00    -0.082 Cl
ATOM     44  C   UNL     1     -48.062  30.131  22.130  1.00  0.00     0.137 A 
ATOM     45  C   UNL     1     -45.860  30.632  22.596  1.00  0.00     0.120 A 
ATOM     46  N   UNL     1     -46.758  29.997  21.828  1.00  0.00    -0.219 NA
ATOM     47  H   UNL     1     -44.817  30.495  22.321  1.00  0.00     0.106 H 
BRANCH  44  48
ATOM     48  N   UNL     1     -48.961  29.462  21.318  1.00  0.00    -0.383 N 
ATOM     49  H   UNL     1     -49.246  28.543  21.629  1.00  0.00     0.158 HD
ATOM     50  H   UNL     1     -49.681  30.078  20.962  1.00  0.00     0.158 HD
ENDBRANCH  44  48
ENDBRANCH  31  36
ENDBRANCH   1  26
TORSDOF 7
ENDMDL
MODEL 2
REMARK VINA RESULT:     -10.2      3.064     10.513
REMARK SMILES CNc1ccc2ccc(OCc3cc(F)cc(-n4cc(Cl)c5c(N)ncnc54)c3)cc2n1
REMARK SMILES IDX 11 1 10 4 9 5 3 6 4 7 32 8 5 9 31 11 6 12 30 14 7 15 8 17
REMARK SMILES IDX 2 20 1 22 12 26 13 27 29 28 14 29 17 31 15 33 16 34 18 36
REMARK SMILES IDX 19 37 28 38 20 39 22 41 27 42 21 43 23 44 26 45 25 46 24 48
REMARK H PARENT 11 2 11 3 4 10 5 13 30 16 7 18 8 19 2 21 1 23 1 24 1 25 13 30
REMARK H PARENT 29 32 16 35 19 40 26 47 24 49 24 50
REMARK Flexibility Score: inf
ROOT
ATOM      1  C   UNL     1     -48.116  35.675  26.767  1.00  0.00     0.113 C 
ATOM      2  H   UNL     1     -49.105  36.143  26.688  1.00  0.00     0.076 H 
ATOM      3  H   UNL     1     -47.697  35.674  25.754  1.00  0.00     0.076 H 
ENDROOT
BRANCH   1   4
ATOM      4  O   UNL     1     -48.228  34.303  27.159  1.00  0.00    -0.489 OA
BRANCH   4   5
ATOM      5  C   UNL     1     -47.887  33.332  26.258  1.00  0.00     0.122 A 
ATOM      6  C   UNL     1     -48.296  29.103  24.127  1.00  0.00     0.126 A 
ATOM      7  C   UNL     1     -47.209  29.349  23.301  1.00  0.00    -0.019 A 
ATOM      8  N   UNL     1     -48.720  29.993  25.045  1.00  0.00    -0.231 NA
ATOM      9  C   UNL     1     -46.542  30.563  23.410  1.00  0.00    -0.049 A 
ATOM     10  H   UNL     1     -46.868  28.600  22.597  1.00  0.00     0.066 H 
ATOM     11  C   UNL     1     -48.076  31.170  25.157  1.00  0.00     0.076 A 
ATOM     12  C   UNL     1     -46.972  31.504  24.349  1.00  0.00     0.001 A 
ATOM     13  H   UNL     1     -45.687  30.762  22.770  1.00  0.00     0.063 H 
ATOM     14  C   UNL     1     -48.512  32.093  26.101  1.00  0.00     0.007 A 
ATOM     15  C   UNL     1     -46.332  32.743  24.503  1.00  0.00    -0.049 A 
ATOM     16  H   UNL     1     -49.354  31.798  26.717  1.00  0.00     0.069 H 
ATOM     17  C   UNL     1     -46.791  33.649  25.456  1.00  0.00    -0.019 A 
ATOM     18  H   UNL     1     -45.476  33.006  23.887  1.00  0.00     0.063 H 
ATOM     19  H   UNL     1     -46.292  34.608  25.574  1.00  0.00     0.066 H 
BRANCH   6  20
ATOM     20  N   UNL     1     -49.004  27.900  24.088  1.00  0.00    -0.373 N 
ATOM     21  H   UNL     1     -48.564  27.335  24.816  1.00  0.00     0.161 HD
BRANCH  20  22
ATOM     22  C   UNL     1     -50.431  28.042  24.319  1.00  0.00     0.005 C 
ATOM     23  H   UNL     1     -50.890  27.049  24.333  1.00  0.00     0.045 H 
ATOM     24  H   UNL     1     -50.637  28.519  25.285  1.00  0.00     0.045 H 
ATOM     25  H   UNL     1     -50.916  28.614  23.522  1.00  0.00     0.045 H 
ENDBRANCH  20  22
ENDBRANCH   6  20
ENDBRANCH   4   5
ENDBRANCH   1   4
BRANCH   1  26
ATOM     26  C   UNL     1     -47.173  36.470  27.644  1.00  0.00    -0.006 A 
ATOM     27  C   UNL     1     -46.971  36.082  28.972  1.00  0.00    -0.020 A 
ATOM     28  C   UNL     1     -46.532  37.631  27.171  1.00  0.00    -0.031 A 
ATOM     29  C   UNL     1     -46.130  36.829  29.787  1.00  0.00     0.125 A 
ATOM     30  H   UNL     1     -47.456  35.203  29.386  1.00  0.00     0.066 H 
ATOM     31  C   UNL     1     -45.675  38.388  27.995  1.00  0.00     0.050 A 
ATOM     32  H   UNL     1     -46.741  37.930  26.148  1.00  0.00     0.065 H 
ATOM     33  F   UNL     1     -45.936  36.440  31.055  1.00  0.00    -0.207 F 
ATOM     34  C   UNL     1     -45.482  37.968  29.316  1.00  0.00    -0.002 A 
ATOM     35  H   UNL     1     -44.823  38.475  30.010  1.00  0.00     0.068 H 
BRANCH  31  36
ATOM     36  N   UNL     1     -45.014  39.554  27.477  1.00  0.00    -0.300 N 
ATOM     37  C   UNL     1     -45.344  40.190  26.290  1.00  0.00     0.030 A 
ATOM     38  C   UNL     1     -43.946  40.261  28.039  1.00  0.00     0.151 A 
ATOM     39  C   UNL     1     -44.501  41.257  26.098  1.00  0.00     0.072 A 
ATOM     40  H   UNL     1     -46.129  39.826  25.646  1.00  0.00     0.084 H 
ATOM     41  C   UNL     1     -43.612  41.317  27.192  1.00  0.00     0.080 A 
ATOM     42  N   UNL     1     -43.341  40.003  29.217  1.00  0.00    -0.218 NA
ATOM     43  Cl  UNL     1     -44.538  42.320  24.769  1.00  0.00    -0.082 Cl
ATOM     44  C   UNL     1     -42.550  42.145  27.590  1.00  0.00     0.137 A 
ATOM     45  C   UNL     1     -42.351  40.860  29.495  1.00  0.00     0.120 A 
ATOM     46  N   UNL     1     -41.932  41.902  28.760  1.00  0.00    -0.219 NA
ATOM     47  H   UNL     1     -41.825  40.696  30.431  1.00  0.00     0.106 H 
BRANCH  44  48
ATOM     48  N   UNL     1     -42.092  43.226  26.857  1.00  0.00    -0.383 N 
ATOM     49  H   UNL     1     -41.941  44.083  27.372  1.00  0.00     0.158 HD
ATOM     50  H   UNL     1     -41.386  42.955  26.184  1.00  0.00     0.158 HD
ENDBRANCH  44  48
ENDBRANCH  31  36
ENDBRANCH   1  26
TORSDOF 7
ENDMDL
MODEL 3
REMARK VINA RESULT:      -9.8      3.728     11.028
REMARK SMILES CNc1ccc2ccc(OCc3cc(F)cc(-n4cc(Cl)c5c(N)ncnc54)c3)cc2n1
REMARK SMILES IDX 11 1 10 4 9 5 3 6 4 7 32 8 5 9 31 11 6 12 30 14 7 15 8 17
REMARK SMILES IDX 2 20 1 22 12 26 13 27 29 28 14 29 17 31 15 33 16 34 18 36
REMARK SMILES IDX 19 37 28 38 20 39 22 41 27 42 21 43 23 44 26 45 25 46 24 48
REMARK H PARENT 11 2 11 3 4 10 5 13 30 16 7 18 8 19 2 21 1 23 1 24 1 25 13 30
REMARK H PARENT 29 32 16 35 19 40 26 47 24 49 24 50
REMARK Flexibility Score: inf
ROOT
ATOM      1  C   UNL     1     -47.199  33.906  25.882  1.00  0.00     0.113 C 
ATOM      2  H   UNL     1     -47.427  33.933  24.809  1.00  0.00     0.076 H 
ATOM      3  H   UNL     1     -46.112  33.791  25.959  1.00  0.00     0.076 H 
ENDROOT
BRANCH   1   4
ATOM      4  O   UNL     1     -47.773  32.749  26.498  1.00  0.00    -0.489 OA
BRANCH   4   5
ATOM      5  C   UNL     1     -48.116  31.686  25.709  1.00  0.00     0.122 A 
ATOM      6  C   UNL     1     -49.360  27.177  24.866  1.00  0.00     0.126 A 
ATOM      7  C   UNL     1     -49.383  27.378  23.494  1.00  0.00    -0.019 A 
ATOM      8  N   UNL     1     -49.042  28.157  25.734  1.00  0.00    -0.231 NA
ATOM      9  C   UNL     1     -49.084  28.640  22.993  1.00  0.00    -0.049 A 
ATOM     10  H   UNL     1     -49.607  26.562  22.818  1.00  0.00     0.066 H 
ATOM     11  C   UNL     1     -48.749  29.380  25.255  1.00  0.00     0.076 A 
ATOM     12  C   UNL     1     -48.761  29.672  23.878  1.00  0.00     0.001 A 
ATOM     13  H   UNL     1     -49.096  28.805  21.920  1.00  0.00     0.063 H 
ATOM     14  C   UNL     1     -48.423  30.396  26.147  1.00  0.00     0.007 A 
ATOM     15  C   UNL     1     -48.447  30.963  23.426  1.00  0.00    -0.049 A 
ATOM     16  H   UNL     1     -48.407  30.133  27.199  1.00  0.00     0.069 H 
ATOM     17  C   UNL     1     -48.126  31.961  24.342  1.00  0.00    -0.019 A 
ATOM     18  H   UNL     1     -48.450  31.196  22.364  1.00  0.00     0.063 H 
ATOM     19  H   UNL     1     -47.882  32.960  23.988  1.00  0.00     0.066 H 
BRANCH   6  20
ATOM     20  N   UNL     1     -49.631  25.933  25.440  1.00  0.00    -0.373 N 
ATOM     21  H   UNL     1     -49.702  25.305  24.638  1.00  0.00     0.161 HD
BRANCH  20  22
ATOM     22  C   UNL     1     -48.620  25.479  26.379  1.00  0.00     0.005 C 
ATOM     23  H   UNL     1     -47.804  26.209  26.403  1.00  0.00     0.045 H 
ATOM     24  H   UNL     1     -49.023  25.395  27.396  1.00  0.00     0.045 H 
ATOM     25  H   UNL     1     -48.189  24.519  26.079  1.00  0.00     0.045 H 
ENDBRANCH  20  22
ENDBRANCH   6  20
ENDBRANCH   4   5
ENDBRANCH   1   4
BRANCH   1  26
ATOM     26  C   UNL     1     -47.566  35.198  26.580  1.00  0.00    -0.006 A 
ATOM     27  C   UNL     1     -48.851  35.359  27.106  1.00  0.00    -0.020 A 
ATOM     28  C   UNL     1     -46.659  36.271  26.664  1.00  0.00    -0.031 A 
ATOM     29  C   UNL     1     -49.199  36.555  27.720  1.00  0.00     0.125 A 
ATOM     30  H   UNL     1     -49.590  34.564  27.051  1.00  0.00     0.066 H 
ATOM     31  C   UNL     1     -47.008  37.485  27.290  1.00  0.00     0.050 A 
ATOM     32  H   UNL     1     -45.682  36.131  26.209  1.00  0.00     0.065 H 
ATOM     33  F   UNL     1     -50.430  36.693  28.230  1.00  0.00    -0.207 F 
ATOM     34  C   UNL     1     -48.297  37.612  27.819  1.00  0.00    -0.002 A 
ATOM     35  H   UNL     1     -48.642  38.499  28.336  1.00  0.00     0.068 H 
BRANCH  31  36
ATOM     36  N   UNL     1     -46.053  38.554  27.383  1.00  0.00    -0.300 N 
ATOM     37  C   UNL     1     -45.912  39.573  26.455  1.00  0.00     0.030 A 
ATOM     38  C   UNL     1     -45.106  38.779  28.388  1.00  0.00     0.151 A 
ATOM     39  C   UNL     1     -44.897  40.411  26.851  1.00  0.00     0.072 A 
ATOM     40  H   UNL     1     -46.515  39.620  25.561  1.00  0.00     0.084 H 
ATOM     41  C   UNL     1     -44.377  39.924  28.069  1.00  0.00     0.080 A 
ATOM     42  N   UNL     1     -44.928  38.044  29.505  1.00  0.00    -0.218 NA
ATOM     43  Cl  UNL     1     -44.372  41.794  26.011  1.00  0.00    -0.082 Cl
ATOM     44  C   UNL     1     -43.369  40.311  28.966  1.00  0.00     0.137 A 
ATOM     45  C   UNL     1     -43.947  38.512  30.287  1.00  0.00     0.120 A 
ATOM     46  N   UNL     1     -43.174  39.589  30.084  1.00  0.00    -0.219 NA
ATOM     47  H   UNL     1     -43.756  37.953  31.199  1.00  0.00     0.106 H 
BRANCH  44  48
ATOM     48  N   UNL     1     -42.553  41.415  28.788  1.00  0.00    -0.383 N 
ATOM     49  H   UNL     1     -42.272  41.903  29.628  1.00  0.00     0.158 HD
ATOM     50  H   UNL     1     -41.845  41.252  28.083  1.00  0.00     0.158 HD
ENDBRANCH  44  48
ENDBRANCH  31  36
ENDBRANCH   1  26
TORSDOF 7
ENDMDL
MODEL 4
REMARK VINA RESULT:      -9.8      2.875     10.243
REMARK SMILES CNc1ccc2ccc(OCc3cc(F)cc(-n4cc(Cl)c5c(N)ncnc54)c3)cc2n1
REMARK SMILES IDX 11 1 10 4 9 5 3 6 4 7 32 8 5 9 31 11 6 12 30 14 7 15 8 17
REMARK SMILES IDX 2 20 1 22 12 26 13 27 29 28 14 29 17 31 15 33 16 34 18 36
REMARK SMILES IDX 19 37 28 38 20 39 22 41 27 42 21 43 23 44 26 45 25 46 24 48
REMARK H PARENT 11 2 11 3 4 10 5 13 30 16 7 18 8 19 2 21 1 23 1 24 1 25 13 30
REMARK H PARENT 29 32 16 35 19 40 26 47 24 49 24 50
REMARK Flexibility Score: inf
ROOT
ATOM      1  C   UNL     1     -45.925  34.626  27.448  1.00  0.00     0.113 C 
ATOM      2  H   UNL     1     -45.245  34.615  26.586  1.00  0.00     0.076 H 
ATOM      3  H   UNL     1     -45.615  33.793  28.090  1.00  0.00     0.076 H 
ENDROOT
BRANCH   1   4
ATOM      4  O   UNL     1     -47.269  34.349  27.044  1.00  0.00    -0.489 OA
BRANCH   4   5
ATOM      5  C   UNL     1     -47.486  33.375  26.108  1.00  0.00     0.122 A 
ATOM      6  C   UNL     1     -46.547  30.938  22.137  1.00  0.00     0.126 A 
ATOM      7  C   UNL     1     -47.658  30.125  22.304  1.00  0.00    -0.019 A 
ATOM      8  N   UNL     1     -46.238  31.923  23.002  1.00  0.00    -0.231 NA
ATOM      9  C   UNL     1     -48.474  30.318  23.412  1.00  0.00    -0.049 A 
ATOM     10  H   UNL     1     -47.903  29.363  21.573  1.00  0.00     0.066 H 
ATOM     11  C   UNL     1     -47.026  32.118  24.076  1.00  0.00     0.076 A 
ATOM     12  C   UNL     1     -48.165  31.329  24.326  1.00  0.00     0.001 A 
ATOM     13  H   UNL     1     -49.348  29.689  23.549  1.00  0.00     0.063 H 
ATOM     14  C   UNL     1     -46.709  33.131  24.974  1.00  0.00     0.007 A 
ATOM     15  C   UNL     1     -48.957  31.570  25.459  1.00  0.00    -0.049 A 
ATOM     16  H   UNL     1     -45.835  33.730  24.742  1.00  0.00     0.069 H 
ATOM     17  C   UNL     1     -48.614  32.592  26.342  1.00  0.00    -0.019 A 
ATOM     18  H   UNL     1     -49.841  30.969  25.658  1.00  0.00     0.063 H 
ATOM     19  H   UNL     1     -49.231  32.776  27.218  1.00  0.00     0.066 H 
BRANCH   6  20
ATOM     20  N   UNL     1     -45.692  30.814  21.040  1.00  0.00    -0.373 N 
ATOM     21  H   UNL     1     -45.804  29.841  20.753  1.00  0.00     0.161 HD
BRANCH  20  22
ATOM     22  C   UNL     1     -45.992  31.724  19.948  1.00  0.00     0.005 C 
ATOM     23  H   UNL     1     -47.038  31.593  19.652  1.00  0.00     0.045 H 
ATOM     24  H   UNL     1     -45.859  32.771  20.248  1.00  0.00     0.045 H 
ATOM     25  H   UNL     1     -45.375  31.519  19.068  1.00  0.00     0.045 H 
ENDBRANCH  20  22
ENDBRANCH   6  20
ENDBRANCH   4   5
ENDBRANCH   1   4
BRANCH   1  26
ATOM     26  C   UNL     1     -45.796  35.895  28.263  1.00  0.00    -0.006 A 
ATOM     27  C   UNL     1     -46.185  35.897  29.606  1.00  0.00    -0.020 A 
ATOM     28  C   UNL     1     -45.345  37.098  27.686  1.00  0.00    -0.031 A 
ATOM     29  C   UNL     1     -46.098  37.068  30.347  1.00  0.00     0.125 A 
ATOM     30  H   UNL     1     -46.554  34.997  30.090  1.00  0.00     0.066 H 
ATOM     31  C   UNL     1     -45.252  38.286  28.437  1.00  0.00     0.050 A 
ATOM     32  H   UNL     1     -45.090  37.075  26.630  1.00  0.00     0.065 H 
ATOM     33  F   UNL     1     -46.463  37.053  31.637  1.00  0.00    -0.207 F 
ATOM     34  C   UNL     1     -45.636  38.253  29.782  1.00  0.00    -0.002 A 
ATOM     35  H   UNL     1     -45.574  39.113  30.438  1.00  0.00     0.068 H 
BRANCH  31  36
ATOM     36  N   UNL     1     -44.764  39.493  27.828  1.00  0.00    -0.300 N 
ATOM     37  C   UNL     1     -45.257  40.044  26.656  1.00  0.00     0.030 A 
ATOM     38  C   UNL     1     -43.733  40.327  28.272  1.00  0.00     0.151 A 
ATOM     39  C   UNL     1     -44.551  41.184  26.358  1.00  0.00     0.072 A 
ATOM     40  H   UNL     1     -46.051  39.576  26.095  1.00  0.00     0.084 H 
ATOM     41  C   UNL     1     -43.584  41.377  27.367  1.00  0.00     0.080 A 
ATOM     42  N   UNL     1     -43.007  40.179  29.399  1.00  0.00    -0.218 NA
ATOM     43  Cl  UNL     1     -44.811  42.183  25.005  1.00  0.00    -0.082 Cl
ATOM     44  C   UNL     1     -42.586  42.324  27.645  1.00  0.00     0.137 A 
ATOM     45  C   UNL     1     -42.093  41.143  29.563  1.00  0.00     0.120 A 
ATOM     46  N   UNL     1     -41.849  42.192  28.762  1.00  0.00    -0.219 NA
ATOM     47  H   UNL     1     -41.475  41.071  30.454  1.00  0.00     0.106 H 
BRANCH  44  48
ATOM     48  N   UNL     1     -42.308  43.417  26.842  1.00  0.00    -0.383 N 
ATOM     49  H   UNL     1     -42.332  43.256  25.844  1.00  0.00     0.158 HD
ATOM     50  H   UNL     1     -42.742  44.263  27.189  1.00  0.00     0.158 HD
ENDBRANCH  44  48
ENDBRANCH  31  36
ENDBRANCH   1  26
TORSDOF 7
ENDMDL
MODEL 5
REMARK VINA RESULT:      -9.8      4.084     10.319
REMARK SMILES CNc1ccc2ccc(OCc3cc(F)cc(-n4cc(Cl)c5c(N)ncnc54)c3)cc2n1
REMARK SMILES IDX 11 1 10 4 9 5 3 6 4 7 32 8 5 9 31 11 6 12 30 14 7 15 8 17
REMARK SMILES IDX 2 20 1 22 12 26 13 27 29 28 14 29 17 31 15 33 16 34 18 36
REMARK SMILES IDX 19 37 28 38 20 39 22 41 27 42 21 43 23 44 26 45 25 46 24 48
REMARK H PARENT 11 2 11 3 4 10 5 13 30 16 7 18 8 19 2 21 1 23 1 24 1 25 13 30
REMARK H PARENT 29 32 16 35 19 40 26 47 24 49 24 50
REMARK Flexibility Score: inf
ROOT
ATOM      1  C   UNL     1     -45.049  38.555  28.708  1.00  0.00     0.113 C 
ATOM      2  H   UNL     1     -44.497  37.632  28.486  1.00  0.00     0.076 H 
ATOM      3  H   UNL     1     -45.241  38.544  29.787  1.00  0.00     0.076 H 
ENDROOT
BRANCH   1   4
ATOM      4  O   UNL     1     -46.329  38.553  28.069  1.00  0.00    -0.489 OA
BRANCH   4   5
ATOM      5  C   UNL     1     -46.841  37.364  27.628  1.00  0.00     0.122 A 
ATOM      6  C   UNL     1     -46.612  33.061  25.621  1.00  0.00     0.126 A 
ATOM      7  C   UNL     1     -47.978  32.861  25.757  1.00  0.00    -0.019 A 
ATOM      8  N   UNL     1     -46.006  34.193  26.027  1.00  0.00    -0.231 NA
ATOM      9  C   UNL     1     -48.749  33.854  26.349  1.00  0.00    -0.049 A 
ATOM     10  H   UNL     1     -48.445  31.955  25.388  1.00  0.00     0.066 H 
ATOM     11  C   UNL     1     -46.747  35.160  26.598  1.00  0.00     0.076 A 
ATOM     12  C   UNL     1     -48.136  35.032  26.786  1.00  0.00     0.001 A 
ATOM     13  H   UNL     1     -49.819  33.708  26.456  1.00  0.00     0.063 H 
ATOM     14  C   UNL     1     -46.124  36.329  27.023  1.00  0.00     0.007 A 
ATOM     15  C   UNL     1     -48.867  36.068  27.386  1.00  0.00    -0.049 A 
ATOM     16  H   UNL     1     -45.056  36.402  26.849  1.00  0.00     0.069 H 
ATOM     17  C   UNL     1     -48.217  37.227  27.802  1.00  0.00    -0.019 A 
ATOM     18  H   UNL     1     -49.941  35.979  27.530  1.00  0.00     0.063 H 
ATOM     19  H   UNL     1     -48.787  38.029  28.266  1.00  0.00     0.066 H 
BRANCH   6  20
ATOM     20  N   UNL     1     -45.778  32.116  25.020  1.00  0.00    -0.373 N 
ATOM     21  H   UNL     1     -45.545  31.478  25.782  1.00  0.00     0.161 HD
BRANCH  20  22
ATOM     22  C   UNL     1     -46.387  31.410  23.906  1.00  0.00     0.005 C 
ATOM     23  H   UNL     1     -47.236  30.826  24.276  1.00  0.00     0.045 H 
ATOM     24  H   UNL     1     -46.766  32.105  23.147  1.00  0.00     0.045 H 
ATOM     25  H   UNL     1     -45.688  30.710  23.439  1.00  0.00     0.045 H 
ENDBRANCH  20  22
ENDBRANCH   6  20
ENDBRANCH   4   5
ENDBRANCH   1   4
BRANCH   1  26
ATOM     26  C   UNL     1     -44.235  39.796  28.409  1.00  0.00    -0.006 A 
ATOM     27  C   UNL     1     -43.163  40.137  29.238  1.00  0.00    -0.020 A 
ATOM     28  C   UNL     1     -44.567  40.653  27.342  1.00  0.00    -0.031 A 
ATOM     29  C   UNL     1     -42.434  41.291  28.984  1.00  0.00     0.125 A 
ATOM     30  H   UNL     1     -42.880  39.514  30.083  1.00  0.00     0.066 H 
ATOM     31  C   UNL     1     -43.826  41.823  27.079  1.00  0.00     0.050 A 
ATOM     32  H   UNL     1     -45.430  40.384  26.740  1.00  0.00     0.065 H 
ATOM     33  F   UNL     1     -41.402  41.601  29.780  1.00  0.00    -0.207 F 
ATOM     34  C   UNL     1     -42.751  42.131  27.919  1.00  0.00    -0.002 A 
ATOM     35  H   UNL     1     -42.115  42.996  27.776  1.00  0.00     0.068 H 
BRANCH  31  36
ATOM     36  N   UNL     1     -44.172  42.666  25.967  1.00  0.00    -0.300 N 
ATOM     37  C   UNL     1     -43.312  43.007  24.935  1.00  0.00     0.030 A 
ATOM     38  C   UNL     1     -45.395  43.292  25.707  1.00  0.00     0.151 A 
ATOM     39  C   UNL     1     -43.966  43.835  24.055  1.00  0.00     0.072 A 
ATOM     40  H   UNL     1     -42.288  42.668  24.908  1.00  0.00     0.084 H 
ATOM     41  C   UNL     1     -45.282  44.026  24.527  1.00  0.00     0.080 A 
ATOM     42  N   UNL     1     -46.522  43.194  26.442  1.00  0.00    -0.218 NA
ATOM     43  Cl  UNL     1     -43.295  44.504  22.641  1.00  0.00    -0.082 Cl
ATOM     44  C   UNL     1     -46.418  44.732  24.102  1.00  0.00     0.137 A 
ATOM     45  C   UNL     1     -47.540  43.901  25.937  1.00  0.00     0.120 A 
ATOM     46  N   UNL     1     -47.550  44.649  24.823  1.00  0.00    -0.219 NA
ATOM     47  H   UNL     1     -48.472  43.862  26.493  1.00  0.00     0.106 H 
BRANCH  44  48
ATOM     48  N   UNL     1     -46.464  45.513  22.960  1.00  0.00    -0.383 N 
ATOM     49  H   UNL     1     -45.681  45.425  22.326  1.00  0.00     0.158 HD
ATOM     50  H   UNL     1     -47.391  45.538  22.555  1.00  0.00     0.158 HD
ENDBRANCH  44  48
ENDBRANCH  31  36
ENDBRANCH   1  26
TORSDOF 7
ENDMDL
MODEL 6
REMARK VINA RESULT:      -9.7      3.489     10.494
REMARK SMILES CNc1ccc2ccc(OCc3cc(F)cc(-n4cc(Cl)c5c(N)ncnc54)c3)cc2n1
REMARK SMILES IDX 11 1 10 4 9 5 3 6 4 7 32 8 5 9 31 11 6 12 30 14 7 15 8 17
REMARK SMILES IDX 2 20 1 22 12 26 13 27 29 28 14 29 17 31 15 33 16 34 18 36
REMARK SMILES IDX 19 37 28 38 20 39 22 41 27 42 21 43 23 44 26 45 25 46 24 48
REMARK H PARENT 11 2 11 3 4 10 5 13 30 16 7 18 8 19 2 21 1 23 1 24 1 25 13 30
REMARK H PARENT 29 32 16 35 19 40 26 47 24 49 24 50
REMARK Flexibility Score: inf
ROOT
ATOM      1  C   UNL     1     -47.024  36.571  27.124  1.00  0.00     0.113 C 
ATOM      2  H   UNL     1     -47.547  35.956  27.867  1.00  0.00     0.076 H 
ATOM      3  H   UNL     1     -47.797  37.167  26.623  1.00  0.00     0.076 H 
ENDROOT
BRANCH   1   4
ATOM      4  O   UNL     1     -46.424  35.755  26.113  1.00  0.00    -0.489 OA
BRANCH   4   5
ATOM      5  C   UNL     1     -46.968  34.527  25.852  1.00  0.00     0.122 A 
ATOM      6  C   UNL     1     -47.049  30.175  23.944  1.00  0.00     0.126 A 
ATOM      7  C   UNL     1     -48.313  29.912  24.452  1.00  0.00    -0.019 A 
ATOM      8  N   UNL     1     -46.421  31.349  24.146  1.00  0.00    -0.231 NA
ATOM      9  C   UNL     1     -48.949  30.886  25.213  1.00  0.00    -0.049 A 
ATOM     10  H   UNL     1     -48.811  28.972  24.244  1.00  0.00     0.066 H 
ATOM     11  C   UNL     1     -47.032  32.297  24.880  1.00  0.00     0.076 A 
ATOM     12  C   UNL     1     -48.309  32.107  25.443  1.00  0.00     0.001 A 
ATOM     13  H   UNL     1     -49.940  30.690  25.612  1.00  0.00     0.063 H 
ATOM     14  C   UNL     1     -46.385  33.509  25.095  1.00  0.00     0.007 A 
ATOM     15  C   UNL     1     -48.907  33.126  26.200  1.00  0.00    -0.049 A 
ATOM     16  H   UNL     1     -45.411  33.629  24.634  1.00  0.00     0.069 H 
ATOM     17  C   UNL     1     -48.235  34.329  26.399  1.00  0.00    -0.019 A 
ATOM     18  H   UNL     1     -49.894  32.989  26.633  1.00  0.00     0.063 H 
ATOM     19  H   UNL     1     -48.702  35.117  26.985  1.00  0.00     0.066 H 
BRANCH   6  20
ATOM     20  N   UNL     1     -46.358  29.252  23.157  1.00  0.00    -0.373 N 
ATOM     21  H   UNL     1     -47.099  28.717  22.701  1.00  0.00     0.161 HD
BRANCH  20  22
ATOM     22  C   UNL     1     -45.465  29.855  22.182  1.00  0.00     0.005 C 
ATOM     23  H   UNL     1     -44.842  29.071  21.738  1.00  0.00     0.045 H 
ATOM     24  H   UNL     1     -46.022  30.339  21.371  1.00  0.00     0.045 H 
ATOM     25  H   UNL     1     -44.792  30.583  22.645  1.00  0.00     0.045 H 
ENDBRANCH  20  22
ENDBRANCH   6  20
ENDBRANCH   4   5
ENDBRANCH   1   4
BRANCH   1  26
ATOM     26  C   UNL     1     -46.052  37.540  27.762  1.00  0.00    -0.006 A 
ATOM     27  C   UNL     1     -45.548  37.274  29.038  1.00  0.00    -0.020 A 
ATOM     28  C   UNL     1     -45.684  38.740  27.124  1.00  0.00    -0.031 A 
ATOM     29  C   UNL     1     -44.680  38.177  29.639  1.00  0.00     0.125 A 
ATOM     30  H   UNL     1     -45.816  36.369  29.576  1.00  0.00     0.066 H 
ATOM     31  C   UNL     1     -44.800  39.656  27.730  1.00  0.00     0.050 A 
ATOM     32  H   UNL     1     -46.124  38.939  26.151  1.00  0.00     0.065 H 
ATOM     33  F   UNL     1     -44.195  37.904  30.858  1.00  0.00    -0.207 F 
ATOM     34  C   UNL     1     -44.301  39.356  29.002  1.00  0.00    -0.002 A 
ATOM     35  H   UNL     1     -43.601  39.991  29.529  1.00  0.00     0.068 H 
BRANCH  31  36
ATOM     36  N   UNL     1     -44.422  40.861  27.043  1.00  0.00    -0.300 N 
ATOM     37  C   UNL     1     -43.118  41.225  26.744  1.00  0.00     0.030 A 
ATOM     38  C   UNL     1     -45.254  41.874  26.556  1.00  0.00     0.151 A 
ATOM     39  C   UNL     1     -43.123  42.439  26.100  1.00  0.00     0.072 A 
ATOM     40  H   UNL     1     -42.274  40.619  27.034  1.00  0.00     0.084 H 
ATOM     41  C   UNL     1     -44.463  42.863  25.974  1.00  0.00     0.080 A 
ATOM     42  N   UNL     1     -46.602  41.900  26.603  1.00  0.00    -0.218 NA
ATOM     43  Cl  UNL     1     -41.746  43.272  25.550  1.00  0.00    -0.082 Cl
ATOM     44  C   UNL     1     -45.127  43.973  25.427  1.00  0.00     0.137 A 
ATOM     45  C   UNL     1     -47.123  42.999  26.045  1.00  0.00     0.120 A 
ATOM     46  N   UNL     1     -46.470  44.019  25.466  1.00  0.00    -0.219 NA
ATOM     47  H   UNL     1     -48.207  43.076  26.060  1.00  0.00     0.106 H 
BRANCH  44  48
ATOM     48  N   UNL     1     -44.485  45.041  24.824  1.00  0.00    -0.383 N 
ATOM     49  H   UNL     1     -43.483  44.958  24.716  1.00  0.00     0.158 HD
ATOM     50  H   UNL     1     -45.010  45.403  24.037  1.00  0.00     0.158 HD
ENDBRANCH  44  48
ENDBRANCH  31  36
ENDBRANCH   1  26
TORSDOF 7
ENDMDL
MODEL 7
REMARK VINA RESULT:      -9.6      3.313     10.493
REMARK SMILES CNc1ccc2ccc(OCc3cc(F)cc(-n4cc(Cl)c5c(N)ncnc54)c3)cc2n1
REMARK SMILES IDX 11 1 10 4 9 5 3 6 4 7 32 8 5 9 31 11 6 12 30 14 7 15 8 17
REMARK SMILES IDX 2 20 1 22 12 26 13 27 29 28 14 29 17 31 15 33 16 34 18 36
REMARK SMILES IDX 19 37 28 38 20 39 22 41 27 42 21 43 23 44 26 45 25 46 24 48
REMARK H PARENT 11 2 11 3 4 10 5 13 30 16 7 18 8 19 2 21 1 23 1 24 1 25 13 30
REMARK H PARENT 29 32 16 35 19 40 26 47 24 49 24 50
REMARK Flexibility Score: inf
ROOT
ATOM      1  C   UNL     1     -46.030  34.413  27.636  1.00  0.00     0.113 C 
ATOM      2  H   UNL     1     -45.173  34.141  28.266  1.00  0.00     0.076 H 
ATOM      3  H   UNL     1     -46.870  33.802  27.985  1.00  0.00     0.076 H 
ENDROOT
BRANCH   1   4
ATOM      4  O   UNL     1     -45.800  34.046  26.273  1.00  0.00    -0.489 OA
BRANCH   4   5
ATOM      5  C   UNL     1     -46.649  33.150  25.682  1.00  0.00     0.122 A 
ATOM      6  C   UNL     1     -48.181  30.355  22.156  1.00  0.00     0.126 A 
ATOM      7  C   UNL     1     -49.291  29.949  22.881  1.00  0.00    -0.019 A 
ATOM      8  N   UNL     1     -47.280  31.229  22.645  1.00  0.00    -0.231 NA
ATOM      9  C   UNL     1     -49.475  30.447  24.166  1.00  0.00    -0.049 A 
ATOM     10  H   UNL     1     -50.019  29.273  22.449  1.00  0.00     0.066 H 
ATOM     11  C   UNL     1     -47.453  31.716  23.887  1.00  0.00     0.076 A 
ATOM     12  C   UNL     1     -48.546  31.347  24.695  1.00  0.00     0.001 A 
ATOM     13  H   UNL     1     -50.343  30.137  24.740  1.00  0.00     0.063 H 
ATOM     14  C   UNL     1     -46.524  32.616  24.398  1.00  0.00     0.007 A 
ATOM     15  C   UNL     1     -48.685  31.883  25.984  1.00  0.00    -0.049 A 
ATOM     16  H   UNL     1     -45.704  32.891  23.743  1.00  0.00     0.069 H 
ATOM     17  C   UNL     1     -47.738  32.781  26.470  1.00  0.00    -0.019 A 
ATOM     18  H   UNL     1     -49.528  31.607  26.613  1.00  0.00     0.063 H 
ATOM     19  H   UNL     1     -47.849  33.195  27.469  1.00  0.00     0.066 H 
BRANCH   6  20
ATOM     20  N   UNL     1     -47.941  29.912  20.854  1.00  0.00    -0.373 N 
ATOM     21  H   UNL     1     -47.799  28.906  20.961  1.00  0.00     0.161 HD
BRANCH  20  22
ATOM     22  C   UNL     1     -49.017  30.198  19.921  1.00  0.00     0.005 C 
ATOM     23  H   UNL     1     -49.087  29.380  19.196  1.00  0.00     0.045 H 
ATOM     24  H   UNL     1     -49.984  30.273  20.433  1.00  0.00     0.045 H 
ATOM     25  H   UNL     1     -48.833  31.117  19.358  1.00  0.00     0.045 H 
ENDBRANCH  20  22
ENDBRANCH   6  20
ENDBRANCH   4   5
ENDBRANCH   1   4
BRANCH   1  26
ATOM     26  C   UNL     1     -46.427  35.864  27.803  1.00  0.00    -0.006 A 
ATOM     27  C   UNL     1     -47.780  36.214  27.804  1.00  0.00    -0.020 A 
ATOM     28  C   UNL     1     -45.462  36.885  27.903  1.00  0.00    -0.031 A 
ATOM     29  C   UNL     1     -48.147  37.548  27.926  1.00  0.00     0.125 A 
ATOM     30  H   UNL     1     -48.561  35.463  27.714  1.00  0.00     0.066 H 
ATOM     31  C   UNL     1     -45.832  38.238  28.031  1.00  0.00     0.050 A 
ATOM     32  H   UNL     1     -44.419  36.585  27.858  1.00  0.00     0.065 H 
ATOM     33  F   UNL     1     -49.448  37.870  27.937  1.00  0.00    -0.207 F 
ATOM     34  C   UNL     1     -47.194  38.557  28.042  1.00  0.00    -0.002 A 
ATOM     35  H   UNL     1     -47.566  39.567  28.160  1.00  0.00     0.068 H 
BRANCH  31  36
ATOM     36  N   UNL     1     -44.825  39.256  28.157  1.00  0.00    -0.300 N 
ATOM     37  C   UNL     1     -43.905  39.337  29.191  1.00  0.00     0.030 A 
ATOM     38  C   UNL     1     -44.575  40.332  27.300  1.00  0.00     0.151 A 
ATOM     39  C   UNL     1     -43.106  40.438  29.002  1.00  0.00     0.072 A 
ATOM     40  H   UNL     1     -43.898  38.630  30.006  1.00  0.00     0.084 H 
ATOM     41  C   UNL     1     -43.515  41.079  27.813  1.00  0.00     0.080 A 
ATOM     42  N   UNL     1     -45.217  40.608  26.146  1.00  0.00    -0.218 NA
ATOM     43  Cl  UNL     1     -41.841  40.930  30.029  1.00  0.00    -0.082 Cl
ATOM     44  C   UNL     1     -43.117  42.211  27.084  1.00  0.00     0.137 A 
ATOM     45  C   UNL     1     -44.748  41.703  25.535  1.00  0.00     0.120 A 
ATOM     46  N   UNL     1     -43.748  42.504  25.933  1.00  0.00    -0.219 NA
ATOM     47  H   UNL     1     -45.234  41.976  24.603  1.00  0.00     0.106 H 
BRANCH  44  48
ATOM     48  N   UNL     1     -42.091  43.058  27.466  1.00  0.00    -0.383 N 
ATOM     49  H   UNL     1     -42.338  43.798  28.109  1.00  0.00     0.158 HD
ATOM     50  H   UNL     1     -41.231  42.555  27.642  1.00  0.00     0.158 HD
ENDBRANCH  44  48
ENDBRANCH  31  36
ENDBRANCH   1  26
TORSDOF 7
ENDMDL
