MODEL 1
REMARK VINA RESULT:     -10.4      0.000      0.000
REMARK SMILES CNc1nc2cc(OC[C@H]3O[C@@H](n4cc(-c5ccn(C)n5)c5c(N)ncnc54)[C@@H](F)[C@@H]3O)ccc2[nH]1
REMARK SMILES IDX 9 1 8 4 7 5 3 6 4 7 36 8 5 9 35 10 6 12 34 13 33 15 2 18
REMARK SMILES IDX 1 20 10 24 11 25 31 26 12 28 29 29 30 32 32 34 13 36 14 37
REMARK SMILES IDX 28 38 15 39 22 41 27 42 23 43 26 44 25 45 16 47 17 48 21 49
REMARK SMILES IDX 18 50 19 52 20 54 24 58
REMARK H PARENT 9 2 9 3 36 11 6 14 34 16 33 17 2 19 1 21 1 22 1 23 10 27 31 30
REMARK H PARENT 12 31 29 33 32 35 14 40 26 46 17 51 18 53 20 55 20 56 20 57
REMARK H PARENT 24 59 24 60
REMARK Flexibility Score: inf
ROOT
ATOM      1  C   UNL     1     -47.022  36.060  27.070  1.00  0.00     0.117 C 
ATOM      2  H   UNL     1     -48.024  35.696  27.321  1.00  0.00     0.073 H 
ATOM      3  H   UNL     1     -47.150  37.097  26.752  1.00  0.00     0.073 H 
ENDROOT
BRANCH   1   4
ATOM      4  O   UNL     1     -46.497  35.364  25.933  1.00  0.00    -0.491 OA
BRANCH   4   5
ATOM      5  C   UNL     1     -46.988  34.121  25.634  1.00  0.00     0.121 A 
ATOM      6  C   UNL     1     -47.582  29.980  23.960  1.00  0.00     0.200 A 
ATOM      7  N   UNL     1     -46.628  30.873  23.830  1.00  0.00    -0.213 NA
ATOM      8  N   UNL     1     -48.575  30.437  24.785  1.00  0.00    -0.324 N 
ATOM      9  C   UNL     1     -47.022  31.944  24.594  1.00  0.00     0.094 A 
ATOM     10  C   UNL     1     -48.246  31.699  25.202  1.00  0.00     0.067 A 
ATOM     11  H   UNL     1     -49.394  29.916  25.050  1.00  0.00     0.170 HD
ATOM     12  C   UNL     1     -46.373  33.172  24.812  1.00  0.00     0.008 A 
ATOM     13  C   UNL     1     -48.884  32.617  26.034  1.00  0.00    -0.033 A 
ATOM     14  H   UNL     1     -45.420  33.325  24.327  1.00  0.00     0.069 H 
ATOM     15  C   UNL     1     -48.223  33.837  26.232  1.00  0.00    -0.018 A 
ATOM     16  H   UNL     1     -49.839  32.411  26.504  1.00  0.00     0.065 H 
ATOM     17  H   UNL     1     -48.685  34.589  26.870  1.00  0.00     0.066 H 
BRANCH   6  18
ATOM     18  N   UNL     1     -47.672  28.751  23.415  1.00  0.00    -0.359 N 
ATOM     19  H   UNL     1     -47.836  28.645  22.421  1.00  0.00     0.163 HD
BRANCH  18  20
ATOM     20  C   UNL     1     -46.878  27.691  24.006  1.00  0.00     0.006 C 
ATOM     21  H   UNL     1     -46.043  28.129  24.562  1.00  0.00     0.045 H 
ATOM     22  H   UNL     1     -47.477  27.098  24.706  1.00  0.00     0.045 H 
ATOM     23  H   UNL     1     -46.458  27.030  23.241  1.00  0.00     0.045 H 
ENDBRANCH  18  20
ENDBRANCH   6  18
ENDBRANCH   4   5
ENDBRANCH   1   4
BRANCH   1  24
ATOM     24  C   UNL     1     -46.051  35.990  28.262  1.00  0.00     0.123 C 
ATOM     25  O   UNL     1     -44.942  36.899  28.046  1.00  0.00    -0.345 OA
ATOM     26  C   UNL     1     -46.718  36.406  29.579  1.00  0.00     0.119 C 
ATOM     27  H   UNL     1     -45.613  34.990  28.345  1.00  0.00     0.067 H 
ATOM     28  C   UNL     1     -45.029  37.933  29.048  1.00  0.00     0.169 C 
ATOM     29  C   UNL     1     -46.424  37.887  29.654  1.00  0.00     0.173 C 
ATOM     30  H   UNL     1     -47.788  36.182  29.610  1.00  0.00     0.066 H 
ATOM     31  H   UNL     1     -44.297  37.646  29.815  1.00  0.00     0.088 H 
ATOM     32  F   UNL     1     -47.347  38.544  28.908  1.00  0.00    -0.239 F 
ATOM     33  H   UNL     1     -46.445  38.302  30.666  1.00  0.00     0.074 H 
BRANCH  26  34
ATOM     34  O   UNL     1     -46.099  35.755  30.698  1.00  0.00    -0.387 OA
ATOM     35  H   UNL     1     -45.987  36.419  31.403  1.00  0.00     0.211 HD
ENDBRANCH  26  34
BRANCH  28  36
ATOM     36  N   UNL     1     -44.595  39.216  28.522  1.00  0.00    -0.302 N 
ATOM     37  C   UNL     1     -45.199  39.844  27.454  1.00  0.00     0.019 A 
ATOM     38  C   UNL     1     -43.547  39.983  28.964  1.00  0.00     0.148 A 
ATOM     39  C   UNL     1     -44.525  41.026  27.210  1.00  0.00     0.033 A 
ATOM     40  H   UNL     1     -46.046  39.396  26.951  1.00  0.00     0.083 H 
ATOM     41  C   UNL     1     -43.482  41.134  28.182  1.00  0.00     0.071 A 
ATOM     42  N   UNL     1     -42.726  39.669  29.979  1.00  0.00    -0.218 NA
ATOM     43  C   UNL     1     -42.473  42.056  28.518  1.00  0.00     0.137 A 
ATOM     44  C   UNL     1     -41.799  40.612  30.190  1.00  0.00     0.120 A 
ATOM     45  N   UNL     1     -41.622  41.765  29.523  1.00  0.00    -0.219 NA
ATOM     46  H   UNL     1     -41.102  40.421  31.000  1.00  0.00     0.106 H 
BRANCH  39  47
ATOM     47  C   UNL     1     -44.821  41.983  26.140  1.00  0.00     0.095 A 
ATOM     48  C   UNL     1     -44.110  42.062  24.921  1.00  0.00    -0.016 A 
ATOM     49  N   UNL     1     -45.785  42.912  26.210  1.00  0.00    -0.173 NA
ATOM     50  C   UNL     1     -44.701  43.092  24.227  1.00  0.00     0.025 A 
ATOM     51  H   UNL     1     -43.286  41.448  24.586  1.00  0.00     0.066 H 
ATOM     52  N   UNL     1     -45.695  43.561  25.033  1.00  0.00    -0.275 N 
ATOM     53  H   UNL     1     -44.504  43.512  23.252  1.00  0.00     0.084 H 
BRANCH  52  54
ATOM     54  C   UNL     1     -46.609  44.638  24.747  1.00  0.00     0.030 C 
ATOM     55  H   UNL     1     -47.612  44.218  24.632  1.00  0.00     0.048 H 
ATOM     56  H   UNL     1     -46.597  45.356  25.571  1.00  0.00     0.048 H 
ATOM     57  H   UNL     1     -46.289  45.126  23.823  1.00  0.00     0.048 H 
ENDBRANCH  52  54
ENDBRANCH  39  47
BRANCH  43  58
ATOM     58  N   UNL     1     -42.281  43.270  27.873  1.00  0.00    -0.383 N 
ATOM     59  H   UNL     1     -41.304  43.523  27.853  1.00  0.00     0.158 HD
ATOM     60  H   UNL     1     -42.791  43.321  26.987  1.00  0.00     0.158 HD
ENDBRANCH  43  58
ENDBRANCH  28  36
ENDBRANCH   1  24
TORSDOF 10
ENDMDL
MODEL 2
REMARK VINA RESULT:      -9.5      1.762      2.070
REMARK SMILES CNc1nc2cc(OC[C@H]3O[C@@H](n4cc(-c5ccn(C)n5)c5c(N)ncnc54)[C@@H](F)[C@@H]3O)ccc2[nH]1
REMARK SMILES IDX 9 1 8 4 7 5 3 6 4 7 36 8 5 9 35 10 6 12 34 13 33 15 2 18
REMARK SMILES IDX 1 20 10 24 11 25 31 26 12 28 29 29 30 32 32 34 13 36 14 37
REMARK SMILES IDX 28 38 15 39 22 41 27 42 23 43 26 44 25 45 16 47 17 48 21 49
REMARK SMILES IDX 18 50 19 52 20 54 24 58
REMARK H PARENT 9 2 9 3 36 11 6 14 34 16 33 17 2 19 1 21 1 22 1 23 10 27 31 30
REMARK H PARENT 12 31 29 33 32 35 14 40 26 46 17 51 18 53 20 55 20 56 20 57
REMARK H PARENT 24 59 24 60
REMARK Flexibility Score: inf
ROOT
ATOM      1  C   UNL     1     -46.058  34.736  27.511  1.00  0.00     0.117 C 
ATOM      2  H   UNL     1     -45.999  35.121  26.488  1.00  0.00     0.073 H 
ATOM      3  H   UNL     1     -45.043  34.791  27.912  1.00  0.00     0.073 H 
ENDROOT
BRANCH   1   4
ATOM      4  O   UNL     1     -46.403  33.345  27.511  1.00  0.00    -0.491 OA
BRANCH   4   5
ATOM      5  C   UNL     1     -46.902  32.787  26.364  1.00  0.00     0.121 A 
ATOM      6  C   UNL     1     -47.364  31.018  22.246  1.00  0.00     0.200 A 
ATOM      7  N   UNL     1     -46.327  31.441  22.930  1.00  0.00    -0.213 NA
ATOM      8  N   UNL     1     -48.519  31.153  22.969  1.00  0.00    -0.324 N 
ATOM      9  C   UNL     1     -46.831  31.868  24.134  1.00  0.00     0.094 A 
ATOM     10  C   UNL     1     -48.209  31.703  24.184  1.00  0.00     0.067 A 
ATOM     11  H   UNL     1     -49.435  30.873  22.658  1.00  0.00     0.170 HD
ATOM     12  C   UNL     1     -46.157  32.415  25.241  1.00  0.00     0.008 A 
ATOM     13  C   UNL     1     -48.981  32.055  25.289  1.00  0.00    -0.033 A 
ATOM     14  H   UNL     1     -45.086  32.523  25.168  1.00  0.00     0.069 H 
ATOM     15  C   UNL     1     -48.292  32.604  26.378  1.00  0.00    -0.018 A 
ATOM     16  H   UNL     1     -50.057  31.919  25.314  1.00  0.00     0.065 H 
ATOM     17  H   UNL     1     -48.853  32.901  27.263  1.00  0.00     0.066 H 
BRANCH   6  18
ATOM     18  N   UNL     1     -47.405  30.495  21.005  1.00  0.00    -0.359 N 
ATOM     19  H   UNL     1     -47.181  29.519  20.856  1.00  0.00     0.163 HD
BRANCH  18  20
ATOM     20  C   UNL     1     -48.381  31.033  20.078  1.00  0.00     0.006 C 
ATOM     21  H   UNL     1     -47.882  31.709  19.376  1.00  0.00     0.045 H 
ATOM     22  H   UNL     1     -48.853  30.232  19.499  1.00  0.00     0.045 H 
ATOM     23  H   UNL     1     -49.156  31.606  20.598  1.00  0.00     0.045 H 
ENDBRANCH  18  20
ENDBRANCH   6  18
ENDBRANCH   4   5
ENDBRANCH   1   4
BRANCH   1  24
ATOM     24  C   UNL     1     -47.020  35.548  28.395  1.00  0.00     0.123 C 
ATOM     25  O   UNL     1     -46.319  36.678  28.973  1.00  0.00    -0.345 OA
ATOM     26  C   UNL     1     -48.202  36.115  27.599  1.00  0.00     0.119 C 
ATOM     27  H   UNL     1     -47.371  34.944  29.239  1.00  0.00     0.067 H 
ATOM     28  C   UNL     1     -46.899  37.876  28.416  1.00  0.00     0.169 C 
ATOM     29  C   UNL     1     -47.707  37.483  27.188  1.00  0.00     0.173 C 
ATOM     30  H   UNL     1     -48.487  35.491  26.748  1.00  0.00     0.066 H 
ATOM     31  H   UNL     1     -47.585  38.246  29.190  1.00  0.00     0.088 H 
ATOM     32  F   UNL     1     -46.944  37.344  26.075  1.00  0.00    -0.239 F 
ATOM     33  H   UNL     1     -48.500  38.204  26.970  1.00  0.00     0.074 H 
BRANCH  26  34
ATOM     34  O   UNL     1     -49.357  36.273  28.434  1.00  0.00    -0.387 OA
ATOM     35  H   UNL     1     -49.052  36.585  29.307  1.00  0.00     0.211 HD
ENDBRANCH  26  34
BRANCH  28  36
ATOM     36  N   UNL     1     -45.896  38.909  28.224  1.00  0.00    -0.302 N 
ATOM     37  C   UNL     1     -45.964  39.862  27.231  1.00  0.00     0.019 A 
ATOM     38  C   UNL     1     -44.748  39.098  28.953  1.00  0.00     0.148 A 
ATOM     39  C   UNL     1     -44.845  40.667  27.326  1.00  0.00     0.033 A 
ATOM     40  H   UNL     1     -46.793  39.881  26.535  1.00  0.00     0.083 H 
ATOM     41  C   UNL     1     -44.073  40.201  28.435  1.00  0.00     0.071 A 
ATOM     42  N   UNL     1     -44.351  38.342  29.989  1.00  0.00    -0.218 NA
ATOM     43  C   UNL     1     -42.879  40.559  29.087  1.00  0.00     0.137 A 
ATOM     44  C   UNL     1     -43.194  38.768  30.512  1.00  0.00     0.120 A 
ATOM     45  N   UNL     1     -42.443  39.811  30.122  1.00  0.00    -0.219 NA
ATOM     46  H   UNL     1     -42.816  38.201  31.357  1.00  0.00     0.106 H 
BRANCH  39  47
ATOM     47  C   UNL     1     -44.509  41.785  26.439  1.00  0.00     0.095 A 
ATOM     48  C   UNL     1     -44.317  41.666  25.043  1.00  0.00    -0.016 A 
ATOM     49  N   UNL     1     -44.316  43.043  26.858  1.00  0.00    -0.173 NA
ATOM     50  C   UNL     1     -44.007  42.936  24.615  1.00  0.00     0.025 A 
ATOM     51  H   UNL     1     -44.403  40.782  24.429  1.00  0.00     0.066 H 
ATOM     52  N   UNL     1     -44.024  43.719  25.731  1.00  0.00    -0.275 N 
ATOM     53  H   UNL     1     -43.786  43.334  23.635  1.00  0.00     0.084 H 
BRANCH  52  54
ATOM     54  C   UNL     1     -43.768  45.136  25.800  1.00  0.00     0.030 C 
ATOM     55  H   UNL     1     -43.569  45.400  26.842  1.00  0.00     0.048 H 
ATOM     56  H   UNL     1     -42.902  45.381  25.181  1.00  0.00     0.048 H 
ATOM     57  H   UNL     1     -44.651  45.664  25.432  1.00  0.00     0.048 H 
ENDBRANCH  52  54
ENDBRANCH  39  47
BRANCH  43  58
ATOM     58  N   UNL     1     -42.093  41.647  28.733  1.00  0.00    -0.383 N 
ATOM     59  H   UNL     1     -42.579  42.517  28.895  1.00  0.00     0.158 HD
ATOM     60  H   UNL     1     -41.141  41.572  29.101  1.00  0.00     0.158 HD
ENDBRANCH  43  58
ENDBRANCH  28  36
ENDBRANCH   1  24
TORSDOF 10
ENDMDL
MODEL 3
REMARK VINA RESULT:      -8.7      2.610      3.571
REMARK SMILES CNc1nc2cc(OC[C@H]3O[C@@H](n4cc(-c5ccn(C)n5)c5c(N)ncnc54)[C@@H](F)[C@@H]3O)ccc2[nH]1
REMARK SMILES IDX 9 1 8 4 7 5 3 6 4 7 36 8 5 9 35 10 6 12 34 13 33 15 2 18
REMARK SMILES IDX 1 20 10 24 11 25 31 26 12 28 29 29 30 32 32 34 13 36 14 37
REMARK SMILES IDX 28 38 15 39 22 41 27 42 23 43 26 44 25 45 16 47 17 48 21 49
REMARK SMILES IDX 18 50 19 52 20 54 24 58
REMARK H PARENT 9 2 9 3 36 11 6 14 34 16 33 17 2 19 1 21 1 22 1 23 10 27 31 30
REMARK H PARENT 12 31 29 33 32 35 14 40 26 46 17 51 18 53 20 55 20 56 20 57
REMARK H PARENT 24 59 24 60
REMARK Flexibility Score: inf
ROOT
ATOM      1  C   UNL     1     -46.688  35.090  26.051  1.00  0.00     0.117 C 
ATOM      2  H   UNL     1     -47.043  35.924  25.436  1.00  0.00     0.073 H 
ATOM      3  H   UNL     1     -45.930  34.577  25.454  1.00  0.00     0.073 H 
ENDROOT
BRANCH   1   4
ATOM      4  O   UNL     1     -47.733  34.133  26.262  1.00  0.00    -0.491 OA
BRANCH   4   5
ATOM      5  C   UNL     1     -47.643  32.910  25.651  1.00  0.00     0.121 A 
ATOM      6  C   UNL     1     -48.321  28.646  24.363  1.00  0.00     0.200 A 
ATOM      7  N   UNL     1     -48.950  29.443  25.194  1.00  0.00    -0.213 NA
ATOM      8  N   UNL     1     -47.252  29.279  23.787  1.00  0.00    -0.324 N 
ATOM      9  C   UNL     1     -48.261  30.631  25.157  1.00  0.00     0.094 A 
ATOM     10  C   UNL     1     -47.185  30.554  24.283  1.00  0.00     0.067 A 
ATOM     11  H   UNL     1     -46.638  28.874  23.100  1.00  0.00     0.170 HD
ATOM     12  C   UNL     1     -48.505  31.827  25.854  1.00  0.00     0.008 A 
ATOM     13  C   UNL     1     -46.312  31.615  24.050  1.00  0.00    -0.033 A 
ATOM     14  H   UNL     1     -49.354  31.851  26.519  1.00  0.00     0.069 H 
ATOM     15  C   UNL     1     -46.568  32.795  24.760  1.00  0.00    -0.018 A 
ATOM     16  H   UNL     1     -45.476  31.541  23.363  1.00  0.00     0.065 H 
ATOM     17  H   UNL     1     -45.910  33.651  24.617  1.00  0.00     0.066 H 
BRANCH   6  18
ATOM     18  N   UNL     1     -48.603  27.370  24.035  1.00  0.00    -0.359 N 
ATOM     19  H   UNL     1     -47.887  26.656  24.106  1.00  0.00     0.163 HD
BRANCH  18  20
ATOM     20  C   UNL     1     -49.950  26.892  24.280  1.00  0.00     0.006 C 
ATOM     21  H   UNL     1     -50.383  27.442  25.121  1.00  0.00     0.045 H 
ATOM     22  H   UNL     1     -50.588  27.056  23.404  1.00  0.00     0.045 H 
ATOM     23  H   UNL     1     -49.958  25.828  24.537  1.00  0.00     0.045 H 
ENDBRANCH  18  20
ENDBRANCH   6  18
ENDBRANCH   4   5
ENDBRANCH   1   4
BRANCH   1  24
ATOM     24  C   UNL     1     -46.082  35.555  27.387  1.00  0.00     0.123 C 
ATOM     25  O   UNL     1     -45.772  36.970  27.319  1.00  0.00    -0.345 OA
ATOM     26  C   UNL     1     -47.051  35.366  28.561  1.00  0.00     0.119 C 
ATOM     27  H   UNL     1     -45.132  35.044  27.578  1.00  0.00     0.067 H 
ATOM     28  C   UNL     1     -46.638  37.647  28.253  1.00  0.00     0.169 C 
ATOM     29  C   UNL     1     -47.766  36.696  28.626  1.00  0.00     0.173 C 
ATOM     30  H   UNL     1     -47.732  34.522  28.426  1.00  0.00     0.066 H 
ATOM     31  H   UNL     1     -46.014  37.825  29.139  1.00  0.00     0.088 H 
ATOM     32  F   UNL     1     -48.771  36.685  27.715  1.00  0.00    -0.239 F 
ATOM     33  H   UNL     1     -48.195  36.932  29.604  1.00  0.00     0.074 H 
BRANCH  26  34
ATOM     34  O   UNL     1     -46.338  35.165  29.789  1.00  0.00    -0.387 OA
ATOM     35  H   UNL     1     -46.710  34.374  30.222  1.00  0.00     0.211 HD
ENDBRANCH  26  34
BRANCH  28  36
ATOM     36  N   UNL     1     -47.032  38.954  27.756  1.00  0.00    -0.302 N 
ATOM     37  C   UNL     1     -48.312  39.454  27.863  1.00  0.00     0.019 A 
ATOM     38  C   UNL     1     -46.241  39.869  27.108  1.00  0.00     0.148 A 
ATOM     39  C   UNL     1     -48.339  40.703  27.273  1.00  0.00     0.033 A 
ATOM     40  H   UNL     1     -49.096  38.878  28.336  1.00  0.00     0.083 H 
ATOM     41  C   UNL     1     -47.018  40.987  26.807  1.00  0.00     0.071 A 
ATOM     42  N   UNL     1     -44.941  39.707  26.817  1.00  0.00    -0.218 NA
ATOM     43  C   UNL     1     -46.353  42.046  26.160  1.00  0.00     0.137 A 
ATOM     44  C   UNL     1     -44.427  40.771  26.187  1.00  0.00     0.120 A 
ATOM     45  N   UNL     1     -45.051  41.909  25.839  1.00  0.00    -0.219 NA
ATOM     46  H   UNL     1     -43.376  40.706  25.923  1.00  0.00     0.106 H 
BRANCH  39  47
ATOM     47  C   UNL     1     -49.514  41.569  27.139  1.00  0.00     0.095 A 
ATOM     48  C   UNL     1     -50.425  41.845  28.184  1.00  0.00    -0.016 A 
ATOM     49  N   UNL     1     -49.873  42.175  25.999  1.00  0.00    -0.173 NA
ATOM     50  C   UNL     1     -51.369  42.675  27.626  1.00  0.00     0.025 A 
ATOM     51  H   UNL     1     -50.395  41.497  29.206  1.00  0.00     0.066 H 
ATOM     52  N   UNL     1     -50.994  42.845  26.327  1.00  0.00    -0.275 N 
ATOM     53  H   UNL     1     -52.249  43.148  28.038  1.00  0.00     0.084 H 
BRANCH  52  54
ATOM     54  C   UNL     1     -51.662  43.641  25.328  1.00  0.00     0.030 C 
ATOM     55  H   UNL     1     -50.980  44.431  25.004  1.00  0.00     0.048 H 
ATOM     56  H   UNL     1     -51.932  43.009  24.478  1.00  0.00     0.048 H 
ATOM     57  H   UNL     1     -52.563  44.070  25.774  1.00  0.00     0.048 H 
ENDBRANCH  52  54
ENDBRANCH  39  47
BRANCH  43  58
ATOM     58  N   UNL     1     -46.956  43.248  25.815  1.00  0.00    -0.383 N 
ATOM     59  H   UNL     1     -46.446  43.714  25.079  1.00  0.00     0.158 HD
ATOM     60  H   UNL     1     -47.967  43.150  25.688  1.00  0.00     0.158 HD
ENDBRANCH  43  58
ENDBRANCH  28  36
ENDBRANCH   1  24
TORSDOF 10
ENDMDL
MODEL 4
REMARK VINA RESULT:      -8.5      1.822      2.237
REMARK SMILES CNc1nc2cc(OC[C@H]3O[C@@H](n4cc(-c5ccn(C)n5)c5c(N)ncnc54)[C@@H](F)[C@@H]3O)ccc2[nH]1
REMARK SMILES IDX 9 1 8 4 7 5 3 6 4 7 36 8 5 9 35 10 6 12 34 13 33 15 2 18
REMARK SMILES IDX 1 20 10 24 11 25 31 26 12 28 29 29 30 32 32 34 13 36 14 37
REMARK SMILES IDX 28 38 15 39 22 41 27 42 23 43 26 44 25 45 16 47 17 48 21 49
REMARK SMILES IDX 18 50 19 52 20 54 24 58
REMARK H PARENT 9 2 9 3 36 11 6 14 34 16 33 17 2 19 1 21 1 22 1 23 10 27 31 30
REMARK H PARENT 12 31 29 33 32 35 14 40 26 46 17 51 18 53 20 55 20 56 20 57
REMARK H PARENT 24 59 24 60
REMARK Flexibility Score: inf
ROOT
ATOM      1  C   UNL     1     -45.569  36.384  27.775  1.00  0.00     0.117 C 
ATOM      2  H   UNL     1     -45.564  36.526  26.689  1.00  0.00     0.073 H 
ATOM      3  H   UNL     1     -44.529  36.486  28.096  1.00  0.00     0.073 H 
ENDROOT
BRANCH   1   4
ATOM      4  O   UNL     1     -45.952  35.045  28.112  1.00  0.00    -0.491 OA
BRANCH   4   5
ATOM      5  C   UNL     1     -46.500  34.250  27.140  1.00  0.00     0.121 A 
ATOM      6  C   UNL     1     -47.115  31.373  23.727  1.00  0.00     0.200 A 
ATOM      7  N   UNL     1     -46.048  31.799  24.361  1.00  0.00    -0.213 NA
ATOM      8  N   UNL     1     -48.252  31.937  24.243  1.00  0.00    -0.324 N 
ATOM      9  C   UNL     1     -46.511  32.671  25.316  1.00  0.00     0.094 A 
ATOM     10  C   UNL     1     -47.894  32.780  25.262  1.00  0.00     0.067 A 
ATOM     11  H   UNL     1     -49.189  31.741  23.933  1.00  0.00     0.170 HD
ATOM     12  C   UNL     1     -45.794  33.411  26.271  1.00  0.00     0.008 A 
ATOM     13  C   UNL     1     -48.630  33.598  26.116  1.00  0.00    -0.033 A 
ATOM     14  H   UNL     1     -44.721  33.296  26.288  1.00  0.00     0.069 H 
ATOM     15  C   UNL     1     -47.896  34.333  27.055  1.00  0.00    -0.018 A 
ATOM     16  H   UNL     1     -49.711  33.672  26.062  1.00  0.00     0.065 H 
ATOM     17  H   UNL     1     -48.427  34.992  27.742  1.00  0.00     0.066 H 
BRANCH   6  18
ATOM     18  N   UNL     1     -47.203  30.498  22.706  1.00  0.00    -0.359 N 
ATOM     19  H   UNL     1     -48.093  30.076  22.472  1.00  0.00     0.163 HD
BRANCH  18  20
ATOM     20  C   UNL     1     -46.315  30.689  21.576  1.00  0.00     0.006 C 
ATOM     21  H   UNL     1     -46.842  31.239  20.789  1.00  0.00     0.045 H 
ATOM     22  H   UNL     1     -45.435  31.274  21.865  1.00  0.00     0.045 H 
ATOM     23  H   UNL     1     -45.990  29.733  21.154  1.00  0.00     0.045 H 
ENDBRANCH  18  20
ENDBRANCH   6  18
ENDBRANCH   4   5
ENDBRANCH   1   4
BRANCH   1  24
ATOM     24  C   UNL     1     -46.449  37.415  28.503  1.00  0.00     0.123 C 
ATOM     25  O   UNL     1     -45.726  38.663  28.648  1.00  0.00    -0.345 OA
ATOM     26  C   UNL     1     -47.735  37.731  27.729  1.00  0.00     0.119 C 
ATOM     27  H   UNL     1     -46.678  37.077  29.520  1.00  0.00     0.067 H 
ATOM     28  C   UNL     1     -46.408  39.652  27.849  1.00  0.00     0.169 C 
ATOM     29  C   UNL     1     -47.339  38.924  26.890  1.00  0.00     0.173 C 
ATOM     30  H   UNL     1     -48.095  36.890  27.130  1.00  0.00     0.066 H 
ATOM     31  H   UNL     1     -47.011  40.227  28.564  1.00  0.00     0.088 H 
ATOM     32  F   UNL     1     -46.706  38.474  25.778  1.00  0.00    -0.239 F 
ATOM     33  H   UNL     1     -48.176  39.554  26.575  1.00  0.00     0.074 H 
BRANCH  26  34
ATOM     34  O   UNL     1     -48.790  38.120  28.619  1.00  0.00    -0.387 OA
ATOM     35  H   UNL     1     -49.070  37.327  29.112  1.00  0.00     0.211 HD
ENDBRANCH  26  34
BRANCH  28  36
ATOM     36  N   UNL     1     -45.470  40.588  27.253  1.00  0.00    -0.302 N 
ATOM     37  C   UNL     1     -45.747  41.326  26.123  1.00  0.00     0.019 A 
ATOM     38  C   UNL     1     -44.197  40.874  27.680  1.00  0.00     0.148 A 
ATOM     39  C   UNL     1     -44.635  42.092  25.824  1.00  0.00     0.033 A 
ATOM     40  H   UNL     1     -46.701  41.239  25.621  1.00  0.00     0.083 H 
ATOM     41  C   UNL     1     -43.649  41.826  26.824  1.00  0.00     0.071 A 
ATOM     42  N   UNL     1     -43.591  40.324  28.745  1.00  0.00    -0.218 NA
ATOM     43  C   UNL     1     -42.346  42.260  27.133  1.00  0.00     0.137 A 
ATOM     44  C   UNL     1     -42.353  40.801  28.924  1.00  0.00     0.120 A 
ATOM     45  N   UNL     1     -41.703  41.717  28.186  1.00  0.00    -0.219 NA
ATOM     46  H   UNL     1     -41.806  40.399  29.771  1.00  0.00     0.106 H 
BRANCH  39  47
ATOM     47  C   UNL     1     -44.494  42.997  24.680  1.00  0.00     0.095 A 
ATOM     48  C   UNL     1     -45.543  43.785  24.152  1.00  0.00    -0.016 A 
ATOM     49  N   UNL     1     -43.358  43.159  23.987  1.00  0.00    -0.173 NA
ATOM     50  C   UNL     1     -44.984  44.460  23.092  1.00  0.00     0.025 A 
ATOM     51  H   UNL     1     -46.563  43.859  24.499  1.00  0.00     0.066 H 
ATOM     52  N   UNL     1     -43.683  44.058  23.038  1.00  0.00    -0.275 N 
ATOM     53  H   UNL     1     -45.395  45.177  22.395  1.00  0.00     0.084 H 
BRANCH  52  54
ATOM     54  C   UNL     1     -42.678  44.493  22.100  1.00  0.00     0.030 C 
ATOM     55  H   UNL     1     -42.404  43.642  21.471  1.00  0.00     0.048 H 
ATOM     56  H   UNL     1     -43.081  45.300  21.483  1.00  0.00     0.048 H 
ATOM     57  H   UNL     1     -41.812  44.850  22.663  1.00  0.00     0.048 H 
ENDBRANCH  52  54
ENDBRANCH  39  47
BRANCH  43  58
ATOM     58  N   UNL     1     -41.656  43.226  26.414  1.00  0.00    -0.383 N 
ATOM     59  H   UNL     1     -42.088  43.392  25.516  1.00  0.00     0.158 HD
ATOM     60  H   UNL     1     -41.438  44.049  26.983  1.00  0.00     0.158 HD
ENDBRANCH  43  58
ENDBRANCH  28  36
ENDBRANCH   1  24
TORSDOF 10
ENDMDL
MODEL 5
REMARK VINA RESULT:      -8.4      4.120      7.064
REMARK SMILES CNc1nc2cc(OC[C@H]3O[C@@H](n4cc(-c5ccn(C)n5)c5c(N)ncnc54)[C@@H](F)[C@@H]3O)ccc2[nH]1
REMARK SMILES IDX 9 1 8 4 7 5 3 6 4 7 36 8 5 9 35 10 6 12 34 13 33 15 2 18
REMARK SMILES IDX 1 20 10 24 11 25 31 26 12 28 29 29 30 32 32 34 13 36 14 37
REMARK SMILES IDX 28 38 15 39 22 41 27 42 23 43 26 44 25 45 16 47 17 48 21 49
REMARK SMILES IDX 18 50 19 52 20 54 24 58
REMARK H PARENT 9 2 9 3 36 11 6 14 34 16 33 17 2 19 1 21 1 22 1 23 10 27 31 30
REMARK H PARENT 12 31 29 33 32 35 14 40 26 46 17 51 18 53 20 55 20 56 20 57
REMARK H PARENT 24 59 24 60
REMARK Flexibility Score: inf
ROOT
ATOM      1  C   UNL     1     -48.745  37.143  28.140  1.00  0.00     0.117 C 
ATOM      2  H   UNL     1     -49.580  36.566  27.729  1.00  0.00     0.073 H 
ATOM      3  H   UNL     1     -48.962  37.269  29.204  1.00  0.00     0.073 H 
ENDROOT
BRANCH   1   4
ATOM      4  O   UNL     1     -48.718  38.464  27.587  1.00  0.00    -0.491 OA
BRANCH   4   5
ATOM      5  C   UNL     1     -49.355  39.475  28.257  1.00  0.00     0.121 A 
ATOM      6  C   UNL     1     -50.299  43.240  30.545  1.00  0.00     0.200 A 
ATOM      7  N   UNL     1     -49.188  42.742  30.056  1.00  0.00    -0.213 NA
ATOM      8  N   UNL     1     -51.365  42.422  30.279  1.00  0.00    -0.324 N 
ATOM      9  C   UNL     1     -49.548  41.559  29.457  1.00  0.00     0.094 A 
ATOM     10  C   UNL     1     -50.911  41.331  29.586  1.00  0.00     0.067 A 
ATOM     11  H   UNL     1     -52.320  42.611  30.535  1.00  0.00     0.170 HD
ATOM     12  C   UNL     1     -48.749  40.623  28.778  1.00  0.00     0.008 A 
ATOM     13  C   UNL     1     -51.550  40.204  29.073  1.00  0.00    -0.033 A 
ATOM     14  H   UNL     1     -47.695  40.837  28.692  1.00  0.00     0.069 H 
ATOM     15  C   UNL     1     -50.734  39.279  28.407  1.00  0.00    -0.018 A 
ATOM     16  H   UNL     1     -52.616  40.039  29.180  1.00  0.00     0.065 H 
ATOM     17  H   UNL     1     -51.187  38.379  27.993  1.00  0.00     0.066 H 
BRANCH   6  18
ATOM     18  N   UNL     1     -50.487  44.390  31.221  1.00  0.00    -0.359 N 
ATOM     19  H   UNL     1     -50.612  44.375  32.226  1.00  0.00     0.163 HD
BRANCH  18  20
ATOM     20  C   UNL     1     -49.835  45.583  30.718  1.00  0.00     0.006 C 
ATOM     21  H   UNL     1     -48.771  45.552  30.976  1.00  0.00     0.045 H 
ATOM     22  H   UNL     1     -49.917  45.643  29.627  1.00  0.00     0.045 H 
ATOM     23  H   UNL     1     -50.258  46.491  31.162  1.00  0.00     0.045 H 
ENDBRANCH  18  20
ENDBRANCH   6  18
ENDBRANCH   4   5
ENDBRANCH   1   4
BRANCH   1  24
ATOM     24  C   UNL     1     -47.390  36.436  27.959  1.00  0.00     0.123 C 
ATOM     25  O   UNL     1     -46.500  37.274  27.181  1.00  0.00    -0.345 OA
ATOM     26  C   UNL     1     -46.693  36.166  29.299  1.00  0.00     0.119 C 
ATOM     27  H   UNL     1     -47.512  35.509  27.388  1.00  0.00     0.067 H 
ATOM     28  C   UNL     1     -45.413  37.668  28.045  1.00  0.00     0.169 C 
ATOM     29  C   UNL     1     -45.829  37.392  29.483  1.00  0.00     0.173 C 
ATOM     30  H   UNL     1     -47.392  36.009  30.125  1.00  0.00     0.066 H 
ATOM     31  H   UNL     1     -44.583  36.999  27.779  1.00  0.00     0.088 H 
ATOM     32  F   UNL     1     -46.595  38.379  30.011  1.00  0.00    -0.239 F 
ATOM     33  H   UNL     1     -44.966  37.243  30.138  1.00  0.00     0.074 H 
BRANCH  26  34
ATOM     34  O   UNL     1     -45.846  35.011  29.215  1.00  0.00    -0.387 OA
ATOM     35  H   UNL     1     -45.542  34.799  30.117  1.00  0.00     0.211 HD
ENDBRANCH  26  34
BRANCH  28  36
ATOM     36  N   UNL     1     -44.966  39.018  27.750  1.00  0.00    -0.302 N 
ATOM     37  C   UNL     1     -45.451  39.768  26.700  1.00  0.00     0.019 A 
ATOM     38  C   UNL     1     -44.013  39.743  28.422  1.00  0.00     0.148 A 
ATOM     39  C   UNL     1     -44.797  40.986  26.701  1.00  0.00     0.033 A 
ATOM     40  H   UNL     1     -46.207  39.371  26.037  1.00  0.00     0.083 H 
ATOM     41  C   UNL     1     -43.894  40.988  27.808  1.00  0.00     0.071 A 
ATOM     42  N   UNL     1     -43.319  39.315  29.488  1.00  0.00    -0.218 NA
ATOM     43  C   UNL     1     -42.973  41.879  28.391  1.00  0.00     0.137 A 
ATOM     44  C   UNL     1     -42.463  40.242  29.939  1.00  0.00     0.120 A 
ATOM     45  N   UNL     1     -42.248  41.476  29.454  1.00  0.00    -0.219 NA
ATOM     46  H   UNL     1     -41.870  39.962  30.803  1.00  0.00     0.106 H 
BRANCH  39  47
ATOM     47  C   UNL     1     -44.990  42.069  25.732  1.00  0.00     0.095 A 
ATOM     48  C   UNL     1     -44.121  42.334  24.649  1.00  0.00    -0.016 A 
ATOM     49  N   UNL     1     -46.000  42.949  25.782  1.00  0.00    -0.173 NA
ATOM     50  C   UNL     1     -44.663  43.429  24.016  1.00  0.00     0.025 A 
ATOM     51  H   UNL     1     -43.230  41.798  24.360  1.00  0.00     0.066 H 
ATOM     52  N   UNL     1     -45.780  43.754  24.725  1.00  0.00    -0.275 N 
ATOM     53  H   UNL     1     -44.353  43.984  23.142  1.00  0.00     0.084 H 
BRANCH  52  54
ATOM     54  C   UNL     1     -46.699  44.831  24.452  1.00  0.00     0.030 C 
ATOM     55  H   UNL     1     -47.291  45.016  25.352  1.00  0.00     0.048 H 
ATOM     56  H   UNL     1     -46.138  45.729  24.182  1.00  0.00     0.048 H 
ATOM     57  H   UNL     1     -47.345  44.531  23.622  1.00  0.00     0.048 H 
ENDBRANCH  52  54
ENDBRANCH  39  47
BRANCH  43  58
ATOM     58  N   UNL     1     -42.746  43.172  27.938  1.00  0.00    -0.383 N 
ATOM     59  H   UNL     1     -41.792  43.456  28.104  1.00  0.00     0.158 HD
ATOM     60  H   UNL     1     -43.117  43.320  26.995  1.00  0.00     0.158 HD
ENDBRANCH  43  58
ENDBRANCH  28  36
ENDBRANCH   1  24
TORSDOF 10
ENDMDL
MODEL 6
REMARK VINA RESULT:      -8.4      1.816      2.899
REMARK SMILES CNc1nc2cc(OC[C@H]3O[C@@H](n4cc(-c5ccn(C)n5)c5c(N)ncnc54)[C@@H](F)[C@@H]3O)ccc2[nH]1
REMARK SMILES IDX 9 1 8 4 7 5 3 6 4 7 36 8 5 9 35 10 6 12 34 13 33 15 2 18
REMARK SMILES IDX 1 20 10 24 11 25 31 26 12 28 29 29 30 32 32 34 13 36 14 37
REMARK SMILES IDX 28 38 15 39 22 41 27 42 23 43 26 44 25 45 16 47 17 48 21 49
REMARK SMILES IDX 18 50 19 52 20 54 24 58
REMARK H PARENT 9 2 9 3 36 11 6 14 34 16 33 17 2 19 1 21 1 22 1 23 10 27 31 30
REMARK H PARENT 12 31 29 33 32 35 14 40 26 46 17 51 18 53 20 55 20 56 20 57
REMARK H PARENT 24 59 24 60
REMARK Flexibility Score: inf
ROOT
ATOM      1  C   UNL     1     -45.728  35.655  26.828  1.00  0.00     0.117 C 
ATOM      2  H   UNL     1     -45.251  36.263  26.051  1.00  0.00     0.073 H 
ATOM      3  H   UNL     1     -45.183  34.708  26.844  1.00  0.00     0.073 H 
ENDROOT
BRANCH   1   4
ATOM      4  O   UNL     1     -47.073  35.326  26.462  1.00  0.00    -0.491 OA
BRANCH   4   5
ATOM      5  C   UNL     1     -47.329  34.094  25.920  1.00  0.00     0.121 A 
ATOM      6  C   UNL     1     -47.044  30.205  23.662  1.00  0.00     0.200 A 
ATOM      7  N   UNL     1     -46.212  31.206  23.835  1.00  0.00    -0.213 NA
ATOM      8  N   UNL     1     -48.223  30.425  24.323  1.00  0.00    -0.324 N 
ATOM      9  C   UNL     1     -46.879  32.104  24.632  1.00  0.00     0.094 A 
ATOM     10  C   UNL     1     -48.149  31.641  24.950  1.00  0.00     0.067 A 
ATOM     11  H   UNL     1     -48.999  29.785  24.354  1.00  0.00     0.170 HD
ATOM     12  C   UNL     1     -46.452  33.349  25.125  1.00  0.00     0.008 A 
ATOM     13  C   UNL     1     -49.045  32.351  25.746  1.00  0.00    -0.033 A 
ATOM     14  H   UNL     1     -45.457  33.674  24.862  1.00  0.00     0.069 H 
ATOM     15  C   UNL     1     -48.602  33.593  26.220  1.00  0.00    -0.018 A 
ATOM     16  H   UNL     1     -50.033  31.976  25.988  1.00  0.00     0.065 H 
ATOM     17  H   UNL     1     -49.270  34.189  26.842  1.00  0.00     0.066 H 
BRANCH   6  18
ATOM     18  N   UNL     1     -46.867  29.067  22.962  1.00  0.00    -0.359 N 
ATOM     19  H   UNL     1     -46.514  29.103  22.014  1.00  0.00     0.163 HD
BRANCH  18  20
ATOM     20  C   UNL     1     -46.491  27.875  23.697  1.00  0.00     0.006 C 
ATOM     21  H   UNL     1     -46.972  27.887  24.680  1.00  0.00     0.045 H 
ATOM     22  H   UNL     1     -46.819  26.972  23.171  1.00  0.00     0.045 H 
ATOM     23  H   UNL     1     -45.409  27.827  23.857  1.00  0.00     0.045 H 
ENDBRANCH  18  20
ENDBRANCH   6  18
ENDBRANCH   4   5
ENDBRANCH   1   4
BRANCH   1  24
ATOM     24  C   UNL     1     -45.674  36.318  28.215  1.00  0.00     0.123 C 
ATOM     25  O   UNL     1     -45.034  37.615  28.115  1.00  0.00    -0.345 OA
ATOM     26  C   UNL     1     -47.073  36.554  28.800  1.00  0.00     0.119 C 
ATOM     27  H   UNL     1     -45.058  35.727  28.902  1.00  0.00     0.067 H 
ATOM     28  C   UNL     1     -46.029  38.613  28.425  1.00  0.00     0.169 C 
ATOM     29  C   UNL     1     -47.399  37.956  28.338  1.00  0.00     0.173 C 
ATOM     30  H   UNL     1     -47.808  35.815  28.471  1.00  0.00     0.066 H 
ATOM     31  H   UNL     1     -45.834  38.893  29.468  1.00  0.00     0.088 H 
ATOM     32  F   UNL     1     -47.874  37.888  27.069  1.00  0.00    -0.239 F 
ATOM     33  H   UNL     1     -48.141  38.473  28.953  1.00  0.00     0.074 H 
BRANCH  26  34
ATOM     34  O   UNL     1     -47.041  36.535  30.233  1.00  0.00    -0.387 OA
ATOM     35  H   UNL     1     -46.114  36.414  30.509  1.00  0.00     0.211 HD
ENDBRANCH  26  34
BRANCH  28  36
ATOM     36  N   UNL     1     -45.837  39.814  27.631  1.00  0.00    -0.302 N 
ATOM     37  C   UNL     1     -44.618  40.200  27.116  1.00  0.00     0.019 A 
ATOM     38  C   UNL     1     -46.788  40.742  27.286  1.00  0.00     0.148 A 
ATOM     39  C   UNL     1     -44.793  41.390  26.436  1.00  0.00     0.033 A 
ATOM     40  H   UNL     1     -43.730  39.605  27.285  1.00  0.00     0.083 H 
ATOM     41  C   UNL     1     -46.178  41.734  26.520  1.00  0.00     0.071 A 
ATOM     42  N   UNL     1     -48.084  40.694  27.632  1.00  0.00    -0.218 NA
ATOM     43  C   UNL     1     -47.020  42.760  26.052  1.00  0.00     0.137 A 
ATOM     44  C   UNL     1     -48.776  41.732  27.146  1.00  0.00     0.120 A 
ATOM     45  N   UNL     1     -48.324  42.750  26.395  1.00  0.00    -0.219 NA
ATOM     46  H   UNL     1     -49.834  41.754  27.387  1.00  0.00     0.106 H 
BRANCH  39  47
ATOM     47  C   UNL     1     -43.744  42.162  25.765  1.00  0.00     0.095 A 
ATOM     48  C   UNL     1     -42.531  42.559  26.375  1.00  0.00    -0.016 A 
ATOM     49  N   UNL     1     -43.829  42.605  24.503  1.00  0.00    -0.173 NA
ATOM     50  C   UNL     1     -41.858  43.266  25.406  1.00  0.00     0.025 A 
ATOM     51  H   UNL     1     -42.188  42.351  27.378  1.00  0.00     0.066 H 
ATOM     52  N   UNL     1     -42.668  43.261  24.311  1.00  0.00    -0.275 N 
ATOM     53  H   UNL     1     -40.894  43.754  25.408  1.00  0.00     0.084 H 
BRANCH  52  54
ATOM     54  C   UNL     1     -42.401  43.867  23.031  1.00  0.00     0.030 C 
ATOM     55  H   UNL     1     -43.257  44.490  22.758  1.00  0.00     0.048 H 
ATOM     56  H   UNL     1     -41.499  44.482  23.099  1.00  0.00     0.048 H 
ATOM     57  H   UNL     1     -42.255  43.072  22.296  1.00  0.00     0.048 H 
ENDBRANCH  52  54
ENDBRANCH  39  47
BRANCH  43  58
ATOM     58  N   UNL     1     -46.596  43.810  25.249  1.00  0.00    -0.383 N 
ATOM     59  H   UNL     1     -46.303  44.600  25.805  1.00  0.00     0.158 HD
ATOM     60  H   UNL     1     -45.956  43.498  24.513  1.00  0.00     0.158 HD
ENDBRANCH  43  58
ENDBRANCH  28  36
ENDBRANCH   1  24
TORSDOF 10
ENDMDL
MODEL 7
REMARK VINA RESULT:      -8.3      1.843      3.562
REMARK SMILES CNc1nc2cc(OC[C@H]3O[C@@H](n4cc(-c5ccn(C)n5)c5c(N)ncnc54)[C@@H](F)[C@@H]3O)ccc2[nH]1
REMARK SMILES IDX 9 1 8 4 7 5 3 6 4 7 36 8 5 9 35 10 6 12 34 13 33 15 2 18
REMARK SMILES IDX 1 20 10 24 11 25 31 26 12 28 29 29 30 32 32 34 13 36 14 37
REMARK SMILES IDX 28 38 15 39 22 41 27 42 23 43 26 44 25 45 16 47 17 48 21 49
REMARK SMILES IDX 18 50 19 52 20 54 24 58
REMARK H PARENT 9 2 9 3 36 11 6 14 34 16 33 17 2 19 1 21 1 22 1 23 10 27 31 30
REMARK H PARENT 12 31 29 33 32 35 14 40 26 46 17 51 18 53 20 55 20 56 20 57
REMARK H PARENT 24 59 24 60
REMARK Flexibility Score: inf
ROOT
ATOM      1  C   UNL     1     -45.991  34.986  28.135  1.00  0.00     0.117 C 
ATOM      2  H   UNL     1     -45.756  35.341  27.126  1.00  0.00     0.073 H 
ATOM      3  H   UNL     1     -45.054  35.031  28.695  1.00  0.00     0.073 H 
ENDROOT
BRANCH   1   4
ATOM      4  O   UNL     1     -46.367  33.603  28.112  1.00  0.00    -0.491 OA
BRANCH   4   5
ATOM      5  C   UNL     1     -46.762  33.045  26.925  1.00  0.00     0.121 A 
ATOM      6  C   UNL     1     -48.752  30.511  23.775  1.00  0.00     0.200 A 
ATOM      7  N   UNL     1     -48.862  30.569  25.082  1.00  0.00    -0.213 NA
ATOM      8  N   UNL     1     -47.842  31.426  23.316  1.00  0.00    -0.324 N 
ATOM      9  C   UNL     1     -47.990  31.553  25.480  1.00  0.00     0.094 A 
ATOM     10  C   UNL     1     -47.332  32.107  24.390  1.00  0.00     0.067 A 
ATOM     11  H   UNL     1     -47.611  31.580  22.348  1.00  0.00     0.170 HD
ATOM     12  C   UNL     1     -47.711  32.028  26.773  1.00  0.00     0.008 A 
ATOM     13  C   UNL     1     -46.389  33.126  24.503  1.00  0.00    -0.033 A 
ATOM     14  H   UNL     1     -48.246  31.578  27.596  1.00  0.00     0.069 H 
ATOM     15  C   UNL     1     -46.119  33.579  25.801  1.00  0.00    -0.018 A 
ATOM     16  H   UNL     1     -45.883  33.549  23.642  1.00  0.00     0.065 H 
ATOM     17  H   UNL     1     -45.384  34.371  25.941  1.00  0.00     0.066 H 
BRANCH   6  18
ATOM     18  N   UNL     1     -49.399  29.711  22.904  1.00  0.00    -0.359 N 
ATOM     19  H   UNL     1     -50.040  30.109  22.228  1.00  0.00     0.163 HD
BRANCH  18  20
ATOM     20  C   UNL     1     -48.716  28.515  22.451  1.00  0.00     0.006 C 
ATOM     21  H   UNL     1     -49.153  27.639  22.941  1.00  0.00     0.045 H 
ATOM     22  H   UNL     1     -48.828  28.388  21.369  1.00  0.00     0.045 H 
ATOM     23  H   UNL     1     -47.650  28.541  22.703  1.00  0.00     0.045 H 
ENDBRANCH  18  20
ENDBRANCH   6  18
ENDBRANCH   4   5
ENDBRANCH   1   4
BRANCH   1  24
ATOM     24  C   UNL     1     -47.063  35.842  28.830  1.00  0.00     0.123 C 
ATOM     25  O   UNL     1     -46.514  37.143  29.162  1.00  0.00    -0.345 OA
ATOM     26  C   UNL     1     -48.282  36.089  27.933  1.00  0.00     0.119 C 
ATOM     27  H   UNL     1     -47.363  35.388  29.781  1.00  0.00     0.067 H 
ATOM     28  C   UNL     1     -47.214  38.122  28.367  1.00  0.00     0.169 C 
ATOM     29  C   UNL     1     -47.939  37.391  27.247  1.00  0.00     0.173 C 
ATOM     30  H   UNL     1     -48.471  35.273  27.229  1.00  0.00     0.066 H 
ATOM     31  H   UNL     1     -47.958  38.559  29.048  1.00  0.00     0.088 H 
ATOM     32  F   UNL     1     -47.138  37.118  26.188  1.00  0.00    -0.239 F 
ATOM     33  H   UNL     1     -48.805  37.953  26.884  1.00  0.00     0.074 H 
BRANCH  26  34
ATOM     34  O   UNL     1     -49.469  36.277  28.716  1.00  0.00    -0.387 OA
ATOM     35  H   UNL     1     -50.041  36.908  28.241  1.00  0.00     0.211 HD
ENDBRANCH  26  34
BRANCH  28  36
ATOM     36  N   UNL     1     -46.333  39.206  27.967  1.00  0.00    -0.302 N 
ATOM     37  C   UNL     1     -44.989  39.243  28.266  1.00  0.00     0.019 A 
ATOM     38  C   UNL     1     -46.673  40.338  27.269  1.00  0.00     0.148 A 
ATOM     39  C   UNL     1     -44.464  40.415  27.755  1.00  0.00     0.033 A 
ATOM     40  H   UNL     1     -44.521  38.444  28.825  1.00  0.00     0.083 H 
ATOM     41  C   UNL     1     -45.526  41.111  27.098  1.00  0.00     0.071 A 
ATOM     42  N   UNL     1     -47.905  40.640  26.829  1.00  0.00    -0.218 NA
ATOM     43  C   UNL     1     -45.687  42.305  26.371  1.00  0.00     0.137 A 
ATOM     44  C   UNL     1     -47.934  41.807  26.172  1.00  0.00     0.120 A 
ATOM     45  N   UNL     1     -46.915  42.647  25.929  1.00  0.00    -0.219 NA
ATOM     46  H   UNL     1     -48.902  42.112  25.787  1.00  0.00     0.106 H 
BRANCH  39  47
ATOM     47  C   UNL     1     -43.075  40.865  27.879  1.00  0.00     0.095 A 
ATOM     48  C   UNL     1     -42.411  41.075  29.110  1.00  0.00    -0.016 A 
ATOM     49  N   UNL     1     -42.285  41.156  26.837  1.00  0.00    -0.173 NA
ATOM     50  C   UNL     1     -41.149  41.502  28.767  1.00  0.00     0.025 A 
ATOM     51  H   UNL     1     -42.792  40.927  30.109  1.00  0.00     0.066 H 
ATOM     52  N   UNL     1     -41.122  41.530  27.405  1.00  0.00    -0.275 N 
ATOM     53  H   UNL     1     -40.292  41.777  29.366  1.00  0.00     0.084 H 
BRANCH  52  54
ATOM     54  C   UNL     1     -40.011  41.904  26.566  1.00  0.00     0.030 C 
ATOM     55  H   UNL     1     -39.446  42.691  27.073  1.00  0.00     0.048 H 
ATOM     56  H   UNL     1     -39.371  41.035  26.399  1.00  0.00     0.048 H 
ATOM     57  H   UNL     1     -40.405  42.267  25.614  1.00  0.00     0.048 H 
ENDBRANCH  52  54
ENDBRANCH  39  47
BRANCH  43  58
ATOM     58  N   UNL     1     -44.653  43.181  26.073  1.00  0.00    -0.383 N 
ATOM     59  H   UNL     1     -44.977  43.951  25.507  1.00  0.00     0.158 HD
ATOM     60  H   UNL     1     -44.097  43.416  26.900  1.00  0.00     0.158 HD
ENDBRANCH  43  58
ENDBRANCH  28  36
ENDBRANCH   1  24
TORSDOF 10
ENDMDL
