MODEL 1
REMARK VINA RESULT:     -10.7      0.000      0.000
REMARK SMILES CCc1cc(N2CCC(F)(F)CC2)c2ccc(OCc3cncc(-n4ccc5c(N)ncnc54)c3)cc2n1
REMARK SMILES IDX 19 1 18 4 17 5 3 6 4 7 38 8 5 9 37 11 14 12 36 13 15 14
REMARK SMILES IDX 16 16 2 19 1 22 6 26 7 27 13 28 8 29 12 32 9 35 10 40 11 41
REMARK SMILES IDX 20 42 21 43 35 44 22 45 24 47 23 49 25 51 26 52 34 53 27 54
REMARK SMILES IDX 28 56 33 57 29 59 32 60 31 61 30 63
REMARK H PARENT 19 2 19 3 4 10 36 15 15 17 16 18 2 20 2 21 1 23 1 24 1 25 7 30
REMARK H PARENT 7 31 13 33 13 34 8 36 8 37 12 38 12 39 21 46 35 48 23 50 26 55
REMARK H PARENT 27 58 32 62 30 64 30 65
REMARK Flexibility Score: inf
ROOT
ATOM      1  C   UNL     1     -46.213  34.721  28.140  1.00  0.00     0.115 C 
ATOM      2  H   UNL     1     -45.238  34.244  27.977  1.00  0.00     0.076 H 
ATOM      3  H   UNL     1     -46.760  34.020  28.781  1.00  0.00     0.076 H 
ENDROOT
BRANCH   1   4
ATOM      4  O   UNL     1     -46.817  34.867  26.854  1.00  0.00    -0.489 OA
BRANCH   4   5
ATOM      5  C   UNL     1     -47.109  33.748  26.125  1.00  0.00     0.122 A 
ATOM      6  C   UNL     1     -46.621  30.757  22.454  1.00  0.00     0.043 A 
ATOM      7  C   UNL     1     -47.586  29.885  22.938  1.00  0.00    -0.016 A 
ATOM      8  N   UNL     1     -46.274  31.892  23.101  1.00  0.00    -0.253 NA
ATOM      9  C   UNL     1     -48.239  30.178  24.139  1.00  0.00     0.048 A 
ATOM     10  H   UNL     1     -47.808  28.976  22.391  1.00  0.00     0.066 H 
ATOM     11  C   UNL     1     -46.892  32.191  24.258  1.00  0.00     0.076 A 
ATOM     12  C   UNL     1     -47.887  31.369  24.825  1.00  0.00     0.024 A 
ATOM     13  C   UNL     1     -46.528  33.363  24.916  1.00  0.00     0.007 A 
ATOM     14  C   UNL     1     -48.494  31.774  26.033  1.00  0.00    -0.047 A 
ATOM     15  H   UNL     1     -45.767  33.966  24.434  1.00  0.00     0.069 H 
ATOM     16  C   UNL     1     -48.107  32.950  26.673  1.00  0.00    -0.019 A 
ATOM     17  H   UNL     1     -49.280  31.168  26.477  1.00  0.00     0.063 H 
ATOM     18  H   UNL     1     -48.584  33.238  27.605  1.00  0.00     0.066 H 
BRANCH   6  19
ATOM     19  C   UNL     1     -45.882  30.445  21.179  1.00  0.00    -0.013 C 
ATOM     20  H   UNL     1     -44.827  30.249  21.404  1.00  0.00     0.033 H 
ATOM     21  H   UNL     1     -46.285  29.522  20.744  1.00  0.00     0.033 H 
BRANCH  19  22
ATOM     22  C   UNL     1     -46.000  31.572  20.165  1.00  0.00    -0.060 C 
ATOM     23  H   UNL     1     -45.772  32.533  20.638  1.00  0.00     0.023 H 
ATOM     24  H   UNL     1     -47.012  31.632  19.752  1.00  0.00     0.023 H 
ATOM     25  H   UNL     1     -45.307  31.430  19.330  1.00  0.00     0.023 H 
ENDBRANCH  19  22
ENDBRANCH   6  19
BRANCH   9  26
ATOM     26  N   UNL     1     -49.196  29.293  24.688  1.00  0.00    -0.370 N 
ATOM     27  C   UNL     1     -50.157  28.689  23.749  1.00  0.00     0.024 C 
ATOM     28  C   UNL     1     -48.600  28.410  25.708  1.00  0.00     0.024 C 
ATOM     29  C   UNL     1     -49.949  27.191  23.644  1.00  0.00     0.029 C 
ATOM     30  H   UNL     1     -51.167  28.893  24.127  1.00  0.00     0.050 H 
ATOM     31  H   UNL     1     -50.111  29.150  22.754  1.00  0.00     0.050 H 
ATOM     32  C   UNL     1     -49.650  27.421  26.181  1.00  0.00     0.029 C 
ATOM     33  H   UNL     1     -47.729  27.873  25.308  1.00  0.00     0.050 H 
ATOM     34  H   UNL     1     -48.258  29.002  26.565  1.00  0.00     0.050 H 
ATOM     35  C   UNL     1     -50.086  26.554  25.015  1.00  0.00     0.251 C 
ATOM     36  H   UNL     1     -50.684  26.757  22.956  1.00  0.00     0.035 H 
ATOM     37  H   UNL     1     -48.958  26.971  23.231  1.00  0.00     0.035 H 
ATOM     38  H   UNL     1     -49.244  26.795  26.984  1.00  0.00     0.035 H 
ATOM     39  H   UNL     1     -50.513  27.959  26.592  1.00  0.00     0.035 H 
ATOM     40  F   UNL     1     -51.380  26.182  25.212  1.00  0.00    -0.207 F 
ATOM     41  F   UNL     1     -49.366  25.399  25.020  1.00  0.00    -0.207 F 
ENDBRANCH   9  26
ENDBRANCH   4   5
ENDBRANCH   1   4
BRANCH   1  42
ATOM     42  C   UNL     1     -45.975  36.053  28.796  1.00  0.00     0.010 A 
ATOM     43  C   UNL     1     -46.182  36.228  30.157  1.00  0.00     0.034 A 
ATOM     44  C   UNL     1     -45.510  37.154  28.067  1.00  0.00    -0.028 A 
ATOM     45  N   UNL     1     -45.982  37.397  30.805  1.00  0.00    -0.262 NA
ATOM     46  H   UNL     1     -46.526  35.410  30.785  1.00  0.00     0.084 H 
ATOM     47  C   UNL     1     -45.248  38.371  28.703  1.00  0.00     0.066 A 
ATOM     48  H   UNL     1     -45.368  37.032  26.999  1.00  0.00     0.065 H 
ATOM     49  C   UNL     1     -45.514  38.436  30.068  1.00  0.00     0.051 A 
ATOM     50  H   UNL     1     -45.337  39.325  30.663  1.00  0.00     0.086 H 
BRANCH  47  51
ATOM     51  N   UNL     1     -44.713  39.492  27.999  1.00  0.00    -0.300 N 
ATOM     52  C   UNL     1     -45.176  39.975  26.783  1.00  0.00     0.012 A 
ATOM     53  C   UNL     1     -43.658  40.320  28.395  1.00  0.00     0.150 A 
ATOM     54  C   UNL     1     -44.436  41.076  26.415  1.00  0.00    -0.031 A 
ATOM     55  H   UNL     1     -45.987  39.495  26.252  1.00  0.00     0.082 H 
ATOM     56  C   UNL     1     -43.478  41.306  27.431  1.00  0.00     0.061 A 
ATOM     57  N   UNL     1     -42.945  40.225  29.535  1.00  0.00    -0.218 NA
ATOM     58  H   UNL     1     -44.579  41.659  25.514  1.00  0.00     0.065 H 
ATOM     59  C   UNL     1     -42.470  42.253  27.663  1.00  0.00     0.136 A 
ATOM     60  C   UNL     1     -42.028  41.191  29.660  1.00  0.00     0.120 A 
ATOM     61  N   UNL     1     -41.746  42.178  28.793  1.00  0.00    -0.219 NA
ATOM     62  H   UNL     1     -41.440  41.172  30.573  1.00  0.00     0.106 H 
BRANCH  59  63
ATOM     63  N   UNL     1     -42.163  43.278  26.780  1.00  0.00    -0.383 N 
ATOM     64  H   UNL     1     -42.917  43.956  26.748  1.00  0.00     0.158 HD
ATOM     65  H   UNL     1     -41.228  43.651  26.868  1.00  0.00     0.158 HD
ENDBRANCH  59  63
ENDBRANCH  47  51
ENDBRANCH   1  42
TORSDOF 8
ENDMDL
MODEL 2
REMARK VINA RESULT:     -10.7      5.212     12.245
REMARK SMILES CCc1cc(N2CCC(F)(F)CC2)c2ccc(OCc3cncc(-n4ccc5c(N)ncnc54)c3)cc2n1
REMARK SMILES IDX 19 1 18 4 17 5 3 6 4 7 38 8 5 9 37 11 14 12 36 13 15 14
REMARK SMILES IDX 16 16 2 19 1 22 6 26 7 27 13 28 8 29 12 32 9 35 10 40 11 41
REMARK SMILES IDX 20 42 21 43 35 44 22 45 24 47 23 49 25 51 26 52 34 53 27 54
REMARK SMILES IDX 28 56 33 57 29 59 32 60 31 61 30 63
REMARK H PARENT 19 2 19 3 4 10 36 15 15 17 16 18 2 20 2 21 1 23 1 24 1 25 7 30
REMARK H PARENT 7 31 13 33 13 34 8 36 8 37 12 38 12 39 21 46 35 48 23 50 26 55
REMARK H PARENT 27 58 32 62 30 64 30 65
REMARK Flexibility Score: inf
ROOT
ATOM      1  C   UNL     1     -47.738  36.363  26.951  1.00  0.00     0.115 C 
ATOM      2  H   UNL     1     -47.444  36.835  26.005  1.00  0.00     0.076 H 
ATOM      3  H   UNL     1     -48.824  36.501  27.004  1.00  0.00     0.076 H 
ENDROOT
BRANCH   1   4
ATOM      4  O   UNL     1     -47.049  37.062  27.989  1.00  0.00    -0.489 OA
BRANCH   4   5
ATOM      5  C   UNL     1     -46.377  38.214  27.683  1.00  0.00     0.122 A 
ATOM      6  C   UNL     1     -42.909  41.433  28.189  1.00  0.00     0.043 A 
ATOM      7  C   UNL     1     -43.381  42.218  27.146  1.00  0.00    -0.016 A 
ATOM      8  N   UNL     1     -43.513  40.286  28.569  1.00  0.00    -0.253 NA
ATOM      9  C   UNL     1     -44.528  41.822  26.451  1.00  0.00     0.048 A 
ATOM     10  H   UNL     1     -42.843  43.116  26.867  1.00  0.00     0.066 H 
ATOM     11  C   UNL     1     -44.618  39.889  27.913  1.00  0.00     0.076 A 
ATOM     12  C   UNL     1     -45.173  40.621  26.843  1.00  0.00     0.024 A 
ATOM     13  C   UNL     1     -45.233  38.705  28.312  1.00  0.00     0.007 A 
ATOM     14  C   UNL     1     -46.346  40.138  26.227  1.00  0.00    -0.047 A 
ATOM     15  H   UNL     1     -44.774  38.185  29.146  1.00  0.00     0.069 H 
ATOM     16  C   UNL     1     -46.939  38.947  26.644  1.00  0.00    -0.019 A 
ATOM     17  H   UNL     1     -46.806  40.697  25.416  1.00  0.00     0.063 H 
ATOM     18  H   UNL     1     -47.839  38.591  26.150  1.00  0.00     0.066 H 
BRANCH   6  19
ATOM     19  C   UNL     1     -41.657  41.823  28.930  1.00  0.00    -0.013 C 
ATOM     20  H   UNL     1     -40.779  41.598  28.314  1.00  0.00     0.033 H 
ATOM     21  H   UNL     1     -41.655  42.909  29.091  1.00  0.00     0.033 H 
BRANCH  19  22
ATOM     22  C   UNL     1     -41.549  41.117  30.273  1.00  0.00    -0.060 C 
ATOM     23  H   UNL     1     -42.539  41.020  30.730  1.00  0.00     0.023 H 
ATOM     24  H   UNL     1     -40.911  41.673  30.967  1.00  0.00     0.023 H 
ATOM     25  H   UNL     1     -41.125  40.114  30.162  1.00  0.00     0.023 H 
ENDBRANCH  19  22
ENDBRANCH   6  19
BRANCH   9  26
ATOM     26  N   UNL     1     -45.014  42.570  25.354  1.00  0.00    -0.370 N 
ATOM     27  C   UNL     1     -45.869  43.728  25.667  1.00  0.00     0.024 C 
ATOM     28  C   UNL     1     -43.981  42.752  24.317  1.00  0.00     0.024 C 
ATOM     29  C   UNL     1     -45.192  45.028  25.277  1.00  0.00     0.029 C 
ATOM     30  H   UNL     1     -46.803  43.618  25.100  1.00  0.00     0.050 H 
ATOM     31  H   UNL     1     -46.162  43.754  26.724  1.00  0.00     0.050 H 
ATOM     32  C   UNL     1     -44.532  43.646  23.220  1.00  0.00     0.029 C 
ATOM     33  H   UNL     1     -43.069  43.193  24.739  1.00  0.00     0.050 H 
ATOM     34  H   UNL     1     -43.709  41.783  23.883  1.00  0.00     0.050 H 
ATOM     35  C   UNL     1     -44.856  45.010  23.798  1.00  0.00     0.251 C 
ATOM     36  H   UNL     1     -45.849  45.876  25.500  1.00  0.00     0.035 H 
ATOM     37  H   UNL     1     -44.277  45.171  25.864  1.00  0.00     0.035 H 
ATOM     38  H   UNL     1     -43.801  43.743  22.410  1.00  0.00     0.035 H 
ATOM     39  H   UNL     1     -45.436  43.196  22.791  1.00  0.00     0.035 H 
ATOM     40  F   UNL     1     -45.890  45.545  23.094  1.00  0.00    -0.207 F 
ATOM     41  F   UNL     1     -43.800  45.845  23.593  1.00  0.00    -0.207 F 
ENDBRANCH   9  26
ENDBRANCH   4   5
ENDBRANCH   1   4
BRANCH   1  42
ATOM     42  C   UNL     1     -47.333  34.916  26.894  1.00  0.00     0.010 A 
ATOM     43  C   UNL     1     -46.469  34.376  27.837  1.00  0.00     0.034 A 
ATOM     44  C   UNL     1     -47.830  34.056  25.908  1.00  0.00    -0.028 A 
ATOM     45  N   UNL     1     -46.072  33.084  27.842  1.00  0.00    -0.262 NA
ATOM     46  H   UNL     1     -46.059  34.984  28.639  1.00  0.00     0.084 H 
ATOM     47  C   UNL     1     -47.480  32.703  25.899  1.00  0.00     0.066 A 
ATOM     48  H   UNL     1     -48.486  34.475  25.154  1.00  0.00     0.065 H 
ATOM     49  C   UNL     1     -46.589  32.279  26.881  1.00  0.00     0.051 A 
ATOM     50  H   UNL     1     -46.260  31.250  26.975  1.00  0.00     0.086 H 
BRANCH  47  51
ATOM     51  N   UNL     1     -48.022  31.788  24.946  1.00  0.00    -0.300 N 
ATOM     52  C   UNL     1     -49.256  31.160  25.044  1.00  0.00     0.012 A 
ATOM     53  C   UNL     1     -47.444  31.372  23.743  1.00  0.00     0.150 A 
ATOM     54  C   UNL     1     -49.455  30.365  23.939  1.00  0.00    -0.031 A 
ATOM     55  H   UNL     1     -49.900  31.304  25.900  1.00  0.00     0.082 H 
ATOM     56  C   UNL     1     -48.319  30.497  23.106  1.00  0.00     0.061 A 
ATOM     57  N   UNL     1     -46.257  31.767  23.242  1.00  0.00    -0.218 NA
ATOM     58  H   UNL     1     -50.334  29.762  23.746  1.00  0.00     0.065 H 
ATOM     59  C   UNL     1     -47.920  29.984  21.863  1.00  0.00     0.136 A 
ATOM     60  C   UNL     1     -45.990  31.233  22.045  1.00  0.00     0.120 A 
ATOM     61  N   UNL     1     -46.739  30.365  21.343  1.00  0.00    -0.219 NA
ATOM     62  H   UNL     1     -45.054  31.537  21.586  1.00  0.00     0.106 H 
BRANCH  59  63
ATOM     63  N   UNL     1     -48.678  29.086  21.126  1.00  0.00    -0.383 N 
ATOM     64  H   UNL     1     -48.358  29.060  20.164  1.00  0.00     0.158 HD
ATOM     65  H   UNL     1     -48.833  28.193  21.571  1.00  0.00     0.158 HD
ENDBRANCH  59  63
ENDBRANCH  47  51
ENDBRANCH   1  42
TORSDOF 8
ENDMDL
MODEL 3
REMARK VINA RESULT:     -10.3      1.458      2.068
REMARK SMILES CCc1cc(N2CCC(F)(F)CC2)c2ccc(OCc3cncc(-n4ccc5c(N)ncnc54)c3)cc2n1
REMARK SMILES IDX 19 1 18 4 17 5 3 6 4 7 38 8 5 9 37 11 14 12 36 13 15 14
REMARK SMILES IDX 16 16 2 19 1 22 6 26 7 27 13 28 8 29 12 32 9 35 10 40 11 41
REMARK SMILES IDX 20 42 21 43 35 44 22 45 24 47 23 49 25 51 26 52 34 53 27 54
REMARK SMILES IDX 28 56 33 57 29 59 32 60 31 61 30 63
REMARK H PARENT 19 2 19 3 4 10 36 15 15 17 16 18 2 20 2 21 1 23 1 24 1 25 7 30
REMARK H PARENT 7 31 13 33 13 34 8 36 8 37 12 38 12 39 21 46 35 48 23 50 26 55
REMARK H PARENT 27 58 32 62 30 64 30 65
REMARK Flexibility Score: inf
ROOT
ATOM      1  C   UNL     1     -47.169  35.553  27.403  1.00  0.00     0.115 C 
ATOM      2  H   UNL     1     -46.247  35.170  27.861  1.00  0.00     0.076 H 
ATOM      3  H   UNL     1     -47.974  34.996  27.895  1.00  0.00     0.076 H 
ENDROOT
BRANCH   1   4
ATOM      4  O   UNL     1     -47.082  35.264  26.007  1.00  0.00    -0.489 OA
BRANCH   4   5
ATOM      5  C   UNL     1     -47.246  33.974  25.583  1.00  0.00     0.122 A 
ATOM      6  C   UNL     1     -46.152  30.119  23.014  1.00  0.00     0.043 A 
ATOM      7  C   UNL     1     -47.179  29.367  23.566  1.00  0.00    -0.016 A 
ATOM      8  N   UNL     1     -45.921  31.404  23.364  1.00  0.00    -0.253 NA
ATOM      9  C   UNL     1     -48.021  29.945  24.521  1.00  0.00     0.048 A 
ATOM     10  H   UNL     1     -47.305  28.332  23.267  1.00  0.00     0.066 H 
ATOM     11  C   UNL     1     -46.720  31.978  24.281  1.00  0.00     0.076 A 
ATOM     12  C   UNL     1     -47.790  31.294  24.894  1.00  0.00     0.024 A 
ATOM     13  C   UNL     1     -46.473  33.302  24.635  1.00  0.00     0.007 A 
ATOM     14  C   UNL     1     -48.588  31.984  25.831  1.00  0.00    -0.047 A 
ATOM     15  H   UNL     1     -45.647  33.787  24.127  1.00  0.00     0.069 H 
ATOM     16  C   UNL     1     -48.316  33.308  26.170  1.00  0.00    -0.019 A 
ATOM     17  H   UNL     1     -49.433  31.486  26.299  1.00  0.00     0.063 H 
ATOM     18  H   UNL     1     -48.940  33.817  26.899  1.00  0.00     0.066 H 
BRANCH   6  19
ATOM     19  C   UNL     1     -45.214  29.506  22.007  1.00  0.00    -0.013 C 
ATOM     20  H   UNL     1     -45.770  29.241  21.100  1.00  0.00     0.033 H 
ATOM     21  H   UNL     1     -44.466  30.251  21.709  1.00  0.00     0.033 H 
BRANCH  19  22
ATOM     22  C   UNL     1     -44.506  28.280  22.565  1.00  0.00    -0.060 C 
ATOM     23  H   UNL     1     -45.067  27.873  23.413  1.00  0.00     0.023 H 
ATOM     24  H   UNL     1     -43.498  28.526  22.915  1.00  0.00     0.023 H 
ATOM     25  H   UNL     1     -44.414  27.496  21.808  1.00  0.00     0.023 H 
ENDBRANCH  19  22
ENDBRANCH   6  19
BRANCH   9  26
ATOM     26  N   UNL     1     -49.050  29.198  25.140  1.00  0.00    -0.370 N 
ATOM     27  C   UNL     1     -50.274  28.976  24.351  1.00  0.00     0.024 C 
ATOM     28  C   UNL     1     -48.513  28.050  25.894  1.00  0.00     0.024 C 
ATOM     29  C   UNL     1     -50.448  27.507  24.017  1.00  0.00     0.029 C 
ATOM     30  H   UNL     1     -51.127  29.318  24.952  1.00  0.00     0.050 H 
ATOM     31  H   UNL     1     -50.293  29.579  23.435  1.00  0.00     0.050 H 
ATOM     32  C   UNL     1     -49.669  27.235  26.445  1.00  0.00     0.029 C 
ATOM     33  H   UNL     1     -47.877  27.420  25.259  1.00  0.00     0.050 H 
ATOM     34  H   UNL     1     -47.897  28.404  26.730  1.00  0.00     0.050 H 
ATOM     35  C   UNL     1     -50.493  26.689  25.295  1.00  0.00     0.251 C 
ATOM     36  H   UNL     1     -51.373  27.358  23.447  1.00  0.00     0.035 H 
ATOM     37  H   UNL     1     -49.624  27.159  23.383  1.00  0.00     0.035 H 
ATOM     38  H   UNL     1     -49.290  26.412  27.061  1.00  0.00     0.035 H 
ATOM     39  H   UNL     1     -50.296  27.863  27.090  1.00  0.00     0.035 H 
ATOM     40  F   UNL     1     -51.784  26.566  25.706  1.00  0.00    -0.207 F 
ATOM     41  F   UNL     1     -50.077  25.426  25.005  1.00  0.00    -0.207 F 
ENDBRANCH   9  26
ENDBRANCH   4   5
ENDBRANCH   1   4
BRANCH   1  42
ATOM     42  C   UNL     1     -47.236  37.033  27.660  1.00  0.00     0.010 A 
ATOM     43  C   UNL     1     -48.418  37.635  28.069  1.00  0.00     0.034 A 
ATOM     44  C   UNL     1     -46.109  37.851  27.524  1.00  0.00    -0.028 A 
ATOM     45  N   UNL     1     -48.541  38.958  28.320  1.00  0.00    -0.262 NA
ATOM     46  H   UNL     1     -49.327  37.056  28.210  1.00  0.00     0.084 H 
ATOM     47  C   UNL     1     -46.179  39.216  27.815  1.00  0.00     0.066 A 
ATOM     48  H   UNL     1     -45.188  37.392  27.182  1.00  0.00     0.065 H 
ATOM     49  C   UNL     1     -47.422  39.713  28.195  1.00  0.00     0.051 A 
ATOM     50  H   UNL     1     -47.588  40.753  28.454  1.00  0.00     0.086 H 
BRANCH  47  51
ATOM     51  N   UNL     1     -45.031  40.063  27.748  1.00  0.00    -0.300 N 
ATOM     52  C   UNL     1     -43.917  39.975  28.571  1.00  0.00     0.012 A 
ATOM     53  C   UNL     1     -44.796  41.107  26.849  1.00  0.00     0.150 A 
ATOM     54  C   UNL     1     -43.001  40.937  28.209  1.00  0.00    -0.031 A 
ATOM     55  H   UNL     1     -43.856  39.249  29.370  1.00  0.00     0.082 H 
ATOM     56  C   UNL     1     -43.544  41.653  27.116  1.00  0.00     0.061 A 
ATOM     57  N   UNL     1     -45.610  41.511  25.855  1.00  0.00    -0.218 NA
ATOM     58  H   UNL     1     -42.037  41.097  28.675  1.00  0.00     0.065 H 
ATOM     59  C   UNL     1     -43.118  42.709  26.297  1.00  0.00     0.136 A 
ATOM     60  C   UNL     1     -45.093  42.507  25.126  1.00  0.00     0.120 A 
ATOM     61  N   UNL     1     -43.914  43.129  25.298  1.00  0.00    -0.219 NA
ATOM     62  H   UNL     1     -45.702  42.855  24.297  1.00  0.00     0.106 H 
BRANCH  59  63
ATOM     63  N   UNL     1     -41.906  43.364  26.460  1.00  0.00    -0.383 N 
ATOM     64  H   UNL     1     -41.831  43.741  27.398  1.00  0.00     0.158 HD
ATOM     65  H   UNL     1     -41.100  42.863  26.112  1.00  0.00     0.158 HD
ENDBRANCH  59  63
ENDBRANCH  47  51
ENDBRANCH   1  42
TORSDOF 8
ENDMDL
MODEL 4
REMARK VINA RESULT:     -10.2      2.345      3.013
REMARK SMILES CCc1cc(N2CCC(F)(F)CC2)c2ccc(OCc3cncc(-n4ccc5c(N)ncnc54)c3)cc2n1
REMARK SMILES IDX 19 1 18 4 17 5 3 6 4 7 38 8 5 9 37 11 14 12 36 13 15 14
REMARK SMILES IDX 16 16 2 19 1 22 6 26 7 27 13 28 8 29 12 32 9 35 10 40 11 41
REMARK SMILES IDX 20 42 21 43 35 44 22 45 24 47 23 49 25 51 26 52 34 53 27 54
REMARK SMILES IDX 28 56 33 57 29 59 32 60 31 61 30 63
REMARK H PARENT 19 2 19 3 4 10 36 15 15 17 16 18 2 20 2 21 1 23 1 24 1 25 7 30
REMARK H PARENT 7 31 13 33 13 34 8 36 8 37 12 38 12 39 21 46 35 48 23 50 26 55
REMARK H PARENT 27 58 32 62 30 64 30 65
REMARK Flexibility Score: inf
ROOT
ATOM      1  C   UNL     1     -47.473  34.891  26.637  1.00  0.00     0.115 C 
ATOM      2  H   UNL     1     -46.789  34.869  25.778  1.00  0.00     0.076 H 
ATOM      3  H   UNL     1     -46.998  34.245  27.385  1.00  0.00     0.076 H 
ENDROOT
BRANCH   1   4
ATOM      4  O   UNL     1     -48.721  34.369  26.181  1.00  0.00    -0.489 OA
BRANCH   4   5
ATOM      5  C   UNL     1     -48.805  33.048  25.837  1.00  0.00     0.122 A 
ATOM      6  C   UNL     1     -50.494  29.343  23.373  1.00  0.00     0.043 A 
ATOM      7  C   UNL     1     -49.662  28.438  24.017  1.00  0.00    -0.016 A 
ATOM      8  N   UNL     1     -50.489  30.665  23.654  1.00  0.00    -0.253 NA
ATOM      9  C   UNL     1     -48.780  28.894  25.001  1.00  0.00     0.048 A 
ATOM     10  H   UNL     1     -49.690  27.392  23.735  1.00  0.00     0.066 H 
ATOM     11  C   UNL     1     -49.647  31.122  24.598  1.00  0.00     0.076 A 
ATOM     12  C   UNL     1     -48.768  30.279  25.307  1.00  0.00     0.024 A 
ATOM     13  C   UNL     1     -49.650  32.486  24.880  1.00  0.00     0.007 A 
ATOM     14  C   UNL     1     -47.934  30.844  26.295  1.00  0.00    -0.047 A 
ATOM     15  H   UNL     1     -50.352  33.090  24.316  1.00  0.00     0.069 H 
ATOM     16  C   UNL     1     -47.954  32.214  26.554  1.00  0.00    -0.019 A 
ATOM     17  H   UNL     1     -47.265  30.211  26.871  1.00  0.00     0.063 H 
ATOM     18  H   UNL     1     -47.298  32.628  27.314  1.00  0.00     0.066 H 
BRANCH   6  19
ATOM     19  C   UNL     1     -51.430  28.880  22.287  1.00  0.00    -0.013 C 
ATOM     20  H   UNL     1     -52.401  29.375  22.401  1.00  0.00     0.033 H 
ATOM     21  H   UNL     1     -51.034  29.189  21.312  1.00  0.00     0.033 H 
BRANCH  19  22
ATOM     22  C   UNL     1     -51.608  27.369  22.299  1.00  0.00    -0.060 C 
ATOM     23  H   UNL     1     -52.420  27.090  22.979  1.00  0.00     0.023 H 
ATOM     24  H   UNL     1     -50.697  26.863  22.635  1.00  0.00     0.023 H 
ATOM     25  H   UNL     1     -51.852  26.989  21.302  1.00  0.00     0.023 H 
ENDBRANCH  19  22
ENDBRANCH   6  19
BRANCH   9  26
ATOM     26  N   UNL     1     -47.884  28.011  25.648  1.00  0.00    -0.370 N 
ATOM     27  C   UNL     1     -48.317  27.459  26.944  1.00  0.00     0.024 C 
ATOM     28  C   UNL     1     -47.251  27.080  24.695  1.00  0.00     0.024 C 
ATOM     29  C   UNL     1     -48.535  25.961  26.854  1.00  0.00     0.029 C 
ATOM     30  H   UNL     1     -47.529  27.670  27.678  1.00  0.00     0.050 H 
ATOM     31  H   UNL     1     -49.221  27.952  27.324  1.00  0.00     0.050 H 
ATOM     32  C   UNL     1     -46.385  26.098  25.462  1.00  0.00     0.029 C 
ATOM     33  H   UNL     1     -48.004  26.540  24.107  1.00  0.00     0.050 H 
ATOM     34  H   UNL     1     -46.620  27.636  23.991  1.00  0.00     0.050 H 
ATOM     35  C   UNL     1     -47.258  25.281  26.396  1.00  0.00     0.251 C 
ATOM     36  H   UNL     1     -48.838  25.566  27.831  1.00  0.00     0.035 H 
ATOM     37  H   UNL     1     -49.347  25.735  26.153  1.00  0.00     0.035 H 
ATOM     38  H   UNL     1     -45.857  25.437  24.766  1.00  0.00     0.035 H 
ATOM     39  H   UNL     1     -45.625  26.639  26.038  1.00  0.00     0.035 H 
ATOM     40  F   UNL     1     -46.520  24.929  27.483  1.00  0.00    -0.207 F 
ATOM     41  F   UNL     1     -47.596  24.111  25.786  1.00  0.00    -0.207 F 
ENDBRANCH   9  26
ENDBRANCH   4   5
ENDBRANCH   1   4
BRANCH   1  42
ATOM     42  C   UNL     1     -47.601  36.319  27.092  1.00  0.00     0.010 A 
ATOM     43  C   UNL     1     -48.768  36.779  27.685  1.00  0.00     0.034 A 
ATOM     44  C   UNL     1     -46.543  37.226  26.961  1.00  0.00    -0.028 A 
ATOM     45  N   UNL     1     -48.943  38.047  28.118  1.00  0.00    -0.262 NA
ATOM     46  H   UNL     1     -49.623  36.123  27.833  1.00  0.00     0.084 H 
ATOM     47  C   UNL     1     -46.664  38.535  27.433  1.00  0.00     0.066 A 
ATOM     48  H   UNL     1     -45.637  36.880  26.477  1.00  0.00     0.065 H 
ATOM     49  C   UNL     1     -47.889  38.891  27.989  1.00  0.00     0.051 A 
ATOM     50  H   UNL     1     -48.089  39.876  28.398  1.00  0.00     0.086 H 
BRANCH  47  51
ATOM     51  N   UNL     1     -45.581  39.464  27.372  1.00  0.00    -0.300 N 
ATOM     52  C   UNL     1     -45.389  40.413  26.377  1.00  0.00     0.012 A 
ATOM     53  C   UNL     1     -44.538  39.616  28.290  1.00  0.00     0.150 A 
ATOM     54  C   UNL     1     -44.256  41.144  26.653  1.00  0.00    -0.031 A 
ATOM     55  H   UNL     1     -46.059  40.494  25.532  1.00  0.00     0.082 H 
ATOM     56  C   UNL     1     -43.715  40.653  27.864  1.00  0.00     0.061 A 
ATOM     57  N   UNL     1     -44.359  38.914  29.427  1.00  0.00    -0.218 NA
ATOM     58  H   UNL     1     -43.867  41.955  26.050  1.00  0.00     0.065 H 
ATOM     59  C   UNL     1     -42.614  40.971  28.673  1.00  0.00     0.136 A 
ATOM     60  C   UNL     1     -43.294  39.318  30.129  1.00  0.00     0.120 A 
ATOM     61  N   UNL     1     -42.416  40.285  29.813  1.00  0.00    -0.219 NA
ATOM     62  H   UNL     1     -43.118  38.799  31.067  1.00  0.00     0.106 H 
BRANCH  59  63
ATOM     63  N   UNL     1     -41.696  41.965  28.363  1.00  0.00    -0.383 N 
ATOM     64  H   UNL     1     -40.940  41.971  29.039  1.00  0.00     0.158 HD
ATOM     65  H   UNL     1     -41.428  42.009  27.390  1.00  0.00     0.158 HD
ENDBRANCH  59  63
ENDBRANCH  47  51
ENDBRANCH   1  42
TORSDOF 8
ENDMDL
MODEL 5
REMARK VINA RESULT:     -10.2      4.816     12.333
REMARK SMILES CCc1cc(N2CCC(F)(F)CC2)c2ccc(OCc3cncc(-n4ccc5c(N)ncnc54)c3)cc2n1
REMARK SMILES IDX 19 1 18 4 17 5 3 6 4 7 38 8 5 9 37 11 14 12 36 13 15 14
REMARK SMILES IDX 16 16 2 19 1 22 6 26 7 27 13 28 8 29 12 32 9 35 10 40 11 41
REMARK SMILES IDX 20 42 21 43 35 44 22 45 24 47 23 49 25 51 26 52 34 53 27 54
REMARK SMILES IDX 28 56 33 57 29 59 32 60 31 61 30 63
REMARK H PARENT 19 2 19 3 4 10 36 15 15 17 16 18 2 20 2 21 1 23 1 24 1 25 7 30
REMARK H PARENT 7 31 13 33 13 34 8 36 8 37 12 38 12 39 21 46 35 48 23 50 26 55
REMARK H PARENT 27 58 32 62 30 64 30 65
REMARK Flexibility Score: inf
ROOT
ATOM      1  C   UNL     1     -48.256  35.356  27.189  1.00  0.00     0.115 C 
ATOM      2  H   UNL     1     -48.449  36.223  26.545  1.00  0.00     0.076 H 
ATOM      3  H   UNL     1     -49.207  35.176  27.703  1.00  0.00     0.076 H 
ENDROOT
BRANCH   1   4
ATOM      4  O   UNL     1     -47.215  35.738  28.088  1.00  0.00    -0.489 OA
BRANCH   4   5
ATOM      5  C   UNL     1     -46.572  36.929  27.895  1.00  0.00     0.122 A 
ATOM      6  C   UNL     1     -43.324  40.271  28.864  1.00  0.00     0.043 A 
ATOM      7  C   UNL     1     -43.730  41.079  27.810  1.00  0.00    -0.016 A 
ATOM      8  N   UNL     1     -43.907  39.083  29.137  1.00  0.00    -0.253 NA
ATOM      9  C   UNL     1     -44.784  40.664  26.991  1.00  0.00     0.048 A 
ATOM     10  H   UNL     1     -43.211  42.011  27.620  1.00  0.00     0.066 H 
ATOM     11  C   UNL     1     -44.924  38.667  28.361  1.00  0.00     0.076 A 
ATOM     12  C   UNL     1     -45.407  39.421  27.271  1.00  0.00     0.024 A 
ATOM     13  C   UNL     1     -45.518  37.442  28.652  1.00  0.00     0.007 A 
ATOM     14  C   UNL     1     -46.491  38.914  26.524  1.00  0.00    -0.047 A 
ATOM     15  H   UNL     1     -45.118  36.907  29.506  1.00  0.00     0.069 H 
ATOM     16  C   UNL     1     -47.065  37.682  26.835  1.00  0.00    -0.019 A 
ATOM     17  H   UNL     1     -46.897  39.487  25.694  1.00  0.00     0.063 H 
ATOM     18  H   UNL     1     -47.895  37.309  26.241  1.00  0.00     0.066 H 
BRANCH   6  19
ATOM     19  C   UNL     1     -42.169  40.683  29.739  1.00  0.00    -0.013 C 
ATOM     20  H   UNL     1     -42.414  40.484  30.788  1.00  0.00     0.033 H 
ATOM     21  H   UNL     1     -41.295  40.064  29.499  1.00  0.00     0.033 H 
BRANCH  19  22
ATOM     22  C   UNL     1     -41.811  42.150  29.552  1.00  0.00    -0.060 C 
ATOM     23  H   UNL     1     -42.125  42.492  28.561  1.00  0.00     0.023 H 
ATOM     24  H   UNL     1     -40.732  42.311  29.639  1.00  0.00     0.023 H 
ATOM     25  H   UNL     1     -42.304  42.777  30.302  1.00  0.00     0.023 H 
ENDBRANCH  19  22
ENDBRANCH   6  19
BRANCH   9  26
ATOM     26  N   UNL     1     -45.198  41.437  25.881  1.00  0.00    -0.370 N 
ATOM     27  C   UNL     1     -46.379  42.295  26.073  1.00  0.00     0.024 C 
ATOM     28  C   UNL     1     -44.048  42.019  25.163  1.00  0.00     0.024 C 
ATOM     29  C   UNL     1     -46.007  43.763  25.992  1.00  0.00     0.029 C 
ATOM     30  H   UNL     1     -47.100  42.057  25.280  1.00  0.00     0.050 H 
ATOM     31  H   UNL     1     -46.895  42.086  27.019  1.00  0.00     0.050 H 
ATOM     32  C   UNL     1     -44.561  42.915  24.051  1.00  0.00     0.029 C 
ATOM     33  H   UNL     1     -43.405  42.592  25.843  1.00  0.00     0.050 H 
ATOM     34  H   UNL     1     -43.437  41.221  24.724  1.00  0.00     0.050 H 
ATOM     35  C   UNL     1     -45.359  44.057  24.652  1.00  0.00     0.251 C 
ATOM     36  H   UNL     1     -46.900  44.385  26.119  1.00  0.00     0.035 H 
ATOM     37  H   UNL     1     -45.317  44.027  26.803  1.00  0.00     0.035 H 
ATOM     38  H   UNL     1     -43.722  43.309  23.466  1.00  0.00     0.035 H 
ATOM     39  H   UNL     1     -45.193  42.337  23.366  1.00  0.00     0.035 H 
ATOM     40  F   UNL     1     -46.315  44.434  23.761  1.00  0.00    -0.207 F 
ATOM     41  F   UNL     1     -44.547  45.140  24.802  1.00  0.00    -0.207 F 
ENDBRANCH   9  26
ENDBRANCH   4   5
ENDBRANCH   1   4
BRANCH   1  42
ATOM     42  C   UNL     1     -47.838  34.209  26.310  1.00  0.00     0.010 A 
ATOM     43  C   UNL     1     -46.502  33.994  26.002  1.00  0.00     0.034 A 
ATOM     44  C   UNL     1     -48.773  33.304  25.795  1.00  0.00    -0.028 A 
ATOM     45  N   UNL     1     -46.063  32.981  25.223  1.00  0.00    -0.262 NA
ATOM     46  H   UNL     1     -45.723  34.650  26.382  1.00  0.00     0.084 H 
ATOM     47  C   UNL     1     -48.360  32.216  25.021  1.00  0.00     0.066 A 
ATOM     48  H   UNL     1     -49.820  33.478  26.013  1.00  0.00     0.065 H 
ATOM     49  C   UNL     1     -46.997  32.114  24.758  1.00  0.00     0.051 A 
ATOM     50  H   UNL     1     -46.566  31.305  24.178  1.00  0.00     0.086 H 
BRANCH  47  51
ATOM     51  N   UNL     1     -49.283  31.239  24.536  1.00  0.00    -0.300 N 
ATOM     52  C   UNL     1     -50.261  31.463  23.577  1.00  0.00     0.012 A 
ATOM     53  C   UNL     1     -49.367  29.894  24.904  1.00  0.00     0.150 A 
ATOM     54  C   UNL     1     -50.949  30.294  23.343  1.00  0.00    -0.031 A 
ATOM     55  H   UNL     1     -50.415  32.439  23.138  1.00  0.00     0.082 H 
ATOM     56  C   UNL     1     -50.387  29.294  24.172  1.00  0.00     0.061 A 
ATOM     57  N   UNL     1     -48.578  29.249  25.786  1.00  0.00    -0.218 NA
ATOM     58  H   UNL     1     -51.764  30.172  22.641  1.00  0.00     0.065 H 
ATOM     59  C   UNL     1     -50.613  27.927  24.388  1.00  0.00     0.136 A 
ATOM     60  C   UNL     1     -48.869  27.948  25.895  1.00  0.00     0.120 A 
ATOM     61  N   UNL     1     -49.838  27.263  25.264  1.00  0.00    -0.219 NA
ATOM     62  H   UNL     1     -48.246  27.378  26.579  1.00  0.00     0.106 H 
BRANCH  59  63
ATOM     63  N   UNL     1     -51.609  27.203  23.748  1.00  0.00    -0.383 N 
ATOM     64  H   UNL     1     -52.387  27.808  23.509  1.00  0.00     0.158 HD
ATOM     65  H   UNL     1     -51.284  26.582  23.021  1.00  0.00     0.158 HD
ENDBRANCH  59  63
ENDBRANCH  47  51
ENDBRANCH   1  42
TORSDOF 8
ENDMDL
MODEL 6
REMARK VINA RESULT:     -10.0      4.730     12.354
REMARK SMILES CCc1cc(N2CCC(F)(F)CC2)c2ccc(OCc3cncc(-n4ccc5c(N)ncnc54)c3)cc2n1
REMARK SMILES IDX 19 1 18 4 17 5 3 6 4 7 38 8 5 9 37 11 14 12 36 13 15 14
REMARK SMILES IDX 16 16 2 19 1 22 6 26 7 27 13 28 8 29 12 32 9 35 10 40 11 41
REMARK SMILES IDX 20 42 21 43 35 44 22 45 24 47 23 49 25 51 26 52 34 53 27 54
REMARK SMILES IDX 28 56 33 57 29 59 32 60 31 61 30 63
REMARK H PARENT 19 2 19 3 4 10 36 15 15 17 16 18 2 20 2 21 1 23 1 24 1 25 7 30
REMARK H PARENT 7 31 13 33 13 34 8 36 8 37 12 38 12 39 21 46 35 48 23 50 26 55
REMARK H PARENT 27 58 32 62 30 64 30 65
REMARK Flexibility Score: inf
ROOT
ATOM      1  C   UNL     1     -48.661  33.490  26.316  1.00  0.00     0.115 C 
ATOM      2  H   UNL     1     -48.940  34.426  25.815  1.00  0.00     0.076 H 
ATOM      3  H   UNL     1     -49.601  33.107  26.730  1.00  0.00     0.076 H 
ENDROOT
BRANCH   1   4
ATOM      4  O   UNL     1     -47.719  33.835  27.332  1.00  0.00    -0.489 OA
BRANCH   4   5
ATOM      5  C   UNL     1     -47.359  35.145  27.489  1.00  0.00     0.122 A 
ATOM      6  C   UNL     1     -48.193  39.798  28.048  1.00  0.00     0.043 A 
ATOM      7  C   UNL     1     -46.841  40.110  28.109  1.00  0.00    -0.016 A 
ATOM      8  N   UNL     1     -48.641  38.534  27.885  1.00  0.00    -0.253 NA
ATOM      9  C   UNL     1     -45.893  39.089  27.996  1.00  0.00     0.048 A 
ATOM     10  H   UNL     1     -46.537  41.138  28.267  1.00  0.00     0.066 H 
ATOM     11  C   UNL     1     -47.744  37.538  27.774  1.00  0.00     0.076 A 
ATOM     12  C   UNL     1     -46.352  37.759  27.820  1.00  0.00     0.024 A 
ATOM     13  C   UNL     1     -48.217  36.239  27.605  1.00  0.00     0.007 A 
ATOM     14  C   UNL     1     -45.485  36.655  27.675  1.00  0.00    -0.047 A 
ATOM     15  H   UNL     1     -49.294  36.124  27.564  1.00  0.00     0.069 H 
ATOM     16  C   UNL     1     -45.986  35.364  27.511  1.00  0.00    -0.019 A 
ATOM     17  H   UNL     1     -44.408  36.802  27.684  1.00  0.00     0.063 H 
ATOM     18  H   UNL     1     -45.299  34.529  27.408  1.00  0.00     0.066 H 
BRANCH   6  19
ATOM     19  C   UNL     1     -49.232  40.877  28.201  1.00  0.00    -0.013 C 
ATOM     20  H   UNL     1     -50.165  40.439  28.574  1.00  0.00     0.033 H 
ATOM     21  H   UNL     1     -48.899  41.596  28.960  1.00  0.00     0.033 H 
BRANCH  19  22
ATOM     22  C   UNL     1     -49.484  41.611  26.892  1.00  0.00    -0.060 C 
ATOM     23  H   UNL     1     -49.959  40.940  26.168  1.00  0.00     0.023 H 
ATOM     24  H   UNL     1     -48.549  41.974  26.452  1.00  0.00     0.023 H 
ATOM     25  H   UNL     1     -50.140  42.474  27.040  1.00  0.00     0.023 H 
ENDBRANCH  19  22
ENDBRANCH   6  19
BRANCH   9  26
ATOM     26  N   UNL     1     -44.508  39.360  28.098  1.00  0.00    -0.370 N 
ATOM     27  C   UNL     1     -43.917  40.203  27.045  1.00  0.00     0.024 C 
ATOM     28  C   UNL     1     -44.109  39.638  29.491  1.00  0.00     0.024 C 
ATOM     29  C   UNL     1     -43.446  41.530  27.608  1.00  0.00     0.029 C 
ATOM     30  H   UNL     1     -43.062  39.660  26.622  1.00  0.00     0.050 H 
ATOM     31  H   UNL     1     -44.609  40.369  26.209  1.00  0.00     0.050 H 
ATOM     32  C   UNL     1     -42.640  40.020  29.518  1.00  0.00     0.029 C 
ATOM     33  H   UNL     1     -44.716  40.443  29.925  1.00  0.00     0.050 H 
ATOM     34  H   UNL     1     -44.255  38.744  30.109  1.00  0.00     0.050 H 
ATOM     35  C   UNL     1     -42.436  41.291  28.714  1.00  0.00     0.251 C 
ATOM     36  H   UNL     1     -42.994  42.135  26.814  1.00  0.00     0.035 H 
ATOM     37  H   UNL     1     -44.296  42.102  27.999  1.00  0.00     0.035 H 
ATOM     38  H   UNL     1     -42.308  40.170  30.551  1.00  0.00     0.035 H 
ATOM     39  H   UNL     1     -42.034  39.209  29.096  1.00  0.00     0.035 H 
ATOM     40  F   UNL     1     -41.183  41.272  28.185  1.00  0.00    -0.207 F 
ATOM     41  F   UNL     1     -42.465  42.362  29.555  1.00  0.00    -0.207 F 
ENDBRANCH   9  26
ENDBRANCH   4   5
ENDBRANCH   1   4
BRANCH   1  42
ATOM     42  C   UNL     1     -48.057  32.575  25.287  1.00  0.00     0.010 A 
ATOM     43  C   UNL     1     -46.685  32.535  25.082  1.00  0.00     0.034 A 
ATOM     44  C   UNL     1     -48.849  31.712  24.521  1.00  0.00    -0.028 A 
ATOM     45  N   UNL     1     -46.082  31.732  24.176  1.00  0.00    -0.262 NA
ATOM     46  H   UNL     1     -46.010  33.167  25.654  1.00  0.00     0.084 H 
ATOM     47  C   UNL     1     -48.265  30.834  23.604  1.00  0.00     0.066 A 
ATOM     48  H   UNL     1     -49.924  31.754  24.659  1.00  0.00     0.065 H 
ATOM     49  C   UNL     1     -46.882  30.898  23.466  1.00  0.00     0.051 A 
ATOM     50  H   UNL     1     -46.324  30.256  22.793  1.00  0.00     0.086 H 
BRANCH  47  51
ATOM     51  N   UNL     1     -49.041  29.897  22.855  1.00  0.00    -0.300 N 
ATOM     52  C   UNL     1     -49.278  29.958  21.489  1.00  0.00     0.012 A 
ATOM     53  C   UNL     1     -49.680  28.749  23.332  1.00  0.00     0.150 A 
ATOM     54  C   UNL     1     -50.047  28.882  21.108  1.00  0.00    -0.031 A 
ATOM     55  H   UNL     1     -48.900  30.770  20.882  1.00  0.00     0.082 H 
ATOM     56  C   UNL     1     -50.301  28.108  22.265  1.00  0.00     0.061 A 
ATOM     57  N   UNL     1     -49.677  28.295  24.601  1.00  0.00    -0.218 NA
ATOM     58  H   UNL     1     -50.381  28.671  20.100  1.00  0.00     0.065 H 
ATOM     59  C   UNL     1     -50.983  26.914  22.543  1.00  0.00     0.136 A 
ATOM     60  C   UNL     1     -50.338  27.140  24.745  1.00  0.00     0.120 A 
ATOM     61  N   UNL     1     -50.993  26.441  23.802  1.00  0.00    -0.219 NA
ATOM     62  H   UNL     1     -50.346  26.719  25.746  1.00  0.00     0.106 H 
BRANCH  59  63
ATOM     63  N   UNL     1     -51.666  26.180  21.585  1.00  0.00    -0.383 N 
ATOM     64  H   UNL     1     -52.663  26.354  21.650  1.00  0.00     0.158 HD
ATOM     65  H   UNL     1     -51.265  26.211  20.658  1.00  0.00     0.158 HD
ENDBRANCH  59  63
ENDBRANCH  47  51
ENDBRANCH   1  42
TORSDOF 8
ENDMDL
MODEL 7
REMARK VINA RESULT:      -9.8      1.390      2.214
REMARK SMILES CCc1cc(N2CCC(F)(F)CC2)c2ccc(OCc3cncc(-n4ccc5c(N)ncnc54)c3)cc2n1
REMARK SMILES IDX 19 1 18 4 17 5 3 6 4 7 38 8 5 9 37 11 14 12 36 13 15 14
REMARK SMILES IDX 16 16 2 19 1 22 6 26 7 27 13 28 8 29 12 32 9 35 10 40 11 41
REMARK SMILES IDX 20 42 21 43 35 44 22 45 24 47 23 49 25 51 26 52 34 53 27 54
REMARK SMILES IDX 28 56 33 57 29 59 32 60 31 61 30 63
REMARK H PARENT 19 2 19 3 4 10 36 15 15 17 16 18 2 20 2 21 1 23 1 24 1 25 7 30
REMARK H PARENT 7 31 13 33 13 34 8 36 8 37 12 38 12 39 21 46 35 48 23 50 26 55
REMARK H PARENT 27 58 32 62 30 64 30 65
REMARK Flexibility Score: inf
ROOT
ATOM      1  C   UNL     1     -46.393  34.002  26.912  1.00  0.00     0.115 C 
ATOM      2  H   UNL     1     -46.088  34.042  25.858  1.00  0.00     0.076 H 
ATOM      3  H   UNL     1     -45.529  33.575  27.434  1.00  0.00     0.076 H 
ENDROOT
BRANCH   1   4
ATOM      4  O   UNL     1     -47.539  33.152  26.974  1.00  0.00    -0.489 OA
BRANCH   4   5
ATOM      5  C   UNL     1     -47.740  32.231  25.983  1.00  0.00     0.122 A 
ATOM      6  C   UNL     1     -47.632  30.651  21.495  1.00  0.00     0.043 A 
ATOM      7  C   UNL     1     -48.147  29.409  21.840  1.00  0.00    -0.016 A 
ATOM      8  N   UNL     1     -47.411  31.625  22.404  1.00  0.00    -0.253 NA
ATOM      9  C   UNL     1     -48.458  29.139  23.176  1.00  0.00     0.048 A 
ATOM     10  H   UNL     1     -48.282  28.654  21.073  1.00  0.00     0.066 H 
ATOM     11  C   UNL     1     -47.704  31.385  23.695  1.00  0.00     0.076 A 
ATOM     12  C   UNL     1     -48.233  30.156  24.139  1.00  0.00     0.024 A 
ATOM     13  C   UNL     1     -47.473  32.396  24.623  1.00  0.00     0.007 A 
ATOM     14  C   UNL     1     -48.530  30.000  25.510  1.00  0.00    -0.047 A 
ATOM     15  H   UNL     1     -47.076  33.325  24.230  1.00  0.00     0.069 H 
ATOM     16  C   UNL     1     -48.284  31.028  26.419  1.00  0.00    -0.019 A 
ATOM     17  H   UNL     1     -48.960  29.070  25.873  1.00  0.00     0.063 H 
ATOM     18  H   UNL     1     -48.513  30.883  27.471  1.00  0.00     0.066 H 
BRANCH   6  19
ATOM     19  C   UNL     1     -47.260  30.952  20.067  1.00  0.00    -0.013 C 
ATOM     20  H   UNL     1     -47.087  30.014  19.526  1.00  0.00     0.033 H 
ATOM     21  H   UNL     1     -48.102  31.448  19.570  1.00  0.00     0.033 H 
BRANCH  19  22
ATOM     22  C   UNL     1     -46.029  31.842  19.977  1.00  0.00    -0.060 C 
ATOM     23  H   UNL     1     -45.627  32.032  20.978  1.00  0.00     0.023 H 
ATOM     24  H   UNL     1     -46.268  32.808  19.521  1.00  0.00     0.023 H 
ATOM     25  H   UNL     1     -45.243  31.375  19.376  1.00  0.00     0.023 H 
ENDBRANCH  19  22
ENDBRANCH   6  19
BRANCH   9  26
ATOM     26  N   UNL     1     -48.942  27.871  23.574  1.00  0.00    -0.370 N 
ATOM     27  C   UNL     1     -48.111  27.112  24.525  1.00  0.00     0.024 C 
ATOM     28  C   UNL     1     -50.397  27.894  23.817  1.00  0.00     0.024 C 
ATOM     29  C   UNL     1     -48.812  26.956  25.860  1.00  0.00     0.029 C 
ATOM     30  H   UNL     1     -47.926  26.121  24.091  1.00  0.00     0.050 H 
ATOM     31  H   UNL     1     -47.122  27.566  24.666  1.00  0.00     0.050 H 
ATOM     32  C   UNL     1     -50.834  26.537  24.338  1.00  0.00     0.029 C 
ATOM     33  H   UNL     1     -50.667  28.679  24.536  1.00  0.00     0.050 H 
ATOM     34  H   UNL     1     -50.930  28.105  22.882  1.00  0.00     0.050 H 
ATOM     35  C   UNL     1     -50.147  26.262  25.663  1.00  0.00     0.251 C 
ATOM     36  H   UNL     1     -48.187  26.374  26.547  1.00  0.00     0.035 H 
ATOM     37  H   UNL     1     -48.969  27.936  26.325  1.00  0.00     0.035 H 
ATOM     38  H   UNL     1     -51.922  26.515  24.466  1.00  0.00     0.035 H 
ATOM     39  H   UNL     1     -50.575  25.756  23.613  1.00  0.00     0.035 H 
ATOM     40  F   UNL     1     -49.981  24.918  25.794  1.00  0.00    -0.207 F 
ATOM     41  F   UNL     1     -50.972  26.633  26.681  1.00  0.00    -0.207 F 
ENDBRANCH   9  26
ENDBRANCH   4   5
ENDBRANCH   1   4
BRANCH   1  42
ATOM     42  C   UNL     1     -46.715  35.401  27.357  1.00  0.00     0.010 A 
ATOM     43  C   UNL     1     -48.028  35.842  27.438  1.00  0.00     0.034 A 
ATOM     44  C   UNL     1     -45.709  36.300  27.731  1.00  0.00    -0.028 A 
ATOM     45  N   UNL     1     -48.382  37.086  27.833  1.00  0.00    -0.262 NA
ATOM     46  H   UNL     1     -48.859  35.191  27.178  1.00  0.00     0.084 H 
ATOM     47  C   UNL     1     -46.030  37.581  28.187  1.00  0.00     0.066 A 
ATOM     48  H   UNL     1     -44.679  35.970  27.648  1.00  0.00     0.065 H 
ATOM     49  C   UNL     1     -47.379  37.921  28.204  1.00  0.00     0.051 A 
ATOM     50  H   UNL     1     -47.742  38.882  28.550  1.00  0.00     0.086 H 
BRANCH  47  51
ATOM     51  N   UNL     1     -45.030  38.496  28.637  1.00  0.00    -0.300 N 
ATOM     52  C   UNL     1     -44.314  38.388  29.821  1.00  0.00     0.012 A 
ATOM     53  C   UNL     1     -44.568  39.640  27.980  1.00  0.00     0.150 A 
ATOM     54  C   UNL     1     -43.425  39.435  29.916  1.00  0.00    -0.031 A 
ATOM     55  H   UNL     1     -44.496  37.588  30.525  1.00  0.00     0.082 H 
ATOM     56  C   UNL     1     -43.572  40.228  28.754  1.00  0.00     0.061 A 
ATOM     57  N   UNL     1     -44.973  40.097  26.779  1.00  0.00    -0.218 NA
ATOM     58  H   UNL     1     -42.734  39.602  30.733  1.00  0.00     0.065 H 
ATOM     59  C   UNL     1     -42.966  41.387  28.247  1.00  0.00     0.136 A 
ATOM     60  C   UNL     1     -44.313  41.192  26.385  1.00  0.00     0.120 A 
ATOM     61  N   UNL     1     -43.354  41.861  27.049  1.00  0.00    -0.219 NA
ATOM     62  H   UNL     1     -44.587  41.589  25.412  1.00  0.00     0.106 H 
BRANCH  59  63
ATOM     63  N   UNL     1     -41.977  42.091  28.917  1.00  0.00    -0.383 N 
ATOM     64  H   UNL     1     -41.065  41.695  28.720  1.00  0.00     0.158 HD
ATOM     65  H   UNL     1     -42.053  43.097  28.854  1.00  0.00     0.158 HD
ENDBRANCH  59  63
ENDBRANCH  47  51
ENDBRANCH   1  42
TORSDOF 8
ENDMDL
