MODEL 1
REMARK VINA RESULT:      -9.7      0.000      0.000
REMARK SMILES CNc1ccc2ccc(OCc3cc(-n4cc(Cl)c5c(N)ncnc54)cnc3NC)cc2n1
REMARK SMILES IDX 11 1 10 4 9 5 3 6 4 7 33 8 5 9 32 11 6 12 31 14 7 15 8 17
REMARK SMILES IDX 2 20 1 22 12 26 13 27 28 28 14 29 27 31 26 32 29 34 30 36
REMARK SMILES IDX 15 40 16 41 25 42 17 43 19 45 24 46 18 47 20 48 23 49 22 50
REMARK SMILES IDX 21 52
REMARK H PARENT 11 2 11 3 4 10 5 13 31 16 7 18 8 19 2 21 1 23 1 24 1 25 13 30
REMARK H PARENT 26 33 29 35 30 37 30 38 30 39 16 44 23 51 21 53 21 54
REMARK Flexibility Score: inf
ROOT
ATOM      1  C   UNL     1     -46.408  36.935  26.905  1.00  0.00     0.117 C 
ATOM      2  H   UNL     1     -45.364  36.724  26.645  1.00  0.00     0.076 H 
ATOM      3  H   UNL     1     -46.741  37.723  26.219  1.00  0.00     0.076 H 
ENDROOT
BRANCH   1   4
ATOM      4  O   UNL     1     -46.477  37.511  28.216  1.00  0.00    -0.489 OA
BRANCH   4   5
ATOM      5  C   UNL     1     -45.385  38.190  28.688  1.00  0.00     0.122 A 
ATOM      6  C   UNL     1     -42.721  42.063  27.922  1.00  0.00     0.126 A 
ATOM      7  C   UNL     1     -41.953  41.812  29.054  1.00  0.00    -0.019 A 
ATOM      8  N   UNL     1     -43.714  41.233  27.545  1.00  0.00    -0.231 NA
ATOM      9  C   UNL     1     -42.231  40.695  29.835  1.00  0.00    -0.049 A 
ATOM     10  H   UNL     1     -41.140  42.477  29.325  1.00  0.00     0.066 H 
ATOM     11  C   UNL     1     -43.985  40.147  28.294  1.00  0.00     0.076 A 
ATOM     12  C   UNL     1     -43.269  39.838  29.465  1.00  0.00     0.001 A 
ATOM     13  H   UNL     1     -41.636  40.503  30.723  1.00  0.00     0.063 H 
ATOM     14  C   UNL     1     -45.018  39.301  27.920  1.00  0.00     0.007 A 
ATOM     15  C   UNL     1     -43.607  38.706  30.225  1.00  0.00    -0.049 A 
ATOM     16  H   UNL     1     -45.583  39.535  27.021  1.00  0.00     0.069 H 
ATOM     17  C   UNL     1     -44.667  37.885  29.839  1.00  0.00    -0.019 A 
ATOM     18  H   UNL     1     -43.055  38.466  31.130  1.00  0.00     0.063 H 
ATOM     19  H   UNL     1     -44.908  37.031  30.463  1.00  0.00     0.066 H 
BRANCH   6  20
ATOM     20  N   UNL     1     -42.403  43.195  27.150  1.00  0.00    -0.373 N 
ATOM     21  H   UNL     1     -42.848  44.009  27.564  1.00  0.00     0.161 HD
BRANCH  20  22
ATOM     22  C   UNL     1     -42.720  43.065  25.737  1.00  0.00     0.005 C 
ATOM     23  H   UNL     1     -43.678  43.558  25.542  1.00  0.00     0.045 H 
ATOM     24  H   UNL     1     -42.821  42.015  25.441  1.00  0.00     0.045 H 
ATOM     25  H   UNL     1     -41.968  43.555  25.109  1.00  0.00     0.045 H 
ENDBRANCH  20  22
ENDBRANCH   6  20
ENDBRANCH   4   5
ENDBRANCH   1   4
BRANCH   1  26
ATOM     26  C   UNL     1     -47.309  35.736  26.675  1.00  0.00     0.034 A 
ATOM     27  C   UNL     1     -46.868  34.624  25.932  1.00  0.00    -0.026 A 
ATOM     28  C   UNL     1     -48.603  35.703  27.210  1.00  0.00     0.132 A 
ATOM     29  C   UNL     1     -47.720  33.555  25.669  1.00  0.00     0.066 A 
ATOM     30  H   UNL     1     -45.843  34.621  25.573  1.00  0.00     0.065 H 
ATOM     31  N   UNL     1     -49.431  34.661  26.981  1.00  0.00    -0.237 NA
ATOM     32  C   UNL     1     -48.987  33.627  26.225  1.00  0.00     0.053 A 
ATOM     33  H   UNL     1     -49.744  32.866  26.072  1.00  0.00     0.086 H 
BRANCH  28  34
ATOM     34  N   UNL     1     -49.059  36.783  27.987  1.00  0.00    -0.373 N 
ATOM     35  H   UNL     1     -48.723  36.664  28.938  1.00  0.00     0.161 HD
BRANCH  34  36
ATOM     36  C   UNL     1     -50.503  36.972  27.968  1.00  0.00     0.005 C 
ATOM     37  H   UNL     1     -51.031  36.091  28.351  1.00  0.00     0.045 H 
ATOM     38  H   UNL     1     -50.863  37.214  26.962  1.00  0.00     0.045 H 
ATOM     39  H   UNL     1     -50.756  37.816  28.617  1.00  0.00     0.045 H 
ENDBRANCH  34  36
ENDBRANCH  28  34
BRANCH  29  40
ATOM     40  N   UNL     1     -47.328  32.449  24.856  1.00  0.00    -0.298 N 
ATOM     41  C   UNL     1     -46.389  32.502  23.839  1.00  0.00     0.031 A 
ATOM     42  C   UNL     1     -47.782  31.130  24.932  1.00  0.00     0.151 A 
ATOM     43  C   UNL     1     -46.265  31.254  23.276  1.00  0.00     0.072 A 
ATOM     44  H   UNL     1     -45.900  33.424  23.561  1.00  0.00     0.084 H 
ATOM     45  C   UNL     1     -47.129  30.373  23.963  1.00  0.00     0.080 A 
ATOM     46  N   UNL     1     -48.672  30.640  25.818  1.00  0.00    -0.218 NA
ATOM     47  Cl  UNL     1     -45.246  30.854  21.975  1.00  0.00    -0.082 Cl
ATOM     48  C   UNL     1     -47.448  29.007  23.900  1.00  0.00     0.137 A 
ATOM     49  C   UNL     1     -48.893  29.328  25.672  1.00  0.00     0.120 A 
ATOM     50  N   UNL     1     -48.346  28.502  24.765  1.00  0.00    -0.219 NA
ATOM     51  H   UNL     1     -49.598  28.880  26.366  1.00  0.00     0.106 H 
BRANCH  48  52
ATOM     52  N   UNL     1     -46.891  28.122  22.992  1.00  0.00    -0.383 N 
ATOM     53  H   UNL     1     -46.335  28.533  22.254  1.00  0.00     0.158 HD
ATOM     54  H   UNL     1     -47.545  27.394  22.729  1.00  0.00     0.158 HD
ENDBRANCH  48  52
ENDBRANCH  29  40
ENDBRANCH   1  26
TORSDOF 9
ENDMDL
MODEL 2
REMARK VINA RESULT:      -9.7      2.905     10.127
REMARK SMILES CNc1ccc2ccc(OCc3cc(-n4cc(Cl)c5c(N)ncnc54)cnc3NC)cc2n1
REMARK SMILES IDX 11 1 10 4 9 5 3 6 4 7 33 8 5 9 32 11 6 12 31 14 7 15 8 17
REMARK SMILES IDX 2 20 1 22 12 26 13 27 28 28 14 29 27 31 26 32 29 34 30 36
REMARK SMILES IDX 15 40 16 41 25 42 17 43 19 45 24 46 18 47 20 48 23 49 22 50
REMARK SMILES IDX 21 52
REMARK H PARENT 11 2 11 3 4 10 5 13 31 16 7 18 8 19 2 21 1 23 1 24 1 25 13 30
REMARK H PARENT 26 33 29 35 30 37 30 38 30 39 16 44 23 51 21 53 21 54
REMARK Flexibility Score: inf
ROOT
ATOM      1  C   UNL     1     -46.746  35.581  28.132  1.00  0.00     0.117 C 
ATOM      2  H   UNL     1     -46.209  35.301  29.045  1.00  0.00     0.076 H 
ATOM      3  H   UNL     1     -47.760  35.176  28.238  1.00  0.00     0.076 H 
ENDROOT
BRANCH   1   4
ATOM      4  O   UNL     1     -46.177  34.903  27.004  1.00  0.00    -0.489 OA
BRANCH   4   5
ATOM      5  C   UNL     1     -46.969  34.041  26.294  1.00  0.00     0.122 A 
ATOM      6  C   UNL     1     -46.852  30.806  22.800  1.00  0.00     0.126 A 
ATOM      7  C   UNL     1     -48.195  30.495  22.983  1.00  0.00    -0.019 A 
ATOM      8  N   UNL     1     -46.241  31.758  23.534  1.00  0.00    -0.231 NA
ATOM      9  C   UNL     1     -48.923  31.158  23.965  1.00  0.00    -0.049 A 
ATOM     10  H   UNL     1     -48.675  29.746  22.362  1.00  0.00     0.066 H 
ATOM     11  C   UNL     1     -46.942  32.407  24.483  1.00  0.00     0.076 A 
ATOM     12  C   UNL     1     -48.296  32.133  24.745  1.00  0.00     0.001 A 
ATOM     13  H   UNL     1     -49.969  30.912  24.113  1.00  0.00     0.063 H 
ATOM     14  C   UNL     1     -46.312  33.372  25.255  1.00  0.00     0.007 A 
ATOM     15  C   UNL     1     -48.976  32.822  25.763  1.00  0.00    -0.049 A 
ATOM     16  H   UNL     1     -45.262  33.586  25.066  1.00  0.00     0.069 H 
ATOM     17  C   UNL     1     -48.311  33.772  26.540  1.00  0.00    -0.019 A 
ATOM     18  H   UNL     1     -50.023  32.611  25.966  1.00  0.00     0.063 H 
ATOM     19  H   UNL     1     -48.866  34.268  27.329  1.00  0.00     0.066 H 
BRANCH   6  20
ATOM     20  N   UNL     1     -46.150  30.123  21.789  1.00  0.00    -0.373 N 
ATOM     21  H   UNL     1     -46.820  29.672  21.173  1.00  0.00     0.161 HD
BRANCH  20  22
ATOM     22  C   UNL     1     -45.151  29.189  22.279  1.00  0.00     0.005 C 
ATOM     23  H   UNL     1     -44.395  29.743  22.844  1.00  0.00     0.045 H 
ATOM     24  H   UNL     1     -44.640  28.676  21.457  1.00  0.00     0.045 H 
ATOM     25  H   UNL     1     -45.589  28.451  22.959  1.00  0.00     0.045 H 
ENDBRANCH  20  22
ENDBRANCH   6  20
ENDBRANCH   4   5
ENDBRANCH   1   4
BRANCH   1  26
ATOM     26  C   UNL     1     -46.881  37.084  27.984  1.00  0.00     0.034 A 
ATOM     27  C   UNL     1     -45.749  37.906  27.821  1.00  0.00    -0.026 A 
ATOM     28  C   UNL     1     -48.143  37.692  27.994  1.00  0.00     0.132 A 
ATOM     29  C   UNL     1     -45.873  39.290  27.750  1.00  0.00     0.066 A 
ATOM     30  H   UNL     1     -44.777  37.430  27.747  1.00  0.00     0.065 H 
ATOM     31  N   UNL     1     -48.277  39.033  27.904  1.00  0.00    -0.237 NA
ATOM     32  C   UNL     1     -47.163  39.796  27.791  1.00  0.00     0.053 A 
ATOM     33  H   UNL     1     -47.384  40.857  27.766  1.00  0.00     0.086 H 
BRANCH  28  34
ATOM     34  N   UNL     1     -49.295  36.895  28.118  1.00  0.00    -0.373 N 
ATOM     35  H   UNL     1     -49.360  36.289  27.306  1.00  0.00     0.161 HD
BRANCH  34  36
ATOM     36  C   UNL     1     -50.530  37.644  28.306  1.00  0.00     0.005 C 
ATOM     37  H   UNL     1     -51.230  37.112  28.960  1.00  0.00     0.045 H 
ATOM     38  H   UNL     1     -51.013  37.870  27.349  1.00  0.00     0.045 H 
ATOM     39  H   UNL     1     -50.293  38.599  28.786  1.00  0.00     0.045 H 
ENDBRANCH  34  36
ENDBRANCH  28  34
BRANCH  29  40
ATOM     40  N   UNL     1     -44.740  40.155  27.661  1.00  0.00    -0.298 N 
ATOM     41  C   UNL     1     -43.666  40.151  28.536  1.00  0.00     0.031 A 
ATOM     42  C   UNL     1     -44.486  41.132  26.697  1.00  0.00     0.151 A 
ATOM     43  C   UNL     1     -42.764  41.112  28.144  1.00  0.00     0.072 A 
ATOM     44  H   UNL     1     -43.629  39.494  29.393  1.00  0.00     0.084 H 
ATOM     45  C   UNL     1     -43.261  41.733  26.977  1.00  0.00     0.080 A 
ATOM     46  N   UNL     1     -45.263  41.433  25.637  1.00  0.00    -0.218 NA
ATOM     47  Cl  UNL     1     -41.307  41.482  28.938  1.00  0.00    -0.082 Cl
ATOM     48  C   UNL     1     -42.828  42.737  26.097  1.00  0.00     0.137 A 
ATOM     49  C   UNL     1     -44.749  42.395  24.862  1.00  0.00     0.120 A 
ATOM     50  N   UNL     1     -43.596  43.062  25.042  1.00  0.00    -0.219 NA
ATOM     51  H   UNL     1     -45.332  42.672  23.988  1.00  0.00     0.106 H 
BRANCH  48  52
ATOM     52  N   UNL     1     -41.637  43.432  26.238  1.00  0.00    -0.383 N 
ATOM     53  H   UNL     1     -41.530  44.252  25.657  1.00  0.00     0.158 HD
ATOM     54  H   UNL     1     -40.845  42.805  26.308  1.00  0.00     0.158 HD
ENDBRANCH  48  52
ENDBRANCH  29  40
ENDBRANCH   1  26
TORSDOF 9
ENDMDL
MODEL 3
REMARK VINA RESULT:      -9.4      3.475     10.647
REMARK SMILES CNc1ccc2ccc(OCc3cc(-n4cc(Cl)c5c(N)ncnc54)cnc3NC)cc2n1
REMARK SMILES IDX 11 1 10 4 9 5 3 6 4 7 33 8 5 9 32 11 6 12 31 14 7 15 8 17
REMARK SMILES IDX 2 20 1 22 12 26 13 27 28 28 14 29 27 31 26 32 29 34 30 36
REMARK SMILES IDX 15 40 16 41 25 42 17 43 19 45 24 46 18 47 20 48 23 49 22 50
REMARK SMILES IDX 21 52
REMARK H PARENT 11 2 11 3 4 10 5 13 31 16 7 18 8 19 2 21 1 23 1 24 1 25 13 30
REMARK H PARENT 26 33 29 35 30 37 30 38 30 39 16 44 23 51 21 53 21 54
REMARK Flexibility Score: inf
ROOT
ATOM      1  C   UNL     1     -47.040  37.165  26.886  1.00  0.00     0.117 C 
ATOM      2  H   UNL     1     -47.820  37.019  27.642  1.00  0.00     0.076 H 
ATOM      3  H   UNL     1     -47.561  37.414  25.954  1.00  0.00     0.076 H 
ENDROOT
BRANCH   1   4
ATOM      4  O   UNL     1     -46.369  35.924  26.634  1.00  0.00    -0.489 OA
BRANCH   4   5
ATOM      5  C   UNL     1     -47.122  34.836  26.278  1.00  0.00     0.122 A 
ATOM      6  C   UNL     1     -46.905  30.681  23.960  1.00  0.00     0.126 A 
ATOM      7  C   UNL     1     -48.211  30.364  24.316  1.00  0.00    -0.019 A 
ATOM      8  N   UNL     1     -46.338  31.850  24.322  1.00  0.00    -0.231 NA
ATOM      9  C   UNL     1     -48.946  31.258  25.089  1.00  0.00    -0.049 A 
ATOM     10  H   UNL     1     -48.659  29.431  23.991  1.00  0.00     0.066 H 
ATOM     11  C   UNL     1     -47.046  32.721  25.066  1.00  0.00     0.076 A 
ATOM     12  C   UNL     1     -48.363  32.463  25.486  1.00  0.00     0.001 A 
ATOM     13  H   UNL     1     -49.963  31.008  25.373  1.00  0.00     0.063 H 
ATOM     14  C   UNL     1     -46.460  33.916  25.458  1.00  0.00     0.007 A 
ATOM     15  C   UNL     1     -49.050  33.395  26.282  1.00  0.00    -0.049 A 
ATOM     16  H   UNL     1     -45.439  34.122  25.145  1.00  0.00     0.069 H 
ATOM     17  C   UNL     1     -48.428  34.579  26.682  1.00  0.00    -0.019 A 
ATOM     18  H   UNL     1     -50.068  33.197  26.607  1.00  0.00     0.063 H 
ATOM     19  H   UNL     1     -48.985  35.264  27.311  1.00  0.00     0.066 H 
BRANCH   6  20
ATOM     20  N   UNL     1     -46.197  29.759  23.168  1.00  0.00    -0.373 N 
ATOM     21  H   UNL     1     -46.350  29.982  22.189  1.00  0.00     0.161 HD
BRANCH  20  22
ATOM     22  C   UNL     1     -46.496  28.366  23.458  1.00  0.00     0.005 C 
ATOM     23  H   UNL     1     -47.195  27.990  22.704  1.00  0.00     0.045 H 
ATOM     24  H   UNL     1     -46.973  28.251  24.438  1.00  0.00     0.045 H 
ATOM     25  H   UNL     1     -45.597  27.742  23.409  1.00  0.00     0.045 H 
ENDBRANCH  20  22
ENDBRANCH   6  20
ENDBRANCH   4   5
ENDBRANCH   1   4
BRANCH   1  26
ATOM     26  C   UNL     1     -46.134  38.336  27.216  1.00  0.00     0.034 A 
ATOM     27  C   UNL     1     -46.182  39.528  26.467  1.00  0.00    -0.026 A 
ATOM     28  C   UNL     1     -45.233  38.263  28.285  1.00  0.00     0.132 A 
ATOM     29  C   UNL     1     -45.305  40.576  26.732  1.00  0.00     0.066 A 
ATOM     30  H   UNL     1     -46.925  39.610  25.680  1.00  0.00     0.065 H 
ATOM     31  N   UNL     1     -44.393  39.281  28.566  1.00  0.00    -0.237 NA
ATOM     32  C   UNL     1     -44.436  40.397  27.798  1.00  0.00     0.053 A 
ATOM     33  H   UNL     1     -43.694  41.133  28.086  1.00  0.00     0.086 H 
BRANCH  28  34
ATOM     34  N   UNL     1     -45.188  37.099  29.074  1.00  0.00    -0.373 N 
ATOM     35  H   UNL     1     -45.612  36.337  28.554  1.00  0.00     0.161 HD
BRANCH  34  36
ATOM     36  C   UNL     1     -45.804  37.236  30.387  1.00  0.00     0.005 C 
ATOM     37  H   UNL     1     -45.119  37.696  31.108  1.00  0.00     0.045 H 
ATOM     38  H   UNL     1     -46.152  36.270  30.770  1.00  0.00     0.045 H 
ATOM     39  H   UNL     1     -46.678  37.888  30.300  1.00  0.00     0.045 H 
ENDBRANCH  34  36
ENDBRANCH  28  34
BRANCH  29  40
ATOM     40  N   UNL     1     -45.277  41.766  25.944  1.00  0.00    -0.298 N 
ATOM     41  C   UNL     1     -44.339  42.049  24.964  1.00  0.00     0.031 A 
ATOM     42  C   UNL     1     -46.168  42.840  25.987  1.00  0.00     0.151 A 
ATOM     43  C   UNL     1     -44.622  43.277  24.414  1.00  0.00     0.072 A 
ATOM     44  H   UNL     1     -43.519  41.380  24.748  1.00  0.00     0.084 H 
ATOM     45  C   UNL     1     -45.782  43.785  25.040  1.00  0.00     0.080 A 
ATOM     46  N   UNL     1     -47.256  42.946  26.777  1.00  0.00    -0.218 NA
ATOM     47  Cl  UNL     1     -43.721  44.043  23.192  1.00  0.00    -0.082 Cl
ATOM     48  C   UNL     1     -46.577  44.936  24.927  1.00  0.00     0.137 A 
ATOM     49  C   UNL     1     -47.944  44.076  26.578  1.00  0.00     0.120 A 
ATOM     50  N   UNL     1     -47.657  45.067  25.717  1.00  0.00    -0.219 NA
ATOM     51  H   UNL     1     -48.835  44.210  27.185  1.00  0.00     0.106 H 
BRANCH  48  52
ATOM     52  N   UNL     1     -46.325  45.968  24.038  1.00  0.00    -0.383 N 
ATOM     53  H   UNL     1     -46.365  46.903  24.421  1.00  0.00     0.158 HD
ATOM     54  H   UNL     1     -46.777  45.812  23.145  1.00  0.00     0.158 HD
ENDBRANCH  48  52
ENDBRANCH  29  40
ENDBRANCH   1  26
TORSDOF 9
ENDMDL
MODEL 4
REMARK VINA RESULT:      -9.4      3.116      5.683
REMARK SMILES CNc1ccc2ccc(OCc3cc(-n4cc(Cl)c5c(N)ncnc54)cnc3NC)cc2n1
REMARK SMILES IDX 11 1 10 4 9 5 3 6 4 7 33 8 5 9 32 11 6 12 31 14 7 15 8 17
REMARK SMILES IDX 2 20 1 22 12 26 13 27 28 28 14 29 27 31 26 32 29 34 30 36
REMARK SMILES IDX 15 40 16 41 25 42 17 43 19 45 24 46 18 47 20 48 23 49 22 50
REMARK SMILES IDX 21 52
REMARK H PARENT 11 2 11 3 4 10 5 13 31 16 7 18 8 19 2 21 1 23 1 24 1 25 13 30
REMARK H PARENT 26 33 29 35 30 37 30 38 30 39 16 44 23 51 21 53 21 54
REMARK Flexibility Score: inf
ROOT
ATOM      1  C   UNL     1     -46.247  32.691  24.199  1.00  0.00     0.117 C 
ATOM      2  H   UNL     1     -45.284  32.625  24.719  1.00  0.00     0.076 H 
ATOM      3  H   UNL     1     -46.095  33.380  23.360  1.00  0.00     0.076 H 
ENDROOT
BRANCH   1   4
ATOM      4  O   UNL     1     -47.215  33.325  25.047  1.00  0.00    -0.489 OA
BRANCH   4   5
ATOM      5  C   UNL     1     -46.767  34.047  26.121  1.00  0.00     0.122 A 
ATOM      6  C   UNL     1     -46.457  38.481  27.831  1.00  0.00     0.126 A 
ATOM      7  C   UNL     1     -45.919  38.028  29.031  1.00  0.00    -0.019 A 
ATOM      8  N   UNL     1     -46.763  37.633  26.829  1.00  0.00    -0.231 NA
ATOM      9  C   UNL     1     -45.716  36.665  29.218  1.00  0.00    -0.049 A 
ATOM     10  H   UNL     1     -45.654  38.731  29.814  1.00  0.00     0.066 H 
ATOM     11  C   UNL     1     -46.564  36.312  27.002  1.00  0.00     0.076 A 
ATOM     12  C   UNL     1     -46.047  35.774  28.194  1.00  0.00     0.001 A 
ATOM     13  H   UNL     1     -45.303  36.310  30.156  1.00  0.00     0.063 H 
ATOM     14  C   UNL     1     -46.896  35.433  25.981  1.00  0.00     0.007 A 
ATOM     15  C   UNL     1     -45.881  34.386  28.333  1.00  0.00    -0.049 A 
ATOM     16  H   UNL     1     -47.304  35.839  25.058  1.00  0.00     0.069 H 
ATOM     17  C   UNL     1     -46.246  33.523  27.299  1.00  0.00    -0.019 A 
ATOM     18  H   UNL     1     -45.481  33.969  29.254  1.00  0.00     0.063 H 
ATOM     19  H   UNL     1     -46.119  32.457  27.452  1.00  0.00     0.066 H 
BRANCH   6  20
ATOM     20  N   UNL     1     -46.637  39.868  27.673  1.00  0.00    -0.373 N 
ATOM     21  H   UNL     1     -47.596  40.044  27.389  1.00  0.00     0.161 HD
BRANCH  20  22
ATOM     22  C   UNL     1     -45.683  40.498  26.776  1.00  0.00     0.005 C 
ATOM     23  H   UNL     1     -46.140  41.393  26.344  1.00  0.00     0.045 H 
ATOM     24  H   UNL     1     -45.408  39.834  25.948  1.00  0.00     0.045 H 
ATOM     25  H   UNL     1     -44.780  40.817  27.307  1.00  0.00     0.045 H 
ENDBRANCH  20  22
ENDBRANCH   6  20
ENDBRANCH   4   5
ENDBRANCH   1   4
BRANCH   1  26
ATOM     26  C   UNL     1     -46.674  31.360  23.611  1.00  0.00     0.034 A 
ATOM     27  C   UNL     1     -47.368  30.410  24.383  1.00  0.00    -0.026 A 
ATOM     28  C   UNL     1     -46.396  31.050  22.273  1.00  0.00     0.132 A 
ATOM     29  C   UNL     1     -47.700  29.164  23.858  1.00  0.00     0.066 A 
ATOM     30  H   UNL     1     -47.641  30.676  25.400  1.00  0.00     0.065 H 
ATOM     31  N   UNL     1     -46.733  29.854  21.746  1.00  0.00    -0.237 NA
ATOM     32  C   UNL     1     -47.363  28.946  22.531  1.00  0.00     0.053 A 
ATOM     33  H   UNL     1     -47.551  28.009  22.019  1.00  0.00     0.086 H 
BRANCH  28  34
ATOM     34  N   UNL     1     -45.736  31.994  21.465  1.00  0.00    -0.373 N 
ATOM     35  H   UNL     1     -45.938  32.924  21.821  1.00  0.00     0.161 HD
BRANCH  34  36
ATOM     36  C   UNL     1     -46.054  31.901  20.047  1.00  0.00     0.005 C 
ATOM     37  H   UNL     1     -47.135  31.936  19.872  1.00  0.00     0.045 H 
ATOM     38  H   UNL     1     -45.634  30.994  19.600  1.00  0.00     0.045 H 
ATOM     39  H   UNL     1     -45.608  32.757  19.530  1.00  0.00     0.045 H 
ENDBRANCH  34  36
ENDBRANCH  28  34
BRANCH  29  40
ATOM     40  N   UNL     1     -48.336  28.152  24.638  1.00  0.00    -0.298 N 
ATOM     41  C   UNL     1     -47.681  27.271  25.483  1.00  0.00     0.031 A 
ATOM     42  C   UNL     1     -49.700  27.866  24.718  1.00  0.00     0.151 A 
ATOM     43  C   UNL     1     -48.607  26.440  26.070  1.00  0.00     0.072 A 
ATOM     44  H   UNL     1     -46.606  27.270  25.586  1.00  0.00     0.084 H 
ATOM     45  C   UNL     1     -49.889  26.810  25.606  1.00  0.00     0.080 A 
ATOM     46  N   UNL     1     -50.694  28.519  24.081  1.00  0.00    -0.218 NA
ATOM     47  Cl  UNL     1     -48.256  25.184  27.161  1.00  0.00    -0.082 Cl
ATOM     48  C   UNL     1     -51.210  26.392  25.828  1.00  0.00     0.137 A 
ATOM     49  C   UNL     1     -51.910  28.044  24.374  1.00  0.00     0.120 A 
ATOM     50  N   UNL     1     -52.214  27.021  25.190  1.00  0.00    -0.219 NA
ATOM     51  H   UNL     1     -52.748  28.539  23.893  1.00  0.00     0.106 H 
BRANCH  48  52
ATOM     52  N   UNL     1     -51.563  25.356  26.677  1.00  0.00    -0.383 N 
ATOM     53  H   UNL     1     -52.477  25.423  27.104  1.00  0.00     0.158 HD
ATOM     54  H   UNL     1     -50.791  25.082  27.274  1.00  0.00     0.158 HD
ENDBRANCH  48  52
ENDBRANCH  29  40
ENDBRANCH   1  26
TORSDOF 9
ENDMDL
MODEL 5
REMARK VINA RESULT:      -9.4      2.699     10.287
REMARK SMILES CNc1ccc2ccc(OCc3cc(-n4cc(Cl)c5c(N)ncnc54)cnc3NC)cc2n1
REMARK SMILES IDX 11 1 10 4 9 5 3 6 4 7 33 8 5 9 32 11 6 12 31 14 7 15 8 17
REMARK SMILES IDX 2 20 1 22 12 26 13 27 28 28 14 29 27 31 26 32 29 34 30 36
REMARK SMILES IDX 15 40 16 41 25 42 17 43 19 45 24 46 18 47 20 48 23 49 22 50
REMARK SMILES IDX 21 52
REMARK H PARENT 11 2 11 3 4 10 5 13 31 16 7 18 8 19 2 21 1 23 1 24 1 25 13 30
REMARK H PARENT 26 33 29 35 30 37 30 38 30 39 16 44 23 51 21 53 21 54
REMARK Flexibility Score: inf
ROOT
ATOM      1  C   UNL     1     -47.166  35.772  27.741  1.00  0.00     0.117 C 
ATOM      2  H   UNL     1     -46.159  35.470  27.431  1.00  0.00     0.076 H 
ATOM      3  H   UNL     1     -47.266  35.470  28.791  1.00  0.00     0.076 H 
ENDROOT
BRANCH   1   4
ATOM      4  O   UNL     1     -48.145  35.008  27.025  1.00  0.00    -0.489 OA
BRANCH   4   5
ATOM      5  C   UNL     1     -47.713  34.001  26.203  1.00  0.00     0.122 A 
ATOM      6  C   UNL     1     -49.051  29.857  24.274  1.00  0.00     0.126 A 
ATOM      7  C   UNL     1     -47.874  29.768  23.540  1.00  0.00    -0.019 A 
ATOM      8  N   UNL     1     -49.283  30.884  25.116  1.00  0.00    -0.231 NA
ATOM      9  C   UNL     1     -46.921  30.775  23.651  1.00  0.00    -0.049 A 
ATOM     10  H   UNL     1     -47.695  28.918  22.889  1.00  0.00     0.066 H 
ATOM     11  C   UNL     1     -48.361  31.860  25.232  1.00  0.00     0.076 A 
ATOM     12  C   UNL     1     -47.157  31.854  24.506  1.00  0.00     0.001 A 
ATOM     13  H   UNL     1     -46.004  30.710  23.073  1.00  0.00     0.063 H 
ATOM     14  C   UNL     1     -48.604  32.928  26.083  1.00  0.00     0.007 A 
ATOM     15  C   UNL     1     -46.239  32.908  24.645  1.00  0.00    -0.049 A 
ATOM     16  H   UNL     1     -49.536  32.946  26.643  1.00  0.00     0.069 H 
ATOM     17  C   UNL     1     -46.519  33.983  25.489  1.00  0.00    -0.019 A 
ATOM     18  H   UNL     1     -45.308  32.905  24.084  1.00  0.00     0.063 H 
ATOM     19  H   UNL     1     -45.794  34.787  25.555  1.00  0.00     0.066 H 
BRANCH   6  20
ATOM     20  N   UNL     1     -49.987  28.814  24.146  1.00  0.00    -0.373 N 
ATOM     21  H   UNL     1     -50.290  28.529  25.072  1.00  0.00     0.161 HD
BRANCH  20  22
ATOM     22  C   UNL     1     -49.521  27.685  23.358  1.00  0.00     0.005 C 
ATOM     23  H   UNL     1     -48.513  27.415  23.687  1.00  0.00     0.045 H 
ATOM     24  H   UNL     1     -49.467  27.931  22.291  1.00  0.00     0.045 H 
ATOM     25  H   UNL     1     -50.157  26.804  23.501  1.00  0.00     0.045 H 
ENDBRANCH  20  22
ENDBRANCH   6  20
ENDBRANCH   4   5
ENDBRANCH   1   4
BRANCH   1  26
ATOM     26  C   UNL     1     -47.355  37.276  27.691  1.00  0.00     0.034 A 
ATOM     27  C   UNL     1     -46.352  38.120  27.178  1.00  0.00    -0.026 A 
ATOM     28  C   UNL     1     -48.543  37.862  28.147  1.00  0.00     0.132 A 
ATOM     29  C   UNL     1     -46.503  39.504  27.194  1.00  0.00     0.066 A 
ATOM     30  H   UNL     1     -45.459  37.663  26.764  1.00  0.00     0.065 H 
ATOM     31  N   UNL     1     -48.710  39.201  28.147  1.00  0.00    -0.237 NA
ATOM     32  C   UNL     1     -47.706  39.987  27.685  1.00  0.00     0.053 A 
ATOM     33  H   UNL     1     -47.931  41.044  27.767  1.00  0.00     0.086 H 
BRANCH  28  34
ATOM     34  N   UNL     1     -49.578  37.042  28.632  1.00  0.00    -0.373 N 
ATOM     35  H   UNL     1     -49.308  36.070  28.507  1.00  0.00     0.161 HD
BRANCH  34  36
ATOM     36  C   UNL     1     -50.881  37.299  28.035  1.00  0.00     0.005 C 
ATOM     37  H   UNL     1     -50.826  37.329  26.941  1.00  0.00     0.045 H 
ATOM     38  H   UNL     1     -51.319  38.230  28.411  1.00  0.00     0.045 H 
ATOM     39  H   UNL     1     -51.560  36.485  28.308  1.00  0.00     0.045 H 
ENDBRANCH  34  36
ENDBRANCH  28  34
BRANCH  29  40
ATOM     40  N   UNL     1     -45.475  40.390  26.751  1.00  0.00    -0.298 N 
ATOM     41  C   UNL     1     -45.499  41.108  25.566  1.00  0.00     0.031 A 
ATOM     42  C   UNL     1     -44.286  40.714  27.407  1.00  0.00     0.151 A 
ATOM     43  C   UNL     1     -44.349  41.854  25.469  1.00  0.00     0.072 A 
ATOM     44  H   UNL     1     -46.311  41.016  24.860  1.00  0.00     0.084 H 
ATOM     45  C   UNL     1     -43.576  41.626  26.630  1.00  0.00     0.080 A 
ATOM     46  N   UNL     1     -43.889  40.263  28.614  1.00  0.00    -0.218 NA
ATOM     47  Cl  UNL     1     -43.936  42.870  24.170  1.00  0.00    -0.082 Cl
ATOM     48  C   UNL     1     -42.352  42.083  27.142  1.00  0.00     0.137 A 
ATOM     49  C   UNL     1     -42.715  40.771  29.007  1.00  0.00     0.120 A 
ATOM     50  N   UNL     1     -41.931  41.633  28.338  1.00  0.00    -0.219 NA
ATOM     51  H   UNL     1     -42.351  40.446  29.978  1.00  0.00     0.106 H 
BRANCH  48  52
ATOM     52  N   UNL     1     -41.527  42.986  26.491  1.00  0.00    -0.383 N 
ATOM     53  H   UNL     1     -41.821  43.267  25.565  1.00  0.00     0.158 HD
ATOM     54  H   UNL     1     -40.549  42.759  26.619  1.00  0.00     0.158 HD
ENDBRANCH  48  52
ENDBRANCH  29  40
ENDBRANCH   1  26
TORSDOF 9
ENDMDL
MODEL 6
REMARK VINA RESULT:      -9.3      2.822     10.418
REMARK SMILES CNc1ccc2ccc(OCc3cc(-n4cc(Cl)c5c(N)ncnc54)cnc3NC)cc2n1
REMARK SMILES IDX 11 1 10 4 9 5 3 6 4 7 33 8 5 9 32 11 6 12 31 14 7 15 8 17
REMARK SMILES IDX 2 20 1 22 12 26 13 27 28 28 14 29 27 31 26 32 29 34 30 36
REMARK SMILES IDX 15 40 16 41 25 42 17 43 19 45 24 46 18 47 20 48 23 49 22 50
REMARK SMILES IDX 21 52
REMARK H PARENT 11 2 11 3 4 10 5 13 31 16 7 18 8 19 2 21 1 23 1 24 1 25 13 30
REMARK H PARENT 26 33 29 35 30 37 30 38 30 39 16 44 23 51 21 53 21 54
REMARK Flexibility Score: inf
ROOT
ATOM      1  C   UNL     1     -47.271  35.156  27.553  1.00  0.00     0.117 C 
ATOM      2  H   UNL     1     -46.253  34.808  27.343  1.00  0.00     0.076 H 
ATOM      3  H   UNL     1     -47.557  34.705  28.511  1.00  0.00     0.076 H 
ENDROOT
BRANCH   1   4
ATOM      4  O   UNL     1     -48.180  34.612  26.586  1.00  0.00    -0.489 OA
BRANCH   4   5
ATOM      5  C   UNL     1     -47.765  33.550  25.827  1.00  0.00     0.122 A 
ATOM      6  C   UNL     1     -49.342  29.634  23.621  1.00  0.00     0.126 A 
ATOM      7  C   UNL     1     -48.084  29.373  23.090  1.00  0.00    -0.019 A 
ATOM      8  N   UNL     1     -49.561  30.688  24.434  1.00  0.00    -0.231 NA
ATOM      9  C   UNL     1     -47.029  30.233  23.377  1.00  0.00    -0.049 A 
ATOM     10  H   UNL     1     -47.922  28.504  22.461  1.00  0.00     0.066 H 
ATOM     11  C   UNL     1     -48.542  31.521  24.720  1.00  0.00     0.076 A 
ATOM     12  C   UNL     1     -47.247  31.338  24.203  1.00  0.00     0.001 A 
ATOM     13  H   UNL     1     -46.047  30.034  22.957  1.00  0.00     0.063 H 
ATOM     14  C   UNL     1     -48.767  32.616  25.539  1.00  0.00     0.007 A 
ATOM     15  C   UNL     1     -46.224  32.249  24.512  1.00  0.00    -0.049 A 
ATOM     16  H   UNL     1     -49.767  32.771  25.938  1.00  0.00     0.069 H 
ATOM     17  C   UNL     1     -46.484  33.357  25.320  1.00  0.00    -0.019 A 
ATOM     18  H   UNL     1     -45.222  32.110  24.113  1.00  0.00     0.063 H 
ATOM     19  H   UNL     1     -45.672  34.048  25.521  1.00  0.00     0.066 H 
BRANCH   6  20
ATOM     20  N   UNL     1     -50.383  28.736  23.318  1.00  0.00    -0.373 N 
ATOM     21  H   UNL     1     -50.298  28.452  22.347  1.00  0.00     0.161 HD
BRANCH  20  22
ATOM     22  C   UNL     1     -51.713  29.237  23.621  1.00  0.00     0.005 C 
ATOM     23  H   UNL     1     -52.166  29.619  22.701  1.00  0.00     0.045 H 
ATOM     24  H   UNL     1     -51.680  30.063  24.341  1.00  0.00     0.045 H 
ATOM     25  H   UNL     1     -52.366  28.443  24.001  1.00  0.00     0.045 H 
ENDBRANCH  20  22
ENDBRANCH   6  20
ENDBRANCH   4   5
ENDBRANCH   1   4
BRANCH   1  26
ATOM     26  C   UNL     1     -47.339  36.660  27.731  1.00  0.00     0.034 A 
ATOM     27  C   UNL     1     -46.172  37.449  27.714  1.00  0.00    -0.026 A 
ATOM     28  C   UNL     1     -48.570  37.304  27.904  1.00  0.00     0.132 A 
ATOM     29  C   UNL     1     -46.233  38.821  27.942  1.00  0.00     0.066 A 
ATOM     30  H   UNL     1     -45.225  36.960  27.514  1.00  0.00     0.065 H 
ATOM     31  N   UNL     1     -48.643  38.637  28.104  1.00  0.00    -0.237 NA
ATOM     32  C   UNL     1     -47.497  39.360  28.125  1.00  0.00     0.053 A 
ATOM     33  H   UNL     1     -47.668  40.410  28.332  1.00  0.00     0.086 H 
BRANCH  28  34
ATOM     34  N   UNL     1     -49.756  36.547  27.889  1.00  0.00    -0.373 N 
ATOM     35  H   UNL     1     -49.779  35.997  27.036  1.00  0.00     0.161 HD
BRANCH  34  36
ATOM     36  C   UNL     1     -50.975  37.332  28.033  1.00  0.00     0.005 C 
ATOM     37  H   UNL     1     -50.868  38.105  28.802  1.00  0.00     0.045 H 
ATOM     38  H   UNL     1     -51.837  36.696  28.261  1.00  0.00     0.045 H 
ATOM     39  H   UNL     1     -51.182  37.837  27.085  1.00  0.00     0.045 H 
ENDBRANCH  34  36
ENDBRANCH  28  34
BRANCH  29  40
ATOM     40  N   UNL     1     -45.063  39.636  28.007  1.00  0.00    -0.298 N 
ATOM     41  C   UNL     1     -44.106  39.577  29.008  1.00  0.00     0.031 A 
ATOM     42  C   UNL     1     -44.650  40.612  27.097  1.00  0.00     0.151 A 
ATOM     43  C   UNL     1     -43.124  40.502  28.745  1.00  0.00     0.072 A 
ATOM     44  H   UNL     1     -44.204  38.911  29.852  1.00  0.00     0.084 H 
ATOM     45  C   UNL     1     -43.445  41.156  27.535  1.00  0.00     0.080 A 
ATOM     46  N   UNL     1     -45.277  40.956  25.954  1.00  0.00    -0.218 NA
ATOM     47  Cl  UNL     1     -41.762  40.801  29.719  1.00  0.00    -0.082 Cl
ATOM     48  C   UNL     1     -42.865  42.149  26.731  1.00  0.00     0.137 A 
ATOM     49  C   UNL     1     -44.631  41.904  25.263  1.00  0.00     0.120 A 
ATOM     50  N   UNL     1     -43.483  42.518  25.595  1.00  0.00    -0.219 NA
ATOM     51  H   UNL     1     -45.090  42.214  24.329  1.00  0.00     0.106 H 
BRANCH  48  52
ATOM     52  N   UNL     1     -41.674  42.791  27.029  1.00  0.00    -0.383 N 
ATOM     53  H   UNL     1     -40.922  42.200  27.359  1.00  0.00     0.158 HD
ATOM     54  H   UNL     1     -41.831  43.661  27.522  1.00  0.00     0.158 HD
ENDBRANCH  48  52
ENDBRANCH  29  40
ENDBRANCH   1  26
TORSDOF 9
ENDMDL
MODEL 7
REMARK VINA RESULT:      -9.2      2.891      9.828
REMARK SMILES CNc1ccc2ccc(OCc3cc(-n4cc(Cl)c5c(N)ncnc54)cnc3NC)cc2n1
REMARK SMILES IDX 11 1 10 4 9 5 3 6 4 7 33 8 5 9 32 11 6 12 31 14 7 15 8 17
REMARK SMILES IDX 2 20 1 22 12 26 13 27 28 28 14 29 27 31 26 32 29 34 30 36
REMARK SMILES IDX 15 40 16 41 25 42 17 43 19 45 24 46 18 47 20 48 23 49 22 50
REMARK SMILES IDX 21 52
REMARK H PARENT 11 2 11 3 4 10 5 13 31 16 7 18 8 19 2 21 1 23 1 24 1 25 13 30
REMARK H PARENT 26 33 29 35 30 37 30 38 30 39 16 44 23 51 21 53 21 54
REMARK Flexibility Score: inf
ROOT
ATOM      1  C   UNL     1     -47.369  35.151  27.710  1.00  0.00     0.117 C 
ATOM      2  H   UNL     1     -47.025  34.772  28.679  1.00  0.00     0.076 H 
ATOM      3  H   UNL     1     -48.373  34.734  27.558  1.00  0.00     0.076 H 
ENDROOT
BRANCH   1   4
ATOM      4  O   UNL     1     -46.562  34.604  26.659  1.00  0.00    -0.489 OA
BRANCH   4   5
ATOM      5  C   UNL     1     -47.006  33.480  26.014  1.00  0.00     0.122 A 
ATOM      6  C   UNL     1     -46.382  30.892  22.064  1.00  0.00     0.126 A 
ATOM      7  C   UNL     1     -47.279  29.925  22.503  1.00  0.00    -0.019 A 
ATOM      8  N   UNL     1     -46.123  31.997  22.792  1.00  0.00    -0.231 NA
ATOM      9  C   UNL     1     -47.906  30.082  23.735  1.00  0.00    -0.049 A 
ATOM     10  H   UNL     1     -47.495  29.057  21.889  1.00  0.00     0.066 H 
ATOM     11  C   UNL     1     -46.730  32.158  23.983  1.00  0.00     0.076 A 
ATOM     12  C   UNL     1     -47.631  31.214  24.506  1.00  0.00     0.001 A 
ATOM     13  H   UNL     1     -48.601  29.324  24.082  1.00  0.00     0.063 H 
ATOM     14  C   UNL     1     -46.452  33.284  24.744  1.00  0.00     0.007 A 
ATOM     15  C   UNL     1     -48.220  31.416  25.765  1.00  0.00    -0.049 A 
ATOM     16  H   UNL     1     -45.750  34.016  24.351  1.00  0.00     0.069 H 
ATOM     17  C   UNL     1     -47.904  32.547  26.521  1.00  0.00    -0.019 A 
ATOM     18  H   UNL     1     -48.917  30.688  26.171  1.00  0.00     0.063 H 
ATOM     19  H   UNL     1     -48.365  32.658  27.496  1.00  0.00     0.066 H 
BRANCH   6  20
ATOM     20  N   UNL     1     -45.776  30.705  20.807  1.00  0.00    -0.373 N 
ATOM     21  H   UNL     1     -44.779  30.564  20.942  1.00  0.00     0.161 HD
BRANCH  20  22
ATOM     22  C   UNL     1     -46.048  31.763  19.848  1.00  0.00     0.005 C 
ATOM     23  H   UNL     1     -45.184  32.434  19.807  1.00  0.00     0.045 H 
ATOM     24  H   UNL     1     -46.918  32.361  20.142  1.00  0.00     0.045 H 
ATOM     25  H   UNL     1     -46.198  31.363  18.839  1.00  0.00     0.045 H 
ENDBRANCH  20  22
ENDBRANCH   6  20
ENDBRANCH   4   5
ENDBRANCH   1   4
BRANCH   1  26
ATOM     26  C   UNL     1     -47.508  36.661  27.701  1.00  0.00     0.034 A 
ATOM     27  C   UNL     1     -46.387  37.496  27.534  1.00  0.00    -0.026 A 
ATOM     28  C   UNL     1     -48.765  37.262  27.847  1.00  0.00     0.132 A 
ATOM     29  C   UNL     1     -46.511  38.881  27.591  1.00  0.00     0.066 A 
ATOM     30  H   UNL     1     -45.423  37.030  27.355  1.00  0.00     0.065 H 
ATOM     31  N   UNL     1     -48.900  38.605  27.882  1.00  0.00    -0.237 NA
ATOM     32  C   UNL     1     -47.793  39.378  27.761  1.00  0.00     0.053 A 
ATOM     33  H   UNL     1     -48.012  40.437  27.842  1.00  0.00     0.086 H 
BRANCH  28  34
ATOM     34  N   UNL     1     -49.909  36.454  27.979  1.00  0.00    -0.373 N 
ATOM     35  H   UNL     1     -50.118  36.038  27.077  1.00  0.00     0.161 HD
BRANCH  34  36
ATOM     36  C   UNL     1     -51.075  37.143  28.516  1.00  0.00     0.005 C 
ATOM     37  H   UNL     1     -51.044  37.198  29.610  1.00  0.00     0.045 H 
ATOM     38  H   UNL     1     -52.007  36.665  28.194  1.00  0.00     0.045 H 
ATOM     39  H   UNL     1     -51.085  38.169  28.134  1.00  0.00     0.045 H 
ENDBRANCH  34  36
ENDBRANCH  28  34
BRANCH  29  40
ATOM     40  N   UNL     1     -45.384  39.753  27.502  1.00  0.00    -0.298 N 
ATOM     41  C   UNL     1     -45.174  40.681  26.495  1.00  0.00     0.031 A 
ATOM     42  C   UNL     1     -44.311  39.855  28.390  1.00  0.00     0.151 A 
ATOM     43  C   UNL     1     -43.992  41.341  26.732  1.00  0.00     0.072 A 
ATOM     44  H   UNL     1     -45.856  40.787  25.664  1.00  0.00     0.084 H 
ATOM     45  C   UNL     1     -43.439  40.840  27.932  1.00  0.00     0.080 A 
ATOM     46  N   UNL     1     -44.146  39.156  29.531  1.00  0.00    -0.218 NA
ATOM     47  Cl  UNL     1     -43.319  42.549  25.742  1.00  0.00    -0.082 Cl
ATOM     48  C   UNL     1     -42.301  41.097  28.712  1.00  0.00     0.137 A 
ATOM     49  C   UNL     1     -43.035  39.489  30.198  1.00  0.00     0.120 A 
ATOM     50  N   UNL     1     -42.111  40.399  29.846  1.00  0.00    -0.219 NA
ATOM     51  H   UNL     1     -42.857  38.960  31.130  1.00  0.00     0.106 H 
BRANCH  48  52
ATOM     52  N   UNL     1     -41.338  42.041  28.392  1.00  0.00    -0.383 N 
ATOM     53  H   UNL     1     -41.594  42.712  27.680  1.00  0.00     0.158 HD
ATOM     54  H   UNL     1     -40.416  41.627  28.331  1.00  0.00     0.158 HD
ENDBRANCH  48  52
ENDBRANCH  29  40
ENDBRANCH   1  26
TORSDOF 9
ENDMDL
