MODEL 1
REMARK VINA RESULT:     -10.7      0.000      0.000
REMARK SMILES CNc1ccc2ccc(OCc3cncc(-n4cc(-c5ccc(C)o5)c5c(N)ncnc54)c3)cc2n1
REMARK SMILES IDX 11 1 10 4 9 5 3 6 4 7 36 8 5 9 35 11 6 12 34 14 7 15 8 17
REMARK SMILES IDX 2 20 1 22 12 26 13 27 33 28 14 29 16 31 15 33 17 35 18 36
REMARK SMILES IDX 32 37 19 38 26 40 31 41 27 42 30 43 29 44 20 46 21 47 25 48
REMARK SMILES IDX 22 49 23 51 24 53 28 57
REMARK H PARENT 11 2 11 3 4 10 5 13 34 16 7 18 8 19 2 21 1 23 1 24 1 25 13 30
REMARK H PARENT 33 32 15 34 18 39 30 45 21 50 22 52 24 54 24 55 24 56 28 58
REMARK H PARENT 28 59
REMARK Flexibility Score: inf
ROOT
ATOM      1  C   UNL     1     -48.677  35.526  27.313  1.00  0.00     0.115 C 
ATOM      2  H   UNL     1     -49.623  35.102  27.672  1.00  0.00     0.076 H 
ATOM      3  H   UNL     1     -48.950  36.433  26.761  1.00  0.00     0.076 H 
ENDROOT
BRANCH   1   4
ATOM      4  O   UNL     1     -47.901  35.836  28.473  1.00  0.00    -0.489 OA
BRANCH   4   5
ATOM      5  C   UNL     1     -46.989  36.853  28.401  1.00  0.00     0.122 A 
ATOM      6  C   UNL     1     -44.981  40.710  26.481  1.00  0.00     0.126 A 
ATOM      7  C   UNL     1     -44.022  40.781  27.480  1.00  0.00    -0.019 A 
ATOM      8  N   UNL     1     -45.935  39.760  26.463  1.00  0.00    -0.231 NA
ATOM      9  C   UNL     1     -44.030  39.826  28.490  1.00  0.00    -0.049 A 
ATOM     10  H   UNL     1     -43.288  41.579  27.490  1.00  0.00     0.066 H 
ATOM     11  C   UNL     1     -45.947  38.831  27.437  1.00  0.00     0.076 A 
ATOM     12  C   UNL     1     -45.003  38.823  28.481  1.00  0.00     0.001 A 
ATOM     13  H   UNL     1     -43.284  39.875  29.278  1.00  0.00     0.063 H 
ATOM     14  C   UNL     1     -46.923  37.841  27.416  1.00  0.00     0.007 A 
ATOM     15  C   UNL     1     -45.055  37.832  29.473  1.00  0.00    -0.049 A 
ATOM     16  H   UNL     1     -47.625  37.871  26.590  1.00  0.00     0.069 H 
ATOM     17  C   UNL     1     -46.045  36.853  29.427  1.00  0.00    -0.019 A 
ATOM     18  H   UNL     1     -44.330  37.817  30.283  1.00  0.00     0.063 H 
ATOM     19  H   UNL     1     -46.082  36.086  30.197  1.00  0.00     0.066 H 
BRANCH   6  20
ATOM     20  N   UNL     1     -45.043  41.641  25.441  1.00  0.00    -0.373 N 
ATOM     21  H   UNL     1     -44.063  41.855  25.254  1.00  0.00     0.161 HD
BRANCH  20  22
ATOM     22  C   UNL     1     -45.787  42.845  25.772  1.00  0.00     0.005 C 
ATOM     23  H   UNL     1     -46.353  42.672  26.692  1.00  0.00     0.045 H 
ATOM     24  H   UNL     1     -46.502  43.106  24.984  1.00  0.00     0.045 H 
ATOM     25  H   UNL     1     -45.121  43.695  25.954  1.00  0.00     0.045 H 
ENDBRANCH  20  22
ENDBRANCH   6  20
ENDBRANCH   4   5
ENDBRANCH   1   4
BRANCH   1  26
ATOM     26  C   UNL     1     -48.017  34.488  26.445  1.00  0.00     0.010 A 
ATOM     27  C   UNL     1     -46.715  34.653  25.993  1.00  0.00     0.034 A 
ATOM     28  C   UNL     1     -48.678  33.299  26.102  1.00  0.00    -0.028 A 
ATOM     29  N   UNL     1     -46.060  33.743  25.241  1.00  0.00    -0.262 NA
ATOM     30  H   UNL     1     -46.144  35.547  26.229  1.00  0.00     0.084 H 
ATOM     31  C   UNL     1     -48.043  32.337  25.310  1.00  0.00     0.066 A 
ATOM     32  H   UNL     1     -49.684  33.154  26.480  1.00  0.00     0.065 H 
ATOM     33  C   UNL     1     -46.738  32.615  24.913  1.00  0.00     0.051 A 
ATOM     34  H   UNL     1     -46.152  31.951  24.287  1.00  0.00     0.086 H 
BRANCH  31  35
ATOM     35  N   UNL     1     -48.687  31.119  24.916  1.00  0.00    -0.299 N 
ATOM     36  C   UNL     1     -48.639  29.933  25.623  1.00  0.00     0.023 A 
ATOM     37  C   UNL     1     -49.466  30.882  23.780  1.00  0.00     0.150 A 
ATOM     38  C   UNL     1     -49.333  28.957  24.942  1.00  0.00     0.049 A 
ATOM     39  H   UNL     1     -48.096  29.839  26.553  1.00  0.00     0.083 H 
ATOM     40  C   UNL     1     -49.924  29.562  23.806  1.00  0.00     0.072 A 
ATOM     41  N   UNL     1     -49.733  31.775  22.803  1.00  0.00    -0.218 NA
ATOM     42  C   UNL     1     -50.810  29.196  22.776  1.00  0.00     0.137 A 
ATOM     43  C   UNL     1     -50.519  31.283  21.842  1.00  0.00     0.120 A 
ATOM     44  N   UNL     1     -51.080  30.068  21.789  1.00  0.00    -0.219 NA
ATOM     45  H   UNL     1     -50.744  31.950  21.016  1.00  0.00     0.106 H 
BRANCH  38  46
ATOM     46  C   UNL     1     -49.332  27.488  25.470  1.00  0.00     0.136 A 
ATOM     47  C   UNL     1     -50.401  26.635  25.660  1.00  0.00    -0.015 A 
ATOM     48  O   UNL     1     -48.176  26.820  25.780  1.00  0.00    -0.461 OA
ATOM     49  C   UNL     1     -49.876  25.408  26.138  1.00  0.00    -0.020 A 
ATOM     50  H   UNL     1     -51.438  26.835  25.441  1.00  0.00     0.066 H 
ATOM     51  C   UNL     1     -48.512  25.570  26.196  1.00  0.00     0.101 A 
ATOM     52  H   UNL     1     -50.426  24.511  26.387  1.00  0.00     0.066 H 
BRANCH  51  53
ATOM     53  C   UNL     1     -47.395  24.690  26.590  1.00  0.00    -0.006 C 
ATOM     54  H   UNL     1     -47.076  24.075  25.743  1.00  0.00     0.031 H 
ATOM     55  H   UNL     1     -47.700  24.027  27.405  1.00  0.00     0.031 H 
ATOM     56  H   UNL     1     -46.535  25.275  26.929  1.00  0.00     0.031 H 
ENDBRANCH  51  53
ENDBRANCH  38  46
BRANCH  42  57
ATOM     57  N   UNL     1     -51.519  28.000  22.720  1.00  0.00    -0.383 N 
ATOM     58  H   UNL     1     -50.871  27.256  22.480  1.00  0.00     0.158 HD
ATOM     59  H   UNL     1     -52.321  28.061  22.104  1.00  0.00     0.158 HD
ENDBRANCH  42  57
ENDBRANCH  31  35
ENDBRANCH   1  26
TORSDOF 9
ENDMDL
MODEL 2
REMARK VINA RESULT:     -10.6      1.994      2.591
REMARK SMILES CNc1ccc2ccc(OCc3cncc(-n4cc(-c5ccc(C)o5)c5c(N)ncnc54)c3)cc2n1
REMARK SMILES IDX 11 1 10 4 9 5 3 6 4 7 36 8 5 9 35 11 6 12 34 14 7 15 8 17
REMARK SMILES IDX 2 20 1 22 12 26 13 27 33 28 14 29 16 31 15 33 17 35 18 36
REMARK SMILES IDX 32 37 19 38 26 40 31 41 27 42 30 43 29 44 20 46 21 47 25 48
REMARK SMILES IDX 22 49 23 51 24 53 28 57
REMARK H PARENT 11 2 11 3 4 10 5 13 34 16 7 18 8 19 2 21 1 23 1 24 1 25 13 30
REMARK H PARENT 33 32 15 34 18 39 30 45 21 50 22 52 24 54 24 55 24 56 28 58
REMARK H PARENT 28 59
REMARK Flexibility Score: inf
ROOT
ATOM      1  C   UNL     1     -46.197  36.240  26.968  1.00  0.00     0.115 C 
ATOM      2  H   UNL     1     -45.985  36.706  25.998  1.00  0.00     0.076 H 
ATOM      3  H   UNL     1     -45.267  35.741  27.266  1.00  0.00     0.076 H 
ENDROOT
BRANCH   1   4
ATOM      4  O   UNL     1     -46.531  37.300  27.867  1.00  0.00    -0.489 OA
BRANCH   4   5
ATOM      5  C   UNL     1     -45.532  38.122  28.314  1.00  0.00     0.122 A 
ATOM      6  C   UNL     1     -42.547  41.810  28.043  1.00  0.00     0.126 A 
ATOM      7  C   UNL     1     -41.979  41.518  29.274  1.00  0.00    -0.019 A 
ATOM      8  N   UNL     1     -43.546  41.077  27.516  1.00  0.00    -0.231 NA
ATOM      9  C   UNL     1     -42.443  40.416  29.984  1.00  0.00    -0.049 A 
ATOM     10  H   UNL     1     -41.202  42.148  29.691  1.00  0.00     0.066 H 
ATOM     11  C   UNL     1     -43.997  40.008  28.197  1.00  0.00     0.076 A 
ATOM     12  C   UNL     1     -43.469  39.634  29.448  1.00  0.00     0.001 A 
ATOM     13  H   UNL     1     -42.006  40.181  30.950  1.00  0.00     0.063 H 
ATOM     14  C   UNL     1     -45.020  39.240  27.652  1.00  0.00     0.007 A 
ATOM     15  C   UNL     1     -43.971  38.509  30.119  1.00  0.00    -0.049 A 
ATOM     16  H   UNL     1     -45.394  39.551  26.683  1.00  0.00     0.069 H 
ATOM     17  C   UNL     1     -44.998  37.759  29.549  1.00  0.00    -0.019 A 
ATOM     18  H   UNL     1     -43.569  38.212  31.085  1.00  0.00     0.063 H 
ATOM     19  H   UNL     1     -45.384  36.888  30.072  1.00  0.00     0.066 H 
BRANCH   6  20
ATOM     20  N   UNL     1     -42.142  42.907  27.279  1.00  0.00    -0.373 N 
ATOM     21  H   UNL     1     -42.389  43.708  27.860  1.00  0.00     0.161 HD
BRANCH  20  22
ATOM     22  C   UNL     1     -42.785  42.988  25.978  1.00  0.00     0.005 C 
ATOM     23  H   UNL     1     -43.734  42.445  26.015  1.00  0.00     0.045 H 
ATOM     24  H   UNL     1     -42.170  42.532  25.194  1.00  0.00     0.045 H 
ATOM     25  H   UNL     1     -43.014  44.023  25.703  1.00  0.00     0.045 H 
ENDBRANCH  20  22
ENDBRANCH   6  20
ENDBRANCH   4   5
ENDBRANCH   1   4
BRANCH   1  26
ATOM     26  C   UNL     1     -47.339  35.279  26.768  1.00  0.00     0.010 A 
ATOM     27  C   UNL     1     -48.634  35.617  27.136  1.00  0.00     0.034 A 
ATOM     28  C   UNL     1     -47.141  34.030  26.162  1.00  0.00    -0.028 A 
ATOM     29  N   UNL     1     -49.701  34.812  26.951  1.00  0.00    -0.262 NA
ATOM     30  H   UNL     1     -48.857  36.572  27.604  1.00  0.00     0.084 H 
ATOM     31  C   UNL     1     -48.216  33.157  25.966  1.00  0.00     0.066 A 
ATOM     32  H   UNL     1     -46.135  33.777  25.844  1.00  0.00     0.065 H 
ATOM     33  C   UNL     1     -49.468  33.604  26.379  1.00  0.00     0.051 A 
ATOM     34  H   UNL     1     -50.370  33.009  26.293  1.00  0.00     0.086 H 
BRANCH  31  35
ATOM     35  N   UNL     1     -48.057  31.863  25.371  1.00  0.00    -0.299 N 
ATOM     36  C   UNL     1     -48.654  30.704  25.826  1.00  0.00     0.023 A 
ATOM     37  C   UNL     1     -47.293  31.515  24.254  1.00  0.00     0.150 A 
ATOM     38  C   UNL     1     -48.256  29.639  25.047  1.00  0.00     0.049 A 
ATOM     39  H   UNL     1     -49.305  30.691  26.689  1.00  0.00     0.083 H 
ATOM     40  C   UNL     1     -47.448  30.149  24.001  1.00  0.00     0.072 A 
ATOM     41  N   UNL     1     -46.520  32.353  23.531  1.00  0.00    -0.218 NA
ATOM     42  C   UNL     1     -46.820  29.661  22.841  1.00  0.00     0.137 A 
ATOM     43  C   UNL     1     -45.913  31.753  22.503  1.00  0.00     0.120 A 
ATOM     44  N   UNL     1     -46.037  30.478  22.114  1.00  0.00    -0.219 NA
ATOM     45  H   UNL     1     -45.256  32.375  21.904  1.00  0.00     0.106 H 
BRANCH  38  46
ATOM     46  C   UNL     1     -48.695  28.190  25.423  1.00  0.00     0.136 A 
ATOM     47  C   UNL     1     -49.954  27.626  25.373  1.00  0.00    -0.015 A 
ATOM     48  O   UNL     1     -47.801  27.233  25.831  1.00  0.00    -0.461 OA
ATOM     49  C   UNL     1     -49.827  26.279  25.800  1.00  0.00    -0.020 A 
ATOM     50  H   UNL     1     -50.862  28.094  25.027  1.00  0.00     0.066 H 
ATOM     51  C   UNL     1     -48.493  26.088  26.071  1.00  0.00     0.101 A 
ATOM     52  H   UNL     1     -50.610  25.538  25.879  1.00  0.00     0.066 H 
BRANCH  51  53
ATOM     53  C   UNL     1     -47.701  24.932  26.535  1.00  0.00    -0.006 C 
ATOM     54  H   UNL     1     -48.192  23.995  26.254  1.00  0.00     0.031 H 
ATOM     55  H   UNL     1     -47.594  24.955  27.624  1.00  0.00     0.031 H 
ATOM     56  H   UNL     1     -46.700  24.939  26.093  1.00  0.00     0.031 H 
ENDBRANCH  51  53
ENDBRANCH  38  46
BRANCH  42  57
ATOM     57  N   UNL     1     -46.998  28.387  22.311  1.00  0.00    -0.383 N 
ATOM     58  H   UNL     1     -46.983  28.457  21.298  1.00  0.00     0.158 HD
ATOM     59  H   UNL     1     -47.826  27.934  22.679  1.00  0.00     0.158 HD
ENDBRANCH  42  57
ENDBRANCH  31  35
ENDBRANCH   1  26
TORSDOF 9
ENDMDL
MODEL 3
REMARK VINA RESULT:     -10.3      2.655     12.246
REMARK SMILES CNc1ccc2ccc(OCc3cncc(-n4cc(-c5ccc(C)o5)c5c(N)ncnc54)c3)cc2n1
REMARK SMILES IDX 11 1 10 4 9 5 3 6 4 7 36 8 5 9 35 11 6 12 34 14 7 15 8 17
REMARK SMILES IDX 2 20 1 22 12 26 13 27 33 28 14 29 16 31 15 33 17 35 18 36
REMARK SMILES IDX 32 37 19 38 26 40 31 41 27 42 30 43 29 44 20 46 21 47 25 48
REMARK SMILES IDX 22 49 23 51 24 53 28 57
REMARK H PARENT 11 2 11 3 4 10 5 13 34 16 7 18 8 19 2 21 1 23 1 24 1 25 13 30
REMARK H PARENT 33 32 15 34 18 39 30 45 21 50 22 52 24 54 24 55 24 56 28 58
REMARK H PARENT 28 59
REMARK Flexibility Score: inf
ROOT
ATOM      1  C   UNL     1     -46.852  34.584  27.386  1.00  0.00     0.115 C 
ATOM      2  H   UNL     1     -46.615  34.213  28.391  1.00  0.00     0.076 H 
ATOM      3  H   UNL     1     -45.961  34.380  26.780  1.00  0.00     0.076 H 
ENDROOT
BRANCH   1   4
ATOM      4  O   UNL     1     -47.978  33.832  26.926  1.00  0.00    -0.489 OA
BRANCH   4   5
ATOM      5  C   UNL     1     -47.768  32.808  26.043  1.00  0.00     0.122 A 
ATOM      6  C   UNL     1     -48.550  28.512  24.165  1.00  0.00     0.126 A 
ATOM      7  C   UNL     1     -47.565  28.687  23.204  1.00  0.00    -0.019 A 
ATOM      8  N   UNL     1     -48.849  29.460  25.073  1.00  0.00    -0.231 NA
ATOM      9  C   UNL     1     -46.846  29.877  23.186  1.00  0.00    -0.049 A 
ATOM     10  H   UNL     1     -47.371  27.922  22.462  1.00  0.00     0.066 H 
ATOM     11  C   UNL     1     -48.154  30.613  25.063  1.00  0.00     0.076 A 
ATOM     12  C   UNL     1     -47.131  30.867  24.130  1.00  0.00     0.001 A 
ATOM     13  H   UNL     1     -46.075  30.024  22.436  1.00  0.00     0.063 H 
ATOM     14  C   UNL     1     -48.451  31.590  26.006  1.00  0.00     0.007 A 
ATOM     15  C   UNL     1     -46.434  32.085  24.161  1.00  0.00    -0.049 A 
ATOM     16  H   UNL     1     -49.236  31.355  26.716  1.00  0.00     0.069 H 
ATOM     17  C   UNL     1     -46.754  33.046  25.117  1.00  0.00    -0.019 A 
ATOM     18  H   UNL     1     -45.642  32.290  23.445  1.00  0.00     0.063 H 
ATOM     19  H   UNL     1     -46.211  33.987  25.138  1.00  0.00     0.066 H 
BRANCH   6  20
ATOM     20  N   UNL     1     -49.321  27.350  24.237  1.00  0.00    -0.373 N 
ATOM     21  H   UNL     1     -48.627  26.601  24.221  1.00  0.00     0.161 HD
BRANCH  20  22
ATOM     22  C   UNL     1     -50.270  27.205  23.145  1.00  0.00     0.005 C 
ATOM     23  H   UNL     1     -49.981  26.345  22.533  1.00  0.00     0.045 H 
ATOM     24  H   UNL     1     -50.278  28.088  22.497  1.00  0.00     0.045 H 
ATOM     25  H   UNL     1     -51.284  27.015  23.513  1.00  0.00     0.045 H 
ENDBRANCH  20  22
ENDBRANCH   6  20
ENDBRANCH   4   5
ENDBRANCH   1   4
BRANCH   1  26
ATOM     26  C   UNL     1     -47.157  36.053  27.506  1.00  0.00     0.010 A 
ATOM     27  C   UNL     1     -48.454  36.502  27.712  1.00  0.00     0.034 A 
ATOM     28  C   UNL     1     -46.136  37.014  27.459  1.00  0.00    -0.028 A 
ATOM     29  N   UNL     1     -48.783  37.803  27.860  1.00  0.00    -0.262 NA
ATOM     30  H   UNL     1     -49.290  35.810  27.765  1.00  0.00     0.084 H 
ATOM     31  C   UNL     1     -46.434  38.374  27.591  1.00  0.00     0.066 A 
ATOM     32  H   UNL     1     -45.118  36.662  27.330  1.00  0.00     0.065 H 
ATOM     33  C   UNL     1     -47.772  38.704  27.790  1.00  0.00     0.051 A 
ATOM     34  H   UNL     1     -48.123  39.725  27.890  1.00  0.00     0.086 H 
BRANCH  31  35
ATOM     35  N   UNL     1     -45.427  39.391  27.527  1.00  0.00    -0.299 N 
ATOM     36  C   UNL     1     -45.323  40.342  26.531  1.00  0.00     0.023 A 
ATOM     37  C   UNL     1     -44.379  39.625  28.422  1.00  0.00     0.150 A 
ATOM     38  C   UNL     1     -44.220  41.136  26.759  1.00  0.00     0.049 A 
ATOM     39  H   UNL     1     -46.017  40.387  25.703  1.00  0.00     0.083 H 
ATOM     40  C   UNL     1     -43.651  40.739  27.995  1.00  0.00     0.072 A 
ATOM     41  N   UNL     1     -44.099  38.894  29.522  1.00  0.00    -0.218 NA
ATOM     42  C   UNL     1     -42.619  41.167  28.849  1.00  0.00     0.137 A 
ATOM     43  C   UNL     1     -43.048  39.354  30.205  1.00  0.00     0.120 A 
ATOM     44  N   UNL     1     -42.319  40.446  29.943  1.00  0.00    -0.219 NA
ATOM     45  H   UNL     1     -42.760  38.787  31.085  1.00  0.00     0.106 H 
BRANCH  38  46
ATOM     46  C   UNL     1     -43.807  42.217  25.712  1.00  0.00     0.136 A 
ATOM     47  C   UNL     1     -42.617  42.908  25.603  1.00  0.00    -0.015 A 
ATOM     48  O   UNL     1     -44.629  42.590  24.679  1.00  0.00    -0.461 OA
ATOM     49  C   UNL     1     -42.731  43.762  24.477  1.00  0.00    -0.020 A 
ATOM     50  H   UNL     1     -41.741  42.792  26.220  1.00  0.00     0.066 H 
ATOM     51  C   UNL     1     -43.979  43.533  23.947  1.00  0.00     0.101 A 
ATOM     52  H   UNL     1     -41.986  44.443  24.090  1.00  0.00     0.066 H 
BRANCH  51  53
ATOM     53  C   UNL     1     -44.709  44.075  22.785  1.00  0.00    -0.006 C 
ATOM     54  H   UNL     1     -44.009  44.380  22.000  1.00  0.00     0.031 H 
ATOM     55  H   UNL     1     -45.302  44.947  23.078  1.00  0.00     0.031 H 
ATOM     56  H   UNL     1     -45.388  43.327  22.363  1.00  0.00     0.031 H 
ENDBRANCH  51  53
ENDBRANCH  38  46
BRANCH  42  57
ATOM     57  N   UNL     1     -41.902  42.351  28.704  1.00  0.00    -0.383 N 
ATOM     58  H   UNL     1     -41.645  42.683  29.630  1.00  0.00     0.158 HD
ATOM     59  H   UNL     1     -42.401  43.034  28.148  1.00  0.00     0.158 HD
ENDBRANCH  42  57
ENDBRANCH  31  35
ENDBRANCH   1  26
TORSDOF 9
ENDMDL
MODEL 4
REMARK VINA RESULT:     -10.2      3.176     12.136
REMARK SMILES CNc1ccc2ccc(OCc3cncc(-n4cc(-c5ccc(C)o5)c5c(N)ncnc54)c3)cc2n1
REMARK SMILES IDX 11 1 10 4 9 5 3 6 4 7 36 8 5 9 35 11 6 12 34 14 7 15 8 17
REMARK SMILES IDX 2 20 1 22 12 26 13 27 33 28 14 29 16 31 15 33 17 35 18 36
REMARK SMILES IDX 32 37 19 38 26 40 31 41 27 42 30 43 29 44 20 46 21 47 25 48
REMARK SMILES IDX 22 49 23 51 24 53 28 57
REMARK H PARENT 11 2 11 3 4 10 5 13 34 16 7 18 8 19 2 21 1 23 1 24 1 25 13 30
REMARK H PARENT 33 32 15 34 18 39 30 45 21 50 22 52 24 54 24 55 24 56 28 58
REMARK H PARENT 28 59
REMARK Flexibility Score: inf
ROOT
ATOM      1  C   UNL     1     -47.594  35.366  26.865  1.00  0.00     0.115 C 
ATOM      2  H   UNL     1     -47.194  35.600  25.870  1.00  0.00     0.076 H 
ATOM      3  H   UNL     1     -48.667  35.585  26.810  1.00  0.00     0.076 H 
ENDROOT
BRANCH   1   4
ATOM      4  O   UNL     1     -47.356  33.974  27.085  1.00  0.00    -0.489 OA
BRANCH   4   5
ATOM      5  C   UNL     1     -47.625  33.093  26.074  1.00  0.00     0.122 A 
ATOM      6  C   UNL     1     -46.518  30.263  22.419  1.00  0.00     0.126 A 
ATOM      7  C   UNL     1     -47.841  29.890  22.229  1.00  0.00    -0.019 A 
ATOM      8  N   UNL     1     -46.139  31.111  23.394  1.00  0.00    -0.231 NA
ATOM      9  C   UNL     1     -48.817  30.426  23.062  1.00  0.00    -0.049 A 
ATOM     10  H   UNL     1     -48.112  29.177  21.460  1.00  0.00     0.066 H 
ATOM     11  C   UNL     1     -47.080  31.635  24.201  1.00  0.00     0.076 A 
ATOM     12  C   UNL     1     -48.446  31.320  24.070  1.00  0.00     0.001 A 
ATOM     13  H   UNL     1     -49.855  30.139  22.922  1.00  0.00     0.063 H 
ATOM     14  C   UNL     1     -46.696  32.521  25.202  1.00  0.00     0.007 A 
ATOM     15  C   UNL     1     -49.390  31.893  24.936  1.00  0.00    -0.049 A 
ATOM     16  H   UNL     1     -45.638  32.749  25.266  1.00  0.00     0.069 H 
ATOM     17  C   UNL     1     -48.975  32.777  25.931  1.00  0.00    -0.019 A 
ATOM     18  H   UNL     1     -50.447  31.657  24.842  1.00  0.00     0.063 H 
ATOM     19  H   UNL     1     -49.710  33.220  26.598  1.00  0.00     0.066 H 
BRANCH   6  20
ATOM     20  N   UNL     1     -45.482  29.757  21.630  1.00  0.00    -0.373 N 
ATOM     21  H   UNL     1     -45.971  29.290  20.866  1.00  0.00     0.161 HD
BRANCH  20  22
ATOM     22  C   UNL     1     -44.605  28.834  22.331  1.00  0.00     0.005 C 
ATOM     23  H   UNL     1     -44.192  29.335  23.212  1.00  0.00     0.045 H 
ATOM     24  H   UNL     1     -43.765  28.519  21.702  1.00  0.00     0.045 H 
ATOM     25  H   UNL     1     -45.146  27.950  22.683  1.00  0.00     0.045 H 
ENDBRANCH  20  22
ENDBRANCH   6  20
ENDBRANCH   4   5
ENDBRANCH   1   4
BRANCH   1  26
ATOM     26  C   UNL     1     -46.870  36.234  27.859  1.00  0.00     0.010 A 
ATOM     27  C   UNL     1     -46.788  35.876  29.198  1.00  0.00     0.034 A 
ATOM     28  C   UNL     1     -46.214  37.408  27.459  1.00  0.00    -0.028 A 
ATOM     29  N   UNL     1     -46.124  36.595  30.128  1.00  0.00    -0.262 NA
ATOM     30  H   UNL     1     -47.266  34.975  29.572  1.00  0.00     0.084 H 
ATOM     31  C   UNL     1     -45.530  38.193  28.393  1.00  0.00     0.066 A 
ATOM     32  H   UNL     1     -46.251  37.672  26.408  1.00  0.00     0.065 H 
ATOM     33  C   UNL     1     -45.520  37.734  29.708  1.00  0.00     0.051 A 
ATOM     34  H   UNL     1     -45.035  38.266  30.519  1.00  0.00     0.086 H 
BRANCH  31  35
ATOM     35  N   UNL     1     -44.866  39.411  28.034  1.00  0.00    -0.299 N 
ATOM     36  C   UNL     1     -45.195  40.203  26.951  1.00  0.00     0.023 A 
ATOM     37  C   UNL     1     -43.788  40.027  28.675  1.00  0.00     0.150 A 
ATOM     38  C   UNL     1     -44.330  41.274  26.878  1.00  0.00     0.049 A 
ATOM     39  H   UNL     1     -46.003  39.952  26.278  1.00  0.00     0.083 H 
ATOM     40  C   UNL     1     -43.476  41.215  28.007  1.00  0.00     0.072 A 
ATOM     41  N   UNL     1     -43.138  39.557  29.761  1.00  0.00    -0.218 NA
ATOM     42  C   UNL     1     -42.473  42.008  28.593  1.00  0.00     0.137 A 
ATOM     43  C   UNL     1     -42.155  40.361  30.174  1.00  0.00     0.120 A 
ATOM     44  N   UNL     1     -41.808  41.551  29.669  1.00  0.00    -0.219 NA
ATOM     45  H   UNL     1     -41.580  40.018  31.028  1.00  0.00     0.106 H 
BRANCH  38  46
ATOM     46  C   UNL     1     -44.411  42.260  25.672  1.00  0.00     0.136 A 
ATOM     47  C   UNL     1     -45.494  42.985  25.217  1.00  0.00    -0.015 A 
ATOM     48  O   UNL     1     -43.318  42.572  24.904  1.00  0.00    -0.461 OA
ATOM     49  C   UNL     1     -45.050  43.745  24.104  1.00  0.00    -0.020 A 
ATOM     50  H   UNL     1     -46.482  43.017  25.648  1.00  0.00     0.066 H 
ATOM     51  C   UNL     1     -43.715  43.457  23.951  1.00  0.00     0.101 A 
ATOM     52  H   UNL     1     -45.631  44.432  23.505  1.00  0.00     0.066 H 
BRANCH  51  53
ATOM     53  C   UNL     1     -42.674  43.911  23.008  1.00  0.00    -0.006 C 
ATOM     54  H   UNL     1     -42.235  44.855  23.348  1.00  0.00     0.031 H 
ATOM     55  H   UNL     1     -43.101  44.065  22.013  1.00  0.00     0.031 H 
ATOM     56  H   UNL     1     -41.871  43.173  22.925  1.00  0.00     0.031 H 
ENDBRANCH  51  53
ENDBRANCH  38  46
BRANCH  42  57
ATOM     57  N   UNL     1     -42.143  43.300  28.197  1.00  0.00    -0.383 N 
ATOM     58  H   UNL     1     -41.194  43.495  28.504  1.00  0.00     0.158 HD
ATOM     59  H   UNL     1     -42.823  43.981  28.512  1.00  0.00     0.158 HD
ENDBRANCH  42  57
ENDBRANCH  31  35
ENDBRANCH   1  26
TORSDOF 9
ENDMDL
MODEL 5
REMARK VINA RESULT:     -10.1      1.975      2.897
REMARK SMILES CNc1ccc2ccc(OCc3cncc(-n4cc(-c5ccc(C)o5)c5c(N)ncnc54)c3)cc2n1
REMARK SMILES IDX 11 1 10 4 9 5 3 6 4 7 36 8 5 9 35 11 6 12 34 14 7 15 8 17
REMARK SMILES IDX 2 20 1 22 12 26 13 27 33 28 14 29 16 31 15 33 17 35 18 36
REMARK SMILES IDX 32 37 19 38 26 40 31 41 27 42 30 43 29 44 20 46 21 47 25 48
REMARK SMILES IDX 22 49 23 51 24 53 28 57
REMARK H PARENT 11 2 11 3 4 10 5 13 34 16 7 18 8 19 2 21 1 23 1 24 1 25 13 30
REMARK H PARENT 33 32 15 34 18 39 30 45 21 50 22 52 24 54 24 55 24 56 28 58
REMARK H PARENT 28 59
REMARK Flexibility Score: inf
ROOT
ATOM      1  C   UNL     1     -47.895  36.447  27.063  1.00  0.00     0.115 C 
ATOM      2  H   UNL     1     -48.972  36.386  27.262  1.00  0.00     0.076 H 
ATOM      3  H   UNL     1     -47.804  36.924  26.079  1.00  0.00     0.076 H 
ENDROOT
BRANCH   1   4
ATOM      4  O   UNL     1     -47.334  37.266  28.092  1.00  0.00    -0.489 OA
BRANCH   4   5
ATOM      5  C   UNL     1     -46.572  38.344  27.732  1.00  0.00     0.122 A 
ATOM      6  C   UNL     1     -42.906  41.346  28.110  1.00  0.00     0.126 A 
ATOM      7  C   UNL     1     -43.330  42.095  27.021  1.00  0.00    -0.019 A 
ATOM      8  N   UNL     1     -43.571  40.257  28.540  1.00  0.00    -0.231 NA
ATOM      9  C   UNL     1     -44.494  41.721  26.360  1.00  0.00    -0.049 A 
ATOM     10  H   UNL     1     -42.755  42.945  26.675  1.00  0.00     0.066 H 
ATOM     11  C   UNL     1     -44.700  39.892  27.905  1.00  0.00     0.076 A 
ATOM     12  C   UNL     1     -45.206  40.602  26.800  1.00  0.00     0.001 A 
ATOM     13  H   UNL     1     -44.832  42.299  25.505  1.00  0.00     0.063 H 
ATOM     14  C   UNL     1     -45.397  38.775  28.353  1.00  0.00     0.007 A 
ATOM     15  C   UNL     1     -46.389  40.183  26.172  1.00  0.00    -0.049 A 
ATOM     16  H   UNL     1     -44.985  38.260  29.213  1.00  0.00     0.069 H 
ATOM     17  C   UNL     1     -47.066  39.059  26.641  1.00  0.00    -0.019 A 
ATOM     18  H   UNL     1     -46.788  40.725  25.318  1.00  0.00     0.063 H 
ATOM     19  H   UNL     1     -47.982  38.738  26.153  1.00  0.00     0.066 H 
BRANCH   6  20
ATOM     20  N   UNL     1     -41.741  41.654  28.816  1.00  0.00    -0.373 N 
ATOM     21  H   UNL     1     -40.996  41.433  28.155  1.00  0.00     0.161 HD
BRANCH  20  22
ATOM     22  C   UNL     1     -41.584  40.900  30.049  1.00  0.00     0.005 C 
ATOM     23  H   UNL     1     -40.677  40.292  29.982  1.00  0.00     0.045 H 
ATOM     24  H   UNL     1     -42.429  40.223  30.219  1.00  0.00     0.045 H 
ATOM     25  H   UNL     1     -41.468  41.561  30.915  1.00  0.00     0.045 H 
ENDBRANCH  20  22
ENDBRANCH   6  20
ENDBRANCH   4   5
ENDBRANCH   1   4
BRANCH   1  26
ATOM     26  C   UNL     1     -47.349  35.045  27.087  1.00  0.00     0.010 A 
ATOM     27  C   UNL     1     -46.409  34.657  28.032  1.00  0.00     0.034 A 
ATOM     28  C   UNL     1     -47.806  34.071  26.187  1.00  0.00    -0.028 A 
ATOM     29  N   UNL     1     -45.909  33.406  28.124  1.00  0.00    -0.262 NA
ATOM     30  H   UNL     1     -46.019  35.360  28.763  1.00  0.00     0.084 H 
ATOM     31  C   UNL     1     -47.302  32.767  26.235  1.00  0.00     0.066 A 
ATOM     32  H   UNL     1     -48.564  34.364  25.469  1.00  0.00     0.065 H 
ATOM     33  C   UNL     1     -46.360  32.497  27.224  1.00  0.00     0.051 A 
ATOM     34  H   UNL     1     -45.890  31.528  27.349  1.00  0.00     0.086 H 
BRANCH  31  35
ATOM     35  N   UNL     1     -47.723  31.746  25.322  1.00  0.00    -0.299 N 
ATOM     36  C   UNL     1     -48.738  30.840  25.560  1.00  0.00     0.023 A 
ATOM     37  C   UNL     1     -47.215  31.461  24.052  1.00  0.00     0.150 A 
ATOM     38  C   UNL     1     -48.852  29.977  24.492  1.00  0.00     0.049 A 
ATOM     39  H   UNL     1     -49.305  30.839  26.481  1.00  0.00     0.083 H 
ATOM     40  C   UNL     1     -47.939  30.403  23.495  1.00  0.00     0.072 A 
ATOM     41  N   UNL     1     -46.184  32.094  23.451  1.00  0.00    -0.218 NA
ATOM     42  C   UNL     1     -47.613  30.062  22.170  1.00  0.00     0.137 A 
ATOM     43  C   UNL     1     -45.921  31.626  22.229  1.00  0.00     0.120 A 
ATOM     44  N   UNL     1     -46.584  30.674  21.559  1.00  0.00    -0.219 NA
ATOM     45  H   UNL     1     -45.083  32.080  21.710  1.00  0.00     0.106 H 
BRANCH  38  46
ATOM     46  C   UNL     1     -49.849  28.779  24.560  1.00  0.00     0.136 A 
ATOM     47  C   UNL     1     -50.912  28.488  23.729  1.00  0.00    -0.015 A 
ATOM     48  O   UNL     1     -49.738  27.783  25.497  1.00  0.00    -0.461 OA
ATOM     49  C   UNL     1     -51.494  27.283  24.200  1.00  0.00    -0.020 A 
ATOM     50  H   UNL     1     -51.221  29.037  22.853  1.00  0.00     0.066 H 
ATOM     51  C   UNL     1     -50.742  26.893  25.283  1.00  0.00     0.101 A 
ATOM     52  H   UNL     1     -52.342  26.757  23.785  1.00  0.00     0.066 H 
BRANCH  51  53
ATOM     53  C   UNL     1     -50.802  25.742  26.205  1.00  0.00    -0.006 C 
ATOM     54  H   UNL     1     -50.304  25.982  27.149  1.00  0.00     0.031 H 
ATOM     55  H   UNL     1     -50.307  24.872  25.763  1.00  0.00     0.031 H 
ATOM     56  H   UNL     1     -51.839  25.469  26.426  1.00  0.00     0.031 H 
ENDBRANCH  51  53
ENDBRANCH  38  46
BRANCH  42  57
ATOM     57  N   UNL     1     -48.330  29.173  21.375  1.00  0.00    -0.383 N 
ATOM     58  H   UNL     1     -49.082  28.781  21.934  1.00  0.00     0.158 HD
ATOM     59  H   UNL     1     -47.732  28.477  20.947  1.00  0.00     0.158 HD
ENDBRANCH  42  57
ENDBRANCH  31  35
ENDBRANCH   1  26
TORSDOF 9
ENDMDL
MODEL 6
REMARK VINA RESULT:      -9.8      2.835     11.008
REMARK SMILES CNc1ccc2ccc(OCc3cncc(-n4cc(-c5ccc(C)o5)c5c(N)ncnc54)c3)cc2n1
REMARK SMILES IDX 11 1 10 4 9 5 3 6 4 7 36 8 5 9 35 11 6 12 34 14 7 15 8 17
REMARK SMILES IDX 2 20 1 22 12 26 13 27 33 28 14 29 16 31 15 33 17 35 18 36
REMARK SMILES IDX 32 37 19 38 26 40 31 41 27 42 30 43 29 44 20 46 21 47 25 48
REMARK SMILES IDX 22 49 23 51 24 53 28 57
REMARK H PARENT 11 2 11 3 4 10 5 13 34 16 7 18 8 19 2 21 1 23 1 24 1 25 13 30
REMARK H PARENT 33 32 15 34 18 39 30 45 21 50 22 52 24 54 24 55 24 56 28 58
REMARK H PARENT 28 59
REMARK Flexibility Score: inf
ROOT
ATOM      1  C   UNL     1     -49.442  32.214  25.082  1.00  0.00     0.115 C 
ATOM      2  H   UNL     1     -50.202  32.976  24.866  1.00  0.00     0.076 H 
ATOM      3  H   UNL     1     -49.981  31.389  25.564  1.00  0.00     0.076 H 
ENDROOT
BRANCH   1   4
ATOM      4  O   UNL     1     -48.893  31.814  23.824  1.00  0.00    -0.489 OA
BRANCH   4   5
ATOM      5  C   UNL     1     -48.111  30.693  23.775  1.00  0.00     0.122 A 
ATOM      6  C   UNL     1     -46.845  26.269  24.967  1.00  0.00     0.126 A 
ATOM      7  C   UNL     1     -45.743  26.294  24.125  1.00  0.00    -0.019 A 
ATOM      8  N   UNL     1     -47.690  27.311  25.081  1.00  0.00    -0.231 NA
ATOM      9  C   UNL     1     -45.488  27.442  23.384  1.00  0.00    -0.049 A 
ATOM     10  H   UNL     1     -45.100  25.427  24.025  1.00  0.00     0.066 H 
ATOM     11  C   UNL     1     -47.446  28.427  24.369  1.00  0.00     0.076 A 
ATOM     12  C   UNL     1     -46.344  28.540  23.500  1.00  0.00     0.001 A 
ATOM     13  H   UNL     1     -44.628  27.470  22.720  1.00  0.00     0.063 H 
ATOM     14  C   UNL     1     -48.309  29.510  24.492  1.00  0.00     0.007 A 
ATOM     15  C   UNL     1     -46.131  29.725  22.779  1.00  0.00    -0.049 A 
ATOM     16  H   UNL     1     -49.139  29.392  25.179  1.00  0.00     0.069 H 
ATOM     17  C   UNL     1     -47.014  30.794  22.921  1.00  0.00    -0.019 A 
ATOM     18  H   UNL     1     -45.283  29.822  22.106  1.00  0.00     0.063 H 
ATOM     19  H   UNL     1     -46.844  31.711  22.362  1.00  0.00     0.066 H 
BRANCH   6  20
ATOM     20  N   UNL     1     -47.171  25.148  25.732  1.00  0.00    -0.373 N 
ATOM     21  H   UNL     1     -47.233  24.398  25.043  1.00  0.00     0.161 HD
BRANCH  20  22
ATOM     22  C   UNL     1     -48.416  25.281  26.472  1.00  0.00     0.005 C 
ATOM     23  H   UNL     1     -48.193  25.301  27.543  1.00  0.00     0.045 H 
ATOM     24  H   UNL     1     -49.088  24.435  26.286  1.00  0.00     0.045 H 
ATOM     25  H   UNL     1     -48.933  26.215  26.229  1.00  0.00     0.045 H 
ENDBRANCH  20  22
ENDBRANCH   6  20
ENDBRANCH   4   5
ENDBRANCH   1   4
BRANCH   1  26
ATOM     26  C   UNL     1     -48.412  32.845  25.980  1.00  0.00     0.010 A 
ATOM     27  C   UNL     1     -47.436  32.079  26.602  1.00  0.00     0.034 A 
ATOM     28  C   UNL     1     -48.376  34.233  26.183  1.00  0.00    -0.028 A 
ATOM     29  N   UNL     1     -46.467  32.591  27.390  1.00  0.00    -0.262 NA
ATOM     30  H   UNL     1     -47.403  30.999  26.480  1.00  0.00     0.084 H 
ATOM     31  C   UNL     1     -47.400  34.805  27.006  1.00  0.00     0.066 A 
ATOM     32  H   UNL     1     -49.118  34.837  25.673  1.00  0.00     0.065 H 
ATOM     33  C   UNL     1     -46.476  33.935  27.578  1.00  0.00     0.051 A 
ATOM     34  H   UNL     1     -45.685  34.261  28.244  1.00  0.00     0.086 H 
BRANCH  31  35
ATOM     35  N   UNL     1     -47.338  36.214  27.260  1.00  0.00    -0.299 N 
ATOM     36  C   UNL     1     -46.202  36.990  27.143  1.00  0.00     0.023 A 
ATOM     37  C   UNL     1     -48.371  37.064  27.664  1.00  0.00     0.150 A 
ATOM     38  C   UNL     1     -46.488  38.290  27.498  1.00  0.00     0.049 A 
ATOM     39  H   UNL     1     -45.250  36.576  26.842  1.00  0.00     0.083 H 
ATOM     40  C   UNL     1     -47.878  38.369  27.763  1.00  0.00     0.072 A 
ATOM     41  N   UNL     1     -49.643  36.696  27.927  1.00  0.00    -0.218 NA
ATOM     42  C   UNL     1     -48.824  39.365  28.062  1.00  0.00     0.137 A 
ATOM     43  C   UNL     1     -50.425  37.720  28.278  1.00  0.00     0.120 A 
ATOM     44  N   UNL     1     -50.094  39.016  28.338  1.00  0.00    -0.219 NA
ATOM     45  H   UNL     1     -51.452  37.477  28.528  1.00  0.00     0.106 H 
BRANCH  38  46
ATOM     46  C   UNL     1     -45.344  39.349  27.568  1.00  0.00     0.136 A 
ATOM     47  C   UNL     1     -45.052  40.368  26.684  1.00  0.00    -0.015 A 
ATOM     48  O   UNL     1     -44.469  39.417  28.622  1.00  0.00    -0.461 OA
ATOM     49  C   UNL     1     -43.930  41.063  27.203  1.00  0.00    -0.020 A 
ATOM     50  H   UNL     1     -45.596  40.628  25.790  1.00  0.00     0.066 H 
ATOM     51  C   UNL     1     -43.609  40.443  28.388  1.00  0.00     0.101 A 
ATOM     52  H   UNL     1     -43.433  41.923  26.775  1.00  0.00     0.066 H 
BRANCH  51  53
ATOM     53  C   UNL     1     -42.572  40.673  29.413  1.00  0.00    -0.006 C 
ATOM     54  H   UNL     1     -42.283  41.729  29.434  1.00  0.00     0.031 H 
ATOM     55  H   UNL     1     -41.683  40.074  29.197  1.00  0.00     0.031 H 
ATOM     56  H   UNL     1     -42.936  40.400  30.408  1.00  0.00     0.031 H 
ENDBRANCH  51  53
ENDBRANCH  38  46
BRANCH  42  57
ATOM     57  N   UNL     1     -48.581  40.735  28.025  1.00  0.00    -0.383 N 
ATOM     58  H   UNL     1     -48.930  41.144  28.887  1.00  0.00     0.158 HD
ATOM     59  H   UNL     1     -48.953  41.165  27.187  1.00  0.00     0.158 HD
ENDBRANCH  42  57
ENDBRANCH  31  35
ENDBRANCH   1  26
TORSDOF 9
ENDMDL
MODEL 7
REMARK VINA RESULT:      -9.8      1.931      2.725
REMARK SMILES CNc1ccc2ccc(OCc3cncc(-n4cc(-c5ccc(C)o5)c5c(N)ncnc54)c3)cc2n1
REMARK SMILES IDX 11 1 10 4 9 5 3 6 4 7 36 8 5 9 35 11 6 12 34 14 7 15 8 17
REMARK SMILES IDX 2 20 1 22 12 26 13 27 33 28 14 29 16 31 15 33 17 35 18 36
REMARK SMILES IDX 32 37 19 38 26 40 31 41 27 42 30 43 29 44 20 46 21 47 25 48
REMARK SMILES IDX 22 49 23 51 24 53 28 57
REMARK H PARENT 11 2 11 3 4 10 5 13 34 16 7 18 8 19 2 21 1 23 1 24 1 25 13 30
REMARK H PARENT 33 32 15 34 18 39 30 45 21 50 22 52 24 54 24 55 24 56 28 58
REMARK H PARENT 28 59
REMARK Flexibility Score: inf
ROOT
ATOM      1  C   UNL     1     -46.986  36.701  26.555  1.00  0.00     0.115 C 
ATOM      2  H   UNL     1     -48.017  36.822  26.199  1.00  0.00     0.076 H 
ATOM      3  H   UNL     1     -46.348  37.079  25.746  1.00  0.00     0.076 H 
ENDROOT
BRANCH   1   4
ATOM      4  O   UNL     1     -46.863  37.501  27.733  1.00  0.00    -0.489 OA
BRANCH   4   5
ATOM      5  C   UNL     1     -45.943  38.514  27.747  1.00  0.00     0.122 A 
ATOM      6  C   UNL     1     -43.900  42.498  26.150  1.00  0.00     0.126 A 
ATOM      7  C   UNL     1     -42.944  42.482  27.156  1.00  0.00    -0.019 A 
ATOM      8  N   UNL     1     -44.861  41.560  26.052  1.00  0.00    -0.231 NA
ATOM      9  C   UNL     1     -42.964  41.449  28.086  1.00  0.00    -0.049 A 
ATOM     10  H   UNL     1     -42.205  43.270  27.232  1.00  0.00     0.066 H 
ATOM     11  C   UNL     1     -44.883  40.555  26.948  1.00  0.00     0.076 A 
ATOM     12  C   UNL     1     -43.944  40.457  27.992  1.00  0.00     0.001 A 
ATOM     13  H   UNL     1     -42.221  41.428  28.878  1.00  0.00     0.063 H 
ATOM     14  C   UNL     1     -45.866  39.577  26.844  1.00  0.00     0.007 A 
ATOM     15  C   UNL     1     -44.007  39.390  28.902  1.00  0.00    -0.049 A 
ATOM     16  H   UNL     1     -46.564  39.679  26.021  1.00  0.00     0.069 H 
ATOM     17  C   UNL     1     -45.004  38.425  28.773  1.00  0.00    -0.019 A 
ATOM     18  H   UNL     1     -43.286  39.304  29.711  1.00  0.00     0.063 H 
ATOM     19  H   UNL     1     -45.049  37.599  29.479  1.00  0.00     0.066 H 
BRANCH   6  20
ATOM     20  N   UNL     1     -43.951  43.509  25.189  1.00  0.00    -0.373 N 
ATOM     21  H   UNL     1     -44.872  43.926  25.328  1.00  0.00     0.161 HD
BRANCH  20  22
ATOM     22  C   UNL     1     -43.794  43.033  23.824  1.00  0.00     0.005 C 
ATOM     23  H   UNL     1     -44.332  42.086  23.714  1.00  0.00     0.045 H 
ATOM     24  H   UNL     1     -42.742  42.850  23.579  1.00  0.00     0.045 H 
ATOM     25  H   UNL     1     -44.220  43.734  23.099  1.00  0.00     0.045 H 
ENDBRANCH  20  22
ENDBRANCH   6  20
ENDBRANCH   4   5
ENDBRANCH   1   4
BRANCH   1  26
ATOM     26  C   UNL     1     -46.773  35.237  26.833  1.00  0.00     0.010 A 
ATOM     27  C   UNL     1     -46.166  34.811  28.006  1.00  0.00     0.034 A 
ATOM     28  C   UNL     1     -47.221  34.254  25.939  1.00  0.00    -0.028 A 
ATOM     29  N   UNL     1     -45.978  33.513  28.326  1.00  0.00    -0.262 NA
ATOM     30  H   UNL     1     -45.802  35.521  28.745  1.00  0.00     0.084 H 
ATOM     31  C   UNL     1     -47.032  32.897  26.222  1.00  0.00     0.066 A 
ATOM     32  H   UNL     1     -47.724  34.584  25.037  1.00  0.00     0.065 H 
ATOM     33  C   UNL     1     -46.407  32.591  27.428  1.00  0.00     0.051 A 
ATOM     34  H   UNL     1     -46.194  31.577  27.747  1.00  0.00     0.086 H 
BRANCH  31  35
ATOM     35  N   UNL     1     -47.453  31.859  25.328  1.00  0.00    -0.299 N 
ATOM     36  C   UNL     1     -48.386  30.886  25.628  1.00  0.00     0.023 A 
ATOM     37  C   UNL     1     -47.025  31.621  24.020  1.00  0.00     0.150 A 
ATOM     38  C   UNL     1     -48.524  30.028  24.559  1.00  0.00     0.049 A 
ATOM     39  H   UNL     1     -48.881  30.839  26.588  1.00  0.00     0.083 H 
ATOM     40  C   UNL     1     -47.719  30.523  23.503  1.00  0.00     0.072 A 
ATOM     41  N   UNL     1     -46.086  32.325  23.353  1.00  0.00    -0.218 NA
ATOM     42  C   UNL     1     -47.473  30.217  22.152  1.00  0.00     0.137 A 
ATOM     43  C   UNL     1     -45.886  31.888  22.107  1.00  0.00     0.120 A 
ATOM     44  N   UNL     1     -46.534  30.901  21.475  1.00  0.00    -0.219 NA
ATOM     45  H   UNL     1     -45.121  32.401  21.534  1.00  0.00     0.106 H 
BRANCH  38  46
ATOM     46  C   UNL     1     -49.433  28.766  24.684  1.00  0.00     0.136 A 
ATOM     47  C   UNL     1     -49.278  27.664  25.500  1.00  0.00    -0.015 A 
ATOM     48  O   UNL     1     -50.599  28.628  23.976  1.00  0.00    -0.461 OA
ATOM     49  C   UNL     1     -50.377  26.803  25.254  1.00  0.00    -0.020 A 
ATOM     50  H   UNL     1     -48.500  27.500  26.229  1.00  0.00     0.066 H 
ATOM     51  C   UNL     1     -51.156  27.434  24.314  1.00  0.00     0.101 A 
ATOM     52  H   UNL     1     -50.584  25.851  25.723  1.00  0.00     0.066 H 
BRANCH  51  53
ATOM     53  C   UNL     1     -52.425  27.092  23.643  1.00  0.00    -0.006 C 
ATOM     54  H   UNL     1     -53.152  26.713  24.368  1.00  0.00     0.031 H 
ATOM     55  H   UNL     1     -52.260  26.323  22.883  1.00  0.00     0.031 H 
ATOM     56  H   UNL     1     -52.859  27.969  23.152  1.00  0.00     0.031 H 
ENDBRANCH  51  53
ENDBRANCH  38  46
BRANCH  42  57
ATOM     57  N   UNL     1     -48.188  29.290  21.401  1.00  0.00    -0.383 N 
ATOM     58  H   UNL     1     -48.916  29.784  20.893  1.00  0.00     0.158 HD
ATOM     59  H   UNL     1     -48.531  28.523  21.966  1.00  0.00     0.158 HD
ENDBRANCH  42  57
ENDBRANCH  31  35
ENDBRANCH   1  26
TORSDOF 9
ENDMDL
