MODEL 1
REMARK VINA RESULT:      -9.9      0.000      0.000
REMARK SMILES CNc1ccc2ccc(OCc3cncc(-n4c(C)cc5c(N)ncnc54)c3)cc2n1
REMARK SMILES IDX 11 1 10 4 9 5 3 6 4 7 31 8 5 9 30 11 6 12 29 14 7 15 8 17
REMARK SMILES IDX 2 20 1 22 12 26 13 27 28 28 14 29 16 31 15 33 17 35 18 36
REMARK SMILES IDX 27 37 20 38 21 39 26 40 22 42 25 43 24 44 19 46 23 50
REMARK H PARENT 11 2 11 3 4 10 5 13 29 16 7 18 8 19 2 21 1 23 1 24 1 25 13 30
REMARK H PARENT 28 32 15 34 20 41 25 45 19 47 19 48 19 49 23 51 23 52
REMARK Flexibility Score: inf
ROOT
ATOM      1  C   UNL     1     -45.917  34.696  28.151  1.00  0.00     0.115 C 
ATOM      2  H   UNL     1     -45.107  34.008  28.424  1.00  0.00     0.076 H 
ATOM      3  H   UNL     1     -46.842  34.228  28.511  1.00  0.00     0.076 H 
ENDROOT
BRANCH   1   4
ATOM      4  O   UNL     1     -46.043  34.799  26.731  1.00  0.00    -0.489 OA
BRANCH   4   5
ATOM      5  C   UNL     1     -46.747  33.839  26.058  1.00  0.00     0.122 A 
ATOM      6  C   UNL     1     -47.293  30.276  22.961  1.00  0.00     0.126 A 
ATOM      7  C   UNL     1     -48.650  30.173  23.227  1.00  0.00    -0.019 A 
ATOM      8  N   UNL     1     -46.505  31.184  23.566  1.00  0.00    -0.231 NA
ATOM      9  C   UNL     1     -49.218  31.028  24.165  1.00  0.00    -0.049 A 
ATOM     10  H   UNL     1     -49.267  29.456  22.698  1.00  0.00     0.066 H 
ATOM     11  C   UNL     1     -47.049  32.016  24.473  1.00  0.00     0.076 A 
ATOM     12  C   UNL     1     -48.416  31.972  24.811  1.00  0.00     0.001 A 
ATOM     13  H   UNL     1     -50.282  30.959  24.377  1.00  0.00     0.063 H 
ATOM     14  C   UNL     1     -46.239  32.955  25.104  1.00  0.00     0.007 A 
ATOM     15  C   UNL     1     -48.938  32.860  25.763  1.00  0.00    -0.049 A 
ATOM     16  H   UNL     1     -45.195  32.971  24.809  1.00  0.00     0.069 H 
ATOM     17  C   UNL     1     -48.102  33.788  26.380  1.00  0.00    -0.019 A 
ATOM     18  H   UNL     1     -49.992  32.837  26.026  1.00  0.00     0.063 H 
ATOM     19  H   UNL     1     -48.510  34.477  27.116  1.00  0.00     0.066 H 
BRANCH   6  20
ATOM     20  N   UNL     1     -46.658  29.461  22.021  1.00  0.00    -0.373 N 
ATOM     21  H   UNL     1     -46.884  29.902  21.128  1.00  0.00     0.161 HD
BRANCH  20  22
ATOM     22  C   UNL     1     -45.221  29.352  22.204  1.00  0.00     0.005 C 
ATOM     23  H   UNL     1     -44.850  28.363  21.917  1.00  0.00     0.045 H 
ATOM     24  H   UNL     1     -44.723  30.086  21.562  1.00  0.00     0.045 H 
ATOM     25  H   UNL     1     -44.930  29.562  23.239  1.00  0.00     0.045 H 
ENDBRANCH  20  22
ENDBRANCH   6  20
ENDBRANCH   4   5
ENDBRANCH   1   4
BRANCH   1  26
ATOM     26  C   UNL     1     -45.794  36.031  28.838  1.00  0.00     0.010 A 
ATOM     27  C   UNL     1     -46.186  36.177  30.164  1.00  0.00     0.034 A 
ATOM     28  C   UNL     1     -45.336  37.175  28.172  1.00  0.00    -0.028 A 
ATOM     29  N   UNL     1     -46.134  37.342  30.844  1.00  0.00    -0.262 NA
ATOM     30  H   UNL     1     -46.567  35.337  30.738  1.00  0.00     0.084 H 
ATOM     31  C   UNL     1     -45.247  38.395  28.849  1.00  0.00     0.066 A 
ATOM     32  H   UNL     1     -45.015  37.083  27.136  1.00  0.00     0.065 H 
ATOM     33  C   UNL     1     -45.669  38.422  30.172  1.00  0.00     0.051 A 
ATOM     34  H   UNL     1     -45.704  39.336  30.755  1.00  0.00     0.086 H 
BRANCH  31  35
ATOM     35  N   UNL     1     -44.772  39.572  28.199  1.00  0.00    -0.297 N 
ATOM     36  C   UNL     1     -45.318  40.194  27.069  1.00  0.00     0.023 A 
ATOM     37  C   UNL     1     -43.655  40.315  28.591  1.00  0.00     0.150 A 
ATOM     38  C   UNL     1     -44.501  41.257  26.728  1.00  0.00    -0.028 A 
ATOM     39  C   UNL     1     -43.461  41.344  27.681  1.00  0.00     0.062 A 
ATOM     40  N   UNL     1     -42.847  40.055  29.643  1.00  0.00    -0.218 NA
ATOM     41  H   UNL     1     -44.668  41.934  25.900  1.00  0.00     0.065 H 
ATOM     42  C   UNL     1     -42.363  42.191  27.889  1.00  0.00     0.136 A 
ATOM     43  C   UNL     1     -41.835  40.928  29.742  1.00  0.00     0.120 A 
ATOM     44  N   UNL     1     -41.551  41.965  28.936  1.00  0.00    -0.219 NA
ATOM     45  H   UNL     1     -41.158  40.778  30.577  1.00  0.00     0.106 H 
BRANCH  36  46
ATOM     46  C   UNL     1     -46.614  39.832  26.423  1.00  0.00    -0.024 C 
ATOM     47  H   UNL     1     -46.645  40.192  25.390  1.00  0.00     0.030 H 
ATOM     48  H   UNL     1     -46.794  38.753  26.442  1.00  0.00     0.030 H 
ATOM     49  H   UNL     1     -47.448  40.301  26.957  1.00  0.00     0.030 H 
ENDBRANCH  36  46
BRANCH  42  50
ATOM     50  N   UNL     1     -42.045  43.256  27.058  1.00  0.00    -0.383 N 
ATOM     51  H   UNL     1     -41.690  42.919  26.170  1.00  0.00     0.158 HD
ATOM     52  H   UNL     1     -42.742  43.986  27.015  1.00  0.00     0.158 HD
ENDBRANCH  42  50
ENDBRANCH  31  35
ENDBRANCH   1  26
TORSDOF 8
ENDMDL
MODEL 2
REMARK VINA RESULT:      -9.7      1.653     10.302
REMARK SMILES CNc1ccc2ccc(OCc3cncc(-n4c(C)cc5c(N)ncnc54)c3)cc2n1
REMARK SMILES IDX 11 1 10 4 9 5 3 6 4 7 31 8 5 9 30 11 6 12 29 14 7 15 8 17
REMARK SMILES IDX 2 20 1 22 12 26 13 27 28 28 14 29 16 31 15 33 17 35 18 36
REMARK SMILES IDX 27 37 20 38 21 39 26 40 22 42 25 43 24 44 19 46 23 50
REMARK H PARENT 11 2 11 3 4 10 5 13 29 16 7 18 8 19 2 21 1 23 1 24 1 25 13 30
REMARK H PARENT 28 32 15 34 20 41 25 45 19 47 19 48 19 49 23 51 23 52
REMARK Flexibility Score: inf
ROOT
ATOM      1  C   UNL     1     -46.548  36.630  26.804  1.00  0.00     0.115 C 
ATOM      2  H   UNL     1     -45.672  36.977  26.239  1.00  0.00     0.076 H 
ATOM      3  H   UNL     1     -47.423  37.007  26.262  1.00  0.00     0.076 H 
ENDROOT
BRANCH   1   4
ATOM      4  O   UNL     1     -46.587  37.229  28.101  1.00  0.00    -0.489 OA
BRANCH   4   5
ATOM      5  C   UNL     1     -45.576  38.072  28.472  1.00  0.00     0.122 A 
ATOM      6  C   UNL     1     -42.671  41.799  27.964  1.00  0.00     0.126 A 
ATOM      7  C   UNL     1     -42.010  41.522  29.151  1.00  0.00    -0.019 A 
ATOM      8  N   UNL     1     -43.681  41.037  27.504  1.00  0.00    -0.231 NA
ATOM      9  C   UNL     1     -42.415  40.427  29.906  1.00  0.00    -0.049 A 
ATOM     10  H   UNL     1     -41.177  42.133  29.479  1.00  0.00     0.066 H 
ATOM     11  C   UNL     1     -44.075  39.973  28.228  1.00  0.00     0.076 A 
ATOM     12  C   UNL     1     -43.467  39.627  29.451  1.00  0.00     0.001 A 
ATOM     13  H   UNL     1     -41.901  40.199  30.836  1.00  0.00     0.063 H 
ATOM     14  C   UNL     1     -45.120  39.183  27.760  1.00  0.00     0.007 A 
ATOM     15  C   UNL     1     -43.913  38.510  30.171  1.00  0.00    -0.049 A 
ATOM     16  H   UNL     1     -45.555  39.469  26.809  1.00  0.00     0.069 H 
ATOM     17  C   UNL     1     -44.963  37.739  29.678  1.00  0.00    -0.019 A 
ATOM     18  H   UNL     1     -43.446  38.233  31.113  1.00  0.00     0.063 H 
ATOM     19  H   UNL     1     -45.304  36.870  30.238  1.00  0.00     0.066 H 
BRANCH   6  20
ATOM     20  N   UNL     1     -42.309  42.873  27.147  1.00  0.00    -0.373 N 
ATOM     21  H   UNL     1     -41.951  42.423  26.302  1.00  0.00     0.161 HD
BRANCH  20  22
ATOM     22  C   UNL     1     -43.402  43.778  26.838  1.00  0.00     0.005 C 
ATOM     23  H   UNL     1     -43.706  43.703  25.789  1.00  0.00     0.045 H 
ATOM     24  H   UNL     1     -44.271  43.509  27.449  1.00  0.00     0.045 H 
ATOM     25  H   UNL     1     -43.142  44.817  27.068  1.00  0.00     0.045 H 
ENDBRANCH  20  22
ENDBRANCH   6  20
ENDBRANCH   4   5
ENDBRANCH   1   4
BRANCH   1  26
ATOM     26  C   UNL     1     -46.654  35.128  26.837  1.00  0.00     0.010 A 
ATOM     27  C   UNL     1     -46.098  34.408  27.888  1.00  0.00     0.034 A 
ATOM     28  C   UNL     1     -47.259  34.399  25.805  1.00  0.00    -0.028 A 
ATOM     29  N   UNL     1     -46.125  33.061  27.980  1.00  0.00    -0.262 NA
ATOM     30  H   UNL     1     -45.598  34.906  28.714  1.00  0.00     0.084 H 
ATOM     31  C   UNL     1     -47.325  33.004  25.875  1.00  0.00     0.066 A 
ATOM     32  H   UNL     1     -47.708  34.942  24.975  1.00  0.00     0.065 H 
ATOM     33  C   UNL     1     -46.735  32.393  26.973  1.00  0.00     0.051 A 
ATOM     34  H   UNL     1     -46.674  31.314  27.078  1.00  0.00     0.086 H 
BRANCH  31  35
ATOM     35  N   UNL     1     -47.948  32.238  24.845  1.00  0.00    -0.297 N 
ATOM     36  C   UNL     1     -49.320  32.053  24.640  1.00  0.00     0.023 A 
ATOM     37  C   UNL     1     -47.272  31.528  23.849  1.00  0.00     0.150 A 
ATOM     38  C   UNL     1     -49.482  31.178  23.580  1.00  0.00    -0.028 A 
ATOM     39  C   UNL     1     -48.203  30.850  23.074  1.00  0.00     0.062 A 
ATOM     40  N   UNL     1     -45.933  31.449  23.686  1.00  0.00    -0.218 NA
ATOM     41  H   UNL     1     -50.432  30.849  23.180  1.00  0.00     0.065 H 
ATOM     42  C   UNL     1     -47.715  30.052  22.030  1.00  0.00     0.136 A 
ATOM     43  C   UNL     1     -45.584  30.661  22.660  1.00  0.00     0.120 A 
ATOM     44  N   UNL     1     -46.388  29.967  21.836  1.00  0.00    -0.219 NA
ATOM     45  H   UNL     1     -44.519  30.569  22.472  1.00  0.00     0.106 H 
BRANCH  36  46
ATOM     46  C   UNL     1     -50.409  32.767  25.370  1.00  0.00    -0.024 C 
ATOM     47  H   UNL     1     -49.997  33.383  26.175  1.00  0.00     0.030 H 
ATOM     48  H   UNL     1     -51.011  33.388  24.702  1.00  0.00     0.030 H 
ATOM     49  H   UNL     1     -51.092  32.045  25.831  1.00  0.00     0.030 H 
ENDBRANCH  36  46
BRANCH  42  50
ATOM     50  N   UNL     1     -48.528  29.316  21.180  1.00  0.00    -0.383 N 
ATOM     51  H   UNL     1     -49.422  29.127  21.619  1.00  0.00     0.158 HD
ATOM     52  H   UNL     1     -48.559  29.648  20.226  1.00  0.00     0.158 HD
ENDBRANCH  42  50
ENDBRANCH  31  35
ENDBRANCH   1  26
TORSDOF 8
ENDMDL
MODEL 3
REMARK VINA RESULT:      -9.5      2.103      3.600
REMARK SMILES CNc1ccc2ccc(OCc3cncc(-n4c(C)cc5c(N)ncnc54)c3)cc2n1
REMARK SMILES IDX 11 1 10 4 9 5 3 6 4 7 31 8 5 9 30 11 6 12 29 14 7 15 8 17
REMARK SMILES IDX 2 20 1 22 12 26 13 27 28 28 14 29 16 31 15 33 17 35 18 36
REMARK SMILES IDX 27 37 20 38 21 39 26 40 22 42 25 43 24 44 19 46 23 50
REMARK H PARENT 11 2 11 3 4 10 5 13 29 16 7 18 8 19 2 21 1 23 1 24 1 25 13 30
REMARK H PARENT 28 32 15 34 20 41 25 45 19 47 19 48 19 49 23 51 23 52
REMARK Flexibility Score: inf
ROOT
ATOM      1  C   UNL     1     -45.692  37.721  28.755  1.00  0.00     0.115 C 
ATOM      2  H   UNL     1     -45.331  36.739  29.087  1.00  0.00     0.076 H 
ATOM      3  H   UNL     1     -46.512  37.984  29.433  1.00  0.00     0.076 H 
ENDROOT
BRANCH   1   4
ATOM      4  O   UNL     1     -46.261  37.639  27.446  1.00  0.00    -0.489 OA
BRANCH   4   5
ATOM      5  C   UNL     1     -46.811  36.455  27.037  1.00  0.00     0.122 A 
ATOM      6  C   UNL     1     -46.784  32.186  24.948  1.00  0.00     0.126 A 
ATOM      7  C   UNL     1     -48.126  31.975  25.226  1.00  0.00    -0.019 A 
ATOM      8  N   UNL     1     -46.141  33.314  25.305  1.00  0.00    -0.231 NA
ATOM      9  C   UNL     1     -48.832  32.956  25.913  1.00  0.00    -0.049 A 
ATOM     10  H   UNL     1     -48.627  31.073  24.895  1.00  0.00     0.066 H 
ATOM     11  C   UNL     1     -46.820  34.269  25.968  1.00  0.00     0.076 A 
ATOM     12  C   UNL     1     -48.182  34.130  26.300  1.00  0.00     0.001 A 
ATOM     13  H   UNL     1     -49.886  32.802  26.132  1.00  0.00     0.063 H 
ATOM     14  C   UNL     1     -46.160  35.435  26.342  1.00  0.00     0.007 A 
ATOM     15  C   UNL     1     -48.847  35.152  26.993  1.00  0.00    -0.049 A 
ATOM     16  H   UNL     1     -45.117  35.514  26.056  1.00  0.00     0.069 H 
ATOM     17  C   UNL     1     -48.160  36.308  27.356  1.00  0.00    -0.019 A 
ATOM     18  H   UNL     1     -49.899  35.056  27.250  1.00  0.00     0.063 H 
ATOM     19  H   UNL     1     -48.680  37.100  27.891  1.00  0.00     0.066 H 
BRANCH   6  20
ATOM     20  N   UNL     1     -46.015  31.253  24.248  1.00  0.00    -0.373 N 
ATOM     21  H   UNL     1     -46.264  30.362  24.682  1.00  0.00     0.161 HD
BRANCH  20  22
ATOM     22  C   UNL     1     -46.267  31.230  22.818  1.00  0.00     0.005 C 
ATOM     23  H   UNL     1     -47.102  30.569  22.564  1.00  0.00     0.045 H 
ATOM     24  H   UNL     1     -46.539  32.238  22.488  1.00  0.00     0.045 H 
ATOM     25  H   UNL     1     -45.377  30.924  22.257  1.00  0.00     0.045 H 
ENDBRANCH  20  22
ENDBRANCH   6  20
ENDBRANCH   4   5
ENDBRANCH   1   4
BRANCH   1  26
ATOM     26  C   UNL     1     -44.642  38.793  28.883  1.00  0.00     0.010 A 
ATOM     27  C   UNL     1     -43.847  38.864  30.021  1.00  0.00     0.034 A 
ATOM     28  C   UNL     1     -44.457  39.779  27.905  1.00  0.00    -0.028 A 
ATOM     29  N   UNL     1     -42.903  39.807  30.227  1.00  0.00    -0.262 NA
ATOM     30  H   UNL     1     -43.946  38.143  30.828  1.00  0.00     0.084 H 
ATOM     31  C   UNL     1     -43.475  40.760  28.073  1.00  0.00     0.066 A 
ATOM     32  H   UNL     1     -45.063  39.739  27.001  1.00  0.00     0.065 H 
ATOM     33  C   UNL     1     -42.742  40.732  29.251  1.00  0.00     0.051 A 
ATOM     34  H   UNL     1     -42.009  41.493  29.501  1.00  0.00     0.086 H 
BRANCH  31  35
ATOM     35  N   UNL     1     -43.257  41.768  27.087  1.00  0.00    -0.297 N 
ATOM     36  C   UNL     1     -42.026  42.208  26.586  1.00  0.00     0.023 A 
ATOM     37  C   UNL     1     -44.261  42.498  26.445  1.00  0.00     0.150 A 
ATOM     38  C   UNL     1     -42.269  43.249  25.707  1.00  0.00    -0.028 A 
ATOM     39  C   UNL     1     -43.667  43.432  25.608  1.00  0.00     0.062 A 
ATOM     40  N   UNL     1     -45.592  42.375  26.639  1.00  0.00    -0.218 NA
ATOM     41  H   UNL     1     -41.512  43.791  25.154  1.00  0.00     0.065 H 
ATOM     42  C   UNL     1     -44.516  44.287  24.890  1.00  0.00     0.136 A 
ATOM     43  C   UNL     1     -46.302  43.241  25.902  1.00  0.00     0.120 A 
ATOM     44  N   UNL     1     -45.845  44.177  25.053  1.00  0.00    -0.219 NA
ATOM     45  H   UNL     1     -47.381  43.181  26.006  1.00  0.00     0.106 H 
BRANCH  36  46
ATOM     46  C   UNL     1     -40.701  41.585  26.872  1.00  0.00    -0.024 C 
ATOM     47  H   UNL     1     -40.583  41.399  27.943  1.00  0.00     0.030 H 
ATOM     48  H   UNL     1     -40.560  40.651  26.319  1.00  0.00     0.030 H 
ATOM     49  H   UNL     1     -39.891  42.258  26.567  1.00  0.00     0.030 H 
ENDBRANCH  36  46
BRANCH  42  50
ATOM     50  N   UNL     1     -44.062  45.270  24.022  1.00  0.00    -0.383 N 
ATOM     51  H   UNL     1     -43.150  45.025  23.654  1.00  0.00     0.158 HD
ATOM     52  H   UNL     1     -44.745  45.593  23.351  1.00  0.00     0.158 HD
ENDBRANCH  42  50
ENDBRANCH  31  35
ENDBRANCH   1  26
TORSDOF 8
ENDMDL
MODEL 4
REMARK VINA RESULT:      -9.4      1.614      2.373
REMARK SMILES CNc1ccc2ccc(OCc3cncc(-n4c(C)cc5c(N)ncnc54)c3)cc2n1
REMARK SMILES IDX 11 1 10 4 9 5 3 6 4 7 31 8 5 9 30 11 6 12 29 14 7 15 8 17
REMARK SMILES IDX 2 20 1 22 12 26 13 27 28 28 14 29 16 31 15 33 17 35 18 36
REMARK SMILES IDX 27 37 20 38 21 39 26 40 22 42 25 43 24 44 19 46 23 50
REMARK H PARENT 11 2 11 3 4 10 5 13 29 16 7 18 8 19 2 21 1 23 1 24 1 25 13 30
REMARK H PARENT 28 32 15 34 20 41 25 45 19 47 19 48 19 49 23 51 23 52
REMARK Flexibility Score: inf
ROOT
ATOM      1  C   UNL     1     -48.243  35.513  27.232  1.00  0.00     0.115 C 
ATOM      2  H   UNL     1     -48.325  34.836  28.093  1.00  0.00     0.076 H 
ATOM      3  H   UNL     1     -49.214  35.469  26.723  1.00  0.00     0.076 H 
ENDROOT
BRANCH   1   4
ATOM      4  O   UNL     1     -47.274  35.034  26.298  1.00  0.00    -0.489 OA
BRANCH   4   5
ATOM      5  C   UNL     1     -47.436  33.788  25.756  1.00  0.00     0.122 A 
ATOM      6  C   UNL     1     -46.290  30.130  22.947  1.00  0.00     0.126 A 
ATOM      7  C   UNL     1     -47.394  29.396  23.352  1.00  0.00    -0.019 A 
ATOM      8  N   UNL     1     -46.033  31.366  23.415  1.00  0.00    -0.231 NA
ATOM      9  C   UNL     1     -48.261  29.946  24.289  1.00  0.00    -0.049 A 
ATOM     10  H   UNL     1     -47.596  28.418  22.931  1.00  0.00     0.066 H 
ATOM     11  C   UNL     1     -46.870  31.906  24.321  1.00  0.00     0.076 A 
ATOM     12  C   UNL     1     -48.008  31.224  24.795  1.00  0.00     0.001 A 
ATOM     13  H   UNL     1     -49.131  29.380  24.610  1.00  0.00     0.063 H 
ATOM     14  C   UNL     1     -46.608  33.181  24.811  1.00  0.00     0.007 A 
ATOM     15  C   UNL     1     -48.850  31.827  25.740  1.00  0.00    -0.049 A 
ATOM     16  H   UNL     1     -45.732  33.683  24.413  1.00  0.00     0.069 H 
ATOM     17  C   UNL     1     -48.561  33.105  26.214  1.00  0.00    -0.019 A 
ATOM     18  H   UNL     1     -49.733  31.311  26.108  1.00  0.00     0.063 H 
ATOM     19  H   UNL     1     -49.218  33.571  26.944  1.00  0.00     0.066 H 
BRANCH   6  20
ATOM     20  N   UNL     1     -45.386  29.648  21.998  1.00  0.00    -0.373 N 
ATOM     21  H   UNL     1     -44.805  30.460  21.783  1.00  0.00     0.161 HD
BRANCH  20  22
ATOM     22  C   UNL     1     -44.580  28.532  22.460  1.00  0.00     0.005 C 
ATOM     23  H   UNL     1     -45.006  27.571  22.154  1.00  0.00     0.045 H 
ATOM     24  H   UNL     1     -43.583  28.602  22.012  1.00  0.00     0.045 H 
ATOM     25  H   UNL     1     -44.458  28.546  23.548  1.00  0.00     0.045 H 
ENDBRANCH  20  22
ENDBRANCH   6  20
ENDBRANCH   4   5
ENDBRANCH   1   4
BRANCH   1  26
ATOM     26  C   UNL     1     -48.019  36.944  27.645  1.00  0.00     0.010 A 
ATOM     27  C   UNL     1     -49.100  37.782  27.887  1.00  0.00     0.034 A 
ATOM     28  C   UNL     1     -46.737  37.499  27.751  1.00  0.00    -0.028 A 
ATOM     29  N   UNL     1     -48.987  39.083  28.234  1.00  0.00    -0.262 NA
ATOM     30  H   UNL     1     -50.123  37.426  27.807  1.00  0.00     0.084 H 
ATOM     31  C   UNL     1     -46.578  38.836  28.129  1.00  0.00     0.066 A 
ATOM     32  H   UNL     1     -45.874  36.859  27.575  1.00  0.00     0.065 H 
ATOM     33  C   UNL     1     -47.731  39.578  28.344  1.00  0.00     0.051 A 
ATOM     34  H   UNL     1     -47.709  40.639  28.570  1.00  0.00     0.086 H 
BRANCH  31  35
ATOM     35  N   UNL     1     -45.284  39.422  28.258  1.00  0.00    -0.297 N 
ATOM     36  C   UNL     1     -44.351  39.196  29.276  1.00  0.00     0.023 A 
ATOM     37  C   UNL     1     -44.724  40.341  27.367  1.00  0.00     0.150 A 
ATOM     38  C   UNL     1     -43.265  40.025  29.055  1.00  0.00    -0.028 A 
ATOM     39  C   UNL     1     -43.487  40.741  27.856  1.00  0.00     0.062 A 
ATOM     40  N   UNL     1     -45.297  40.822  26.242  1.00  0.00    -0.218 NA
ATOM     41  H   UNL     1     -42.377  40.072  29.672  1.00  0.00     0.065 H 
ATOM     42  C   UNL     1     -42.774  41.689  27.110  1.00  0.00     0.136 A 
ATOM     43  C   UNL     1     -44.525  41.720  25.613  1.00  0.00     0.120 A 
ATOM     44  N   UNL     1     -43.315  42.174  25.979  1.00  0.00    -0.219 NA
ATOM     45  H   UNL     1     -44.929  42.133  24.695  1.00  0.00     0.106 H 
BRANCH  36  46
ATOM     46  C   UNL     1     -44.468  38.162  30.345  1.00  0.00    -0.024 C 
ATOM     47  H   UNL     1     -45.419  37.627  30.265  1.00  0.00     0.030 H 
ATOM     48  H   UNL     1     -43.641  37.447  30.316  1.00  0.00     0.030 H 
ATOM     49  H   UNL     1     -44.443  38.633  31.334  1.00  0.00     0.030 H 
ENDBRANCH  36  46
BRANCH  42  50
ATOM     50  N   UNL     1     -41.531  42.183  27.481  1.00  0.00    -0.383 N 
ATOM     51  H   UNL     1     -40.802  41.776  26.907  1.00  0.00     0.158 HD
ATOM     52  H   UNL     1     -41.493  43.184  27.611  1.00  0.00     0.158 HD
ENDBRANCH  42  50
ENDBRANCH  31  35
ENDBRANCH   1  26
TORSDOF 8
ENDMDL
MODEL 5
REMARK VINA RESULT:      -9.0      2.485     11.199
REMARK SMILES CNc1ccc2ccc(OCc3cncc(-n4c(C)cc5c(N)ncnc54)c3)cc2n1
REMARK SMILES IDX 11 1 10 4 9 5 3 6 4 7 31 8 5 9 30 11 6 12 29 14 7 15 8 17
REMARK SMILES IDX 2 20 1 22 12 26 13 27 28 28 14 29 16 31 15 33 17 35 18 36
REMARK SMILES IDX 27 37 20 38 21 39 26 40 22 42 25 43 24 44 19 46 23 50
REMARK H PARENT 11 2 11 3 4 10 5 13 29 16 7 18 8 19 2 21 1 23 1 24 1 25 13 30
REMARK H PARENT 28 32 15 34 20 41 25 45 19 47 19 48 19 49 23 51 23 52
REMARK Flexibility Score: inf
ROOT
ATOM      1  C   UNL     1     -48.654  33.757  26.083  1.00  0.00     0.115 C 
ATOM      2  H   UNL     1     -48.777  34.721  25.572  1.00  0.00     0.076 H 
ATOM      3  H   UNL     1     -49.667  33.411  26.321  1.00  0.00     0.076 H 
ENDROOT
BRANCH   1   4
ATOM      4  O   UNL     1     -47.980  33.925  27.332  1.00  0.00    -0.489 OA
BRANCH   4   5
ATOM      5  C   UNL     1     -47.274  35.075  27.554  1.00  0.00     0.122 A 
ATOM      6  C   UNL     1     -46.048  39.597  26.759  1.00  0.00     0.126 A 
ATOM      7  C   UNL     1     -45.090  39.576  27.761  1.00  0.00    -0.019 A 
ATOM      8  N   UNL     1     -46.801  38.523  26.457  1.00  0.00    -0.231 NA
ATOM      9  C   UNL     1     -44.908  38.408  28.493  1.00  0.00    -0.049 A 
ATOM     10  H   UNL     1     -44.473  40.445  27.959  1.00  0.00     0.066 H 
ATOM     11  C   UNL     1     -46.628  37.388  27.160  1.00  0.00     0.076 A 
ATOM     12  C   UNL     1     -45.685  37.284  28.201  1.00  0.00     0.001 A 
ATOM     13  H   UNL     1     -44.156  38.380  29.278  1.00  0.00     0.063 H 
ATOM     14  C   UNL     1     -47.404  36.275  26.854  1.00  0.00     0.007 A 
ATOM     15  C   UNL     1     -45.541  36.081  28.906  1.00  0.00    -0.049 A 
ATOM     16  H   UNL     1     -48.109  36.386  26.037  1.00  0.00     0.069 H 
ATOM     17  C   UNL     1     -46.335  34.984  28.579  1.00  0.00    -0.019 A 
ATOM     18  H   UNL     1     -44.813  35.990  29.708  1.00  0.00     0.063 H 
ATOM     19  H   UNL     1     -46.218  34.051  29.126  1.00  0.00     0.066 H 
BRANCH   6  20
ATOM     20  N   UNL     1     -46.275  40.729  25.973  1.00  0.00    -0.373 N 
ATOM     21  H   UNL     1     -46.542  40.343  25.066  1.00  0.00     0.161 HD
BRANCH  20  22
ATOM     22  C   UNL     1     -47.301  41.616  26.491  1.00  0.00     0.005 C 
ATOM     23  H   UNL     1     -47.222  41.735  27.577  1.00  0.00     0.045 H 
ATOM     24  H   UNL     1     -47.174  42.608  26.045  1.00  0.00     0.045 H 
ATOM     25  H   UNL     1     -48.306  41.262  26.237  1.00  0.00     0.045 H 
ENDBRANCH  20  22
ENDBRANCH   6  20
ENDBRANCH   4   5
ENDBRANCH   1   4
BRANCH   1  26
ATOM     26  C   UNL     1     -48.021  32.714  25.199  1.00  0.00     0.010 A 
ATOM     27  C   UNL     1     -46.639  32.648  25.071  1.00  0.00     0.034 A 
ATOM     28  C   UNL     1     -48.782  31.815  24.441  1.00  0.00    -0.028 A 
ATOM     29  N   UNL     1     -45.994  31.764  24.280  1.00  0.00    -0.262 NA
ATOM     30  H   UNL     1     -45.986  33.325  25.615  1.00  0.00     0.084 H 
ATOM     31  C   UNL     1     -48.150  30.870  23.627  1.00  0.00     0.066 A 
ATOM     32  H   UNL     1     -49.867  31.843  24.532  1.00  0.00     0.065 H 
ATOM     33  C   UNL     1     -46.763  30.899  23.577  1.00  0.00     0.051 A 
ATOM     34  H   UNL     1     -46.189  30.253  22.921  1.00  0.00     0.086 H 
BRANCH  31  35
ATOM     35  N   UNL     1     -48.901  29.934  22.855  1.00  0.00    -0.297 N 
ATOM     36  C   UNL     1     -49.190  30.005  21.487  1.00  0.00     0.023 A 
ATOM     37  C   UNL     1     -49.486  28.766  23.351  1.00  0.00     0.150 A 
ATOM     38  C   UNL     1     -50.007  28.936  21.166  1.00  0.00    -0.028 A 
ATOM     39  C   UNL     1     -50.191  28.150  22.327  1.00  0.00     0.062 A 
ATOM     40  N   UNL     1     -49.438  28.323  24.626  1.00  0.00    -0.218 NA
ATOM     41  H   UNL     1     -50.392  28.717  20.178  1.00  0.00     0.065 H 
ATOM     42  C   UNL     1     -50.877  26.967  22.636  1.00  0.00     0.136 A 
ATOM     43  C   UNL     1     -50.127  27.187  24.803  1.00  0.00     0.120 A 
ATOM     44  N   UNL     1     -50.834  26.495  23.894  1.00  0.00    -0.219 NA
ATOM     45  H   UNL     1     -50.115  26.775  25.808  1.00  0.00     0.106 H 
BRANCH  36  46
ATOM     46  C   UNL     1     -48.621  31.000  20.531  1.00  0.00    -0.024 C 
ATOM     47  H   UNL     1     -48.337  31.919  21.052  1.00  0.00     0.030 H 
ATOM     48  H   UNL     1     -47.757  30.601  19.991  1.00  0.00     0.030 H 
ATOM     49  H   UNL     1     -49.368  31.271  19.777  1.00  0.00     0.030 H 
ENDBRANCH  36  46
BRANCH  42  50
ATOM     50  N   UNL     1     -51.626  26.249  21.715  1.00  0.00    -0.383 N 
ATOM     51  H   UNL     1     -52.536  26.677  21.586  1.00  0.00     0.158 HD
ATOM     52  H   UNL     1     -51.130  25.988  20.874  1.00  0.00     0.158 HD
ENDBRANCH  42  50
ENDBRANCH  31  35
ENDBRANCH   1  26
TORSDOF 8
ENDMDL
MODEL 6
REMARK VINA RESULT:      -8.9      2.959     11.359
REMARK SMILES CNc1ccc2ccc(OCc3cncc(-n4c(C)cc5c(N)ncnc54)c3)cc2n1
REMARK SMILES IDX 11 1 10 4 9 5 3 6 4 7 31 8 5 9 30 11 6 12 29 14 7 15 8 17
REMARK SMILES IDX 2 20 1 22 12 26 13 27 28 28 14 29 16 31 15 33 17 35 18 36
REMARK SMILES IDX 27 37 20 38 21 39 26 40 22 42 25 43 24 44 19 46 23 50
REMARK H PARENT 11 2 11 3 4 10 5 13 29 16 7 18 8 19 2 21 1 23 1 24 1 25 13 30
REMARK H PARENT 28 32 15 34 20 41 25 45 19 47 19 48 19 49 23 51 23 52
REMARK Flexibility Score: inf
ROOT
ATOM      1  C   UNL     1     -46.065  32.676  24.316  1.00  0.00     0.115 C 
ATOM      2  H   UNL     1     -45.267  32.466  25.041  1.00  0.00     0.076 H 
ATOM      3  H   UNL     1     -45.606  33.298  23.538  1.00  0.00     0.076 H 
ENDROOT
BRANCH   1   4
ATOM      4  O   UNL     1     -47.098  33.466  24.909  1.00  0.00    -0.489 OA
BRANCH   4   5
ATOM      5  C   UNL     1     -46.792  34.257  25.982  1.00  0.00     0.122 A 
ATOM      6  C   UNL     1     -46.238  38.386  28.270  1.00  0.00     0.126 A 
ATOM      7  C   UNL     1     -45.821  37.754  29.432  1.00  0.00    -0.019 A 
ATOM      8  N   UNL     1     -46.564  37.705  27.155  1.00  0.00    -0.231 NA
ATOM      9  C   UNL     1     -45.753  36.366  29.455  1.00  0.00    -0.049 A 
ATOM     10  H   UNL     1     -45.531  38.329  30.303  1.00  0.00     0.066 H 
ATOM     11  C   UNL     1     -46.497  36.361  27.170  1.00  0.00     0.076 A 
ATOM     12  C   UNL     1     -46.095  35.640  28.312  1.00  0.00     0.001 A 
ATOM     13  H   UNL     1     -45.424  35.862  30.360  1.00  0.00     0.063 H 
ATOM     14  C   UNL     1     -46.836  35.652  26.022  1.00  0.00     0.007 A 
ATOM     15  C   UNL     1     -46.042  34.239  28.280  1.00  0.00    -0.049 A 
ATOM     16  H   UNL     1     -47.126  36.239  25.158  1.00  0.00     0.069 H 
ATOM     17  C   UNL     1     -46.389  33.556  27.117  1.00  0.00    -0.019 A 
ATOM     18  H   UNL     1     -45.729  33.675  29.155  1.00  0.00     0.063 H 
ATOM     19  H   UNL     1     -46.343  32.469  27.095  1.00  0.00     0.066 H 
BRANCH   6  20
ATOM     20  N   UNL     1     -46.316  39.777  28.168  1.00  0.00    -0.373 N 
ATOM     21  H   UNL     1     -46.010  40.103  29.086  1.00  0.00     0.161 HD
BRANCH  20  22
ATOM     22  C   UNL     1     -45.497  40.341  27.109  1.00  0.00     0.005 C 
ATOM     23  H   UNL     1     -44.433  40.320  27.366  1.00  0.00     0.045 H 
ATOM     24  H   UNL     1     -45.625  39.741  26.202  1.00  0.00     0.045 H 
ATOM     25  H   UNL     1     -45.794  41.368  26.874  1.00  0.00     0.045 H 
ENDBRANCH  20  22
ENDBRANCH   6  20
ENDBRANCH   4   5
ENDBRANCH   1   4
BRANCH   1  26
ATOM     26  C   UNL     1     -46.577  31.427  23.647  1.00  0.00     0.010 A 
ATOM     27  C   UNL     1     -46.042  31.011  22.433  1.00  0.00     0.034 A 
ATOM     28  C   UNL     1     -47.630  30.672  24.180  1.00  0.00    -0.028 A 
ATOM     29  N   UNL     1     -46.462  29.922  21.755  1.00  0.00    -0.262 NA
ATOM     30  H   UNL     1     -45.235  31.557  21.953  1.00  0.00     0.084 H 
ATOM     31  C   UNL     1     -48.078  29.525  23.517  1.00  0.00     0.066 A 
ATOM     32  H   UNL     1     -48.059  30.974  25.134  1.00  0.00     0.065 H 
ATOM     33  C   UNL     1     -47.469  29.207  22.311  1.00  0.00     0.051 A 
ATOM     34  H   UNL     1     -47.797  28.378  21.692  1.00  0.00     0.086 H 
BRANCH  31  35
ATOM     35  N   UNL     1     -49.139  28.730  24.045  1.00  0.00    -0.297 N 
ATOM     36  C   UNL     1     -50.510  28.888  23.811  1.00  0.00     0.023 A 
ATOM     37  C   UNL     1     -48.979  27.639  24.903  1.00  0.00     0.150 A 
ATOM     38  C   UNL     1     -51.186  27.955  24.578  1.00  0.00    -0.028 A 
ATOM     39  C   UNL     1     -50.233  27.164  25.260  1.00  0.00     0.062 A 
ATOM     40  N   UNL     1     -47.809  27.150  25.370  1.00  0.00    -0.218 NA
ATOM     41  H   UNL     1     -52.260  27.827  24.604  1.00  0.00     0.065 H 
ATOM     42  C   UNL     1     -50.284  26.078  26.145  1.00  0.00     0.136 A 
ATOM     43  C   UNL     1     -47.981  26.116  26.206  1.00  0.00     0.120 A 
ATOM     44  N   UNL     1     -49.135  25.562  26.615  1.00  0.00    -0.219 NA
ATOM     45  H   UNL     1     -47.074  25.673  26.606  1.00  0.00     0.106 H 
BRANCH  36  46
ATOM     46  C   UNL     1     -51.119  29.826  22.822  1.00  0.00    -0.024 C 
ATOM     47  H   UNL     1     -50.561  30.766  22.787  1.00  0.00     0.030 H 
ATOM     48  H   UNL     1     -51.169  29.389  21.821  1.00  0.00     0.030 H 
ATOM     49  H   UNL     1     -52.147  30.068  23.113  1.00  0.00     0.030 H 
ENDBRANCH  36  46
BRANCH  42  50
ATOM     50  N   UNL     1     -51.466  25.504  26.592  1.00  0.00    -0.383 N 
ATOM     51  H   UNL     1     -52.232  26.162  26.512  1.00  0.00     0.158 HD
ATOM     52  H   UNL     1     -51.640  24.570  26.251  1.00  0.00     0.158 HD
ENDBRANCH  42  50
ENDBRANCH  31  35
ENDBRANCH   1  26
TORSDOF 8
ENDMDL
MODEL 7
REMARK VINA RESULT:      -8.8      2.452     10.985
REMARK SMILES CNc1ccc2ccc(OCc3cncc(-n4c(C)cc5c(N)ncnc54)c3)cc2n1
REMARK SMILES IDX 11 1 10 4 9 5 3 6 4 7 31 8 5 9 30 11 6 12 29 14 7 15 8 17
REMARK SMILES IDX 2 20 1 22 12 26 13 27 28 28 14 29 16 31 15 33 17 35 18 36
REMARK SMILES IDX 27 37 20 38 21 39 26 40 22 42 25 43 24 44 19 46 23 50
REMARK H PARENT 11 2 11 3 4 10 5 13 29 16 7 18 8 19 2 21 1 23 1 24 1 25 13 30
REMARK H PARENT 28 32 15 34 20 41 25 45 19 47 19 48 19 49 23 51 23 52
REMARK Flexibility Score: inf
ROOT
ATOM      1  C   UNL     1     -47.920  34.556  27.041  1.00  0.00     0.115 C 
ATOM      2  H   UNL     1     -48.833  34.369  27.622  1.00  0.00     0.076 H 
ATOM      3  H   UNL     1     -47.088  34.461  27.750  1.00  0.00     0.076 H 
ENDROOT
BRANCH   1   4
ATOM      4  O   UNL     1     -47.889  35.901  26.559  1.00  0.00    -0.489 OA
BRANCH   4   5
ATOM      5  C   UNL     1     -46.970  36.769  27.080  1.00  0.00     0.122 A 
ATOM      6  C   UNL     1     -44.448  40.795  27.227  1.00  0.00     0.126 A 
ATOM      7  C   UNL     1     -43.771  40.399  28.371  1.00  0.00    -0.019 A 
ATOM      8  N   UNL     1     -45.374  40.020  26.631  1.00  0.00    -0.231 NA
ATOM      9  C   UNL     1     -44.069  39.164  28.935  1.00  0.00    -0.049 A 
ATOM     10  H   UNL     1     -43.005  41.029  28.809  1.00  0.00     0.066 H 
ATOM     11  C   UNL     1     -45.664  38.821  27.171  1.00  0.00     0.076 A 
ATOM     12  C   UNL     1     -45.033  38.348  28.338  1.00  0.00     0.001 A 
ATOM     13  H   UNL     1     -43.541  38.843  29.829  1.00  0.00     0.063 H 
ATOM     14  C   UNL     1     -46.622  38.018  26.561  1.00  0.00     0.007 A 
ATOM     15  C   UNL     1     -45.369  37.092  28.863  1.00  0.00    -0.049 A 
ATOM     16  H   UNL     1     -47.077  38.407  25.657  1.00  0.00     0.069 H 
ATOM     17  C   UNL     1     -46.334  36.310  28.232  1.00  0.00    -0.019 A 
ATOM     18  H   UNL     1     -44.884  36.717  29.760  1.00  0.00     0.063 H 
ATOM     19  H   UNL     1     -46.591  35.335  28.641  1.00  0.00     0.066 H 
BRANCH   6  20
ATOM     20  N   UNL     1     -44.190  42.014  26.597  1.00  0.00    -0.373 N 
ATOM     21  H   UNL     1     -44.842  42.660  27.045  1.00  0.00     0.161 HD
BRANCH  20  22
ATOM     22  C   UNL     1     -42.818  42.473  26.730  1.00  0.00     0.005 C 
ATOM     23  H   UNL     1     -42.475  42.425  27.769  1.00  0.00     0.045 H 
ATOM     24  H   UNL     1     -42.165  41.820  26.141  1.00  0.00     0.045 H 
ATOM     25  H   UNL     1     -42.696  43.494  26.354  1.00  0.00     0.045 H 
ENDBRANCH  20  22
ENDBRANCH   6  20
ENDBRANCH   4   5
ENDBRANCH   1   4
BRANCH   1  26
ATOM     26  C   UNL     1     -47.706  33.529  25.960  1.00  0.00     0.010 A 
ATOM     27  C   UNL     1     -46.540  33.539  25.204  1.00  0.00     0.034 A 
ATOM     28  C   UNL     1     -48.674  32.568  25.639  1.00  0.00    -0.028 A 
ATOM     29  N   UNL     1     -46.282  32.673  24.200  1.00  0.00    -0.262 NA
ATOM     30  H   UNL     1     -45.753  34.265  25.385  1.00  0.00     0.084 H 
ATOM     31  C   UNL     1     -48.434  31.641  24.621  1.00  0.00     0.066 A 
ATOM     32  H   UNL     1     -49.592  32.536  26.224  1.00  0.00     0.065 H 
ATOM     33  C   UNL     1     -47.234  31.748  23.932  1.00  0.00     0.051 A 
ATOM     34  H   UNL     1     -46.991  31.120  23.081  1.00  0.00     0.086 H 
BRANCH  31  35
ATOM     35  N   UNL     1     -49.398  30.644  24.283  1.00  0.00    -0.297 N 
ATOM     36  C   UNL     1     -50.424  30.747  23.337  1.00  0.00     0.023 A 
ATOM     37  C   UNL     1     -49.475  29.372  24.856  1.00  0.00     0.150 A 
ATOM     38  C   UNL     1     -51.170  29.582  23.386  1.00  0.00    -0.028 A 
ATOM     39  C   UNL     1     -50.578  28.712  24.330  1.00  0.00     0.062 A 
ATOM     40  N   UNL     1     -48.662  28.869  25.810  1.00  0.00    -0.218 NA
ATOM     41  H   UNL     1     -52.029  29.363  22.765  1.00  0.00     0.065 H 
ATOM     42  C   UNL     1     -50.843  27.420  24.804  1.00  0.00     0.136 A 
ATOM     43  C   UNL     1     -49.011  27.631  26.185  1.00  0.00     0.120 A 
ATOM     44  N   UNL     1     -50.041  26.890  25.743  1.00  0.00    -0.219 NA
ATOM     45  H   UNL     1     -48.385  27.169  26.942  1.00  0.00     0.106 H 
BRANCH  36  46
ATOM     46  C   UNL     1     -50.606  31.872  22.374  1.00  0.00    -0.024 C 
ATOM     47  H   UNL     1     -50.710  32.823  22.904  1.00  0.00     0.030 H 
ATOM     48  H   UNL     1     -49.781  31.937  21.659  1.00  0.00     0.030 H 
ATOM     49  H   UNL     1     -51.520  31.725  21.787  1.00  0.00     0.030 H 
ENDBRANCH  36  46
BRANCH  42  50
ATOM     50  N   UNL     1     -51.912  26.647  24.373  1.00  0.00    -0.383 N 
ATOM     51  H   UNL     1     -51.662  26.131  23.537  1.00  0.00     0.158 HD
ATOM     52  H   UNL     1     -52.379  26.123  25.099  1.00  0.00     0.158 HD
ENDBRANCH  42  50
ENDBRANCH  31  35
ENDBRANCH   1  26
TORSDOF 8
ENDMDL
