MODEL 1
REMARK VINA RESULT:     -10.4      0.000      0.000
REMARK SMILES CCNc1ccc2ccc(OC[C@H]3O[C@@H](n4cc(Cl)c5c(N)ncnc54)[C@@H](F)[C@@H]3O)cc2n1
REMARK SMILES IDX 11 1 10 2 4 3 5 4 33 5 6 6 32 8 7 9 31 11 8 12 9 14 3 17
REMARK SMILES IDX 2 19 1 22 12 26 13 29 14 30 29 31 15 33 27 34 28 37 30 39
REMARK SMILES IDX 16 41 17 42 26 43 18 44 20 46 25 47 19 48 21 49 24 50 23 51
REMARK SMILES IDX 22 53
REMARK H PARENT 5 7 6 10 31 13 8 15 9 16 3 18 2 20 2 21 1 23 1 24 1 25 12 27
REMARK H PARENT 12 28 13 32 29 35 15 36 27 38 30 40 17 45 24 52 22 54 22 55
REMARK Flexibility Score: inf
ROOT
ATOM      1  O   UNL     1     -46.430  35.421  26.698  1.00  0.00    -0.491 OA
ENDROOT
BRANCH   1   2
ATOM      2  C   UNL     1     -46.941  34.331  26.051  1.00  0.00     0.121 A 
ATOM      3  C   UNL     1     -46.980  30.897  22.753  1.00  0.00     0.126 A 
ATOM      4  C   UNL     1     -48.199  30.409  23.209  1.00  0.00    -0.019 A 
ATOM      5  N   UNL     1     -46.396  31.970  23.322  1.00  0.00    -0.231 NA
ATOM      6  C   UNL     1     -48.821  31.022  24.291  1.00  0.00    -0.049 A 
ATOM      7  H   UNL     1     -48.672  29.564  22.717  1.00  0.00     0.066 H 
ATOM      8  C   UNL     1     -46.988  32.569  24.372  1.00  0.00     0.076 A 
ATOM      9  C   UNL     1     -48.214  32.124  24.898  1.00  0.00     0.001 A 
ATOM     10  H   UNL     1     -49.774  30.641  24.648  1.00  0.00     0.063 H 
ATOM     11  C   UNL     1     -46.372  33.669  24.960  1.00  0.00     0.007 A 
ATOM     12  C   UNL     1     -48.796  32.781  25.991  1.00  0.00    -0.049 A 
ATOM     13  H   UNL     1     -45.433  33.991  24.524  1.00  0.00     0.069 H 
ATOM     14  C   UNL     1     -48.158  33.881  26.560  1.00  0.00    -0.019 A 
ATOM     15  H   UNL     1     -49.746  32.447  26.402  1.00  0.00     0.063 H 
ATOM     16  H   UNL     1     -48.612  34.393  27.406  1.00  0.00     0.066 H 
BRANCH   3  17
ATOM     17  N   UNL     1     -46.398  30.276  21.637  1.00  0.00    -0.370 N 
ATOM     18  H   UNL     1     -45.798  29.515  21.941  1.00  0.00     0.162 HD
BRANCH  17  19
ATOM     19  C   UNL     1     -45.741  31.153  20.673  1.00  0.00     0.013 C 
ATOM     20  H   UNL     1     -44.949  30.637  20.119  1.00  0.00     0.049 H 
ATOM     21  H   UNL     1     -45.243  31.948  21.242  1.00  0.00     0.049 H 
BRANCH  19  22
ATOM     22  C   UNL     1     -46.740  31.802  19.726  1.00  0.00    -0.048 C 
ATOM     23  H   UNL     1     -47.632  32.154  20.254  1.00  0.00     0.025 H 
ATOM     24  H   UNL     1     -46.293  32.663  19.216  1.00  0.00     0.025 H 
ATOM     25  H   UNL     1     -47.060  31.084  18.964  1.00  0.00     0.025 H 
ENDBRANCH  19  22
ENDBRANCH  17  19
ENDBRANCH   3  17
ENDBRANCH   1   2
BRANCH   1  26
ATOM     26  C   UNL     1     -45.628  35.215  27.867  1.00  0.00     0.117 C 
ATOM     27  H   UNL     1     -45.932  34.239  28.262  1.00  0.00     0.073 H 
ATOM     28  H   UNL     1     -44.566  35.126  27.611  1.00  0.00     0.073 H 
BRANCH  26  29
ATOM     29  C   UNL     1     -45.898  36.289  28.923  1.00  0.00     0.123 C 
ATOM     30  O   UNL     1     -44.757  37.164  29.068  1.00  0.00    -0.345 OA
ATOM     31  C   UNL     1     -47.075  37.181  28.552  1.00  0.00     0.119 C 
ATOM     32  H   UNL     1     -46.062  35.823  29.902  1.00  0.00     0.067 H 
ATOM     33  C   UNL     1     -45.257  38.477  29.393  1.00  0.00     0.169 C 
ATOM     34  C   UNL     1     -46.780  38.428  29.357  1.00  0.00     0.173 C 
ATOM     35  H   UNL     1     -47.116  37.398  27.483  1.00  0.00     0.066 H 
ATOM     36  H   UNL     1     -44.925  38.697  30.414  1.00  0.00     0.088 H 
ATOM     37  F   UNL     1     -47.348  39.513  28.785  1.00  0.00    -0.239 F 
ATOM     38  H   UNL     1     -47.189  38.339  30.371  1.00  0.00     0.074 H 
BRANCH  31  39
ATOM     39  O   UNL     1     -48.317  36.586  28.917  1.00  0.00    -0.387 OA
ATOM     40  H   UNL     1     -48.754  37.197  29.541  1.00  0.00     0.211 HD
ENDBRANCH  31  39
BRANCH  33  41
ATOM     41  N   UNL     1     -44.627  39.459  28.523  1.00  0.00    -0.301 N 
ATOM     42  C   UNL     1     -45.096  39.789  27.270  1.00  0.00     0.028 A 
ATOM     43  C   UNL     1     -43.500  40.199  28.793  1.00  0.00     0.149 A 
ATOM     44  C   UNL     1     -44.261  40.750  26.745  1.00  0.00     0.072 A 
ATOM     45  H   UNL     1     -45.981  39.322  26.856  1.00  0.00     0.084 H 
ATOM     46  C   UNL     1     -43.248  41.023  27.700  1.00  0.00     0.080 A 
ATOM     47  N   UNL     1     -42.769  40.135  29.918  1.00  0.00    -0.218 NA
ATOM     48  Cl  UNL     1     -44.419  41.473  25.214  1.00  0.00    -0.082 Cl
ATOM     49  C   UNL     1     -42.131  41.867  27.792  1.00  0.00     0.137 A 
ATOM     50  C   UNL     1     -41.730  40.986  29.890  1.00  0.00     0.120 A 
ATOM     51  N   UNL     1     -41.371  41.825  28.903  1.00  0.00    -0.219 NA
ATOM     52  H   UNL     1     -41.097  40.997  30.773  1.00  0.00     0.106 H 
BRANCH  49  53
ATOM     53  N   UNL     1     -41.738  42.748  26.798  1.00  0.00    -0.383 N 
ATOM     54  H   UNL     1     -40.748  42.680  26.602  1.00  0.00     0.158 HD
ATOM     55  H   UNL     1     -42.366  42.832  26.009  1.00  0.00     0.158 HD
ENDBRANCH  49  53
ENDBRANCH  33  41
ENDBRANCH  26  29
ENDBRANCH   1  26
TORSDOF 9
ENDMDL
MODEL 2
REMARK VINA RESULT:      -9.9      1.661      2.542
REMARK SMILES CCNc1ccc2ccc(OC[C@H]3O[C@@H](n4cc(Cl)c5c(N)ncnc54)[C@@H](F)[C@@H]3O)cc2n1
REMARK SMILES IDX 11 1 10 2 4 3 5 4 33 5 6 6 32 8 7 9 31 11 8 12 9 14 3 17
REMARK SMILES IDX 2 19 1 22 12 26 13 29 14 30 29 31 15 33 27 34 28 37 30 39
REMARK SMILES IDX 16 41 17 42 26 43 18 44 20 46 25 47 19 48 21 49 24 50 23 51
REMARK SMILES IDX 22 53
REMARK H PARENT 5 7 6 10 31 13 8 15 9 16 3 18 2 20 2 21 1 23 1 24 1 25 12 27
REMARK H PARENT 12 28 13 32 29 35 15 36 27 38 30 40 17 45 24 52 22 54 22 55
REMARK Flexibility Score: inf
ROOT
ATOM      1  O   UNL     1     -47.309  34.375  27.118  1.00  0.00    -0.491 OA
ENDROOT
BRANCH   1   2
ATOM      2  C   UNL     1     -47.319  33.355  26.208  1.00  0.00     0.121 A 
ATOM      3  C   UNL     1     -48.946  29.326  24.262  1.00  0.00     0.126 A 
ATOM      4  C   UNL     1     -47.951  29.339  23.290  1.00  0.00    -0.019 A 
ATOM      5  N   UNL     1     -49.017  30.285  25.206  1.00  0.00    -0.231 NA
ATOM      6  C   UNL     1     -47.024  30.375  23.272  1.00  0.00    -0.049 A 
ATOM      7  H   UNL     1     -47.887  28.540  22.557  1.00  0.00     0.066 H 
ATOM      8  C   UNL     1     -48.128  31.294  25.196  1.00  0.00     0.076 A 
ATOM      9  C   UNL     1     -47.102  31.382  24.237  1.00  0.00     0.001 A 
ATOM     10  H   UNL     1     -46.247  30.386  22.513  1.00  0.00     0.063 H 
ATOM     11  C   UNL     1     -48.216  32.285  26.168  1.00  0.00     0.007 A 
ATOM     12  C   UNL     1     -46.194  32.450  24.268  1.00  0.00    -0.049 A 
ATOM     13  H   UNL     1     -49.013  32.181  26.897  1.00  0.00     0.069 H 
ATOM     14  C   UNL     1     -46.307  33.430  25.253  1.00  0.00    -0.019 A 
ATOM     15  H   UNL     1     -45.397  32.526  23.532  1.00  0.00     0.063 H 
ATOM     16  H   UNL     1     -45.600  34.256  25.278  1.00  0.00     0.066 H 
BRANCH   3  17
ATOM     17  N   UNL     1     -49.842  28.246  24.270  1.00  0.00    -0.370 N 
ATOM     18  H   UNL     1     -50.756  28.560  24.581  1.00  0.00     0.162 HD
BRANCH  17  19
ATOM     19  C   UNL     1     -49.402  27.041  24.967  1.00  0.00     0.013 C 
ATOM     20  H   UNL     1     -48.385  27.143  25.365  1.00  0.00     0.049 H 
ATOM     21  H   UNL     1     -49.354  26.234  24.226  1.00  0.00     0.049 H 
BRANCH  19  22
ATOM     22  C   UNL     1     -50.380  26.628  26.057  1.00  0.00    -0.048 C 
ATOM     23  H   UNL     1     -51.224  26.061  25.652  1.00  0.00     0.025 H 
ATOM     24  H   UNL     1     -49.886  26.000  26.808  1.00  0.00     0.025 H 
ATOM     25  H   UNL     1     -50.778  27.513  26.562  1.00  0.00     0.025 H 
ENDBRANCH  19  22
ENDBRANCH  17  19
ENDBRANCH   3  17
ENDBRANCH   1   2
BRANCH   1  26
ATOM     26  C   UNL     1     -46.174  35.249  27.161  1.00  0.00     0.117 C 
ATOM     27  H   UNL     1     -45.298  34.590  27.187  1.00  0.00     0.073 H 
ATOM     28  H   UNL     1     -46.089  35.838  26.240  1.00  0.00     0.073 H 
BRANCH  26  29
ATOM     29  C   UNL     1     -46.186  36.114  28.423  1.00  0.00     0.123 C 
ATOM     30  O   UNL     1     -44.957  36.865  28.541  1.00  0.00    -0.345 OA
ATOM     31  C   UNL     1     -47.313  37.138  28.410  1.00  0.00     0.119 C 
ATOM     32  H   UNL     1     -46.253  35.480  29.314  1.00  0.00     0.067 H 
ATOM     33  C   UNL     1     -45.278  38.122  29.173  1.00  0.00     0.169 C 
ATOM     34  C   UNL     1     -46.787  38.183  29.370  1.00  0.00     0.173 C 
ATOM     35  H   UNL     1     -47.485  37.560  27.417  1.00  0.00     0.066 H 
ATOM     36  H   UNL     1     -44.783  38.117  30.152  1.00  0.00     0.088 H 
ATOM     37  F   UNL     1     -47.324  39.395  29.100  1.00  0.00    -0.239 F 
ATOM     38  H   UNL     1     -47.054  37.928  30.403  1.00  0.00     0.074 H 
BRANCH  31  39
ATOM     39  O   UNL     1     -48.542  36.569  28.853  1.00  0.00    -0.387 OA
ATOM     40  H   UNL     1     -48.633  35.705  28.409  1.00  0.00     0.211 HD
ENDBRANCH  31  39
BRANCH  33  41
ATOM     41  N   UNL     1     -44.687  39.208  28.406  1.00  0.00    -0.301 N 
ATOM     42  C   UNL     1     -45.131  39.602  27.163  1.00  0.00     0.028 A 
ATOM     43  C   UNL     1     -43.625  39.999  28.778  1.00  0.00     0.149 A 
ATOM     44  C   UNL     1     -44.347  40.654  26.746  1.00  0.00     0.072 A 
ATOM     45  H   UNL     1     -45.965  39.110  26.679  1.00  0.00     0.084 H 
ATOM     46  C   UNL     1     -43.392  40.921  27.761  1.00  0.00     0.080 A 
ATOM     47  N   UNL     1     -42.933  39.897  29.925  1.00  0.00    -0.218 NA
ATOM     48  Cl  UNL     1     -44.499  41.482  25.269  1.00  0.00    -0.082 Cl
ATOM     49  C   UNL     1     -42.340  41.828  27.963  1.00  0.00     0.137 A 
ATOM     50  C   UNL     1     -41.956  40.816  30.004  1.00  0.00     0.120 A 
ATOM     51  N   UNL     1     -41.621  41.752  29.099  1.00  0.00    -0.219 NA
ATOM     52  H   UNL     1     -41.359  40.801  30.911  1.00  0.00     0.106 H 
BRANCH  49  53
ATOM     53  N   UNL     1     -41.974  42.808  27.054  1.00  0.00    -0.383 N 
ATOM     54  H   UNL     1     -41.532  42.416  26.234  1.00  0.00     0.158 HD
ATOM     55  H   UNL     1     -42.645  43.552  26.914  1.00  0.00     0.158 HD
ENDBRANCH  49  53
ENDBRANCH  33  41
ENDBRANCH  26  29
ENDBRANCH   1  26
TORSDOF 9
ENDMDL
MODEL 3
REMARK VINA RESULT:      -9.3      2.501      3.633
REMARK SMILES CCNc1ccc2ccc(OC[C@H]3O[C@@H](n4cc(Cl)c5c(N)ncnc54)[C@@H](F)[C@@H]3O)cc2n1
REMARK SMILES IDX 11 1 10 2 4 3 5 4 33 5 6 6 32 8 7 9 31 11 8 12 9 14 3 17
REMARK SMILES IDX 2 19 1 22 12 26 13 29 14 30 29 31 15 33 27 34 28 37 30 39
REMARK SMILES IDX 16 41 17 42 26 43 18 44 20 46 25 47 19 48 21 49 24 50 23 51
REMARK SMILES IDX 22 53
REMARK H PARENT 5 7 6 10 31 13 8 15 9 16 3 18 2 20 2 21 1 23 1 24 1 25 12 27
REMARK H PARENT 12 28 13 32 29 35 15 36 27 38 30 40 17 45 24 52 22 54 22 55
REMARK Flexibility Score: inf
ROOT
ATOM      1  O   UNL     1     -47.144  37.962  27.383  1.00  0.00    -0.491 OA
ENDROOT
BRANCH   1   2
ATOM      2  C   UNL     1     -47.451  36.682  27.013  1.00  0.00     0.121 A 
ATOM      3  C   UNL     1     -46.605  32.454  24.995  1.00  0.00     0.126 A 
ATOM      4  C   UNL     1     -47.875  31.991  25.321  1.00  0.00    -0.019 A 
ATOM      5  N   UNL     1     -46.209  33.703  25.312  1.00  0.00    -0.231 NA
ATOM      6  C   UNL     1     -48.750  32.822  26.013  1.00  0.00    -0.049 A 
ATOM      7  H   UNL     1     -48.191  30.995  25.028  1.00  0.00     0.066 H 
ATOM      8  C   UNL     1     -47.046  34.513  25.984  1.00  0.00     0.076 A 
ATOM      9  C   UNL     1     -48.341  34.111  26.361  1.00  0.00     0.001 A 
ATOM     10  H   UNL     1     -49.742  32.461  26.269  1.00  0.00     0.063 H 
ATOM     11  C   UNL     1     -46.625  35.796  26.318  1.00  0.00     0.007 A 
ATOM     12  C   UNL     1     -49.181  34.992  27.058  1.00  0.00    -0.049 A 
ATOM     13  H   UNL     1     -45.625  36.076  26.003  1.00  0.00     0.069 H 
ATOM     14  C   UNL     1     -48.733  36.272  27.379  1.00  0.00    -0.019 A 
ATOM     15  H   UNL     1     -50.184  34.692  27.351  1.00  0.00     0.063 H 
ATOM     16  H   UNL     1     -49.386  36.956  27.916  1.00  0.00     0.066 H 
BRANCH   3  17
ATOM     17  N   UNL     1     -45.763  31.600  24.265  1.00  0.00    -0.370 N 
ATOM     18  H   UNL     1     -45.001  32.134  23.859  1.00  0.00     0.162 HD
BRANCH  17  19
ATOM     19  C   UNL     1     -46.409  30.724  23.293  1.00  0.00     0.013 C 
ATOM     20  H   UNL     1     -47.502  30.768  23.361  1.00  0.00     0.049 H 
ATOM     21  H   UNL     1     -46.132  29.694  23.547  1.00  0.00     0.049 H 
BRANCH  19  22
ATOM     22  C   UNL     1     -45.936  31.007  21.874  1.00  0.00    -0.048 C 
ATOM     23  H   UNL     1     -45.574  32.033  21.763  1.00  0.00     0.025 H 
ATOM     24  H   UNL     1     -45.119  30.333  21.593  1.00  0.00     0.025 H 
ATOM     25  H   UNL     1     -46.757  30.859  21.166  1.00  0.00     0.025 H 
ENDBRANCH  19  22
ENDBRANCH  17  19
ENDBRANCH   3  17
ENDBRANCH   1   2
BRANCH   1  26
ATOM     26  C   UNL     1     -46.285  38.165  28.511  1.00  0.00     0.117 C 
ATOM     27  H   UNL     1     -46.783  38.925  29.126  1.00  0.00     0.073 H 
ATOM     28  H   UNL     1     -46.220  37.264  29.131  1.00  0.00     0.073 H 
BRANCH  26  29
ATOM     29  C   UNL     1     -44.915  38.692  28.078  1.00  0.00     0.123 C 
ATOM     30  O   UNL     1     -44.998  39.335  26.787  1.00  0.00    -0.345 OA
ATOM     31  C   UNL     1     -44.367  39.737  29.041  1.00  0.00     0.119 C 
ATOM     32  H   UNL     1     -44.209  37.860  27.970  1.00  0.00     0.067 H 
ATOM     33  C   UNL     1     -44.036  40.409  26.776  1.00  0.00     0.169 C 
ATOM     34  C   UNL     1     -43.395  40.487  28.156  1.00  0.00     0.173 C 
ATOM     35  H   UNL     1     -45.145  40.398  29.429  1.00  0.00     0.066 H 
ATOM     36  H   UNL     1     -43.272  40.140  26.036  1.00  0.00     0.088 H 
ATOM     37  F   UNL     1     -43.217  41.751  28.605  1.00  0.00    -0.239 F 
ATOM     38  H   UNL     1     -42.414  39.997  28.157  1.00  0.00     0.074 H 
BRANCH  31  39
ATOM     39  O   UNL     1     -43.722  39.131  30.158  1.00  0.00    -0.387 OA
ATOM     40  H   UNL     1     -43.358  39.855  30.703  1.00  0.00     0.211 HD
ENDBRANCH  31  39
BRANCH  33  41
ATOM     41  N   UNL     1     -44.679  41.624  26.298  1.00  0.00    -0.301 N 
ATOM     42  C   UNL     1     -46.041  41.828  26.310  1.00  0.00     0.028 A 
ATOM     43  C   UNL     1     -44.060  42.734  25.774  1.00  0.00     0.149 A 
ATOM     44  C   UNL     1     -46.286  43.080  25.794  1.00  0.00     0.072 A 
ATOM     45  H   UNL     1     -46.722  41.075  26.685  1.00  0.00     0.084 H 
ATOM     46  C   UNL     1     -45.040  43.669  25.455  1.00  0.00     0.080 A 
ATOM     47  N   UNL     1     -42.736  42.888  25.601  1.00  0.00    -0.218 NA
ATOM     48  Cl  UNL     1     -47.819  43.790  25.595  1.00  0.00    -0.082 Cl
ATOM     49  C   UNL     1     -44.598  44.883  24.908  1.00  0.00     0.137 A 
ATOM     50  C   UNL     1     -42.436  44.087  25.073  1.00  0.00     0.120 A 
ATOM     51  N   UNL     1     -43.279  45.070  24.715  1.00  0.00    -0.219 NA
ATOM     52  H   UNL     1     -41.380  44.287  24.913  1.00  0.00     0.106 H 
BRANCH  49  53
ATOM     53  N   UNL     1     -45.439  45.920  24.535  1.00  0.00    -0.383 N 
ATOM     54  H   UNL     1     -46.360  45.586  24.280  1.00  0.00     0.158 HD
ATOM     55  H   UNL     1     -45.385  46.757  25.100  1.00  0.00     0.158 HD
ENDBRANCH  49  53
ENDBRANCH  33  41
ENDBRANCH  26  29
ENDBRANCH   1  26
TORSDOF 9
ENDMDL
MODEL 4
REMARK VINA RESULT:      -8.9      3.859     10.725
REMARK SMILES CCNc1ccc2ccc(OC[C@H]3O[C@@H](n4cc(Cl)c5c(N)ncnc54)[C@@H](F)[C@@H]3O)cc2n1
REMARK SMILES IDX 11 1 10 2 4 3 5 4 33 5 6 6 32 8 7 9 31 11 8 12 9 14 3 17
REMARK SMILES IDX 2 19 1 22 12 26 13 29 14 30 29 31 15 33 27 34 28 37 30 39
REMARK SMILES IDX 16 41 17 42 26 43 18 44 20 46 25 47 19 48 21 49 24 50 23 51
REMARK SMILES IDX 22 53
REMARK H PARENT 5 7 6 10 31 13 8 15 9 16 3 18 2 20 2 21 1 23 1 24 1 25 12 27
REMARK H PARENT 12 28 13 32 29 35 15 36 27 38 30 40 17 45 24 52 22 54 22 55
REMARK Flexibility Score: inf
ROOT
ATOM      1  O   UNL     1     -48.005  34.936  27.874  1.00  0.00    -0.491 OA
ENDROOT
BRANCH   1   2
ATOM      2  C   UNL     1     -47.185  36.027  27.962  1.00  0.00     0.121 A 
ATOM      3  C   UNL     1     -45.444  40.239  26.586  1.00  0.00     0.126 A 
ATOM      4  C   UNL     1     -44.526  40.253  27.630  1.00  0.00    -0.019 A 
ATOM      5  N   UNL     1     -46.292  39.206  26.411  1.00  0.00    -0.231 NA
ATOM      6  C   UNL     1     -44.496  39.194  28.531  1.00  0.00    -0.049 A 
ATOM      7  H   UNL     1     -43.827  41.077  27.737  1.00  0.00     0.066 H 
ATOM      8  C   UNL     1     -46.274  38.178  27.278  1.00  0.00     0.076 A 
ATOM      9  C   UNL     1     -45.384  38.128  28.366  1.00  0.00     0.001 A 
ATOM     10  H   UNL     1     -43.779  39.204  29.347  1.00  0.00     0.063 H 
ATOM     11  C   UNL     1     -47.161  37.122  27.096  1.00  0.00     0.007 A 
ATOM     12  C   UNL     1     -45.397  37.033  29.242  1.00  0.00    -0.049 A 
ATOM     13  H   UNL     1     -47.827  37.188  26.242  1.00  0.00     0.069 H 
ATOM     14  C   UNL     1     -46.296  35.989  29.035  1.00  0.00    -0.019 A 
ATOM     15  H   UNL     1     -44.711  36.984  30.084  1.00  0.00     0.063 H 
ATOM     16  H   UNL     1     -46.304  35.139  29.714  1.00  0.00     0.066 H 
BRANCH   3  17
ATOM     17  N   UNL     1     -45.422  41.308  25.677  1.00  0.00    -0.370 N 
ATOM     18  H   UNL     1     -45.853  41.025  24.803  1.00  0.00     0.162 HD
BRANCH  17  19
ATOM     19  C   UNL     1     -44.133  41.963  25.475  1.00  0.00     0.013 C 
ATOM     20  H   UNL     1     -43.300  41.250  25.498  1.00  0.00     0.049 H 
ATOM     21  H   UNL     1     -43.973  42.639  26.324  1.00  0.00     0.049 H 
BRANCH  19  22
ATOM     22  C   UNL     1     -44.112  42.790  24.198  1.00  0.00    -0.048 C 
ATOM     23  H   UNL     1     -43.111  42.834  23.758  1.00  0.00     0.025 H 
ATOM     24  H   UNL     1     -44.788  42.366  23.447  1.00  0.00     0.025 H 
ATOM     25  H   UNL     1     -44.435  43.815  24.407  1.00  0.00     0.025 H 
ENDBRANCH  19  22
ENDBRANCH  17  19
ENDBRANCH   3  17
ENDBRANCH   1   2
BRANCH   1  26
ATOM     26  C   UNL     1     -48.342  34.431  26.576  1.00  0.00     0.117 C 
ATOM     27  H   UNL     1     -49.438  34.426  26.539  1.00  0.00     0.073 H 
ATOM     28  H   UNL     1     -48.010  35.112  25.784  1.00  0.00     0.073 H 
BRANCH  26  29
ATOM     29  C   UNL     1     -47.829  33.002  26.386  1.00  0.00     0.123 C 
ATOM     30  O   UNL     1     -48.930  32.072  26.277  1.00  0.00    -0.345 OA
ATOM     31  C   UNL     1     -47.012  32.847  25.110  1.00  0.00     0.119 C 
ATOM     32  H   UNL     1     -47.242  32.693  27.259  1.00  0.00     0.067 H 
ATOM     33  C   UNL     1     -48.519  31.017  25.384  1.00  0.00     0.169 C 
ATOM     34  C   UNL     1     -47.135  31.361  24.848  1.00  0.00     0.173 C 
ATOM     35  H   UNL     1     -47.414  33.432  24.281  1.00  0.00     0.066 H 
ATOM     36  H   UNL     1     -48.458  30.102  25.985  1.00  0.00     0.088 H 
ATOM     37  F   UNL     1     -46.977  31.093  23.532  1.00  0.00    -0.239 F 
ATOM     38  H   UNL     1     -46.360  30.808  25.391  1.00  0.00     0.074 H 
BRANCH  31  39
ATOM     39  O   UNL     1     -45.659  33.249  25.304  1.00  0.00    -0.387 OA
ATOM     40  H   UNL     1     -45.175  32.470  25.640  1.00  0.00     0.211 HD
ENDBRANCH  31  39
BRANCH  33  41
ATOM     41  N   UNL     1     -49.557  30.802  24.387  1.00  0.00    -0.301 N 
ATOM     42  C   UNL     1     -50.372  31.799  23.898  1.00  0.00     0.028 A 
ATOM     43  C   UNL     1     -49.888  29.611  23.785  1.00  0.00     0.149 A 
ATOM     44  C   UNL     1     -51.223  31.235  22.974  1.00  0.00     0.072 A 
ATOM     45  H   UNL     1     -50.281  32.822  24.240  1.00  0.00     0.084 H 
ATOM     46  C   UNL     1     -50.925  29.851  22.888  1.00  0.00     0.080 A 
ATOM     47  N   UNL     1     -49.309  28.422  24.022  1.00  0.00    -0.218 NA
ATOM     48  Cl  UNL     1     -52.424  32.061  22.098  1.00  0.00    -0.082 Cl
ATOM     49  C   UNL     1     -51.400  28.746  22.164  1.00  0.00     0.137 A 
ATOM     50  C   UNL     1     -49.846  27.444  23.273  1.00  0.00     0.120 A 
ATOM     51  N   UNL     1     -50.847  27.537  22.381  1.00  0.00    -0.219 NA
ATOM     52  H   UNL     1     -49.420  26.454  23.404  1.00  0.00     0.106 H 
BRANCH  49  53
ATOM     53  N   UNL     1     -52.424  28.809  21.233  1.00  0.00    -0.383 N 
ATOM     54  H   UNL     1     -53.245  29.268  21.606  1.00  0.00     0.158 HD
ATOM     55  H   UNL     1     -52.148  29.038  20.288  1.00  0.00     0.158 HD
ENDBRANCH  49  53
ENDBRANCH  33  41
ENDBRANCH  26  29
ENDBRANCH   1  26
TORSDOF 9
ENDMDL
MODEL 5
REMARK VINA RESULT:      -8.9      1.648      2.239
REMARK SMILES CCNc1ccc2ccc(OC[C@H]3O[C@@H](n4cc(Cl)c5c(N)ncnc54)[C@@H](F)[C@@H]3O)cc2n1
REMARK SMILES IDX 11 1 10 2 4 3 5 4 33 5 6 6 32 8 7 9 31 11 8 12 9 14 3 17
REMARK SMILES IDX 2 19 1 22 12 26 13 29 14 30 29 31 15 33 27 34 28 37 30 39
REMARK SMILES IDX 16 41 17 42 26 43 18 44 20 46 25 47 19 48 21 49 24 50 23 51
REMARK SMILES IDX 22 53
REMARK H PARENT 5 7 6 10 31 13 8 15 9 16 3 18 2 20 2 21 1 23 1 24 1 25 12 27
REMARK H PARENT 12 28 13 32 29 35 15 36 27 38 30 40 17 45 24 52 22 54 22 55
REMARK Flexibility Score: inf
ROOT
ATOM      1  O   UNL     1     -45.976  34.398  26.233  1.00  0.00    -0.491 OA
ENDROOT
BRANCH   1   2
ATOM      2  C   UNL     1     -46.865  33.522  25.675  1.00  0.00     0.121 A 
ATOM      3  C   UNL     1     -48.321  30.296  22.491  1.00  0.00     0.126 A 
ATOM      4  C   UNL     1     -49.571  30.199  23.092  1.00  0.00    -0.019 A 
ATOM      5  N   UNL     1     -47.378  31.135  22.964  1.00  0.00    -0.231 NA
ATOM      6  C   UNL     1     -49.850  30.961  24.222  1.00  0.00    -0.049 A 
ATOM      7  H   UNL     1     -50.331  29.543  22.678  1.00  0.00     0.066 H 
ATOM      8  C   UNL     1     -47.636  31.875  24.057  1.00  0.00     0.076 A 
ATOM      9  C   UNL     1     -48.872  31.819  24.728  1.00  0.00     0.001 A 
ATOM     10  H   UNL     1     -50.826  30.885  24.692  1.00  0.00     0.063 H 
ATOM     11  C   UNL     1     -46.653  32.729  24.545  1.00  0.00     0.007 A 
ATOM     12  C   UNL     1     -49.097  32.612  25.862  1.00  0.00    -0.049 A 
ATOM     13  H   UNL     1     -45.716  32.754  23.999  1.00  0.00     0.069 H 
ATOM     14  C   UNL     1     -48.094  33.459  26.329  1.00  0.00    -0.019 A 
ATOM     15  H   UNL     1     -50.050  32.579  26.386  1.00  0.00     0.063 H 
ATOM     16  H   UNL     1     -48.272  34.077  27.207  1.00  0.00     0.066 H 
BRANCH   3  17
ATOM     17  N   UNL     1     -48.088  29.538  21.333  1.00  0.00    -0.370 N 
ATOM     18  H   UNL     1     -47.109  29.603  21.071  1.00  0.00     0.162 HD
BRANCH  17  19
ATOM     19  C   UNL     1     -48.983  29.782  20.206  1.00  0.00     0.013 C 
ATOM     20  H   UNL     1     -50.038  29.706  20.493  1.00  0.00     0.049 H 
ATOM     21  H   UNL     1     -48.813  28.982  19.475  1.00  0.00     0.049 H 
BRANCH  19  22
ATOM     22  C   UNL     1     -48.692  31.113  19.529  1.00  0.00    -0.048 C 
ATOM     23  H   UNL     1     -48.859  31.958  20.204  1.00  0.00     0.025 H 
ATOM     24  H   UNL     1     -47.651  31.159  19.188  1.00  0.00     0.025 H 
ATOM     25  H   UNL     1     -49.341  31.243  18.657  1.00  0.00     0.025 H 
ENDBRANCH  19  22
ENDBRANCH  17  19
ENDBRANCH   3  17
ENDBRANCH   1   2
BRANCH   1  26
ATOM     26  C   UNL     1     -46.442  35.694  26.629  1.00  0.00     0.117 C 
ATOM     27  H   UNL     1     -45.844  36.409  26.051  1.00  0.00     0.073 H 
ATOM     28  H   UNL     1     -47.484  35.852  26.330  1.00  0.00     0.073 H 
BRANCH  26  29
ATOM     29  C   UNL     1     -46.207  35.937  28.122  1.00  0.00     0.123 C 
ATOM     30  O   UNL     1     -44.887  36.478  28.351  1.00  0.00    -0.345 OA
ATOM     31  C   UNL     1     -47.189  36.945  28.703  1.00  0.00     0.119 C 
ATOM     32  H   UNL     1     -46.258  34.990  28.670  1.00  0.00     0.067 H 
ATOM     33  C   UNL     1     -44.974  37.364  29.486  1.00  0.00     0.169 C 
ATOM     34  C   UNL     1     -46.433  37.441  29.918  1.00  0.00     0.173 C 
ATOM     35  H   UNL     1     -47.412  37.760  28.013  1.00  0.00     0.066 H 
ATOM     36  H   UNL     1     -44.382  36.908  30.288  1.00  0.00     0.088 H 
ATOM     37  F   UNL     1     -46.837  38.686  30.257  1.00  0.00    -0.239 F 
ATOM     38  H   UNL     1     -46.618  36.789  30.780  1.00  0.00     0.074 H 
BRANCH  31  39
ATOM     39  O   UNL     1     -48.425  36.329  29.053  1.00  0.00    -0.387 OA
ATOM     40  H   UNL     1     -48.319  35.370  28.901  1.00  0.00     0.211 HD
ENDBRANCH  31  39
BRANCH  33  41
ATOM     41  N   UNL     1     -44.336  38.630  29.156  1.00  0.00    -0.301 N 
ATOM     42  C   UNL     1     -43.322  39.195  29.898  1.00  0.00     0.028 A 
ATOM     43  C   UNL     1     -44.623  39.445  28.087  1.00  0.00     0.149 A 
ATOM     44  C   UNL     1     -42.960  40.376  29.290  1.00  0.00     0.072 A 
ATOM     45  H   UNL     1     -42.938  38.715  30.789  1.00  0.00     0.084 H 
ATOM     46  C   UNL     1     -43.772  40.546  28.138  1.00  0.00     0.080 A 
ATOM     47  N   UNL     1     -45.562  39.217  27.154  1.00  0.00    -0.218 NA
ATOM     48  Cl  UNL     1     -41.754  41.445  29.834  1.00  0.00    -0.082 Cl
ATOM     49  C   UNL     1     -43.910  41.497  27.116  1.00  0.00     0.137 A 
ATOM     50  C   UNL     1     -45.600  40.192  26.231  1.00  0.00     0.120 A 
ATOM     51  N   UNL     1     -44.847  41.304  26.167  1.00  0.00    -0.219 NA
ATOM     52  H   UNL     1     -46.331  40.071  25.437  1.00  0.00     0.106 H 
BRANCH  49  53
ATOM     53  N   UNL     1     -43.146  42.648  27.017  1.00  0.00    -0.383 N 
ATOM     54  H   UNL     1     -43.684  43.478  27.234  1.00  0.00     0.158 HD
ATOM     55  H   UNL     1     -42.208  42.588  27.389  1.00  0.00     0.158 HD
ENDBRANCH  49  53
ENDBRANCH  33  41
ENDBRANCH  26  29
ENDBRANCH   1  26
TORSDOF 9
ENDMDL
MODEL 6
REMARK VINA RESULT:      -8.8      2.899      4.282
REMARK SMILES CCNc1ccc2ccc(OC[C@H]3O[C@@H](n4cc(Cl)c5c(N)ncnc54)[C@@H](F)[C@@H]3O)cc2n1
REMARK SMILES IDX 11 1 10 2 4 3 5 4 33 5 6 6 32 8 7 9 31 11 8 12 9 14 3 17
REMARK SMILES IDX 2 19 1 22 12 26 13 29 14 30 29 31 15 33 27 34 28 37 30 39
REMARK SMILES IDX 16 41 17 42 26 43 18 44 20 46 25 47 19 48 21 49 24 50 23 51
REMARK SMILES IDX 22 53
REMARK H PARENT 5 7 6 10 31 13 8 15 9 16 3 18 2 20 2 21 1 23 1 24 1 25 12 27
REMARK H PARENT 12 28 13 32 29 35 15 36 27 38 30 40 17 45 24 52 22 54 22 55
REMARK Flexibility Score: inf
ROOT
ATOM      1  O   UNL     1     -46.904  38.443  27.619  1.00  0.00    -0.491 OA
ENDROOT
BRANCH   1   2
ATOM      2  C   UNL     1     -47.274  37.177  27.259  1.00  0.00     0.121 A 
ATOM      3  C   UNL     1     -46.608  32.864  25.357  1.00  0.00     0.126 A 
ATOM      4  C   UNL     1     -47.917  32.487  25.637  1.00  0.00    -0.019 A 
ATOM      5  N   UNL     1     -46.149  34.092  25.668  1.00  0.00    -0.231 NA
ATOM      6  C   UNL     1     -48.767  33.384  26.275  1.00  0.00    -0.049 A 
ATOM      7  H   UNL     1     -48.281  31.506  25.349  1.00  0.00     0.066 H 
ATOM      8  C   UNL     1     -46.961  34.967  26.289  1.00  0.00     0.076 A 
ATOM      9  C   UNL     1     -48.293  34.652  26.617  1.00  0.00     0.001 A 
ATOM     10  H   UNL     1     -49.789  33.090  26.495  1.00  0.00     0.063 H 
ATOM     11  C   UNL     1     -46.476  36.228  26.617  1.00  0.00     0.007 A 
ATOM     12  C   UNL     1     -49.105  35.597  27.261  1.00  0.00    -0.049 A 
ATOM     13  H   UNL     1     -45.448  36.440  26.341  1.00  0.00     0.069 H 
ATOM     14  C   UNL     1     -48.592  36.854  27.577  1.00  0.00    -0.019 A 
ATOM     15  H   UNL     1     -50.136  35.365  27.516  1.00  0.00     0.063 H 
ATOM     16  H   UNL     1     -49.224  37.587  28.073  1.00  0.00     0.066 H 
BRANCH   3  17
ATOM     17  N   UNL     1     -45.790  31.946  24.680  1.00  0.00    -0.370 N 
ATOM     18  H   UNL     1     -45.004  32.430  24.258  1.00  0.00     0.162 HD
BRANCH  17  19
ATOM     19  C   UNL     1     -46.458  31.048  23.743  1.00  0.00     0.013 C 
ATOM     20  H   UNL     1     -47.534  31.246  23.678  1.00  0.00     0.049 H 
ATOM     21  H   UNL     1     -46.363  30.030  24.141  1.00  0.00     0.049 H 
BRANCH  19  22
ATOM     22  C   UNL     1     -45.809  31.082  22.367  1.00  0.00    -0.048 C 
ATOM     23  H   UNL     1     -46.437  30.603  21.609  1.00  0.00     0.025 H 
ATOM     24  H   UNL     1     -45.627  32.114  22.045  1.00  0.00     0.025 H 
ATOM     25  H   UNL     1     -44.849  30.558  22.389  1.00  0.00     0.025 H 
ENDBRANCH  19  22
ENDBRANCH  17  19
ENDBRANCH   3  17
ENDBRANCH   1   2
BRANCH   1  26
ATOM     26  C   UNL     1     -45.905  38.607  28.633  1.00  0.00     0.117 C 
ATOM     27  H   UNL     1     -46.302  39.368  29.315  1.00  0.00     0.073 H 
ATOM     28  H   UNL     1     -45.786  37.694  29.227  1.00  0.00     0.073 H 
BRANCH  26  29
ATOM     29  C   UNL     1     -44.586  39.107  28.038  1.00  0.00     0.123 C 
ATOM     30  O   UNL     1     -44.788  39.613  26.699  1.00  0.00    -0.345 OA
ATOM     31  C   UNL     1     -43.988  40.253  28.842  1.00  0.00     0.119 C 
ATOM     32  H   UNL     1     -43.872  38.279  27.957  1.00  0.00     0.067 H 
ATOM     33  C   UNL     1     -43.855  40.695  26.501  1.00  0.00     0.169 C 
ATOM     34  C   UNL     1     -43.108  40.923  27.810  1.00  0.00     0.173 C 
ATOM     35  H   UNL     1     -44.747  40.939  29.224  1.00  0.00     0.066 H 
ATOM     36  H   UNL     1     -43.147  40.363  25.732  1.00  0.00     0.088 H 
ATOM     37  F   UNL     1     -42.924  42.229  28.112  1.00  0.00    -0.239 F 
ATOM     38  H   UNL     1     -42.119  40.451  27.780  1.00  0.00     0.074 H 
BRANCH  31  39
ATOM     39  O   UNL     1     -43.241  39.775  29.958  1.00  0.00    -0.387 OA
ATOM     40  H   UNL     1     -43.685  38.965  30.272  1.00  0.00     0.211 HD
ENDBRANCH  31  39
BRANCH  33  41
ATOM     41  N   UNL     1     -44.562  41.844  25.957  1.00  0.00    -0.301 N 
ATOM     42  C   UNL     1     -43.970  42.812  25.176  1.00  0.00     0.028 A 
ATOM     43  C   UNL     1     -45.893  42.148  26.123  1.00  0.00     0.149 A 
ATOM     44  C   UNL     1     -44.936  43.733  24.839  1.00  0.00     0.072 A 
ATOM     45  H   UNL     1     -42.919  42.766  24.920  1.00  0.00     0.084 H 
ATOM     46  C   UNL     1     -46.160  43.324  25.427  1.00  0.00     0.080 A 
ATOM     47  N   UNL     1     -46.781  41.432  26.833  1.00  0.00    -0.218 NA
ATOM     48  Cl  UNL     1     -44.693  45.122  23.888  1.00  0.00    -0.082 Cl
ATOM     49  C   UNL     1     -47.481  43.795  25.472  1.00  0.00     0.137 A 
ATOM     50  C   UNL     1     -48.007  41.980  26.801  1.00  0.00     0.120 A 
ATOM     51  N   UNL     1     -48.397  43.107  26.180  1.00  0.00    -0.219 NA
ATOM     52  H   UNL     1     -48.781  41.449  27.347  1.00  0.00     0.106 H 
BRANCH  49  53
ATOM     53  N   UNL     1     -47.917  44.947  24.837  1.00  0.00    -0.383 N 
ATOM     54  H   UNL     1     -48.489  44.739  24.029  1.00  0.00     0.158 HD
ATOM     55  H   UNL     1     -48.219  45.698  25.444  1.00  0.00     0.158 HD
ENDBRANCH  49  53
ENDBRANCH  33  41
ENDBRANCH  26  29
ENDBRANCH   1  26
TORSDOF 9
ENDMDL
MODEL 7
REMARK VINA RESULT:      -8.7      3.672      5.419
REMARK SMILES CCNc1ccc2ccc(OC[C@H]3O[C@@H](n4cc(Cl)c5c(N)ncnc54)[C@@H](F)[C@@H]3O)cc2n1
REMARK SMILES IDX 11 1 10 2 4 3 5 4 33 5 6 6 32 8 7 9 31 11 8 12 9 14 3 17
REMARK SMILES IDX 2 19 1 22 12 26 13 29 14 30 29 31 15 33 27 34 28 37 30 39
REMARK SMILES IDX 16 41 17 42 26 43 18 44 20 46 25 47 19 48 21 49 24 50 23 51
REMARK SMILES IDX 22 53
REMARK H PARENT 5 7 6 10 31 13 8 15 9 16 3 18 2 20 2 21 1 23 1 24 1 25 12 27
REMARK H PARENT 12 28 13 32 29 35 15 36 27 38 30 40 17 45 24 52 22 54 22 55
REMARK Flexibility Score: inf
ROOT
ATOM      1  O   UNL     1     -48.341  32.628  25.512  1.00  0.00    -0.491 OA
ENDROOT
BRANCH   1   2
ATOM      2  C   UNL     1     -48.796  31.374  25.215  1.00  0.00     0.121 A 
ATOM      3  C   UNL     1     -49.272  26.685  25.890  1.00  0.00     0.126 A 
ATOM      4  C   UNL     1     -50.048  26.551  24.744  1.00  0.00    -0.019 A 
ATOM      5  N   UNL     1     -48.773  27.879  26.265  1.00  0.00    -0.231 NA
ATOM      6  C   UNL     1     -50.340  27.676  23.979  1.00  0.00    -0.049 A 
ATOM      7  H   UNL     1     -50.414  25.576  24.438  1.00  0.00     0.066 H 
ATOM      8  C   UNL     1     -49.051  28.974  25.534  1.00  0.00     0.076 A 
ATOM      9  C   UNL     1     -49.841  28.920  24.371  1.00  0.00     0.001 A 
ATOM     10  H   UNL     1     -50.946  27.572  23.084  1.00  0.00     0.063 H 
ATOM     11  C   UNL     1     -48.541  30.204  25.935  1.00  0.00     0.007 A 
ATOM     12  C   UNL     1     -50.102  30.087  23.638  1.00  0.00    -0.049 A 
ATOM     13  H   UNL     1     -47.930  30.208  26.831  1.00  0.00     0.069 H 
ATOM     14  C   UNL     1     -49.578  31.306  24.062  1.00  0.00    -0.019 A 
ATOM     15  H   UNL     1     -50.708  30.055  22.736  1.00  0.00     0.063 H 
ATOM     16  H   UNL     1     -49.778  32.210  23.491  1.00  0.00     0.066 H 
BRANCH   3  17
ATOM     17  N   UNL     1     -48.969  25.523  26.618  1.00  0.00    -0.370 N 
ATOM     18  H   UNL     1     -49.136  25.683  27.606  1.00  0.00     0.162 HD
BRANCH  17  19
ATOM     19  C   UNL     1     -47.665  24.920  26.365  1.00  0.00     0.013 C 
ATOM     20  H   UNL     1     -47.519  24.681  25.305  1.00  0.00     0.049 H 
ATOM     21  H   UNL     1     -47.640  23.960  26.895  1.00  0.00     0.049 H 
BRANCH  19  22
ATOM     22  C   UNL     1     -46.529  25.784  26.894  1.00  0.00    -0.048 C 
ATOM     23  H   UNL     1     -45.836  25.208  27.515  1.00  0.00     0.025 H 
ATOM     24  H   UNL     1     -45.953  26.221  26.070  1.00  0.00     0.025 H 
ATOM     25  H   UNL     1     -46.928  26.602  27.501  1.00  0.00     0.025 H 
ENDBRANCH  19  22
ENDBRANCH  17  19
ENDBRANCH   3  17
ENDBRANCH   1   2
BRANCH   1  26
ATOM     26  C   UNL     1     -47.146  33.097  24.875  1.00  0.00     0.117 C 
ATOM     27  H   UNL     1     -46.640  32.198  24.505  1.00  0.00     0.073 H 
ATOM     28  H   UNL     1     -47.376  33.705  23.993  1.00  0.00     0.073 H 
BRANCH  26  29
ATOM     29  C   UNL     1     -46.230  33.813  25.870  1.00  0.00     0.123 C 
ATOM     30  O   UNL     1     -46.398  35.246  25.780  1.00  0.00    -0.345 OA
ATOM     31  C   UNL     1     -46.540  33.437  27.313  1.00  0.00     0.119 C 
ATOM     32  H   UNL     1     -45.181  33.604  25.634  1.00  0.00     0.067 H 
ATOM     33  C   UNL     1     -46.195  35.789  27.101  1.00  0.00     0.169 C 
ATOM     34  C   UNL     1     -45.983  34.628  28.064  1.00  0.00     0.173 C 
ATOM     35  H   UNL     1     -47.609  33.316  27.495  1.00  0.00     0.066 H 
ATOM     36  H   UNL     1     -45.282  36.395  27.056  1.00  0.00     0.088 H 
ATOM     37  F   UNL     1     -46.613  34.782  29.251  1.00  0.00    -0.239 F 
ATOM     38  H   UNL     1     -44.916  34.488  28.274  1.00  0.00     0.074 H 
BRANCH  31  39
ATOM     39  O   UNL     1     -45.900  32.220  27.685  1.00  0.00    -0.387 OA
ATOM     40  H   UNL     1     -46.305  31.930  28.524  1.00  0.00     0.211 HD
ENDBRANCH  31  39
BRANCH  33  41
ATOM     41  N   UNL     1     -47.288  36.695  27.419  1.00  0.00    -0.301 N 
ATOM     42  C   UNL     1     -48.588  36.289  27.626  1.00  0.00     0.028 A 
ATOM     43  C   UNL     1     -47.213  38.060  27.564  1.00  0.00     0.149 A 
ATOM     44  C   UNL     1     -49.341  37.406  27.909  1.00  0.00     0.072 A 
ATOM     45  H   UNL     1     -48.871  35.246  27.560  1.00  0.00     0.084 H 
ATOM     46  C   UNL     1     -48.483  38.535  27.879  1.00  0.00     0.080 A 
ATOM     47  N   UNL     1     -46.104  38.806  27.425  1.00  0.00    -0.218 NA
ATOM     48  Cl  UNL     1     -51.011  37.421  28.233  1.00  0.00    -0.082 Cl
ATOM     49  C   UNL     1     -48.607  39.919  28.074  1.00  0.00     0.137 A 
ATOM     50  C   UNL     1     -46.347  40.110  27.636  1.00  0.00     0.120 A 
ATOM     51  N   UNL     1     -47.518  40.698  27.937  1.00  0.00    -0.219 NA
ATOM     52  H   UNL     1     -45.492  40.775  27.550  1.00  0.00     0.106 H 
BRANCH  49  53
ATOM     53  N   UNL     1     -49.796  40.555  28.393  1.00  0.00    -0.383 N 
ATOM     54  H   UNL     1     -49.833  40.821  29.368  1.00  0.00     0.158 HD
ATOM     55  H   UNL     1     -50.135  41.223  27.713  1.00  0.00     0.158 HD
ENDBRANCH  49  53
ENDBRANCH  33  41
ENDBRANCH  26  29
ENDBRANCH   1  26
TORSDOF 9
ENDMDL
