MODEL 1
REMARK VINA RESULT:     -10.4      0.000      0.000
REMARK SMILES CC(=O)c1cn(-c2cncc(COc3ccc4ccc(N5CCC5)nc4c3)c2)c2ncnc(N)c12
REMARK SMILES IDX 7 1 8 2 9 3 10 4 11 5 28 6 6 10 4 11 5 12 35 13 29 15 33 16
REMARK SMILES IDX 30 17 32 18 31 19 2 21 3 22 1 23 34 27 12 30 13 33 14 34
REMARK SMILES IDX 15 35 27 36 16 37 26 39 17 41 25 43 18 44 20 45 19 46 21 49
REMARK SMILES IDX 22 50 24 51 23 52
REMARK H PARENT 8 7 10 8 28 9 5 14 31 20 1 24 1 25 1 26 34 28 34 29 12 31
REMARK H PARENT 12 32 15 38 27 40 16 42 18 47 19 48 22 53 22 54 24 55 24 56
REMARK H PARENT 23 57 23 58
REMARK Flexibility Score: inf
ROOT
ATOM      1  C   UNL     1     -46.742  33.116  25.918  1.00  0.00     0.066 A 
ATOM      2  C   UNL     1     -46.396  32.538  27.134  1.00  0.00     0.051 A 
ATOM      3  N   UNL     1     -46.164  33.241  28.272  1.00  0.00    -0.262 NA
ATOM      4  C   UNL     1     -46.269  34.584  28.205  1.00  0.00     0.034 A 
ATOM      5  C   UNL     1     -46.590  35.273  27.045  1.00  0.00     0.010 A 
ATOM      6  C   UNL     1     -46.844  34.515  25.890  1.00  0.00    -0.028 A 
ATOM      7  H   UNL     1     -46.303  31.469  27.286  1.00  0.00     0.086 H 
ATOM      8  H   UNL     1     -46.078  35.102  29.142  1.00  0.00     0.084 H 
ATOM      9  H   UNL     1     -47.099  35.053  24.983  1.00  0.00     0.065 H 
ENDROOT
BRANCH   1  10
ATOM     10  N   UNL     1     -46.992  32.327  24.748  1.00  0.00    -0.299 N 
ATOM     11  C   UNL     1     -46.602  31.207  22.806  1.00  0.00     0.049 A 
ATOM     12  C   UNL     1     -46.026  31.945  23.825  1.00  0.00     0.023 A 
ATOM     13  C   UNL     1     -47.989  31.092  23.128  1.00  0.00     0.072 A 
ATOM     14  H   UNL     1     -45.000  32.261  23.934  1.00  0.00     0.083 H 
ATOM     15  C   UNL     1     -48.206  31.804  24.306  1.00  0.00     0.150 A 
ATOM     16  C   UNL     1     -49.108  30.456  22.558  1.00  0.00     0.137 A 
ATOM     17  N   UNL     1     -49.399  31.932  24.920  1.00  0.00    -0.218 NA
ATOM     18  N   UNL     1     -50.311  30.592  23.144  1.00  0.00    -0.219 NA
ATOM     19  C   UNL     1     -50.389  31.306  24.275  1.00  0.00     0.120 A 
ATOM     20  H   UNL     1     -51.376  31.384  24.721  1.00  0.00     0.106 H 
BRANCH  11  21
ATOM     21  C   UNL     1     -45.904  30.681  21.632  1.00  0.00     0.162 C 
ATOM     22  O   UNL     1     -45.321  29.597  21.661  1.00  0.00    -0.294 OA
BRANCH  21  23
ATOM     23  C   UNL     1     -45.936  31.483  20.352  1.00  0.00    -0.001 C 
ATOM     24  H   UNL     1     -46.334  32.482  20.548  1.00  0.00     0.031 H 
ATOM     25  H   UNL     1     -44.932  31.550  19.924  1.00  0.00     0.031 H 
ATOM     26  H   UNL     1     -46.584  30.984  19.625  1.00  0.00     0.031 H 
ENDBRANCH  21  23
ENDBRANCH  11  21
BRANCH  16  27
ATOM     27  N   UNL     1     -49.056  29.669  21.422  1.00  0.00    -0.383 N 
ATOM     28  H   UNL     1     -49.776  28.960  21.405  1.00  0.00     0.158 HD
ATOM     29  H   UNL     1     -48.866  30.162  20.550  1.00  0.00     0.158 HD
ENDBRANCH  16  27
ENDBRANCH   1  10
BRANCH   5  30
ATOM     30  C   UNL     1     -46.725  36.775  27.024  1.00  0.00     0.115 C 
ATOM     31  H   UNL     1     -47.704  37.009  26.591  1.00  0.00     0.076 H 
ATOM     32  H   UNL     1     -45.981  37.244  26.369  1.00  0.00     0.076 H 
BRANCH  30  33
ATOM     33  O   UNL     1     -46.705  37.366  28.325  1.00  0.00    -0.489 OA
BRANCH  33  34
ATOM     34  C   UNL     1     -45.625  38.131  28.673  1.00  0.00     0.122 A 
ATOM     35  C   UNL     1     -44.854  37.978  29.820  1.00  0.00    -0.019 A 
ATOM     36  C   UNL     1     -45.332  39.169  27.782  1.00  0.00     0.007 A 
ATOM     37  C   UNL     1     -43.788  38.849  30.057  1.00  0.00    -0.049 A 
ATOM     38  H   UNL     1     -45.063  37.214  30.560  1.00  0.00     0.066 H 
ATOM     39  C   UNL     1     -44.277  40.046  27.990  1.00  0.00     0.076 A 
ATOM     40  H   UNL     1     -45.944  39.298  26.892  1.00  0.00     0.069 H 
ATOM     41  C   UNL     1     -43.495  39.878  29.148  1.00  0.00     0.001 A 
ATOM     42  H   UNL     1     -43.194  38.727  30.960  1.00  0.00     0.063 H 
ATOM     43  N   UNL     1     -44.034  41.017  27.091  1.00  0.00    -0.231 NA
ATOM     44  C   UNL     1     -42.439  40.768  29.354  1.00  0.00    -0.049 A 
ATOM     45  C   UNL     1     -43.006  41.871  27.296  1.00  0.00     0.129 A 
ATOM     46  C   UNL     1     -42.196  41.772  28.422  1.00  0.00    -0.019 A 
ATOM     47  H   UNL     1     -41.808  40.693  30.235  1.00  0.00     0.063 H 
ATOM     48  H   UNL     1     -41.387  42.476  28.585  1.00  0.00     0.066 H 
BRANCH  45  49
ATOM     49  N   UNL     1     -42.777  42.890  26.353  1.00  0.00    -0.356 N 
ATOM     50  C   UNL     1     -43.616  43.142  25.216  1.00  0.00     0.021 C 
ATOM     51  C   UNL     1     -41.577  43.100  25.597  1.00  0.00     0.021 C 
ATOM     52  C   UNL     1     -42.435  43.921  24.629  1.00  0.00    -0.018 C 
ATOM     53  H   UNL     1     -43.884  42.230  24.669  1.00  0.00     0.049 H 
ATOM     54  H   UNL     1     -44.506  43.730  25.452  1.00  0.00     0.049 H 
ATOM     55  H   UNL     1     -41.166  42.174  25.181  1.00  0.00     0.049 H 
ATOM     56  H   UNL     1     -40.809  43.657  26.139  1.00  0.00     0.049 H 
ATOM     57  H   UNL     1     -42.239  43.762  23.566  1.00  0.00     0.030 H 
ATOM     58  H   UNL     1     -42.454  44.996  24.841  1.00  0.00     0.030 H 
ENDBRANCH  45  49
ENDBRANCH  33  34
ENDBRANCH  30  33
ENDBRANCH   5  30
TORSDOF 8
ENDMDL
MODEL 2
REMARK VINA RESULT:     -10.2      2.627     11.413
REMARK SMILES CC(=O)c1cn(-c2cncc(COc3ccc4ccc(N5CCC5)nc4c3)c2)c2ncnc(N)c12
REMARK SMILES IDX 7 1 8 2 9 3 10 4 11 5 28 6 6 10 4 11 5 12 35 13 29 15 33 16
REMARK SMILES IDX 30 17 32 18 31 19 2 21 3 22 1 23 34 27 12 30 13 33 14 34
REMARK SMILES IDX 15 35 27 36 16 37 26 39 17 41 25 43 18 44 20 45 19 46 21 49
REMARK SMILES IDX 22 50 24 51 23 52
REMARK H PARENT 8 7 10 8 28 9 5 14 31 20 1 24 1 25 1 26 34 28 34 29 12 31
REMARK H PARENT 12 32 15 38 27 40 16 42 18 47 19 48 22 53 22 54 24 55 24 56
REMARK H PARENT 23 57 23 58
REMARK Flexibility Score: inf
ROOT
ATOM      1  C   UNL     1     -45.706  38.026  28.032  1.00  0.00     0.066 A 
ATOM      2  C   UNL     1     -45.327  37.363  29.193  1.00  0.00     0.051 A 
ATOM      3  N   UNL     1     -45.825  36.160  29.580  1.00  0.00    -0.262 NA
ATOM      4  C   UNL     1     -46.750  35.586  28.785  1.00  0.00     0.034 A 
ATOM      5  C   UNL     1     -47.219  36.159  27.612  1.00  0.00     0.010 A 
ATOM      6  C   UNL     1     -46.669  37.394  27.230  1.00  0.00    -0.028 A 
ATOM      7  H   UNL     1     -44.581  37.739  29.884  1.00  0.00     0.086 H 
ATOM      8  H   UNL     1     -47.115  34.623  29.135  1.00  0.00     0.084 H 
ATOM      9  H   UNL     1     -47.032  37.841  26.311  1.00  0.00     0.065 H 
ENDROOT
BRANCH   1  10
ATOM     10  N   UNL     1     -45.139  39.288  27.660  1.00  0.00    -0.299 N 
ATOM     11  C   UNL     1     -44.784  41.205  26.487  1.00  0.00     0.049 A 
ATOM     12  C   UNL     1     -45.548  40.055  26.576  1.00  0.00     0.023 A 
ATOM     13  C   UNL     1     -43.879  41.172  27.592  1.00  0.00     0.072 A 
ATOM     14  H   UNL     1     -46.326  39.708  25.915  1.00  0.00     0.083 H 
ATOM     15  C   UNL     1     -44.100  39.980  28.279  1.00  0.00     0.150 A 
ATOM     16  C   UNL     1     -42.884  42.025  28.106  1.00  0.00     0.137 A 
ATOM     17  N   UNL     1     -43.428  39.591  29.380  1.00  0.00    -0.218 NA
ATOM     18  N   UNL     1     -42.186  41.640  29.191  1.00  0.00    -0.219 NA
ATOM     19  C   UNL     1     -42.492  40.468  29.761  1.00  0.00     0.120 A 
ATOM     20  H   UNL     1     -41.912  40.200  30.639  1.00  0.00     0.106 H 
BRANCH  11  21
ATOM     21  C   UNL     1     -44.892  42.225  25.442  1.00  0.00     0.162 C 
ATOM     22  O   UNL     1     -44.220  42.165  24.412  1.00  0.00    -0.294 OA
BRANCH  21  23
ATOM     23  C   UNL     1     -45.880  43.351  25.631  1.00  0.00    -0.001 C 
ATOM     24  H   UNL     1     -46.844  42.951  25.956  1.00  0.00     0.031 H 
ATOM     25  H   UNL     1     -45.498  44.067  26.365  1.00  0.00     0.031 H 
ATOM     26  H   UNL     1     -46.020  43.877  24.682  1.00  0.00     0.031 H 
ENDBRANCH  21  23
ENDBRANCH  11  21
BRANCH  16  27
ATOM     27  N   UNL     1     -42.575  43.264  27.577  1.00  0.00    -0.383 N 
ATOM     28  H   UNL     1     -42.909  43.378  26.630  1.00  0.00     0.158 HD
ATOM     29  H   UNL     1     -42.686  44.056  28.209  1.00  0.00     0.158 HD
ENDBRANCH  16  27
ENDBRANCH   1  10
BRANCH   5  30
ATOM     30  C   UNL     1     -48.234  35.466  26.739  1.00  0.00     0.115 C 
ATOM     31  H   UNL     1     -47.866  35.515  25.707  1.00  0.00     0.076 H 
ATOM     32  H   UNL     1     -49.200  35.985  26.745  1.00  0.00     0.076 H 
BRANCH  30  33
ATOM     33  O   UNL     1     -48.396  34.079  27.045  1.00  0.00    -0.489 OA
BRANCH  33  34
ATOM     34  C   UNL     1     -47.912  33.158  26.157  1.00  0.00     0.122 A 
ATOM     35  C   UNL     1     -46.934  33.390  25.195  1.00  0.00    -0.019 A 
ATOM     36  C   UNL     1     -48.510  31.896  26.239  1.00  0.00     0.007 A 
ATOM     37  C   UNL     1     -46.550  32.355  24.339  1.00  0.00    -0.049 A 
ATOM     38  H   UNL     1     -46.467  34.359  25.067  1.00  0.00     0.066 H 
ATOM     39  C   UNL     1     -48.145  30.850  25.404  1.00  0.00     0.076 A 
ATOM     40  H   UNL     1     -49.285  31.719  26.982  1.00  0.00     0.069 H 
ATOM     41  C   UNL     1     -47.148  31.089  24.440  1.00  0.00     0.001 A 
ATOM     42  H   UNL     1     -45.790  32.547  23.585  1.00  0.00     0.063 H 
ATOM     43  N   UNL     1     -48.746  29.653  25.538  1.00  0.00    -0.231 NA
ATOM     44  C   UNL     1     -46.789  30.033  23.599  1.00  0.00    -0.049 A 
ATOM     45  C   UNL     1     -48.388  28.636  24.723  1.00  0.00     0.129 A 
ATOM     46  C   UNL     1     -47.417  28.800  23.740  1.00  0.00    -0.019 A 
ATOM     47  H   UNL     1     -46.033  30.162  22.829  1.00  0.00     0.063 H 
ATOM     48  H   UNL     1     -47.154  27.981  23.080  1.00  0.00     0.066 H 
BRANCH  45  49
ATOM     49  N   UNL     1     -49.039  27.396  24.867  1.00  0.00    -0.356 N 
ATOM     50  C   UNL     1     -50.201  27.183  25.683  1.00  0.00     0.021 C 
ATOM     51  C   UNL     1     -48.440  26.161  25.282  1.00  0.00     0.021 C 
ATOM     52  C   UNL     1     -49.857  25.691  25.627  1.00  0.00    -0.018 C 
ATOM     53  H   UNL     1     -50.117  27.638  26.677  1.00  0.00     0.049 H 
ATOM     54  H   UNL     1     -51.134  27.477  25.197  1.00  0.00     0.049 H 
ATOM     55  H   UNL     1     -47.768  26.278  26.140  1.00  0.00     0.049 H 
ATOM     56  H   UNL     1     -47.945  25.620  24.472  1.00  0.00     0.049 H 
ATOM     57  H   UNL     1     -49.962  25.142  26.565  1.00  0.00     0.030 H 
ATOM     58  H   UNL     1     -50.360  25.142  24.823  1.00  0.00     0.030 H 
ENDBRANCH  45  49
ENDBRANCH  33  34
ENDBRANCH  30  33
ENDBRANCH   5  30
TORSDOF 8
ENDMDL
MODEL 3
REMARK VINA RESULT:     -10.2      1.526      2.404
REMARK SMILES CC(=O)c1cn(-c2cncc(COc3ccc4ccc(N5CCC5)nc4c3)c2)c2ncnc(N)c12
REMARK SMILES IDX 7 1 8 2 9 3 10 4 11 5 28 6 6 10 4 11 5 12 35 13 29 15 33 16
REMARK SMILES IDX 30 17 32 18 31 19 2 21 3 22 1 23 34 27 12 30 13 33 14 34
REMARK SMILES IDX 15 35 27 36 16 37 26 39 17 41 25 43 18 44 20 45 19 46 21 49
REMARK SMILES IDX 22 50 24 51 23 52
REMARK H PARENT 8 7 10 8 28 9 5 14 31 20 1 24 1 25 1 26 34 28 34 29 12 31
REMARK H PARENT 12 32 15 38 27 40 16 42 18 47 19 48 22 53 22 54 24 55 24 56
REMARK H PARENT 23 57 23 58
REMARK Flexibility Score: inf
ROOT
ATOM      1  C   UNL     1     -47.223  32.790  26.074  1.00  0.00     0.066 A 
ATOM      2  C   UNL     1     -46.595  32.358  27.236  1.00  0.00     0.051 A 
ATOM      3  N   UNL     1     -46.065  33.190  28.169  1.00  0.00    -0.262 NA
ATOM      4  C   UNL     1     -46.150  34.516  27.939  1.00  0.00     0.034 A 
ATOM      5  C   UNL     1     -46.737  35.065  26.809  1.00  0.00     0.010 A 
ATOM      6  C   UNL     1     -47.294  34.177  25.873  1.00  0.00    -0.028 A 
ATOM      7  H   UNL     1     -46.494  31.315  27.512  1.00  0.00     0.086 H 
ATOM      8  H   UNL     1     -45.715  35.140  28.717  1.00  0.00     0.084 H 
ATOM      9  H   UNL     1     -47.756  34.606  24.990  1.00  0.00     0.065 H 
ENDROOT
BRANCH   1  10
ATOM     10  N   UNL     1     -47.781  31.871  25.127  1.00  0.00    -0.299 N 
ATOM     11  C   UNL     1     -49.213  30.359  24.209  1.00  0.00     0.049 A 
ATOM     12  C   UNL     1     -48.970  31.175  25.301  1.00  0.00     0.023 A 
ATOM     13  C   UNL     1     -48.141  30.587  23.293  1.00  0.00     0.072 A 
ATOM     14  H   UNL     1     -49.543  31.273  26.210  1.00  0.00     0.083 H 
ATOM     15  C   UNL     1     -47.268  31.496  23.887  1.00  0.00     0.150 A 
ATOM     16  C   UNL     1     -47.799  30.128  22.006  1.00  0.00     0.137 A 
ATOM     17  N   UNL     1     -46.130  31.951  23.325  1.00  0.00    -0.218 NA
ATOM     18  N   UNL     1     -46.654  30.553  21.441  1.00  0.00    -0.219 NA
ATOM     19  C   UNL     1     -45.898  31.428  22.116  1.00  0.00     0.120 A 
ATOM     20  H   UNL     1     -44.988  31.753  21.619  1.00  0.00     0.106 H 
BRANCH  11  21
ATOM     21  C   UNL     1     -50.343  29.440  24.062  1.00  0.00     0.162 C 
ATOM     22  O   UNL     1     -51.412  29.807  23.576  1.00  0.00    -0.294 OA
BRANCH  21  23
ATOM     23  C   UNL     1     -50.166  28.003  24.491  1.00  0.00    -0.001 C 
ATOM     24  H   UNL     1     -49.672  27.962  25.466  1.00  0.00     0.031 H 
ATOM     25  H   UNL     1     -51.136  27.500  24.534  1.00  0.00     0.031 H 
ATOM     26  H   UNL     1     -49.542  27.478  23.761  1.00  0.00     0.031 H 
ENDBRANCH  21  23
ENDBRANCH  11  21
BRANCH  16  27
ATOM     27  N   UNL     1     -48.579  29.267  21.258  1.00  0.00    -0.383 N 
ATOM     28  H   UNL     1     -48.987  28.527  21.813  1.00  0.00     0.158 HD
ATOM     29  H   UNL     1     -49.173  29.704  20.555  1.00  0.00     0.158 HD
ENDBRANCH  16  27
ENDBRANCH   1  10
BRANCH   5  30
ATOM     30  C   UNL     1     -46.835  36.556  26.608  1.00  0.00     0.115 C 
ATOM     31  H   UNL     1     -47.762  36.751  26.057  1.00  0.00     0.076 H 
ATOM     32  H   UNL     1     -46.020  36.938  25.981  1.00  0.00     0.076 H 
BRANCH  30  33
ATOM     33  O   UNL     1     -46.927  37.290  27.831  1.00  0.00    -0.489 OA
BRANCH  33  34
ATOM     34  C   UNL     1     -45.883  38.102  28.180  1.00  0.00     0.122 A 
ATOM     35  C   UNL     1     -45.116  37.993  29.335  1.00  0.00    -0.019 A 
ATOM     36  C   UNL     1     -45.624  39.142  27.279  1.00  0.00     0.007 A 
ATOM     37  C   UNL     1     -44.090  38.910  29.571  1.00  0.00    -0.049 A 
ATOM     38  H   UNL     1     -45.301  37.229  30.081  1.00  0.00     0.066 H 
ATOM     39  C   UNL     1     -44.608  40.064  27.487  1.00  0.00     0.076 A 
ATOM     40  H   UNL     1     -46.233  39.236  26.382  1.00  0.00     0.069 H 
ATOM     41  C   UNL     1     -43.831  39.941  28.653  1.00  0.00     0.001 A 
ATOM     42  H   UNL     1     -43.500  38.822  30.481  1.00  0.00     0.063 H 
ATOM     43  N   UNL     1     -44.398  41.034  26.579  1.00  0.00    -0.231 NA
ATOM     44  C   UNL     1     -42.814  40.875  28.859  1.00  0.00    -0.049 A 
ATOM     45  C   UNL     1     -43.407  41.932  26.784  1.00  0.00     0.129 A 
ATOM     46  C   UNL     1     -42.604  41.879  27.919  1.00  0.00    -0.019 A 
ATOM     47  H   UNL     1     -42.189  40.836  29.747  1.00  0.00     0.063 H 
ATOM     48  H   UNL     1     -41.826  42.617  28.080  1.00  0.00     0.066 H 
BRANCH  45  49
ATOM     49  N   UNL     1     -43.212  42.950  25.832  1.00  0.00    -0.356 N 
ATOM     50  C   UNL     1     -43.800  42.954  24.522  1.00  0.00     0.021 C 
ATOM     51  C   UNL     1     -41.953  43.429  25.341  1.00  0.00     0.021 C 
ATOM     52  C   UNL     1     -42.731  43.985  24.143  1.00  0.00    -0.018 C 
ATOM     53  H   UNL     1     -43.712  41.990  24.008  1.00  0.00     0.049 H 
ATOM     54  H   UNL     1     -44.832  43.310  24.509  1.00  0.00     0.049 H 
ATOM     55  H   UNL     1     -41.251  42.622  25.103  1.00  0.00     0.049 H 
ATOM     56  H   UNL     1     -41.484  44.173  25.989  1.00  0.00     0.049 H 
ATOM     57  H   UNL     1     -42.263  43.849  23.166  1.00  0.00     0.030 H 
ATOM     58  H   UNL     1     -43.050  45.027  24.256  1.00  0.00     0.030 H 
ENDBRANCH  45  49
ENDBRANCH  33  34
ENDBRANCH  30  33
ENDBRANCH   5  30
TORSDOF 8
ENDMDL
MODEL 4
REMARK VINA RESULT:      -9.9      2.356      3.364
REMARK SMILES CC(=O)c1cn(-c2cncc(COc3ccc4ccc(N5CCC5)nc4c3)c2)c2ncnc(N)c12
REMARK SMILES IDX 7 1 8 2 9 3 10 4 11 5 28 6 6 10 4 11 5 12 35 13 29 15 33 16
REMARK SMILES IDX 30 17 32 18 31 19 2 21 3 22 1 23 34 27 12 30 13 33 14 34
REMARK SMILES IDX 15 35 27 36 16 37 26 39 17 41 25 43 18 44 20 45 19 46 21 49
REMARK SMILES IDX 22 50 24 51 23 52
REMARK H PARENT 8 7 10 8 28 9 5 14 31 20 1 24 1 25 1 26 34 28 34 29 12 31
REMARK H PARENT 12 32 15 38 27 40 16 42 18 47 19 48 22 53 22 54 24 55 24 56
REMARK H PARENT 23 57 23 58
REMARK Flexibility Score: inf
ROOT
ATOM      1  C   UNL     1     -48.216  31.592  25.126  1.00  0.00     0.066 A 
ATOM      2  C   UNL     1     -46.939  31.737  24.598  1.00  0.00     0.051 A 
ATOM      3  N   UNL     1     -46.144  32.817  24.812  1.00  0.00    -0.262 NA
ATOM      4  C   UNL     1     -46.640  33.810  25.578  1.00  0.00     0.034 A 
ATOM      5  C   UNL     1     -47.906  33.787  26.144  1.00  0.00     0.010 A 
ATOM      6  C   UNL     1     -48.694  32.645  25.921  1.00  0.00    -0.028 A 
ATOM      7  H   UNL     1     -46.453  30.986  23.986  1.00  0.00     0.086 H 
ATOM      8  H   UNL     1     -45.965  34.651  25.723  1.00  0.00     0.084 H 
ATOM      9  H   UNL     1     -49.683  32.624  26.366  1.00  0.00     0.065 H 
ENDROOT
BRANCH   1  10
ATOM     10  N   UNL     1     -49.009  30.423  24.883  1.00  0.00    -0.299 N 
ATOM     11  C   UNL     1     -49.687  28.252  24.952  1.00  0.00     0.049 A 
ATOM     12  C   UNL     1     -48.738  29.159  25.391  1.00  0.00     0.023 A 
ATOM     13  C   UNL     1     -50.616  28.996  24.162  1.00  0.00     0.072 A 
ATOM     14  H   UNL     1     -47.863  28.981  25.996  1.00  0.00     0.083 H 
ATOM     15  C   UNL     1     -50.167  30.314  24.116  1.00  0.00     0.150 A 
ATOM     16  C   UNL     1     -51.809  28.708  23.470  1.00  0.00     0.137 A 
ATOM     17  N   UNL     1     -50.783  31.315  23.455  1.00  0.00    -0.218 NA
ATOM     18  N   UNL     1     -52.423  29.690  22.785  1.00  0.00    -0.219 NA
ATOM     19  C   UNL     1     -51.889  30.918  22.817  1.00  0.00     0.120 A 
ATOM     20  H   UNL     1     -52.422  31.683  22.260  1.00  0.00     0.106 H 
BRANCH  11  21
ATOM     21  C   UNL     1     -49.696  26.817  25.240  1.00  0.00     0.162 C 
ATOM     22  O   UNL     1     -50.375  26.032  24.579  1.00  0.00    -0.294 OA
BRANCH  21  23
ATOM     23  C   UNL     1     -48.822  26.299  26.357  1.00  0.00    -0.001 C 
ATOM     24  H   UNL     1     -47.959  26.957  26.491  1.00  0.00     0.031 H 
ATOM     25  H   UNL     1     -49.396  26.230  27.285  1.00  0.00     0.031 H 
ATOM     26  H   UNL     1     -48.462  25.297  26.104  1.00  0.00     0.031 H 
ENDBRANCH  21  23
ENDBRANCH  11  21
BRANCH  16  27
ATOM     27  N   UNL     1     -52.417  27.468  23.457  1.00  0.00    -0.383 N 
ATOM     28  H   UNL     1     -53.414  27.519  23.613  1.00  0.00     0.158 HD
ATOM     29  H   UNL     1     -52.091  26.822  22.738  1.00  0.00     0.158 HD
ENDBRANCH  16  27
ENDBRANCH   1  10
BRANCH   5  30
ATOM     30  C   UNL     1     -48.407  34.908  27.019  1.00  0.00     0.115 C 
ATOM     31  H   UNL     1     -48.109  34.678  28.049  1.00  0.00     0.076 H 
ATOM     32  H   UNL     1     -49.502  34.965  27.023  1.00  0.00     0.076 H 
BRANCH  30  33
ATOM     33  O   UNL     1     -47.829  36.177  26.704  1.00  0.00    -0.489 OA
BRANCH  33  34
ATOM     34  C   UNL     1     -46.897  36.695  27.561  1.00  0.00     0.122 A 
ATOM     35  C   UNL     1     -46.553  36.174  28.804  1.00  0.00    -0.019 A 
ATOM     36  C   UNL     1     -46.287  37.874  27.118  1.00  0.00     0.007 A 
ATOM     37  C   UNL     1     -45.593  36.823  29.583  1.00  0.00    -0.049 A 
ATOM     38  H   UNL     1     -47.022  35.284  29.207  1.00  0.00     0.066 H 
ATOM     39  C   UNL     1     -45.328  38.538  27.870  1.00  0.00     0.076 A 
ATOM     40  H   UNL     1     -46.567  38.291  26.153  1.00  0.00     0.069 H 
ATOM     41  C   UNL     1     -44.979  37.998  29.122  1.00  0.00     0.001 A 
ATOM     42  H   UNL     1     -45.335  36.412  30.556  1.00  0.00     0.063 H 
ATOM     43  N   UNL     1     -44.767  39.661  27.388  1.00  0.00    -0.231 NA
ATOM     44  C   UNL     1     -44.017  38.674  29.876  1.00  0.00    -0.049 A 
ATOM     45  C   UNL     1     -43.833  40.306  28.122  1.00  0.00     0.129 A 
ATOM     46  C   UNL     1     -43.444  39.838  29.373  1.00  0.00    -0.019 A 
ATOM     47  H   UNL     1     -43.715  38.310  30.854  1.00  0.00     0.063 H 
ATOM     48  H   UNL     1     -42.708  40.375  29.960  1.00  0.00     0.066 H 
BRANCH  45  49
ATOM     49  N   UNL     1     -43.268  41.488  27.608  1.00  0.00    -0.356 N 
ATOM     50  C   UNL     1     -43.537  42.008  26.297  1.00  0.00     0.021 C 
ATOM     51  C   UNL     1     -41.871  41.798  27.516  1.00  0.00     0.021 C 
ATOM     52  C   UNL     1     -42.261  42.840  26.462  1.00  0.00    -0.018 C 
ATOM     53  H   UNL     1     -43.490  41.243  25.513  1.00  0.00     0.049 H 
ATOM     54  H   UNL     1     -44.470  42.573  26.235  1.00  0.00     0.049 H 
ATOM     55  H   UNL     1     -41.271  40.960  27.141  1.00  0.00     0.049 H 
ATOM     56  H   UNL     1     -41.448  42.195  28.442  1.00  0.00     0.049 H 
ATOM     57  H   UNL     1     -41.611  42.896  25.586  1.00  0.00     0.030 H 
ATOM     58  H   UNL     1     -42.426  43.846  26.861  1.00  0.00     0.030 H 
ENDBRANCH  45  49
ENDBRANCH  33  34
ENDBRANCH  30  33
ENDBRANCH   5  30
TORSDOF 8
ENDMDL
MODEL 5
REMARK VINA RESULT:      -9.7      2.526     11.083
REMARK SMILES CC(=O)c1cn(-c2cncc(COc3ccc4ccc(N5CCC5)nc4c3)c2)c2ncnc(N)c12
REMARK SMILES IDX 7 1 8 2 9 3 10 4 11 5 28 6 6 10 4 11 5 12 35 13 29 15 33 16
REMARK SMILES IDX 30 17 32 18 31 19 2 21 3 22 1 23 34 27 12 30 13 33 14 34
REMARK SMILES IDX 15 35 27 36 16 37 26 39 17 41 25 43 18 44 20 45 19 46 21 49
REMARK SMILES IDX 22 50 24 51 23 52
REMARK H PARENT 8 7 10 8 28 9 5 14 31 20 1 24 1 25 1 26 34 28 34 29 12 31
REMARK H PARENT 12 32 15 38 27 40 16 42 18 47 19 48 22 53 22 54 24 55 24 56
REMARK H PARENT 23 57 23 58
REMARK Flexibility Score: inf
ROOT
ATOM      1  C   UNL     1     -45.841  38.463  28.204  1.00  0.00     0.066 A 
ATOM      2  C   UNL     1     -45.548  37.904  29.442  1.00  0.00     0.051 A 
ATOM      3  N   UNL     1     -46.109  36.760  29.913  1.00  0.00    -0.262 NA
ATOM      4  C   UNL     1     -47.013  36.143  29.126  1.00  0.00     0.034 A 
ATOM      5  C   UNL     1     -47.399  36.615  27.880  1.00  0.00     0.010 A 
ATOM      6  C   UNL     1     -46.784  37.789  27.414  1.00  0.00    -0.028 A 
ATOM      7  H   UNL     1     -44.825  38.320  30.134  1.00  0.00     0.086 H 
ATOM      8  H   UNL     1     -47.431  35.230  29.545  1.00  0.00     0.084 H 
ATOM      9  H   UNL     1     -47.082  38.157  26.438  1.00  0.00     0.065 H 
ENDROOT
BRANCH   1  10
ATOM     10  N   UNL     1     -45.209  39.665  27.746  1.00  0.00    -0.299 N 
ATOM     11  C   UNL     1     -43.567  41.176  27.301  1.00  0.00     0.049 A 
ATOM     12  C   UNL     1     -43.845  39.919  27.810  1.00  0.00     0.023 A 
ATOM     13  C   UNL     1     -44.815  41.717  26.865  1.00  0.00     0.072 A 
ATOM     14  H   UNL     1     -43.168  39.206  28.253  1.00  0.00     0.083 H 
ATOM     15  C   UNL     1     -45.805  40.785  27.169  1.00  0.00     0.150 A 
ATOM     16  C   UNL     1     -45.235  42.903  26.233  1.00  0.00     0.137 A 
ATOM     17  N   UNL     1     -47.118  40.944  26.912  1.00  0.00    -0.218 NA
ATOM     18  N   UNL     1     -46.545  43.090  25.991  1.00  0.00    -0.219 NA
ATOM     19  C   UNL     1     -47.400  42.117  26.334  1.00  0.00     0.120 A 
ATOM     20  H   UNL     1     -48.447  42.304  26.112  1.00  0.00     0.106 H 
BRANCH  11  21
ATOM     21  C   UNL     1     -42.247  41.807  27.254  1.00  0.00     0.162 C 
ATOM     22  O   UNL     1     -41.913  42.533  26.318  1.00  0.00    -0.294 OA
BRANCH  21  23
ATOM     23  C   UNL     1     -41.295  41.579  28.405  1.00  0.00    -0.001 C 
ATOM     24  H   UNL     1     -41.747  41.929  29.337  1.00  0.00     0.031 H 
ATOM     25  H   UNL     1     -41.042  40.518  28.479  1.00  0.00     0.031 H 
ATOM     26  H   UNL     1     -40.372  42.139  28.231  1.00  0.00     0.031 H 
ENDBRANCH  21  23
ENDBRANCH  11  21
BRANCH  16  27
ATOM     27  N   UNL     1     -44.378  43.905  25.818  1.00  0.00    -0.383 N 
ATOM     28  H   UNL     1     -44.119  44.532  26.567  1.00  0.00     0.158 HD
ATOM     29  H   UNL     1     -43.641  43.620  25.173  1.00  0.00     0.158 HD
ENDBRANCH  16  27
ENDBRANCH   1  10
BRANCH   5  30
ATOM     30  C   UNL     1     -48.393  35.874  27.022  1.00  0.00     0.115 C 
ATOM     31  H   UNL     1     -48.084  36.004  25.978  1.00  0.00     0.076 H 
ATOM     32  H   UNL     1     -49.400  36.303  27.099  1.00  0.00     0.076 H 
BRANCH  30  33
ATOM     33  O   UNL     1     -48.417  34.466  27.265  1.00  0.00    -0.489 OA
BRANCH  33  34
ATOM     34  C   UNL     1     -47.848  33.638  26.337  1.00  0.00     0.122 A 
ATOM     35  C   UNL     1     -46.761  33.947  25.526  1.00  0.00    -0.019 A 
ATOM     36  C   UNL     1     -48.473  32.393  26.203  1.00  0.00     0.007 A 
ATOM     37  C   UNL     1     -46.298  33.006  24.604  1.00  0.00    -0.049 A 
ATOM     38  H   UNL     1     -46.266  34.910  25.566  1.00  0.00     0.066 H 
ATOM     39  C   UNL     1     -48.031  31.438  25.298  1.00  0.00     0.076 A 
ATOM     40  H   UNL     1     -49.332  32.156  26.826  1.00  0.00     0.069 H 
ATOM     41  C   UNL     1     -46.924  31.755  24.488  1.00  0.00     0.001 A 
ATOM     42  H   UNL     1     -45.451  33.258  23.970  1.00  0.00     0.063 H 
ATOM     43  N   UNL     1     -48.663  30.253  25.222  1.00  0.00    -0.231 NA
ATOM     44  C   UNL     1     -46.488  30.791  23.577  1.00  0.00    -0.049 A 
ATOM     45  C   UNL     1     -48.231  29.324  24.340  1.00  0.00     0.129 A 
ATOM     46  C   UNL     1     -47.149  29.570  23.501  1.00  0.00    -0.019 A 
ATOM     47  H   UNL     1     -45.645  30.984  22.918  1.00  0.00     0.063 H 
ATOM     48  H   UNL     1     -46.825  28.824  22.783  1.00  0.00     0.066 H 
BRANCH  45  49
ATOM     49  N   UNL     1     -48.915  28.096  24.264  1.00  0.00    -0.356 N 
ATOM     50  C   UNL     1     -49.877  27.769  23.250  1.00  0.00     0.021 C 
ATOM     51  C   UNL     1     -49.701  27.491  25.299  1.00  0.00     0.021 C 
ATOM     52  C   UNL     1     -50.361  26.662  24.192  1.00  0.00    -0.018 C 
ATOM     53  H   UNL     1     -50.603  28.572  23.072  1.00  0.00     0.049 H 
ATOM     54  H   UNL     1     -49.427  27.436  22.313  1.00  0.00     0.049 H 
ATOM     55  H   UNL     1     -50.365  28.203  25.804  1.00  0.00     0.049 H 
ATOM     56  H   UNL     1     -49.111  26.928  26.026  1.00  0.00     0.049 H 
ATOM     57  H   UNL     1     -51.444  26.540  24.269  1.00  0.00     0.030 H 
ATOM     58  H   UNL     1     -49.894  25.687  24.019  1.00  0.00     0.030 H 
ENDBRANCH  45  49
ENDBRANCH  33  34
ENDBRANCH  30  33
ENDBRANCH   5  30
TORSDOF 8
ENDMDL
MODEL 6
REMARK VINA RESULT:      -9.6      2.244      3.342
REMARK SMILES CC(=O)c1cn(-c2cncc(COc3ccc4ccc(N5CCC5)nc4c3)c2)c2ncnc(N)c12
REMARK SMILES IDX 7 1 8 2 9 3 10 4 11 5 28 6 6 10 4 11 5 12 35 13 29 15 33 16
REMARK SMILES IDX 30 17 32 18 31 19 2 21 3 22 1 23 34 27 12 30 13 33 14 34
REMARK SMILES IDX 15 35 27 36 16 37 26 39 17 41 25 43 18 44 20 45 19 46 21 49
REMARK SMILES IDX 22 50 24 51 23 52
REMARK H PARENT 8 7 10 8 28 9 5 14 31 20 1 24 1 25 1 26 34 28 34 29 12 31
REMARK H PARENT 12 32 15 38 27 40 16 42 18 47 19 48 22 53 22 54 24 55 24 56
REMARK H PARENT 23 57 23 58
REMARK Flexibility Score: inf
ROOT
ATOM      1  C   UNL     1     -47.692  32.000  25.166  1.00  0.00     0.066 A 
ATOM      2  C   UNL     1     -46.361  32.365  25.007  1.00  0.00     0.051 A 
ATOM      3  N   UNL     1     -45.838  33.544  25.431  1.00  0.00    -0.262 NA
ATOM      4  C   UNL     1     -46.674  34.412  26.036  1.00  0.00     0.034 A 
ATOM      5  C   UNL     1     -48.025  34.167  26.236  1.00  0.00     0.010 A 
ATOM      6  C   UNL     1     -48.529  32.930  25.803  1.00  0.00    -0.028 A 
ATOM      7  H   UNL     1     -45.614  31.727  24.548  1.00  0.00     0.086 H 
ATOM      8  H   UNL     1     -46.208  35.340  26.361  1.00  0.00     0.084 H 
ATOM      9  H   UNL     1     -49.585  32.736  25.962  1.00  0.00     0.065 H 
ENDROOT
BRANCH   1  10
ATOM     10  N   UNL     1     -48.192  30.736  24.713  1.00  0.00    -0.299 N 
ATOM     11  C   UNL     1     -49.040  28.626  24.789  1.00  0.00     0.049 A 
ATOM     12  C   UNL     1     -48.645  29.717  25.542  1.00  0.00     0.023 A 
ATOM     13  C   UNL     1     -48.861  28.997  23.421  1.00  0.00     0.072 A 
ATOM     14  H   UNL     1     -48.614  29.821  26.615  1.00  0.00     0.083 H 
ATOM     15  C   UNL     1     -48.319  30.281  23.402  1.00  0.00     0.150 A 
ATOM     16  C   UNL     1     -49.099  28.392  22.172  1.00  0.00     0.137 A 
ATOM     17  N   UNL     1     -48.004  30.968  22.286  1.00  0.00    -0.218 NA
ATOM     18  N   UNL     1     -48.767  29.054  21.048  1.00  0.00    -0.219 NA
ATOM     19  C   UNL     1     -48.251  30.284  21.164  1.00  0.00     0.120 A 
ATOM     20  H   UNL     1     -48.006  30.787  20.232  1.00  0.00     0.106 H 
BRANCH  11  21
ATOM     21  C   UNL     1     -49.523  27.350  25.319  1.00  0.00     0.162 C 
ATOM     22  O   UNL     1     -48.765  26.554  25.872  1.00  0.00    -0.294 OA
BRANCH  21  23
ATOM     23  C   UNL     1     -50.995  27.032  25.208  1.00  0.00    -0.001 C 
ATOM     24  H   UNL     1     -51.401  26.790  26.194  1.00  0.00     0.031 H 
ATOM     25  H   UNL     1     -51.532  27.880  24.773  1.00  0.00     0.031 H 
ATOM     26  H   UNL     1     -51.133  26.168  24.551  1.00  0.00     0.031 H 
ENDBRANCH  21  23
ENDBRANCH  11  21
BRANCH  16  27
ATOM     27  N   UNL     1     -49.677  27.147  22.012  1.00  0.00    -0.383 N 
ATOM     28  H   UNL     1     -49.623  26.810  21.060  1.00  0.00     0.158 HD
ATOM     29  H   UNL     1     -49.494  26.474  22.756  1.00  0.00     0.158 HD
ENDBRANCH  16  27
ENDBRANCH   1  10
BRANCH   5  30
ATOM     30  C   UNL     1     -48.916  35.156  26.943  1.00  0.00     0.115 C 
ATOM     31  H   UNL     1     -49.912  34.703  27.019  1.00  0.00     0.076 H 
ATOM     32  H   UNL     1     -49.043  36.080  26.365  1.00  0.00     0.076 H 
BRANCH  30  33
ATOM     33  O   UNL     1     -48.499  35.443  28.280  1.00  0.00    -0.489 OA
BRANCH  33  34
ATOM     34  C   UNL     1     -47.440  36.290  28.461  1.00  0.00     0.122 A 
ATOM     35  C   UNL     1     -46.451  36.162  29.431  1.00  0.00    -0.019 A 
ATOM     36  C   UNL     1     -47.412  37.385  27.591  1.00  0.00     0.007 A 
ATOM     37  C   UNL     1     -45.436  37.118  29.512  1.00  0.00    -0.049 A 
ATOM     38  H   UNL     1     -46.449  35.353  30.152  1.00  0.00     0.066 H 
ATOM     39  C   UNL     1     -46.413  38.347  27.646  1.00  0.00     0.076 A 
ATOM     40  H   UNL     1     -48.193  37.493  26.842  1.00  0.00     0.069 H 
ATOM     41  C   UNL     1     -45.411  38.206  28.624  1.00  0.00     0.001 A 
ATOM     42  H   UNL     1     -44.671  37.015  30.278  1.00  0.00     0.063 H 
ATOM     43  N   UNL     1     -46.430  39.372  26.775  1.00  0.00    -0.231 NA
ATOM     44  C   UNL     1     -44.412  39.180  28.678  1.00  0.00    -0.049 A 
ATOM     45  C   UNL     1     -45.456  40.308  26.830  1.00  0.00     0.129 A 
ATOM     46  C   UNL     1     -44.438  40.240  27.776  1.00  0.00    -0.019 A 
ATOM     47  H   UNL     1     -43.619  39.129  29.418  1.00  0.00     0.063 H 
ATOM     48  H   UNL     1     -43.674  41.008  27.823  1.00  0.00     0.066 H 
BRANCH  45  49
ATOM     49  N   UNL     1     -45.500  41.382  25.921  1.00  0.00    -0.356 N 
ATOM     50  C   UNL     1     -44.388  41.805  25.118  1.00  0.00     0.021 C 
ATOM     51  C   UNL     1     -45.889  42.731  26.212  1.00  0.00     0.021 C 
ATOM     52  C   UNL     1     -45.138  43.129  24.937  1.00  0.00    -0.018 C 
ATOM     53  H   UNL     1     -43.452  41.880  25.684  1.00  0.00     0.049 H 
ATOM     54  H   UNL     1     -44.250  41.207  24.215  1.00  0.00     0.049 H 
ATOM     55  H   UNL     1     -45.455  43.110  27.144  1.00  0.00     0.049 H 
ATOM     56  H   UNL     1     -46.970  42.888  26.194  1.00  0.00     0.049 H 
ATOM     57  H   UNL     1     -44.531  44.035  25.005  1.00  0.00     0.030 H 
ATOM     58  H   UNL     1     -45.763  43.174  24.039  1.00  0.00     0.030 H 
ENDBRANCH  45  49
ENDBRANCH  33  34
ENDBRANCH  30  33
ENDBRANCH   5  30
TORSDOF 8
ENDMDL
MODEL 7
REMARK VINA RESULT:      -9.5      2.276      3.411
REMARK SMILES CC(=O)c1cn(-c2cncc(COc3ccc4ccc(N5CCC5)nc4c3)c2)c2ncnc(N)c12
REMARK SMILES IDX 7 1 8 2 9 3 10 4 11 5 28 6 6 10 4 11 5 12 35 13 29 15 33 16
REMARK SMILES IDX 30 17 32 18 31 19 2 21 3 22 1 23 34 27 12 30 13 33 14 34
REMARK SMILES IDX 15 35 27 36 16 37 26 39 17 41 25 43 18 44 20 45 19 46 21 49
REMARK SMILES IDX 22 50 24 51 23 52
REMARK H PARENT 8 7 10 8 28 9 5 14 31 20 1 24 1 25 1 26 34 28 34 29 12 31
REMARK H PARENT 12 32 15 38 27 40 16 42 18 47 19 48 22 53 22 54 24 55 24 56
REMARK H PARENT 23 57 23 58
REMARK Flexibility Score: inf
ROOT
ATOM      1  C   UNL     1     -48.131  31.630  24.402  1.00  0.00     0.066 A 
ATOM      2  C   UNL     1     -46.747  31.684  24.283  1.00  0.00     0.051 A 
ATOM      3  N   UNL     1     -45.963  32.590  24.920  1.00  0.00    -0.262 NA
ATOM      4  C   UNL     1     -46.576  33.497  25.708  1.00  0.00     0.034 A 
ATOM      5  C   UNL     1     -47.949  33.553  25.891  1.00  0.00     0.010 A 
ATOM      6  C   UNL     1     -48.730  32.588  25.234  1.00  0.00    -0.028 A 
ATOM      7  H   UNL     1     -46.168  30.988  23.686  1.00  0.00     0.086 H 
ATOM      8  H   UNL     1     -45.905  34.198  26.199  1.00  0.00     0.084 H 
ATOM      9  H   UNL     1     -49.805  32.629  25.379  1.00  0.00     0.065 H 
ENDROOT
BRANCH   1  10
ATOM     10  N   UNL     1     -48.913  30.642  23.720  1.00  0.00    -0.299 N 
ATOM     11  C   UNL     1     -50.215  29.684  22.118  1.00  0.00     0.049 A 
ATOM     12  C   UNL     1     -49.522  30.824  22.485  1.00  0.00     0.023 A 
ATOM     13  C   UNL     1     -49.995  28.730  23.159  1.00  0.00     0.072 A 
ATOM     14  H   UNL     1     -49.458  31.770  21.970  1.00  0.00     0.083 H 
ATOM     15  C   UNL     1     -49.217  29.347  24.136  1.00  0.00     0.150 A 
ATOM     16  C   UNL     1     -50.364  27.391  23.395  1.00  0.00     0.137 A 
ATOM     17  N   UNL     1     -48.808  28.761  25.279  1.00  0.00    -0.218 NA
ATOM     18  N   UNL     1     -49.986  26.799  24.542  1.00  0.00    -0.219 NA
ATOM     19  C   UNL     1     -49.239  27.501  25.404  1.00  0.00     0.120 A 
ATOM     20  H   UNL     1     -48.947  26.982  26.313  1.00  0.00     0.106 H 
BRANCH  11  21
ATOM     21  C   UNL     1     -51.021  29.525  20.907  1.00  0.00     0.162 C 
ATOM     22  O   UNL     1     -52.123  28.976  20.934  1.00  0.00    -0.294 OA
BRANCH  21  23
ATOM     23  C   UNL     1     -50.491  30.082  19.607  1.00  0.00    -0.001 C 
ATOM     24  H   UNL     1     -50.530  29.315  18.829  1.00  0.00     0.031 H 
ATOM     25  H   UNL     1     -51.071  30.959  19.308  1.00  0.00     0.031 H 
ATOM     26  H   UNL     1     -49.450  30.392  19.742  1.00  0.00     0.031 H 
ENDBRANCH  21  23
ENDBRANCH  11  21
BRANCH  16  27
ATOM     27  N   UNL     1     -51.089  26.619  22.507  1.00  0.00    -0.383 N 
ATOM     28  H   UNL     1     -50.512  26.204  21.788  1.00  0.00     0.158 HD
ATOM     29  H   UNL     1     -51.814  26.033  22.919  1.00  0.00     0.158 HD
ENDBRANCH  16  27
ENDBRANCH   1  10
BRANCH   5  30
ATOM     30  C   UNL     1     -48.589  34.567  26.806  1.00  0.00     0.115 C 
ATOM     31  H   UNL     1     -48.357  34.271  27.835  1.00  0.00     0.076 H 
ATOM     32  H   UNL     1     -49.683  34.559  26.724  1.00  0.00     0.076 H 
BRANCH  30  33
ATOM     33  O   UNL     1     -48.073  35.890  26.639  1.00  0.00    -0.489 OA
BRANCH  33  34
ATOM     34  C   UNL     1     -47.193  36.365  27.572  1.00  0.00     0.122 A 
ATOM     35  C   UNL     1     -46.996  35.843  28.846  1.00  0.00    -0.019 A 
ATOM     36  C   UNL     1     -46.477  37.500  27.176  1.00  0.00     0.007 A 
ATOM     37  C   UNL     1     -46.074  36.446  29.704  1.00  0.00    -0.049 A 
ATOM     38  H   UNL     1     -47.552  34.988  29.213  1.00  0.00     0.066 H 
ATOM     39  C   UNL     1     -45.552  38.117  28.007  1.00  0.00     0.076 A 
ATOM     40  H   UNL     1     -46.642  37.917  26.185  1.00  0.00     0.069 H 
ATOM     41  C   UNL     1     -45.351  37.577  29.290  1.00  0.00     0.001 A 
ATOM     42  H   UNL     1     -45.930  36.036  30.701  1.00  0.00     0.063 H 
ATOM     43  N   UNL     1     -44.884  39.198  27.567  1.00  0.00    -0.231 NA
ATOM     44  C   UNL     1     -44.423  38.206  30.123  1.00  0.00    -0.049 A 
ATOM     45  C   UNL     1     -43.983  39.798  28.378  1.00  0.00     0.129 A 
ATOM     46  C   UNL     1     -43.738  39.326  29.663  1.00  0.00    -0.019 A 
ATOM     47  H   UNL     1     -44.234  37.840  31.128  1.00  0.00     0.063 H 
ATOM     48  H   UNL     1     -43.028  39.828  30.311  1.00  0.00     0.066 H 
BRANCH  45  49
ATOM     49  N   UNL     1     -43.305  40.937  27.906  1.00  0.00    -0.356 N 
ATOM     50  C   UNL     1     -42.501  41.797  28.729  1.00  0.00     0.021 C 
ATOM     51  C   UNL     1     -43.882  42.044  27.200  1.00  0.00     0.021 C 
ATOM     52  C   UNL     1     -42.645  42.844  27.620  1.00  0.00    -0.018 C 
ATOM     53  H   UNL     1     -42.984  42.060  29.677  1.00  0.00     0.049 H 
ATOM     54  H   UNL     1     -41.491  41.417  28.899  1.00  0.00     0.049 H 
ATOM     55  H   UNL     1     -44.827  42.385  27.639  1.00  0.00     0.049 H 
ATOM     56  H   UNL     1     -43.993  41.869  26.127  1.00  0.00     0.049 H 
ATOM     57  H   UNL     1     -42.831  43.868  27.953  1.00  0.00     0.030 H 
ATOM     58  H   UNL     1     -41.833  42.839  26.886  1.00  0.00     0.030 H 
ENDBRANCH  45  49
ENDBRANCH  33  34
ENDBRANCH  30  33
ENDBRANCH   5  30
TORSDOF 8
ENDMDL
