MODEL 1
REMARK VINA RESULT:     -10.5      0.000      0.000
REMARK SMILES CNc1ccc2ccc(OCc3cncc(-n4cc(C5CCCC5)c5c(N)ncnc54)c3)cc2n1
REMARK SMILES IDX 11 1 10 4 9 5 3 6 4 7 35 8 5 9 34 11 6 12 33 14 7 15 8 17
REMARK SMILES IDX 2 20 1 22 12 26 13 27 32 28 14 29 16 31 15 33 17 35 18 36
REMARK SMILES IDX 31 37 19 38 25 40 30 41 26 42 29 43 28 44 20 46 21 47 24 48
REMARK SMILES IDX 22 50 23 53 27 60
REMARK H PARENT 11 2 11 3 4 10 5 13 33 16 7 18 8 19 2 21 1 23 1 24 1 25 13 30
REMARK H PARENT 32 32 15 34 18 39 29 45 20 49 21 51 21 52 24 54 24 55 22 56
REMARK H PARENT 22 57 23 58 23 59 27 61 27 62
REMARK Flexibility Score: inf
ROOT
ATOM      1  C   UNL     1     -48.740  35.368  27.215  1.00  0.00     0.115 C 
ATOM      2  H   UNL     1     -48.747  36.327  26.683  1.00  0.00     0.076 H 
ATOM      3  H   UNL     1     -49.796  35.140  27.400  1.00  0.00     0.076 H 
ENDROOT
BRANCH   1   4
ATOM      4  O   UNL     1     -48.003  35.578  28.428  1.00  0.00    -0.489 OA
BRANCH   4   5
ATOM      5  C   UNL     1     -47.079  36.588  28.383  1.00  0.00     0.122 A 
ATOM      6  C   UNL     1     -45.240  40.545  26.494  1.00  0.00     0.126 A 
ATOM      7  C   UNL     1     -44.257  40.609  27.474  1.00  0.00    -0.019 A 
ATOM      8  N   UNL     1     -46.161  39.559  26.479  1.00  0.00    -0.231 NA
ATOM      9  C   UNL     1     -44.200  39.620  28.450  1.00  0.00    -0.049 A 
ATOM     10  H   UNL     1     -43.547  41.428  27.489  1.00  0.00     0.066 H 
ATOM     11  C   UNL     1     -46.115  38.600  27.423  1.00  0.00     0.076 A 
ATOM     12  C   UNL     1     -45.138  38.587  28.438  1.00  0.00     0.001 A 
ATOM     13  H   UNL     1     -43.431  39.669  29.216  1.00  0.00     0.063 H 
ATOM     14  C   UNL     1     -47.063  37.586  27.406  1.00  0.00     0.007 A 
ATOM     15  C   UNL     1     -45.127  37.563  29.399  1.00  0.00    -0.049 A 
ATOM     16  H   UNL     1     -47.793  37.593  26.604  1.00  0.00     0.069 H 
ATOM     17  C   UNL     1     -46.093  36.561  29.363  1.00  0.00    -0.019 A 
ATOM     18  H   UNL     1     -44.371  37.544  30.182  1.00  0.00     0.063 H 
ATOM     19  H   UNL     1     -46.091  35.773  30.112  1.00  0.00     0.066 H 
BRANCH   6  20
ATOM     20  N   UNL     1     -45.298  41.585  25.549  1.00  0.00    -0.373 N 
ATOM     21  H   UNL     1     -46.131  42.141  25.723  1.00  0.00     0.161 HD
BRANCH  20  22
ATOM     22  C   UNL     1     -44.103  42.411  25.491  1.00  0.00     0.005 C 
ATOM     23  H   UNL     1     -43.202  41.806  25.337  1.00  0.00     0.045 H 
ATOM     24  H   UNL     1     -44.176  43.171  24.705  1.00  0.00     0.045 H 
ATOM     25  H   UNL     1     -43.989  42.938  26.444  1.00  0.00     0.045 H 
ENDBRANCH  20  22
ENDBRANCH   6  20
ENDBRANCH   4   5
ENDBRANCH   1   4
BRANCH   1  26
ATOM     26  C   UNL     1     -48.090  34.334  26.336  1.00  0.00     0.010 A 
ATOM     27  C   UNL     1     -46.829  34.539  25.797  1.00  0.00     0.034 A 
ATOM     28  C   UNL     1     -48.717  33.109  26.071  1.00  0.00    -0.028 A 
ATOM     29  N   UNL     1     -46.190  33.642  25.017  1.00  0.00    -0.262 NA
ATOM     30  H   UNL     1     -46.277  35.458  25.982  1.00  0.00     0.084 H 
ATOM     31  C   UNL     1     -48.082  32.139  25.292  1.00  0.00     0.066 A 
ATOM     32  H   UNL     1     -49.708  32.948  26.482  1.00  0.00     0.065 H 
ATOM     33  C   UNL     1     -46.827  32.466  24.785  1.00  0.00     0.051 A 
ATOM     34  H   UNL     1     -46.236  31.785  24.182  1.00  0.00     0.086 H 
BRANCH  31  35
ATOM     35  N   UNL     1     -48.673  30.863  25.031  1.00  0.00    -0.299 N 
ATOM     36  C   UNL     1     -48.145  29.645  25.426  1.00  0.00     0.015 A 
ATOM     37  C   UNL     1     -49.862  30.595  24.355  1.00  0.00     0.150 A 
ATOM     38  C   UNL     1     -48.959  28.605  25.011  1.00  0.00    -0.013 A 
ATOM     39  H   UNL     1     -47.199  29.594  25.946  1.00  0.00     0.083 H 
ATOM     40  C   UNL     1     -50.070  29.217  24.340  1.00  0.00     0.065 A 
ATOM     41  N   UNL     1     -50.699  31.510  23.828  1.00  0.00    -0.218 NA
ATOM     42  C   UNL     1     -51.243  28.769  23.700  1.00  0.00     0.136 A 
ATOM     43  C   UNL     1     -51.776  30.968  23.250  1.00  0.00     0.120 A 
ATOM     44  N   UNL     1     -52.084  29.665  23.157  1.00  0.00    -0.219 NA
ATOM     45  H   UNL     1     -52.484  31.662  22.804  1.00  0.00     0.106 H 
BRANCH  38  46
ATOM     46  C   UNL     1     -48.720  27.136  25.205  1.00  0.00    -0.014 C 
ATOM     47  C   UNL     1     -49.087  26.571  26.579  1.00  0.00    -0.046 C 
ATOM     48  C   UNL     1     -47.247  26.738  25.070  1.00  0.00    -0.046 C 
ATOM     49  H   UNL     1     -49.311  26.584  24.462  1.00  0.00     0.035 H 
ATOM     50  C   UNL     1     -48.418  25.205  26.573  1.00  0.00    -0.053 C 
ATOM     51  H   UNL     1     -48.671  27.175  27.394  1.00  0.00     0.027 H 
ATOM     52  H   UNL     1     -50.170  26.500  26.727  1.00  0.00     0.027 H 
ATOM     53  C   UNL     1     -47.101  25.420  25.834  1.00  0.00    -0.053 C 
ATOM     54  H   UNL     1     -46.589  27.494  25.518  1.00  0.00     0.027 H 
ATOM     55  H   UNL     1     -46.943  26.628  24.024  1.00  0.00     0.027 H 
ATOM     56  H   UNL     1     -48.268  24.812  27.583  1.00  0.00     0.027 H 
ATOM     57  H   UNL     1     -49.039  24.487  26.024  1.00  0.00     0.027 H 
ATOM     58  H   UNL     1     -46.264  25.484  26.538  1.00  0.00     0.027 H 
ATOM     59  H   UNL     1     -46.896  24.584  25.157  1.00  0.00     0.027 H 
ENDBRANCH  38  46
BRANCH  42  60
ATOM     60  N   UNL     1     -51.634  27.439  23.600  1.00  0.00    -0.383 N 
ATOM     61  H   UNL     1     -51.140  26.819  24.225  1.00  0.00     0.158 HD
ATOM     62  H   UNL     1     -52.646  27.391  23.663  1.00  0.00     0.158 HD
ENDBRANCH  42  60
ENDBRANCH  31  35
ENDBRANCH   1  26
TORSDOF 8
ENDMDL
MODEL 2
REMARK VINA RESULT:     -10.3      2.078     11.910
REMARK SMILES CNc1ccc2ccc(OCc3cncc(-n4cc(C5CCCC5)c5c(N)ncnc54)c3)cc2n1
REMARK SMILES IDX 11 1 10 4 9 5 3 6 4 7 35 8 5 9 34 11 6 12 33 14 7 15 8 17
REMARK SMILES IDX 2 20 1 22 12 26 13 27 32 28 14 29 16 31 15 33 17 35 18 36
REMARK SMILES IDX 31 37 19 38 25 40 30 41 26 42 29 43 28 44 20 46 21 47 24 48
REMARK SMILES IDX 22 50 23 53 27 60
REMARK H PARENT 11 2 11 3 4 10 5 13 33 16 7 18 8 19 2 21 1 23 1 24 1 25 13 30
REMARK H PARENT 32 32 15 34 18 39 29 45 20 49 21 51 21 52 24 54 24 55 22 56
REMARK H PARENT 22 57 23 58 23 59 27 61 27 62
REMARK Flexibility Score: inf
ROOT
ATOM      1  C   UNL     1     -46.756  34.418  27.267  1.00  0.00     0.115 C 
ATOM      2  H   UNL     1     -46.016  34.323  26.463  1.00  0.00     0.076 H 
ATOM      3  H   UNL     1     -46.259  34.014  28.157  1.00  0.00     0.076 H 
ENDROOT
BRANCH   1   4
ATOM      4  O   UNL     1     -47.893  33.639  26.873  1.00  0.00    -0.489 OA
BRANCH   4   5
ATOM      5  C   UNL     1     -47.644  32.679  25.928  1.00  0.00     0.122 A 
ATOM      6  C   UNL     1     -48.490  28.490  23.844  1.00  0.00     0.126 A 
ATOM      7  C   UNL     1     -47.513  28.720  22.884  1.00  0.00    -0.019 A 
ATOM      8  N   UNL     1     -48.760  29.393  24.810  1.00  0.00    -0.231 NA
ATOM      9  C   UNL     1     -46.773  29.897  22.930  1.00  0.00    -0.049 A 
ATOM     10  H   UNL     1     -47.335  27.998  22.095  1.00  0.00     0.066 H 
ATOM     11  C   UNL     1     -48.050  30.536  24.859  1.00  0.00     0.076 A 
ATOM     12  C   UNL     1     -47.032  30.833  23.932  1.00  0.00     0.001 A 
ATOM     13  H   UNL     1     -46.008  30.077  22.180  1.00  0.00     0.063 H 
ATOM     14  C   UNL     1     -48.328  31.464  25.854  1.00  0.00     0.007 A 
ATOM     15  C   UNL     1     -46.315  32.037  24.027  1.00  0.00    -0.049 A 
ATOM     16  H   UNL     1     -49.096  31.211  26.577  1.00  0.00     0.069 H 
ATOM     17  C   UNL     1     -46.618  32.953  25.030  1.00  0.00    -0.019 A 
ATOM     18  H   UNL     1     -45.524  32.269  23.317  1.00  0.00     0.063 H 
ATOM     19  H   UNL     1     -46.070  33.889  25.098  1.00  0.00     0.066 H 
BRANCH   6  20
ATOM     20  N   UNL     1     -49.252  27.312  23.741  1.00  0.00    -0.373 N 
ATOM     21  H   UNL     1     -48.831  26.708  23.040  1.00  0.00     0.161 HD
BRANCH  20  22
ATOM     22  C   UNL     1     -49.452  26.614  25.000  1.00  0.00     0.005 C 
ATOM     23  H   UNL     1     -49.443  27.305  25.851  1.00  0.00     0.045 H 
ATOM     24  H   UNL     1     -50.387  26.042  25.000  1.00  0.00     0.045 H 
ATOM     25  H   UNL     1     -48.634  25.901  25.145  1.00  0.00     0.045 H 
ENDBRANCH  20  22
ENDBRANCH   6  20
ENDBRANCH   4   5
ENDBRANCH   1   4
BRANCH   1  26
ATOM     26  C   UNL     1     -47.102  35.873  27.434  1.00  0.00     0.010 A 
ATOM     27  C   UNL     1     -48.400  36.275  27.711  1.00  0.00     0.034 A 
ATOM     28  C   UNL     1     -46.117  36.867  27.362  1.00  0.00    -0.028 A 
ATOM     29  N   UNL     1     -48.767  37.562  27.888  1.00  0.00    -0.262 NA
ATOM     30  H   UNL     1     -49.208  35.553  27.803  1.00  0.00     0.084 H 
ATOM     31  C   UNL     1     -46.445  38.210  27.566  1.00  0.00     0.066 A 
ATOM     32  H   UNL     1     -45.101  36.558  27.136  1.00  0.00     0.065 H 
ATOM     33  C   UNL     1     -47.785  38.496  27.814  1.00  0.00     0.051 A 
ATOM     34  H   UNL     1     -48.150  39.499  28.003  1.00  0.00     0.086 H 
BRANCH  31  35
ATOM     35  N   UNL     1     -45.461  39.248  27.538  1.00  0.00    -0.299 N 
ATOM     36  C   UNL     1     -45.365  40.227  26.564  1.00  0.00     0.015 A 
ATOM     37  C   UNL     1     -44.440  39.481  28.457  1.00  0.00     0.150 A 
ATOM     38  C   UNL     1     -44.302  41.073  26.829  1.00  0.00    -0.013 A 
ATOM     39  H   UNL     1     -46.038  40.235  25.719  1.00  0.00     0.083 H 
ATOM     40  C   UNL     1     -43.720  40.605  28.054  1.00  0.00     0.065 A 
ATOM     41  N   UNL     1     -44.197  38.766  29.573  1.00  0.00    -0.218 NA
ATOM     42  C   UNL     1     -42.648  40.991  28.883  1.00  0.00     0.136 A 
ATOM     43  C   UNL     1     -43.159  39.227  30.280  1.00  0.00     0.120 A 
ATOM     44  N   UNL     1     -42.382  40.283  29.994  1.00  0.00    -0.219 NA
ATOM     45  H   UNL     1     -42.917  38.685  31.189  1.00  0.00     0.106 H 
BRANCH  38  46
ATOM     46  C   UNL     1     -43.839  42.232  25.996  1.00  0.00    -0.014 C 
ATOM     47  C   UNL     1     -44.407  43.601  26.374  1.00  0.00    -0.046 C 
ATOM     48  C   UNL     1     -44.229  42.113  24.519  1.00  0.00    -0.046 C 
ATOM     49  H   UNL     1     -42.746  42.305  26.073  1.00  0.00     0.035 H 
ATOM     50  C   UNL     1     -44.047  44.462  25.173  1.00  0.00    -0.053 C 
ATOM     51  H   UNL     1     -45.498  43.575  26.486  1.00  0.00     0.027 H 
ATOM     52  H   UNL     1     -43.979  43.990  27.304  1.00  0.00     0.027 H 
ATOM     53  C   UNL     1     -44.218  43.541  23.969  1.00  0.00    -0.053 C 
ATOM     54  H   UNL     1     -45.235  41.687  24.408  1.00  0.00     0.027 H 
ATOM     55  H   UNL     1     -43.544  41.465  23.962  1.00  0.00     0.027 H 
ATOM     56  H   UNL     1     -44.671  45.358  25.101  1.00  0.00     0.027 H 
ATOM     57  H   UNL     1     -43.002  44.787  25.245  1.00  0.00     0.027 H 
ATOM     58  H   UNL     1     -45.158  43.750  23.447  1.00  0.00     0.027 H 
ATOM     59  H   UNL     1     -43.405  43.687  23.250  1.00  0.00     0.027 H 
ENDBRANCH  38  46
BRANCH  42  60
ATOM     60  N   UNL     1     -41.829  42.092  28.660  1.00  0.00    -0.383 N 
ATOM     61  H   UNL     1     -41.109  42.213  29.357  1.00  0.00     0.158 HD
ATOM     62  H   UNL     1     -41.496  42.061  27.702  1.00  0.00     0.158 HD
ENDBRANCH  42  60
ENDBRANCH  31  35
ENDBRANCH   1  26
TORSDOF 8
ENDMDL
MODEL 3
REMARK VINA RESULT:     -10.3      1.779      2.274
REMARK SMILES CNc1ccc2ccc(OCc3cncc(-n4cc(C5CCCC5)c5c(N)ncnc54)c3)cc2n1
REMARK SMILES IDX 11 1 10 4 9 5 3 6 4 7 35 8 5 9 34 11 6 12 33 14 7 15 8 17
REMARK SMILES IDX 2 20 1 22 12 26 13 27 32 28 14 29 16 31 15 33 17 35 18 36
REMARK SMILES IDX 31 37 19 38 25 40 30 41 26 42 29 43 28 44 20 46 21 47 24 48
REMARK SMILES IDX 22 50 23 53 27 60
REMARK H PARENT 11 2 11 3 4 10 5 13 33 16 7 18 8 19 2 21 1 23 1 24 1 25 13 30
REMARK H PARENT 32 32 15 34 18 39 29 45 20 49 21 51 21 52 24 54 24 55 22 56
REMARK H PARENT 22 57 23 58 23 59 27 61 27 62
REMARK Flexibility Score: inf
ROOT
ATOM      1  C   UNL     1     -46.084  34.789  26.939  1.00  0.00     0.115 C 
ATOM      2  H   UNL     1     -45.354  34.047  27.284  1.00  0.00     0.076 H 
ATOM      3  H   UNL     1     -45.638  35.226  26.038  1.00  0.00     0.076 H 
ENDROOT
BRANCH   1   4
ATOM      4  O   UNL     1     -46.229  35.745  27.998  1.00  0.00    -0.489 OA
BRANCH   4   5
ATOM      5  C   UNL     1     -45.965  37.045  27.652  1.00  0.00     0.122 A 
ATOM      6  C   UNL     1     -43.571  41.128  28.100  1.00  0.00     0.126 A 
ATOM      7  C   UNL     1     -44.278  41.708  27.054  1.00  0.00    -0.019 A 
ATOM      8  N   UNL     1     -43.806  39.859  28.494  1.00  0.00    -0.231 NA
ATOM      9  C   UNL     1     -45.273  40.978  26.413  1.00  0.00    -0.049 A 
ATOM     10  H   UNL     1     -44.051  42.717  26.729  1.00  0.00     0.066 H 
ATOM     11  C   UNL     1     -44.764  39.144  27.876  1.00  0.00     0.076 A 
ATOM     12  C   UNL     1     -45.535  39.669  26.821  1.00  0.00     0.001 A 
ATOM     13  H   UNL     1     -45.827  41.431  25.596  1.00  0.00     0.063 H 
ATOM     14  C   UNL     1     -45.006  37.839  28.284  1.00  0.00     0.007 A 
ATOM     15  C   UNL     1     -46.528  38.886  26.209  1.00  0.00    -0.049 A 
ATOM     16  H   UNL     1     -44.423  37.456  29.115  1.00  0.00     0.069 H 
ATOM     17  C   UNL     1     -46.746  37.578  26.633  1.00  0.00    -0.019 A 
ATOM     18  H   UNL     1     -47.131  39.289  25.398  1.00  0.00     0.063 H 
ATOM     19  H   UNL     1     -47.508  36.969  26.154  1.00  0.00     0.066 H 
BRANCH   6  20
ATOM     20  N   UNL     1     -42.540  41.878  28.696  1.00  0.00    -0.373 N 
ATOM     21  H   UNL     1     -42.707  41.928  29.697  1.00  0.00     0.161 HD
BRANCH  20  22
ATOM     22  C   UNL     1     -41.200  41.399  28.398  1.00  0.00     0.005 C 
ATOM     23  H   UNL     1     -40.437  41.980  28.928  1.00  0.00     0.045 H 
ATOM     24  H   UNL     1     -41.089  40.336  28.640  1.00  0.00     0.045 H 
ATOM     25  H   UNL     1     -41.014  41.510  27.324  1.00  0.00     0.045 H 
ENDBRANCH  20  22
ENDBRANCH   6  20
ENDBRANCH   4   5
ENDBRANCH   1   4
BRANCH   1  26
ATOM     26  C   UNL     1     -47.380  34.086  26.637  1.00  0.00     0.010 A 
ATOM     27  C   UNL     1     -48.601  34.699  26.873  1.00  0.00     0.034 A 
ATOM     28  C   UNL     1     -47.396  32.809  26.061  1.00  0.00    -0.028 A 
ATOM     29  N   UNL     1     -49.794  34.126  26.607  1.00  0.00    -0.262 NA
ATOM     30  H   UNL     1     -48.660  35.699  27.297  1.00  0.00     0.084 H 
ATOM     31  C   UNL     1     -48.606  32.188  25.741  1.00  0.00     0.066 A 
ATOM     32  H   UNL     1     -46.443  32.322  25.883  1.00  0.00     0.065 H 
ATOM     33  C   UNL     1     -49.769  32.890  26.047  1.00  0.00     0.051 A 
ATOM     34  H   UNL     1     -50.762  32.512  25.829  1.00  0.00     0.086 H 
BRANCH  31  35
ATOM     35  N   UNL     1     -48.662  30.902  25.119  1.00  0.00    -0.299 N 
ATOM     36  C   UNL     1     -48.465  29.694  25.768  1.00  0.00     0.015 A 
ATOM     37  C   UNL     1     -48.924  30.610  23.781  1.00  0.00     0.150 A 
ATOM     38  C   UNL     1     -48.582  28.640  24.878  1.00  0.00    -0.013 A 
ATOM     39  H   UNL     1     -48.213  29.665  26.818  1.00  0.00     0.083 H 
ATOM     40  C   UNL     1     -48.895  29.228  23.607  1.00  0.00     0.065 A 
ATOM     41  N   UNL     1     -49.195  31.507  22.812  1.00  0.00    -0.218 NA
ATOM     42  C   UNL     1     -49.152  28.757  22.304  1.00  0.00     0.136 A 
ATOM     43  C   UNL     1     -49.423  30.944  21.621  1.00  0.00     0.120 A 
ATOM     44  N   UNL     1     -49.412  29.635  21.322  1.00  0.00    -0.219 NA
ATOM     45  H   UNL     1     -49.644  31.622  20.802  1.00  0.00     0.106 H 
BRANCH  38  46
ATOM     46  C   UNL     1     -48.400  27.180  25.176  1.00  0.00    -0.014 C 
ATOM     47  C   UNL     1     -48.722  26.741  26.606  1.00  0.00    -0.046 C 
ATOM     48  C   UNL     1     -46.954  26.702  25.004  1.00  0.00    -0.046 C 
ATOM     49  H   UNL     1     -49.051  26.602  24.507  1.00  0.00     0.035 H 
ATOM     50  C   UNL     1     -48.116  25.347  26.676  1.00  0.00    -0.053 C 
ATOM     51  H   UNL     1     -48.238  27.383  27.351  1.00  0.00     0.027 H 
ATOM     52  H   UNL     1     -49.798  26.734  26.810  1.00  0.00     0.027 H 
ATOM     53  C   UNL     1     -46.829  25.440  25.862  1.00  0.00    -0.053 C 
ATOM     54  H   UNL     1     -46.242  27.456  25.359  1.00  0.00     0.027 H 
ATOM     55  H   UNL     1     -46.709  26.498  23.957  1.00  0.00     0.027 H 
ATOM     56  H   UNL     1     -47.932  25.025  27.705  1.00  0.00     0.027 H 
ATOM     57  H   UNL     1     -48.795  24.620  26.215  1.00  0.00     0.027 H 
ATOM     58  H   UNL     1     -45.955  25.517  26.519  1.00  0.00     0.027 H 
ATOM     59  H   UNL     1     -46.696  24.546  25.244  1.00  0.00     0.027 H 
ENDBRANCH  38  46
BRANCH  42  60
ATOM     60  N   UNL     1     -49.187  27.416  21.938  1.00  0.00    -0.383 N 
ATOM     61  H   UNL     1     -48.415  26.874  22.296  1.00  0.00     0.158 HD
ATOM     62  H   UNL     1     -50.106  27.044  22.155  1.00  0.00     0.158 HD
ENDBRANCH  42  60
ENDBRANCH  31  35
ENDBRANCH   1  26
TORSDOF 8
ENDMDL
MODEL 4
REMARK VINA RESULT:     -10.3      3.083     11.491
REMARK SMILES CNc1ccc2ccc(OCc3cncc(-n4cc(C5CCCC5)c5c(N)ncnc54)c3)cc2n1
REMARK SMILES IDX 11 1 10 4 9 5 3 6 4 7 35 8 5 9 34 11 6 12 33 14 7 15 8 17
REMARK SMILES IDX 2 20 1 22 12 26 13 27 32 28 14 29 16 31 15 33 17 35 18 36
REMARK SMILES IDX 31 37 19 38 25 40 30 41 26 42 29 43 28 44 20 46 21 47 24 48
REMARK SMILES IDX 22 50 23 53 27 60
REMARK H PARENT 11 2 11 3 4 10 5 13 33 16 7 18 8 19 2 21 1 23 1 24 1 25 13 30
REMARK H PARENT 32 32 15 34 18 39 29 45 20 49 21 51 21 52 24 54 24 55 22 56
REMARK H PARENT 22 57 23 58 23 59 27 61 27 62
REMARK Flexibility Score: inf
ROOT
ATOM      1  C   UNL     1     -46.262  34.176  27.204  1.00  0.00     0.115 C 
ATOM      2  H   UNL     1     -45.820  34.058  26.208  1.00  0.00     0.076 H 
ATOM      3  H   UNL     1     -45.453  33.932  27.902  1.00  0.00     0.076 H 
ENDROOT
BRANCH   1   4
ATOM      4  O   UNL     1     -47.352  33.248  27.283  1.00  0.00    -0.489 OA
BRANCH   4   5
ATOM      5  C   UNL     1     -47.586  32.524  26.143  1.00  0.00     0.122 A 
ATOM      6  C   UNL     1     -46.497  31.132  21.729  1.00  0.00     0.126 A 
ATOM      7  C   UNL     1     -47.583  30.267  21.687  1.00  0.00    -0.019 A 
ATOM      8  N   UNL     1     -46.234  31.884  22.818  1.00  0.00    -0.231 NA
ATOM      9  C   UNL     1     -48.439  30.190  22.780  1.00  0.00    -0.049 A 
ATOM     10  H   UNL     1     -47.758  29.645  20.816  1.00  0.00     0.066 H 
ATOM     11  C   UNL     1     -47.055  31.813  23.883  1.00  0.00     0.076 A 
ATOM     12  C   UNL     1     -48.186  30.973  23.908  1.00  0.00     0.001 A 
ATOM     13  H   UNL     1     -49.289  29.514  22.747  1.00  0.00     0.063 H 
ATOM     14  C   UNL     1     -46.784  32.588  25.002  1.00  0.00     0.007 A 
ATOM     15  C   UNL     1     -49.018  30.936  25.039  1.00  0.00    -0.049 A 
ATOM     16  H   UNL     1     -45.926  33.249  24.960  1.00  0.00     0.069 H 
ATOM     17  C   UNL     1     -48.720  31.718  26.151  1.00  0.00    -0.019 A 
ATOM     18  H   UNL     1     -49.896  30.294  25.061  1.00  0.00     0.063 H 
ATOM     19  H   UNL     1     -49.357  31.683  27.030  1.00  0.00     0.066 H 
BRANCH   6  20
ATOM     20  N   UNL     1     -45.625  31.151  20.626  1.00  0.00    -0.373 N 
ATOM     21  H   UNL     1     -45.379  30.195  20.385  1.00  0.00     0.161 HD
BRANCH  20  22
ATOM     22  C   UNL     1     -46.129  31.882  19.475  1.00  0.00     0.005 C 
ATOM     23  H   UNL     1     -45.317  32.354  18.909  1.00  0.00     0.045 H 
ATOM     24  H   UNL     1     -46.714  31.236  18.812  1.00  0.00     0.045 H 
ATOM     25  H   UNL     1     -46.795  32.678  19.824  1.00  0.00     0.045 H 
ENDBRANCH  20  22
ENDBRANCH   6  20
ENDBRANCH   4   5
ENDBRANCH   1   4
BRANCH   1  26
ATOM     26  C   UNL     1     -46.724  35.600  27.361  1.00  0.00     0.010 A 
ATOM     27  C   UNL     1     -48.057  35.900  27.599  1.00  0.00     0.034 A 
ATOM     28  C   UNL     1     -45.817  36.667  27.319  1.00  0.00    -0.028 A 
ATOM     29  N   UNL     1     -48.527  37.154  27.764  1.00  0.00    -0.262 NA
ATOM     30  H   UNL     1     -48.810  35.118  27.666  1.00  0.00     0.084 H 
ATOM     31  C   UNL     1     -46.253  37.980  27.514  1.00  0.00     0.066 A 
ATOM     32  H   UNL     1     -44.774  36.438  27.124  1.00  0.00     0.065 H 
ATOM     33  C   UNL     1     -47.618  38.161  27.721  1.00  0.00     0.051 A 
ATOM     34  H   UNL     1     -48.066  39.133  27.898  1.00  0.00     0.086 H 
BRANCH  31  35
ATOM     35  N   UNL     1     -45.353  39.091  27.516  1.00  0.00    -0.299 N 
ATOM     36  C   UNL     1     -45.315  40.087  26.554  1.00  0.00     0.015 A 
ATOM     37  C   UNL     1     -44.368  39.390  28.456  1.00  0.00     0.150 A 
ATOM     38  C   UNL     1     -44.325  41.008  26.849  1.00  0.00    -0.013 A 
ATOM     39  H   UNL     1     -45.971  40.054  25.697  1.00  0.00     0.083 H 
ATOM     40  C   UNL     1     -43.730  40.571  28.079  1.00  0.00     0.065 A 
ATOM     41  N   UNL     1     -44.091  38.682  29.569  1.00  0.00    -0.218 NA
ATOM     42  C   UNL     1     -42.706  41.027  28.933  1.00  0.00     0.136 A 
ATOM     43  C   UNL     1     -43.105  39.211  30.299  1.00  0.00     0.120 A 
ATOM     44  N   UNL     1     -42.407  40.328  30.041  1.00  0.00    -0.219 NA
ATOM     45  H   UNL     1     -42.838  38.678  31.207  1.00  0.00     0.106 H 
BRANCH  38  46
ATOM     46  C   UNL     1     -43.937  42.210  26.038  1.00  0.00    -0.014 C 
ATOM     47  C   UNL     1     -44.576  43.537  26.455  1.00  0.00    -0.046 C 
ATOM     48  C   UNL     1     -44.340  42.103  24.564  1.00  0.00    -0.046 C 
ATOM     49  H   UNL     1     -42.849  42.342  26.104  1.00  0.00     0.035 H 
ATOM     50  C   UNL     1     -44.279  44.444  25.270  1.00  0.00    -0.053 C 
ATOM     51  H   UNL     1     -45.661  43.448  26.580  1.00  0.00     0.027 H 
ATOM     52  H   UNL     1     -44.157  43.928  27.389  1.00  0.00     0.027 H 
ATOM     53  C   UNL     1     -44.415  43.542  24.047  1.00  0.00    -0.053 C 
ATOM     54  H   UNL     1     -45.322  41.625  24.454  1.00  0.00     0.027 H 
ATOM     55  H   UNL     1     -43.628  41.508  23.983  1.00  0.00     0.027 H 
ATOM     56  H   UNL     1     -44.952  45.304  25.227  1.00  0.00     0.027 H 
ATOM     57  H   UNL     1     -43.253  44.824  25.338  1.00  0.00     0.027 H 
ATOM     58  H   UNL     1     -45.373  43.711  23.541  1.00  0.00     0.027 H 
ATOM     59  H   UNL     1     -43.621  43.750  23.322  1.00  0.00     0.027 H 
ENDBRANCH  38  46
BRANCH  42  60
ATOM     60  N   UNL     1     -41.971  42.191  28.738  1.00  0.00    -0.383 N 
ATOM     61  H   UNL     1     -41.075  42.190  29.202  1.00  0.00     0.158 HD
ATOM     62  H   UNL     1     -41.936  42.392  27.744  1.00  0.00     0.158 HD
ENDBRANCH  42  60
ENDBRANCH  31  35
ENDBRANCH   1  26
TORSDOF 8
ENDMDL
MODEL 5
REMARK VINA RESULT:     -10.0      2.112      3.137
REMARK SMILES CNc1ccc2ccc(OCc3cncc(-n4cc(C5CCCC5)c5c(N)ncnc54)c3)cc2n1
REMARK SMILES IDX 11 1 10 4 9 5 3 6 4 7 35 8 5 9 34 11 6 12 33 14 7 15 8 17
REMARK SMILES IDX 2 20 1 22 12 26 13 27 32 28 14 29 16 31 15 33 17 35 18 36
REMARK SMILES IDX 31 37 19 38 25 40 30 41 26 42 29 43 28 44 20 46 21 47 24 48
REMARK SMILES IDX 22 50 23 53 27 60
REMARK H PARENT 11 2 11 3 4 10 5 13 33 16 7 18 8 19 2 21 1 23 1 24 1 25 13 30
REMARK H PARENT 32 32 15 34 18 39 29 45 20 49 21 51 21 52 24 54 24 55 22 56
REMARK H PARENT 22 57 23 58 23 59 27 61 27 62
REMARK Flexibility Score: inf
ROOT
ATOM      1  C   UNL     1     -46.765  36.491  26.586  1.00  0.00     0.115 C 
ATOM      2  H   UNL     1     -45.809  36.850  26.186  1.00  0.00     0.076 H 
ATOM      3  H   UNL     1     -47.507  36.756  25.823  1.00  0.00     0.076 H 
ENDROOT
BRANCH   1   4
ATOM      4  O   UNL     1     -46.979  37.182  27.823  1.00  0.00    -0.489 OA
BRANCH   4   5
ATOM      5  C   UNL     1     -45.937  37.967  28.242  1.00  0.00     0.122 A 
ATOM      6  C   UNL     1     -43.137  41.796  27.905  1.00  0.00     0.126 A 
ATOM      7  C   UNL     1     -42.430  41.433  29.045  1.00  0.00    -0.019 A 
ATOM      8  N   UNL     1     -44.158  41.047  27.438  1.00  0.00    -0.231 NA
ATOM      9  C   UNL     1     -42.760  40.256  29.709  1.00  0.00    -0.049 A 
ATOM     10  H   UNL     1     -41.635  42.066  29.425  1.00  0.00     0.066 H 
ATOM     11  C   UNL     1     -44.486  39.908  28.077  1.00  0.00     0.076 A 
ATOM     12  C   UNL     1     -43.805  39.465  29.228  1.00  0.00     0.001 A 
ATOM     13  H   UNL     1     -42.207  39.971  30.599  1.00  0.00     0.063 H 
ATOM     14  C   UNL     1     -45.536  39.138  27.595  1.00  0.00     0.007 A 
ATOM     15  C   UNL     1     -44.179  38.267  29.858  1.00  0.00    -0.049 A 
ATOM     16  H   UNL     1     -46.035  39.477  26.694  1.00  0.00     0.069 H 
ATOM     17  C   UNL     1     -45.240  37.517  29.358  1.00  0.00    -0.019 A 
ATOM     18  H   UNL     1     -43.652  37.917  30.743  1.00  0.00     0.063 H 
ATOM     19  H   UNL     1     -45.537  36.595  29.851  1.00  0.00     0.066 H 
BRANCH   6  20
ATOM     20  N   UNL     1     -42.809  43.015  27.285  1.00  0.00    -0.373 N 
ATOM     21  H   UNL     1     -42.317  43.601  27.953  1.00  0.00     0.161 HD
BRANCH  20  22
ATOM     22  C   UNL     1     -42.067  42.876  26.043  1.00  0.00     0.005 C 
ATOM     23  H   UNL     1     -41.787  43.851  25.629  1.00  0.00     0.045 H 
ATOM     24  H   UNL     1     -41.170  42.260  26.176  1.00  0.00     0.045 H 
ATOM     25  H   UNL     1     -42.701  42.372  25.306  1.00  0.00     0.045 H 
ENDBRANCH  20  22
ENDBRANCH   6  20
ENDBRANCH   4   5
ENDBRANCH   1   4
BRANCH   1  26
ATOM     26  C   UNL     1     -46.676  35.001  26.783  1.00  0.00     0.010 A 
ATOM     27  C   UNL     1     -46.214  34.462  27.974  1.00  0.00     0.034 A 
ATOM     28  C   UNL     1     -47.103  34.110  25.789  1.00  0.00    -0.028 A 
ATOM     29  N   UNL     1     -46.128  33.136  28.215  1.00  0.00    -0.262 NA
ATOM     30  H   UNL     1     -45.889  35.097  28.795  1.00  0.00     0.084 H 
ATOM     31  C   UNL     1     -47.059  32.730  26.005  1.00  0.00     0.066 A 
ATOM     32  H   UNL     1     -47.457  34.528  24.853  1.00  0.00     0.065 H 
ATOM     33  C   UNL     1     -46.553  32.304  27.231  1.00  0.00     0.051 A 
ATOM     34  H   UNL     1     -46.487  31.259  27.512  1.00  0.00     0.086 H 
BRANCH  31  35
ATOM     35  N   UNL     1     -47.521  31.791  25.031  1.00  0.00    -0.299 N 
ATOM     36  C   UNL     1     -48.532  30.866  25.233  1.00  0.00     0.015 A 
ATOM     37  C   UNL     1     -47.069  31.626  23.723  1.00  0.00     0.150 A 
ATOM     38  C   UNL     1     -48.728  30.105  24.093  1.00  0.00    -0.013 A 
ATOM     39  H   UNL     1     -49.020  30.781  26.192  1.00  0.00     0.083 H 
ATOM     40  C   UNL     1     -47.802  30.606  23.118  1.00  0.00     0.065 A 
ATOM     41  N   UNL     1     -46.104  32.348  23.119  1.00  0.00    -0.218 NA
ATOM     42  C   UNL     1     -47.478  30.313  21.779  1.00  0.00     0.136 A 
ATOM     43  C   UNL     1     -45.886  31.982  21.852  1.00  0.00     0.120 A 
ATOM     44  N   UNL     1     -46.511  31.014  21.163  1.00  0.00    -0.219 NA
ATOM     45  H   UNL     1     -45.115  32.530  21.318  1.00  0.00     0.106 H 
BRANCH  38  46
ATOM     46  C   UNL     1     -49.699  28.975  23.916  1.00  0.00    -0.014 C 
ATOM     47  C   UNL     1     -51.177  29.363  23.840  1.00  0.00    -0.046 C 
ATOM     48  C   UNL     1     -49.683  27.974  25.076  1.00  0.00    -0.046 C 
ATOM     49  H   UNL     1     -49.457  28.447  22.984  1.00  0.00     0.035 H 
ATOM     50  C   UNL     1     -51.888  28.030  24.020  1.00  0.00    -0.053 C 
ATOM     51  H   UNL     1     -51.465  30.039  24.654  1.00  0.00     0.027 H 
ATOM     52  H   UNL     1     -51.436  29.844  22.891  1.00  0.00     0.027 H 
ATOM     53  C   UNL     1     -51.043  27.274  25.040  1.00  0.00    -0.053 C 
ATOM     54  H   UNL     1     -49.562  28.486  26.040  1.00  0.00     0.027 H 
ATOM     55  H   UNL     1     -48.862  27.255  24.990  1.00  0.00     0.027 H 
ATOM     56  H   UNL     1     -52.924  28.153  24.349  1.00  0.00     0.027 H 
ATOM     57  H   UNL     1     -51.901  27.483  23.070  1.00  0.00     0.027 H 
ATOM     58  H   UNL     1     -51.508  27.304  26.032  1.00  0.00     0.027 H 
ATOM     59  H   UNL     1     -50.945  26.220  24.757  1.00  0.00     0.027 H 
ENDBRANCH  38  46
BRANCH  42  60
ATOM     60  N   UNL     1     -48.109  29.348  21.002  1.00  0.00    -0.383 N 
ATOM     61  H   UNL     1     -47.499  28.603  20.700  1.00  0.00     0.158 HD
ATOM     62  H   UNL     1     -48.950  29.043  21.482  1.00  0.00     0.158 HD
ENDBRANCH  42  60
ENDBRANCH  31  35
ENDBRANCH   1  26
TORSDOF 8
ENDMDL
MODEL 6
REMARK VINA RESULT:     -10.0      2.999     11.336
REMARK SMILES CNc1ccc2ccc(OCc3cncc(-n4cc(C5CCCC5)c5c(N)ncnc54)c3)cc2n1
REMARK SMILES IDX 11 1 10 4 9 5 3 6 4 7 35 8 5 9 34 11 6 12 33 14 7 15 8 17
REMARK SMILES IDX 2 20 1 22 12 26 13 27 32 28 14 29 16 31 15 33 17 35 18 36
REMARK SMILES IDX 31 37 19 38 25 40 30 41 26 42 29 43 28 44 20 46 21 47 24 48
REMARK SMILES IDX 22 50 23 53 27 60
REMARK H PARENT 11 2 11 3 4 10 5 13 33 16 7 18 8 19 2 21 1 23 1 24 1 25 13 30
REMARK H PARENT 32 32 15 34 18 39 29 45 20 49 21 51 21 52 24 54 24 55 22 56
REMARK H PARENT 22 57 23 58 23 59 27 61 27 62
REMARK Flexibility Score: inf
ROOT
ATOM      1  C   UNL     1     -47.495  35.208  26.791  1.00  0.00     0.115 C 
ATOM      2  H   UNL     1     -48.500  35.206  27.230  1.00  0.00     0.076 H 
ATOM      3  H   UNL     1     -47.655  35.393  25.722  1.00  0.00     0.076 H 
ENDROOT
BRANCH   1   4
ATOM      4  O   UNL     1     -46.932  33.915  27.047  1.00  0.00    -0.489 OA
BRANCH   4   5
ATOM      5  C   UNL     1     -47.182  32.969  26.088  1.00  0.00     0.122 A 
ATOM      6  C   UNL     1     -46.379  30.915  21.875  1.00  0.00     0.126 A 
ATOM      7  C   UNL     1     -47.334  29.936  22.121  1.00  0.00    -0.019 A 
ATOM      8  N   UNL     1     -46.111  31.883  22.776  1.00  0.00    -0.231 NA
ATOM      9  C   UNL     1     -48.052  29.965  23.313  1.00  0.00    -0.049 A 
ATOM     10  H   UNL     1     -47.511  29.146  21.400  1.00  0.00     0.066 H 
ATOM     11  C   UNL     1     -46.798  31.915  23.934  1.00  0.00     0.076 A 
ATOM     12  C   UNL     1     -47.792  30.968  24.247  1.00  0.00     0.001 A 
ATOM     13  H   UNL     1     -48.799  29.200  23.505  1.00  0.00     0.063 H 
ATOM     14  C   UNL     1     -46.520  32.912  24.860  1.00  0.00     0.007 A 
ATOM     15  C   UNL     1     -48.488  31.045  25.465  1.00  0.00    -0.049 A 
ATOM     16  H   UNL     1     -45.771  33.650  24.595  1.00  0.00     0.069 H 
ATOM     17  C   UNL     1     -48.185  32.051  26.379  1.00  0.00    -0.019 A 
ATOM     18  H   UNL     1     -49.261  30.320  25.710  1.00  0.00     0.063 H 
ATOM     19  H   UNL     1     -48.716  32.106  27.326  1.00  0.00     0.066 H 
BRANCH   6  20
ATOM     20  N   UNL     1     -45.639  30.830  20.682  1.00  0.00    -0.373 N 
ATOM     21  H   UNL     1     -45.654  29.869  20.354  1.00  0.00     0.161 HD
BRANCH  20  22
ATOM     22  C   UNL     1     -46.062  31.758  19.646  1.00  0.00     0.005 C 
ATOM     23  H   UNL     1     -45.688  32.771  19.834  1.00  0.00     0.045 H 
ATOM     24  H   UNL     1     -45.743  31.425  18.652  1.00  0.00     0.045 H 
ATOM     25  H   UNL     1     -47.156  31.806  19.637  1.00  0.00     0.045 H 
ENDBRANCH  20  22
ENDBRANCH   6  20
ENDBRANCH   4   5
ENDBRANCH   1   4
BRANCH   1  26
ATOM     26  C   UNL     1     -46.691  36.308  27.433  1.00  0.00     0.010 A 
ATOM     27  C   UNL     1     -45.886  36.058  28.534  1.00  0.00     0.034 A 
ATOM     28  C   UNL     1     -46.692  37.607  26.911  1.00  0.00    -0.028 A 
ATOM     29  N   UNL     1     -45.131  36.998  29.140  1.00  0.00    -0.262 NA
ATOM     30  H   UNL     1     -45.821  35.066  28.975  1.00  0.00     0.084 H 
ATOM     31  C   UNL     1     -45.904  38.606  27.488  1.00  0.00     0.066 A 
ATOM     32  H   UNL     1     -47.328  37.810  26.055  1.00  0.00     0.065 H 
ATOM     33  C   UNL     1     -45.154  38.245  28.604  1.00  0.00     0.051 A 
ATOM     34  H   UNL     1     -44.496  38.933  29.123  1.00  0.00     0.086 H 
BRANCH  31  35
ATOM     35  N   UNL     1     -45.849  39.935  26.961  1.00  0.00    -0.299 N 
ATOM     36  C   UNL     1     -44.699  40.572  26.526  1.00  0.00     0.015 A 
ATOM     37  C   UNL     1     -46.905  40.825  26.777  1.00  0.00     0.150 A 
ATOM     38  C   UNL     1     -44.990  41.850  26.081  1.00  0.00    -0.013 A 
ATOM     39  H   UNL     1     -43.736  40.087  26.599  1.00  0.00     0.083 H 
ATOM     40  C   UNL     1     -46.409  42.005  26.225  1.00  0.00     0.065 A 
ATOM     41  N   UNL     1     -48.203  40.585  27.053  1.00  0.00    -0.218 NA
ATOM     42  C   UNL     1     -47.354  43.017  25.963  1.00  0.00     0.136 A 
ATOM     43  C   UNL     1     -49.003  41.616  26.762  1.00  0.00     0.120 A 
ATOM     44  N   UNL     1     -48.651  42.802  26.243  1.00  0.00    -0.219 NA
ATOM     45  H   UNL     1     -50.061  41.478  26.969  1.00  0.00     0.106 H 
BRANCH  38  46
ATOM     46  C   UNL     1     -44.019  42.873  25.569  1.00  0.00    -0.014 C 
ATOM     47  C   UNL     1     -43.798  42.892  24.055  1.00  0.00    -0.046 C 
ATOM     48  C   UNL     1     -42.597  42.681  26.105  1.00  0.00    -0.046 C 
ATOM     49  H   UNL     1     -44.379  43.871  25.854  1.00  0.00     0.035 H 
ATOM     50  C   UNL     1     -42.550  43.749  23.905  1.00  0.00    -0.053 C 
ATOM     51  H   UNL     1     -43.599  41.890  23.658  1.00  0.00     0.027 H 
ATOM     52  H   UNL     1     -44.653  43.309  23.512  1.00  0.00     0.027 H 
ATOM     53  C   UNL     1     -41.676  43.375  25.098  1.00  0.00    -0.053 C 
ATOM     54  H   UNL     1     -42.336  41.617  26.165  1.00  0.00     0.027 H 
ATOM     55  H   UNL     1     -42.475  43.098  27.110  1.00  0.00     0.027 H 
ATOM     56  H   UNL     1     -42.043  43.581  22.951  1.00  0.00     0.027 H 
ATOM     57  H   UNL     1     -42.817  44.811  23.960  1.00  0.00     0.027 H 
ATOM     58  H   UNL     1     -40.871  42.696  24.795  1.00  0.00     0.027 H 
ATOM     59  H   UNL     1     -41.208  44.266  25.530  1.00  0.00     0.027 H 
ENDBRANCH  38  46
BRANCH  42  60
ATOM     60  N   UNL     1     -47.057  44.252  25.397  1.00  0.00    -0.383 N 
ATOM     61  H   UNL     1     -46.717  44.196  24.449  1.00  0.00     0.158 HD
ATOM     62  H   UNL     1     -47.851  44.870  25.530  1.00  0.00     0.158 HD
ENDBRANCH  42  60
ENDBRANCH  31  35
ENDBRANCH   1  26
TORSDOF 8
ENDMDL
MODEL 7
REMARK VINA RESULT:      -9.9      1.956     11.690
REMARK SMILES CNc1ccc2ccc(OCc3cncc(-n4cc(C5CCCC5)c5c(N)ncnc54)c3)cc2n1
REMARK SMILES IDX 11 1 10 4 9 5 3 6 4 7 35 8 5 9 34 11 6 12 33 14 7 15 8 17
REMARK SMILES IDX 2 20 1 22 12 26 13 27 32 28 14 29 16 31 15 33 17 35 18 36
REMARK SMILES IDX 31 37 19 38 25 40 30 41 26 42 29 43 28 44 20 46 21 47 24 48
REMARK SMILES IDX 22 50 23 53 27 60
REMARK H PARENT 11 2 11 3 4 10 5 13 33 16 7 18 8 19 2 21 1 23 1 24 1 25 13 30
REMARK H PARENT 32 32 15 34 18 39 29 45 20 49 21 51 21 52 24 54 24 55 22 56
REMARK H PARENT 22 57 23 58 23 59 27 61 27 62
REMARK Flexibility Score: inf
ROOT
ATOM      1  C   UNL     1     -47.624  35.147  26.410  1.00  0.00     0.115 C 
ATOM      2  H   UNL     1     -48.683  35.377  26.579  1.00  0.00     0.076 H 
ATOM      3  H   UNL     1     -47.499  35.177  25.321  1.00  0.00     0.076 H 
ENDROOT
BRANCH   1   4
ATOM      4  O   UNL     1     -47.395  33.840  26.953  1.00  0.00    -0.489 OA
BRANCH   4   5
ATOM      5  C   UNL     1     -47.387  32.820  26.038  1.00  0.00     0.122 A 
ATOM      6  C   UNL     1     -49.112  28.792  24.193  1.00  0.00     0.126 A 
ATOM      7  C   UNL     1     -48.175  28.808  23.167  1.00  0.00    -0.019 A 
ATOM      8  N   UNL     1     -49.150  29.760  25.132  1.00  0.00    -0.231 NA
ATOM      9  C   UNL     1     -47.233  29.831  23.118  1.00  0.00    -0.049 A 
ATOM     10  H   UNL     1     -48.183  28.040  22.402  1.00  0.00     0.066 H 
ATOM     11  C   UNL     1     -48.244  30.755  25.090  1.00  0.00     0.076 A 
ATOM     12  C   UNL     1     -47.252  30.830  24.092  1.00  0.00     0.001 A 
ATOM     13  H   UNL     1     -46.500  29.844  22.317  1.00  0.00     0.063 H 
ATOM     14  C   UNL     1     -48.283  31.750  26.058  1.00  0.00     0.007 A 
ATOM     15  C   UNL     1     -46.325  31.885  24.091  1.00  0.00    -0.049 A 
ATOM     16  H   UNL     1     -49.035  31.665  26.835  1.00  0.00     0.069 H 
ATOM     17  C   UNL     1     -46.390  32.873  25.070  1.00  0.00    -0.019 A 
ATOM     18  H   UNL     1     -45.553  31.945  23.327  1.00  0.00     0.063 H 
ATOM     19  H   UNL     1     -45.679  33.695  25.064  1.00  0.00     0.066 H 
BRANCH   6  20
ATOM     20  N   UNL     1     -50.079  27.770  24.187  1.00  0.00    -0.373 N 
ATOM     21  H   UNL     1     -50.388  27.616  23.231  1.00  0.00     0.161 HD
BRANCH  20  22
ATOM     22  C   UNL     1     -49.651  26.534  24.820  1.00  0.00     0.005 C 
ATOM     23  H   UNL     1     -49.260  26.712  25.828  1.00  0.00     0.045 H 
ATOM     24  H   UNL     1     -50.463  25.801  24.862  1.00  0.00     0.045 H 
ATOM     25  H   UNL     1     -48.844  26.092  24.226  1.00  0.00     0.045 H 
ENDBRANCH  20  22
ENDBRANCH   6  20
ENDBRANCH   4   5
ENDBRANCH   1   4
BRANCH   1  26
ATOM     26  C   UNL     1     -46.789  36.194  27.097  1.00  0.00     0.010 A 
ATOM     27  C   UNL     1     -45.953  35.866  28.154  1.00  0.00     0.034 A 
ATOM     28  C   UNL     1     -46.791  37.526  26.661  1.00  0.00    -0.028 A 
ATOM     29  N   UNL     1     -45.170  36.757  28.797  1.00  0.00    -0.262 NA
ATOM     30  H   UNL     1     -45.886  34.847  28.527  1.00  0.00     0.084 H 
ATOM     31  C   UNL     1     -45.974  38.477  27.277  1.00  0.00     0.066 A 
ATOM     32  H   UNL     1     -47.450  37.789  25.840  1.00  0.00     0.065 H 
ATOM     33  C   UNL     1     -45.196  38.037  28.344  1.00  0.00     0.051 A 
ATOM     34  H   UNL     1     -44.514  38.683  28.886  1.00  0.00     0.086 H 
BRANCH  31  35
ATOM     35  N   UNL     1     -45.921  39.837  26.837  1.00  0.00    -0.299 N 
ATOM     36  C   UNL     1     -44.777  40.491  26.410  1.00  0.00     0.015 A 
ATOM     37  C   UNL     1     -46.973  40.747  26.744  1.00  0.00     0.150 A 
ATOM     38  C   UNL     1     -45.068  41.798  26.058  1.00  0.00    -0.013 A 
ATOM     39  H   UNL     1     -43.818  39.994  26.422  1.00  0.00     0.083 H 
ATOM     40  C   UNL     1     -46.480  41.956  26.255  1.00  0.00     0.065 A 
ATOM     41  N   UNL     1     -48.264  40.501  27.043  1.00  0.00    -0.218 NA
ATOM     42  C   UNL     1     -47.421  42.992  26.089  1.00  0.00     0.136 A 
ATOM     43  C   UNL     1     -49.061  41.555  26.844  1.00  0.00     0.120 A 
ATOM     44  N   UNL     1     -48.711  42.770  26.393  1.00  0.00    -0.219 NA
ATOM     45  H   UNL     1     -50.114  41.413  27.072  1.00  0.00     0.106 H 
BRANCH  38  46
ATOM     46  C   UNL     1     -44.102  42.844  25.586  1.00  0.00    -0.014 C 
ATOM     47  C   UNL     1     -43.841  42.887  24.078  1.00  0.00    -0.046 C 
ATOM     48  C   UNL     1     -42.690  42.669  26.156  1.00  0.00    -0.046 C 
ATOM     49  H   UNL     1     -44.485  43.832  25.874  1.00  0.00     0.035 H 
ATOM     50  C   UNL     1     -42.604  43.767  23.972  1.00  0.00    -0.053 C 
ATOM     51  H   UNL     1     -43.614  41.894  23.674  1.00  0.00     0.027 H 
ATOM     52  H   UNL     1     -44.688  43.297  23.518  1.00  0.00     0.027 H 
ATOM     53  C   UNL     1     -41.755  43.391  25.183  1.00  0.00    -0.053 C 
ATOM     54  H   UNL     1     -42.413  41.609  26.210  1.00  0.00     0.027 H 
ATOM     55  H   UNL     1     -42.602  43.074  27.170  1.00  0.00     0.027 H 
ATOM     56  H   UNL     1     -42.070  43.619  23.030  1.00  0.00     0.027 H 
ATOM     57  H   UNL     1     -42.891  44.823  24.034  1.00  0.00     0.027 H 
ATOM     58  H   UNL     1     -40.931  42.729  24.893  1.00  0.00     0.027 H 
ATOM     59  H   UNL     1     -41.314  44.284  25.639  1.00  0.00     0.027 H 
ENDBRANCH  38  46
BRANCH  42  60
ATOM     60  N   UNL     1     -47.128  44.258  25.596  1.00  0.00    -0.383 N 
ATOM     61  H   UNL     1     -47.581  44.470  24.720  1.00  0.00     0.158 HD
ATOM     62  H   UNL     1     -47.284  44.938  26.333  1.00  0.00     0.158 HD
ENDBRANCH  42  60
ENDBRANCH  31  35
ENDBRANCH   1  26
TORSDOF 8
ENDMDL
