MODEL 1
REMARK VINA RESULT:     -10.4      0.000      0.000
REMARK SMILES CNc1ccc2ccc(CC[C@H]3C[C@@H](n4cc(C5CCCC5)c5c(N)ncnc54)[C@H](O)[C@@H]3O)cc2n1
REMARK SMILES IDX 10 1 9 4 3 5 4 6 36 7 5 8 35 10 6 11 34 13 7 14 8 16 2 19
REMARK SMILES IDX 1 21 11 25 12 28 13 29 32 30 14 32 30 35 33 39 15 41 16 42
REMARK SMILES IDX 29 43 17 44 23 46 28 47 24 48 27 49 26 50 18 52 19 53 22 54
REMARK SMILES IDX 20 56 21 59 25 66 31 69
REMARK H PARENT 10 2 10 3 4 9 5 12 34 15 7 17 8 18 2 20 1 22 1 23 1 24 11 26
REMARK H PARENT 11 27 12 31 13 33 13 34 32 36 14 37 30 38 33 40 16 45 27 51
REMARK H PARENT 18 55 19 57 19 58 22 60 22 61 20 62 20 63 21 64 21 65 25 67
REMARK H PARENT 25 68 31 70
REMARK Flexibility Score: inf
ROOT
ATOM      1  C   UNL     1     -46.704  35.252  26.402  1.00  0.00    -0.027 C 
ATOM      2  H   UNL     1     -47.208  36.097  25.917  1.00  0.00     0.032 H 
ATOM      3  H   UNL     1     -45.636  35.361  26.178  1.00  0.00     0.032 H 
ENDROOT
BRANCH   1   4
ATOM      4  C   UNL     1     -47.202  33.962  25.798  1.00  0.00    -0.046 A 
ATOM      5  C   UNL     1     -46.493  30.332  22.794  1.00  0.00     0.126 A 
ATOM      6  C   UNL     1     -47.715  29.759  23.110  1.00  0.00    -0.019 A 
ATOM      7  N   UNL     1     -46.062  31.474  23.363  1.00  0.00    -0.231 NA
ATOM      8  C   UNL     1     -48.538  30.392  24.035  1.00  0.00    -0.049 A 
ATOM      9  H   UNL     1     -48.020  28.820  22.662  1.00  0.00     0.066 H 
ATOM     10  C   UNL     1     -46.853  32.089  24.263  1.00  0.00     0.073 A 
ATOM     11  C   UNL     1     -48.115  31.584  24.630  1.00  0.00     0.000 A 
ATOM     12  H   UNL     1     -49.496  29.949  24.290  1.00  0.00     0.063 H 
ATOM     13  C   UNL     1     -46.424  33.270  24.856  1.00  0.00    -0.033 A 
ATOM     14  C   UNL     1     -48.908  32.265  25.569  1.00  0.00    -0.053 A 
ATOM     15  H   UNL     1     -45.448  33.660  24.572  1.00  0.00     0.065 H 
ATOM     16  C   UNL     1     -48.454  33.450  26.146  1.00  0.00    -0.058 A 
ATOM     17  H   UNL     1     -49.882  31.875  25.856  1.00  0.00     0.063 H 
ATOM     18  H   UNL     1     -49.079  33.966  26.871  1.00  0.00     0.063 H 
BRANCH   5  19
ATOM     19  N   UNL     1     -45.609  29.745  21.885  1.00  0.00    -0.373 N 
ATOM     20  H   UNL     1     -46.226  29.274  21.223  1.00  0.00     0.161 HD
BRANCH  19  21
ATOM     21  C   UNL     1     -44.674  28.812  22.490  1.00  0.00     0.005 C 
ATOM     22  H   UNL     1     -44.086  28.280  21.736  1.00  0.00     0.045 H 
ATOM     23  H   UNL     1     -45.237  28.060  23.054  1.00  0.00     0.045 H 
ATOM     24  H   UNL     1     -43.997  29.316  23.190  1.00  0.00     0.045 H 
ENDBRANCH  19  21
ENDBRANCH   5  19
ENDBRANCH   1   4
BRANCH   1  25
ATOM     25  C   UNL     1     -46.944  35.287  27.915  1.00  0.00    -0.044 C 
ATOM     26  H   UNL     1     -47.930  34.860  28.138  1.00  0.00     0.027 H 
ATOM     27  H   UNL     1     -46.212  34.641  28.418  1.00  0.00     0.027 H 
BRANCH  25  28
ATOM     28  C   UNL     1     -46.884  36.700  28.503  1.00  0.00    -0.010 C 
ATOM     29  C   UNL     1     -45.544  37.382  28.222  1.00  0.00    -0.024 C 
ATOM     30  C   UNL     1     -47.882  37.687  27.892  1.00  0.00     0.085 C 
ATOM     31  H   UNL     1     -47.044  36.635  29.589  1.00  0.00     0.033 H 
ATOM     32  C   UNL     1     -45.820  38.843  28.597  1.00  0.00     0.064 C 
ATOM     33  H   UNL     1     -45.283  37.279  27.162  1.00  0.00     0.029 H 
ATOM     34  H   UNL     1     -44.732  36.954  28.816  1.00  0.00     0.029 H 
ATOM     35  C   UNL     1     -47.266  39.086  28.107  1.00  0.00     0.101 C 
ATOM     36  H   UNL     1     -47.998  37.498  26.818  1.00  0.00     0.063 H 
ATOM     37  H   UNL     1     -45.780  38.934  29.693  1.00  0.00     0.056 H 
ATOM     38  H   UNL     1     -47.305  39.654  27.170  1.00  0.00     0.065 H 
BRANCH  30  39
ATOM     39  O   UNL     1     -49.156  37.572  28.510  1.00  0.00    -0.390 OA
ATOM     40  H   UNL     1     -49.680  36.992  27.913  1.00  0.00     0.211 HD
ENDBRANCH  30  39
BRANCH  32  41
ATOM     41  N   UNL     1     -44.876  39.832  28.102  1.00  0.00    -0.326 N 
ATOM     42  C   UNL     1     -44.964  40.557  26.944  1.00  0.00     0.010 A 
ATOM     43  C   UNL     1     -43.691  40.136  28.733  1.00  0.00     0.146 A 
ATOM     44  C   UNL     1     -43.856  41.385  26.842  1.00  0.00    -0.014 A 
ATOM     45  H   UNL     1     -45.806  40.453  26.270  1.00  0.00     0.082 H 
ATOM     46  C   UNL     1     -43.018  41.085  27.971  1.00  0.00     0.065 A 
ATOM     47  N   UNL     1     -43.277  39.593  29.894  1.00  0.00    -0.218 NA
ATOM     48  C   UNL     1     -41.764  41.491  28.462  1.00  0.00     0.136 A 
ATOM     49  C   UNL     1     -42.079  40.075  30.263  1.00  0.00     0.120 A 
ATOM     50  N   UNL     1     -41.313  40.972  29.622  1.00  0.00    -0.219 NA
ATOM     51  H   UNL     1     -41.675  39.690  31.196  1.00  0.00     0.106 H 
BRANCH  44  52
ATOM     52  C   UNL     1     -43.589  42.377  25.740  1.00  0.00    -0.014 C 
ATOM     53  C   UNL     1     -43.604  43.846  26.206  1.00  0.00    -0.046 C 
ATOM     54  C   UNL     1     -44.622  42.289  24.602  1.00  0.00    -0.046 C 
ATOM     55  H   UNL     1     -42.598  42.183  25.317  1.00  0.00     0.035 H 
ATOM     56  C   UNL     1     -44.365  44.601  25.124  1.00  0.00    -0.053 C 
ATOM     57  H   UNL     1     -44.112  43.976  27.169  1.00  0.00     0.027 H 
ATOM     58  H   UNL     1     -42.590  44.240  26.327  1.00  0.00     0.027 H 
ATOM     59  C   UNL     1     -45.402  43.595  24.660  1.00  0.00    -0.053 C 
ATOM     60  H   UNL     1     -45.285  41.418  24.666  1.00  0.00     0.027 H 
ATOM     61  H   UNL     1     -44.095  42.226  23.642  1.00  0.00     0.027 H 
ATOM     62  H   UNL     1     -43.691  44.862  24.299  1.00  0.00     0.027 H 
ATOM     63  H   UNL     1     -44.817  45.523  25.501  1.00  0.00     0.027 H 
ATOM     64  H   UNL     1     -46.214  43.519  25.393  1.00  0.00     0.027 H 
ATOM     65  H   UNL     1     -45.837  43.861  23.692  1.00  0.00     0.027 H 
ENDBRANCH  44  52
BRANCH  48  66
ATOM     66  N   UNL     1     -40.910  42.378  27.818  1.00  0.00    -0.383 N 
ATOM     67  H   UNL     1     -40.007  41.935  27.685  1.00  0.00     0.158 HD
ATOM     68  H   UNL     1     -41.308  42.784  26.983  1.00  0.00     0.158 HD
ENDBRANCH  48  66
ENDBRANCH  32  41
BRANCH  35  69
ATOM     69  O   UNL     1     -48.031  39.800  29.089  1.00  0.00    -0.388 OA
ATOM     70  H   UNL     1     -47.458  39.837  29.887  1.00  0.00     0.211 HD
ENDBRANCH  35  69
ENDBRANCH  25  28
ENDBRANCH   1  25
TORSDOF 10
ENDMDL
MODEL 2
REMARK VINA RESULT:     -10.0      2.449     10.828
REMARK SMILES CNc1ccc2ccc(CC[C@H]3C[C@@H](n4cc(C5CCCC5)c5c(N)ncnc54)[C@H](O)[C@@H]3O)cc2n1
REMARK SMILES IDX 10 1 9 4 3 5 4 6 36 7 5 8 35 10 6 11 34 13 7 14 8 16 2 19
REMARK SMILES IDX 1 21 11 25 12 28 13 29 32 30 14 32 30 35 33 39 15 41 16 42
REMARK SMILES IDX 29 43 17 44 23 46 28 47 24 48 27 49 26 50 18 52 19 53 22 54
REMARK SMILES IDX 20 56 21 59 25 66 31 69
REMARK H PARENT 10 2 10 3 4 9 5 12 34 15 7 17 8 18 2 20 1 22 1 23 1 24 11 26
REMARK H PARENT 11 27 12 31 13 33 13 34 32 36 14 37 30 38 33 40 16 45 27 51
REMARK H PARENT 18 55 19 57 19 58 22 60 22 61 20 62 20 63 21 64 21 65 25 67
REMARK H PARENT 25 68 31 70
REMARK Flexibility Score: inf
ROOT
ATOM      1  C   UNL     1     -47.567  37.121  27.931  1.00  0.00    -0.027 C 
ATOM      2  H   UNL     1     -48.497  37.702  27.902  1.00  0.00     0.032 H 
ATOM      3  H   UNL     1     -47.641  36.465  28.807  1.00  0.00     0.032 H 
ENDROOT
BRANCH   1   4
ATOM      4  C   UNL     1     -46.399  38.059  28.119  1.00  0.00    -0.046 A 
ATOM      5  C   UNL     1     -43.756  41.653  26.447  1.00  0.00     0.126 A 
ATOM      6  C   UNL     1     -42.911  41.617  27.545  1.00  0.00    -0.019 A 
ATOM      7  N   UNL     1     -44.804  40.818  26.314  1.00  0.00    -0.231 NA
ATOM      8  C   UNL     1     -43.140  40.673  28.541  1.00  0.00    -0.049 A 
ATOM      9  H   UNL     1     -42.097  42.325  27.643  1.00  0.00     0.066 H 
ATOM     10  C   UNL     1     -45.033  39.906  27.277  1.00  0.00     0.073 A 
ATOM     11  C   UNL     1     -44.217  39.790  28.418  1.00  0.00     0.000 A 
ATOM     12  H   UNL     1     -42.485  40.639  29.406  1.00  0.00     0.063 H 
ATOM     13  C   UNL     1     -46.109  39.035  27.152  1.00  0.00    -0.033 A 
ATOM     14  C   UNL     1     -44.491  38.817  29.394  1.00  0.00    -0.053 A 
ATOM     15  H   UNL     1     -46.740  39.125  26.269  1.00  0.00     0.065 H 
ATOM     16  C   UNL     1     -45.575  37.954  29.241  1.00  0.00    -0.058 A 
ATOM     17  H   UNL     1     -43.863  38.728  30.277  1.00  0.00     0.063 H 
ATOM     18  H   UNL     1     -45.775  37.205  30.005  1.00  0.00     0.063 H 
BRANCH   5  19
ATOM     19  N   UNL     1     -43.596  42.582  25.416  1.00  0.00    -0.373 N 
ATOM     20  H   UNL     1     -43.523  42.002  24.580  1.00  0.00     0.161 HD
BRANCH  19  21
ATOM     21  C   UNL     1     -42.429  43.436  25.568  1.00  0.00     0.005 C 
ATOM     22  H   UNL     1     -42.435  44.262  24.850  1.00  0.00     0.045 H 
ATOM     23  H   UNL     1     -41.528  42.844  25.375  1.00  0.00     0.045 H 
ATOM     24  H   UNL     1     -42.353  43.838  26.585  1.00  0.00     0.045 H 
ENDBRANCH  19  21
ENDBRANCH   5  19
ENDBRANCH   1   4
BRANCH   1  25
ATOM     25  C   UNL     1     -47.415  36.294  26.650  1.00  0.00    -0.044 C 
ATOM     26  H   UNL     1     -48.216  36.558  25.947  1.00  0.00     0.027 H 
ATOM     27  H   UNL     1     -46.473  36.559  26.151  1.00  0.00     0.027 H 
BRANCH  25  28
ATOM     28  C   UNL     1     -47.468  34.783  26.898  1.00  0.00    -0.010 C 
ATOM     29  C   UNL     1     -47.939  34.015  25.663  1.00  0.00    -0.024 C 
ATOM     30  C   UNL     1     -46.109  34.136  27.180  1.00  0.00     0.085 C 
ATOM     31  H   UNL     1     -48.152  34.589  27.736  1.00  0.00     0.033 H 
ATOM     32  C   UNL     1     -47.611  32.560  26.020  1.00  0.00     0.064 C 
ATOM     33  H   UNL     1     -47.386  34.349  24.777  1.00  0.00     0.029 H 
ATOM     34  H   UNL     1     -49.007  34.158  25.472  1.00  0.00     0.029 H 
ATOM     35  C   UNL     1     -46.261  32.657  26.767  1.00  0.00     0.101 C 
ATOM     36  H   UNL     1     -45.327  34.609  26.573  1.00  0.00     0.063 H 
ATOM     37  H   UNL     1     -48.387  32.187  26.705  1.00  0.00     0.056 H 
ATOM     38  H   UNL     1     -45.411  32.359  26.143  1.00  0.00     0.065 H 
BRANCH  30  39
ATOM     39  O   UNL     1     -45.757  34.267  28.551  1.00  0.00    -0.390 OA
ATOM     40  H   UNL     1     -45.659  35.234  28.700  1.00  0.00     0.211 HD
ENDBRANCH  30  39
BRANCH  32  41
ATOM     41  N   UNL     1     -47.588  31.609  24.921  1.00  0.00    -0.326 N 
ATOM     42  C   UNL     1     -47.187  31.839  23.632  1.00  0.00     0.010 A 
ATOM     43  C   UNL     1     -48.043  30.314  25.025  1.00  0.00     0.146 A 
ATOM     44  C   UNL     1     -47.326  30.670  22.898  1.00  0.00    -0.014 A 
ATOM     45  H   UNL     1     -46.819  32.808  23.316  1.00  0.00     0.082 H 
ATOM     46  C   UNL     1     -47.915  29.702  23.783  1.00  0.00     0.065 A 
ATOM     47  N   UNL     1     -48.525  29.757  26.153  1.00  0.00    -0.218 NA
ATOM     48  C   UNL     1     -48.363  28.371  23.704  1.00  0.00     0.136 A 
ATOM     49  C   UNL     1     -48.900  28.484  25.951  1.00  0.00     0.120 A 
ATOM     50  N   UNL     1     -48.852  27.776  24.811  1.00  0.00    -0.219 NA
ATOM     51  H   UNL     1     -49.297  27.958  26.816  1.00  0.00     0.106 H 
BRANCH  44  52
ATOM     52  C   UNL     1     -46.955  30.483  21.451  1.00  0.00    -0.014 C 
ATOM     53  C   UNL     1     -45.924  31.506  20.933  1.00  0.00    -0.046 C 
ATOM     54  C   UNL     1     -48.168  30.599  20.509  1.00  0.00    -0.046 C 
ATOM     55  H   UNL     1     -46.516  29.489  21.320  1.00  0.00     0.035 H 
ATOM     56  C   UNL     1     -46.423  31.913  19.553  1.00  0.00    -0.053 C 
ATOM     57  H   UNL     1     -45.856  32.394  21.573  1.00  0.00     0.027 H 
ATOM     58  H   UNL     1     -44.919  31.074  20.882  1.00  0.00     0.027 H 
ATOM     59  C   UNL     1     -47.933  31.867  19.699  1.00  0.00    -0.053 C 
ATOM     60  H   UNL     1     -49.134  30.622  21.026  1.00  0.00     0.027 H 
ATOM     61  H   UNL     1     -48.182  29.736  19.833  1.00  0.00     0.027 H 
ATOM     62  H   UNL     1     -46.090  31.187  18.801  1.00  0.00     0.027 H 
ATOM     63  H   UNL     1     -46.062  32.902  19.256  1.00  0.00     0.027 H 
ATOM     64  H   UNL     1     -48.289  32.743  20.254  1.00  0.00     0.027 H 
ATOM     65  H   UNL     1     -48.444  31.841  18.733  1.00  0.00     0.027 H 
ENDBRANCH  44  52
BRANCH  48  66
ATOM     66  N   UNL     1     -48.379  27.607  22.543  1.00  0.00    -0.383 N 
ATOM     67  H   UNL     1     -48.022  28.163  21.774  1.00  0.00     0.158 HD
ATOM     68  H   UNL     1     -47.940  26.703  22.651  1.00  0.00     0.158 HD
ENDBRANCH  48  66
ENDBRANCH  32  41
BRANCH  35  69
ATOM     69  O   UNL     1     -46.259  31.830  27.940  1.00  0.00    -0.388 OA
ATOM     70  H   UNL     1     -46.480  32.434  28.683  1.00  0.00     0.211 HD
ENDBRANCH  35  69
ENDBRANCH  25  28
ENDBRANCH   1  25
TORSDOF 10
ENDMDL
MODEL 3
REMARK VINA RESULT:      -9.8      2.442      3.661
REMARK SMILES CNc1ccc2ccc(CC[C@H]3C[C@@H](n4cc(C5CCCC5)c5c(N)ncnc54)[C@H](O)[C@@H]3O)cc2n1
REMARK SMILES IDX 10 1 9 4 3 5 4 6 36 7 5 8 35 10 6 11 34 13 7 14 8 16 2 19
REMARK SMILES IDX 1 21 11 25 12 28 13 29 32 30 14 32 30 35 33 39 15 41 16 42
REMARK SMILES IDX 29 43 17 44 23 46 28 47 24 48 27 49 26 50 18 52 19 53 22 54
REMARK SMILES IDX 20 56 21 59 25 66 31 69
REMARK H PARENT 10 2 10 3 4 9 5 12 34 15 7 17 8 18 2 20 1 22 1 23 1 24 11 26
REMARK H PARENT 11 27 12 31 13 33 13 34 32 36 14 37 30 38 33 40 16 45 27 51
REMARK H PARENT 18 55 19 57 19 58 22 60 22 61 20 62 20 63 21 64 21 65 25 67
REMARK H PARENT 25 68 31 70
REMARK Flexibility Score: inf
ROOT
ATOM      1  C   UNL     1     -47.992  35.529  27.084  1.00  0.00    -0.027 C 
ATOM      2  H   UNL     1     -49.062  35.518  27.327  1.00  0.00     0.032 H 
ATOM      3  H   UNL     1     -47.816  36.443  26.506  1.00  0.00     0.032 H 
ENDROOT
BRANCH   1   4
ATOM      4  C   UNL     1     -47.666  34.333  26.222  1.00  0.00    -0.046 A 
ATOM      5  C   UNL     1     -48.892  30.020  24.612  1.00  0.00     0.126 A 
ATOM      6  C   UNL     1     -47.732  29.909  23.860  1.00  0.00    -0.019 A 
ATOM      7  N   UNL     1     -49.169  31.107  25.357  1.00  0.00    -0.231 NA
ATOM      8  C   UNL     1     -46.810  30.949  23.887  1.00  0.00    -0.049 A 
ATOM      9  H   UNL     1     -47.553  29.038  23.242  1.00  0.00     0.066 H 
ATOM     10  C   UNL     1     -48.282  32.119  25.383  1.00  0.00     0.073 A 
ATOM     11  C   UNL     1     -47.073  32.083  24.661  1.00  0.00     0.000 A 
ATOM     12  H   UNL     1     -45.900  30.873  23.299  1.00  0.00     0.063 H 
ATOM     13  C   UNL     1     -48.552  33.246  26.150  1.00  0.00    -0.033 A 
ATOM     14  C   UNL     1     -46.174  33.161  24.725  1.00  0.00    -0.053 A 
ATOM     15  H   UNL     1     -49.486  33.273  26.707  1.00  0.00     0.065 H 
ATOM     16  C   UNL     1     -46.469  34.278  25.505  1.00  0.00    -0.058 A 
ATOM     17  H   UNL     1     -45.241  33.136  24.166  1.00  0.00     0.063 H 
ATOM     18  H   UNL     1     -45.764  35.105  25.545  1.00  0.00     0.063 H 
BRANCH   5  19
ATOM     19  N   UNL     1     -49.869  29.021  24.623  1.00  0.00    -0.373 N 
ATOM     20  H   UNL     1     -50.675  29.480  25.048  1.00  0.00     0.161 HD
BRANCH  19  21
ATOM     21  C   UNL     1     -49.488  27.831  25.366  1.00  0.00     0.005 C 
ATOM     22  H   UNL     1     -49.825  26.917  24.868  1.00  0.00     0.045 H 
ATOM     23  H   UNL     1     -49.964  27.860  26.351  1.00  0.00     0.045 H 
ATOM     24  H   UNL     1     -48.403  27.782  25.520  1.00  0.00     0.045 H 
ENDBRANCH  19  21
ENDBRANCH   5  19
ENDBRANCH   1   4
BRANCH   1  25
ATOM     25  C   UNL     1     -47.155  35.532  28.368  1.00  0.00    -0.044 C 
ATOM     26  H   UNL     1     -47.813  35.687  29.233  1.00  0.00     0.027 H 
ATOM     27  H   UNL     1     -46.694  34.546  28.509  1.00  0.00     0.027 H 
BRANCH  25  28
ATOM     28  C   UNL     1     -46.076  36.620  28.380  1.00  0.00    -0.010 C 
ATOM     29  C   UNL     1     -46.284  37.648  27.268  1.00  0.00    -0.024 C 
ATOM     30  C   UNL     1     -46.071  37.498  29.634  1.00  0.00     0.085 C 
ATOM     31  H   UNL     1     -45.094  36.139  28.260  1.00  0.00     0.033 H 
ATOM     32  C   UNL     1     -45.321  38.775  27.661  1.00  0.00     0.064 C 
ATOM     33  H   UNL     1     -47.326  37.989  27.260  1.00  0.00     0.029 H 
ATOM     34  H   UNL     1     -46.053  37.238  26.280  1.00  0.00     0.029 H 
ATOM     35  C   UNL     1     -45.427  38.832  29.202  1.00  0.00     0.101 C 
ATOM     36  H   UNL     1     -47.097  37.679  29.978  1.00  0.00     0.063 H 
ATOM     37  H   UNL     1     -44.303  38.479  27.370  1.00  0.00     0.056 H 
ATOM     38  H   UNL     1     -46.042  39.670  29.553  1.00  0.00     0.065 H 
BRANCH  30  39
ATOM     39  O   UNL     1     -45.345  36.879  30.688  1.00  0.00    -0.390 OA
ATOM     40  H   UNL     1     -45.855  36.069  30.909  1.00  0.00     0.211 HD
ENDBRANCH  30  39
BRANCH  32  41
ATOM     41  N   UNL     1     -45.536  40.065  27.025  1.00  0.00    -0.326 N 
ATOM     42  C   UNL     1     -44.587  40.893  26.488  1.00  0.00     0.010 A 
ATOM     43  C   UNL     1     -46.768  40.671  26.931  1.00  0.00     0.146 A 
ATOM     44  C   UNL     1     -45.208  42.028  25.986  1.00  0.00    -0.014 A 
ATOM     45  H   UNL     1     -43.537  40.627  26.482  1.00  0.00     0.082 H 
ATOM     46  C   UNL     1     -46.604  41.904  26.308  1.00  0.00     0.065 A 
ATOM     47  N   UNL     1     -47.923  40.140  27.375  1.00  0.00    -0.218 NA
ATOM     48  C   UNL     1     -47.771  42.675  26.155  1.00  0.00     0.136 A 
ATOM     49  C   UNL     1     -48.961  40.963  27.154  1.00  0.00     0.120 A 
ATOM     50  N   UNL     1     -48.948  42.179  26.585  1.00  0.00    -0.219 NA
ATOM     51  H   UNL     1     -49.934  40.604  27.479  1.00  0.00     0.106 H 
BRANCH  44  52
ATOM     52  C   UNL     1     -44.530  43.168  25.274  1.00  0.00    -0.014 C 
ATOM     53  C   UNL     1     -43.916  42.778  23.915  1.00  0.00    -0.046 C 
ATOM     54  C   UNL     1     -43.376  43.775  26.094  1.00  0.00    -0.046 C 
ATOM     55  H   UNL     1     -45.263  43.957  25.082  1.00  0.00     0.035 H 
ATOM     56  C   UNL     1     -42.559  43.468  23.874  1.00  0.00    -0.053 C 
ATOM     57  H   UNL     1     -43.778  41.695  23.811  1.00  0.00     0.027 H 
ATOM     58  H   UNL     1     -44.550  43.097  23.080  1.00  0.00     0.027 H 
ATOM     59  C   UNL     1     -42.107  43.435  25.323  1.00  0.00    -0.053 C 
ATOM     60  H   UNL     1     -43.328  43.419  27.129  1.00  0.00     0.027 H 
ATOM     61  H   UNL     1     -43.495  44.864  26.130  1.00  0.00     0.027 H 
ATOM     62  H   UNL     1     -42.672  44.505  23.534  1.00  0.00     0.027 H 
ATOM     63  H   UNL     1     -41.856  42.963  23.206  1.00  0.00     0.027 H 
ATOM     64  H   UNL     1     -41.759  42.431  25.591  1.00  0.00     0.027 H 
ATOM     65  H   UNL     1     -41.299  44.143  25.523  1.00  0.00     0.027 H 
ENDBRANCH  44  52
BRANCH  48  66
ATOM     66  N   UNL     1     -47.809  43.957  25.617  1.00  0.00    -0.383 N 
ATOM     67  H   UNL     1     -46.904  44.176  25.215  1.00  0.00     0.158 HD
ATOM     68  H   UNL     1     -48.595  44.108  24.999  1.00  0.00     0.158 HD
ENDBRANCH  48  66
ENDBRANCH  32  41
BRANCH  35  69
ATOM     69  O   UNL     1     -44.130  38.955  29.804  1.00  0.00    -0.388 OA
ATOM     70  H   UNL     1     -43.506  39.073  29.054  1.00  0.00     0.211 HD
ENDBRANCH  35  69
ENDBRANCH  25  28
ENDBRANCH   1  25
TORSDOF 10
ENDMDL
MODEL 4
REMARK VINA RESULT:      -9.6      2.294     11.205
REMARK SMILES CNc1ccc2ccc(CC[C@H]3C[C@@H](n4cc(C5CCCC5)c5c(N)ncnc54)[C@H](O)[C@@H]3O)cc2n1
REMARK SMILES IDX 10 1 9 4 3 5 4 6 36 7 5 8 35 10 6 11 34 13 7 14 8 16 2 19
REMARK SMILES IDX 1 21 11 25 12 28 13 29 32 30 14 32 30 35 33 39 15 41 16 42
REMARK SMILES IDX 29 43 17 44 23 46 28 47 24 48 27 49 26 50 18 52 19 53 22 54
REMARK SMILES IDX 20 56 21 59 25 66 31 69
REMARK H PARENT 10 2 10 3 4 9 5 12 34 15 7 17 8 18 2 20 1 22 1 23 1 24 11 26
REMARK H PARENT 11 27 12 31 13 33 13 34 32 36 14 37 30 38 33 40 16 45 27 51
REMARK H PARENT 18 55 19 57 19 58 22 60 22 61 20 62 20 63 21 64 21 65 25 67
REMARK H PARENT 25 68 31 70
REMARK Flexibility Score: inf
ROOT
ATOM      1  C   UNL     1     -47.662  37.363  27.794  1.00  0.00    -0.027 C 
ATOM      2  H   UNL     1     -48.547  37.986  27.608  1.00  0.00     0.032 H 
ATOM      3  H   UNL     1     -47.861  36.814  28.722  1.00  0.00     0.032 H 
ENDROOT
BRANCH   1   4
ATOM      4  C   UNL     1     -46.461  38.255  28.000  1.00  0.00    -0.046 A 
ATOM      5  C   UNL     1     -43.695  41.791  26.405  1.00  0.00     0.126 A 
ATOM      6  C   UNL     1     -42.850  41.699  27.500  1.00  0.00    -0.019 A 
ATOM      7  N   UNL     1     -44.773  40.997  26.255  1.00  0.00    -0.231 NA
ATOM      8  C   UNL     1     -43.111  40.741  28.474  1.00  0.00    -0.049 A 
ATOM      9  H   UNL     1     -42.011  42.375  27.612  1.00  0.00     0.066 H 
ATOM     10  C   UNL     1     -45.032  40.071  27.197  1.00  0.00     0.073 A 
ATOM     11  C   UNL     1     -44.218  39.900  28.334  1.00  0.00     0.000 A 
ATOM     12  H   UNL     1     -42.456  40.664  29.337  1.00  0.00     0.063 H 
ATOM     13  C   UNL     1     -46.138  39.242  27.055  1.00  0.00    -0.033 A 
ATOM     14  C   UNL     1     -44.525  38.915  29.287  1.00  0.00    -0.053 A 
ATOM     15  H   UNL     1     -46.767  39.375  26.176  1.00  0.00     0.065 H 
ATOM     16  C   UNL     1     -45.640  38.095  29.118  1.00  0.00    -0.058 A 
ATOM     17  H   UNL     1     -43.899  38.783  30.166  1.00  0.00     0.063 H 
ATOM     18  H   UNL     1     -45.865  37.336  29.864  1.00  0.00     0.063 H 
BRANCH   5  19
ATOM     19  N   UNL     1     -43.503  42.737  25.395  1.00  0.00    -0.373 N 
ATOM     20  H   UNL     1     -43.626  42.199  24.537  1.00  0.00     0.161 HD
BRANCH  19  21
ATOM     21  C   UNL     1     -42.201  43.382  25.431  1.00  0.00     0.005 C 
ATOM     22  H   UNL     1     -42.116  44.075  26.274  1.00  0.00     0.045 H 
ATOM     23  H   UNL     1     -42.068  43.966  24.514  1.00  0.00     0.045 H 
ATOM     24  H   UNL     1     -41.389  42.648  25.481  1.00  0.00     0.045 H 
ENDBRANCH  19  21
ENDBRANCH   5  19
ENDBRANCH   1   4
BRANCH   1  25
ATOM     25  C   UNL     1     -47.440  36.393  26.629  1.00  0.00    -0.044 C 
ATOM     26  H   UNL     1     -48.227  36.537  25.877  1.00  0.00     0.027 H 
ATOM     27  H   UNL     1     -46.493  36.631  26.127  1.00  0.00     0.027 H 
BRANCH  25  28
ATOM     28  C   UNL     1     -47.447  34.923  27.060  1.00  0.00    -0.010 C 
ATOM     29  C   UNL     1     -48.125  34.024  26.026  1.00  0.00    -0.024 C 
ATOM     30  C   UNL     1     -46.058  34.287  27.178  1.00  0.00     0.085 C 
ATOM     31  H   UNL     1     -47.974  34.842  28.022  1.00  0.00     0.033 H 
ATOM     32  C   UNL     1     -47.738  32.616  26.492  1.00  0.00     0.064 C 
ATOM     33  H   UNL     1     -47.736  34.241  25.024  1.00  0.00     0.029 H 
ATOM     34  H   UNL     1     -49.210  34.165  26.007  1.00  0.00     0.029 H 
ATOM     35  C   UNL     1     -46.278  32.773  26.976  1.00  0.00     0.101 C 
ATOM     36  H   UNL     1     -45.395  34.670  26.393  1.00  0.00     0.063 H 
ATOM     37  H   UNL     1     -48.382  32.340  27.340  1.00  0.00     0.056 H 
ATOM     38  H   UNL     1     -45.549  32.387  26.254  1.00  0.00     0.065 H 
BRANCH  30  39
ATOM     39  O   UNL     1     -45.473  34.571  28.442  1.00  0.00    -0.390 OA
ATOM     40  H   UNL     1     -45.300  35.539  28.433  1.00  0.00     0.211 HD
ENDBRANCH  30  39
BRANCH  32  41
ATOM     41  N   UNL     1     -47.906  31.542  25.526  1.00  0.00    -0.326 N 
ATOM     42  C   UNL     1     -48.613  30.380  25.690  1.00  0.00     0.010 A 
ATOM     43  C   UNL     1     -47.300  31.528  24.290  1.00  0.00     0.146 A 
ATOM     44  C   UNL     1     -48.517  29.624  24.531  1.00  0.00    -0.014 A 
ATOM     45  H   UNL     1     -49.148  30.165  26.607  1.00  0.00     0.082 H 
ATOM     46  C   UNL     1     -47.640  30.342  23.647  1.00  0.00     0.065 A 
ATOM     47  N   UNL     1     -46.516  32.510  23.807  1.00  0.00    -0.218 NA
ATOM     48  C   UNL     1     -47.078  30.151  22.372  1.00  0.00     0.136 A 
ATOM     49  C   UNL     1     -46.059  32.217  22.579  1.00  0.00     0.120 A 
ATOM     50  N   UNL     1     -46.288  31.111  21.851  1.00  0.00    -0.219 NA
ATOM     51  H   UNL     1     -45.420  32.964  22.114  1.00  0.00     0.106 H 
BRANCH  44  52
ATOM     52  C   UNL     1     -49.186  28.298  24.281  1.00  0.00    -0.014 C 
ATOM     53  C   UNL     1     -50.684  28.276  24.642  1.00  0.00    -0.046 C 
ATOM     54  C   UNL     1     -48.546  27.152  25.087  1.00  0.00    -0.046 C 
ATOM     55  H   UNL     1     -49.107  28.052  23.218  1.00  0.00     0.035 H 
ATOM     56  C   UNL     1     -50.907  26.946  25.349  1.00  0.00    -0.053 C 
ATOM     57  H   UNL     1     -50.967  29.097  25.312  1.00  0.00     0.027 H 
ATOM     58  H   UNL     1     -51.314  28.363  23.750  1.00  0.00     0.027 H 
ATOM     59  C   UNL     1     -49.604  26.724  26.095  1.00  0.00    -0.053 C 
ATOM     60  H   UNL     1     -47.605  27.422  25.578  1.00  0.00     0.027 H 
ATOM     61  H   UNL     1     -48.331  26.314  24.412  1.00  0.00     0.027 H 
ATOM     62  H   UNL     1     -51.065  26.148  24.613  1.00  0.00     0.027 H 
ATOM     63  H   UNL     1     -51.772  26.970  26.018  1.00  0.00     0.027 H 
ATOM     64  H   UNL     1     -49.560  27.363  26.984  1.00  0.00     0.027 H 
ATOM     65  H   UNL     1     -49.477  25.685  26.412  1.00  0.00     0.027 H 
ENDBRANCH  44  52
BRANCH  48  66
ATOM     66  N   UNL     1     -47.243  29.010  21.595  1.00  0.00    -0.383 N 
ATOM     67  H   UNL     1     -47.324  28.203  22.204  1.00  0.00     0.158 HD
ATOM     68  H   UNL     1     -47.977  29.096  20.906  1.00  0.00     0.158 HD
ENDBRANCH  48  66
ENDBRANCH  32  41
BRANCH  35  69
ATOM     69  O   UNL     1     -46.071  32.089  28.221  1.00  0.00    -0.388 OA
ATOM     70  H   UNL     1     -46.782  32.415  28.817  1.00  0.00     0.211 HD
ENDBRANCH  35  69
ENDBRANCH  25  28
ENDBRANCH   1  25
TORSDOF 10
ENDMDL
MODEL 5
REMARK VINA RESULT:      -9.5      1.895      2.353
REMARK SMILES CNc1ccc2ccc(CC[C@H]3C[C@@H](n4cc(C5CCCC5)c5c(N)ncnc54)[C@H](O)[C@@H]3O)cc2n1
REMARK SMILES IDX 10 1 9 4 3 5 4 6 36 7 5 8 35 10 6 11 34 13 7 14 8 16 2 19
REMARK SMILES IDX 1 21 11 25 12 28 13 29 32 30 14 32 30 35 33 39 15 41 16 42
REMARK SMILES IDX 29 43 17 44 23 46 28 47 24 48 27 49 26 50 18 52 19 53 22 54
REMARK SMILES IDX 20 56 21 59 25 66 31 69
REMARK H PARENT 10 2 10 3 4 9 5 12 34 15 7 17 8 18 2 20 1 22 1 23 1 24 11 26
REMARK H PARENT 11 27 12 31 13 33 13 34 32 36 14 37 30 38 33 40 16 45 27 51
REMARK H PARENT 18 55 19 57 19 58 22 60 22 61 20 62 20 63 21 64 21 65 25 67
REMARK H PARENT 25 68 31 70
REMARK Flexibility Score: inf
ROOT
ATOM      1  C   UNL     1     -47.890  35.557  26.843  1.00  0.00    -0.027 C 
ATOM      2  H   UNL     1     -48.963  35.783  26.795  1.00  0.00     0.032 H 
ATOM      3  H   UNL     1     -47.376  36.400  26.366  1.00  0.00     0.032 H 
ENDROOT
BRANCH   1   4
ATOM      4  C   UNL     1     -47.610  34.302  26.054  1.00  0.00    -0.046 A 
ATOM      5  C   UNL     1     -49.136  30.092  24.424  1.00  0.00     0.126 A 
ATOM      6  C   UNL     1     -47.921  29.827  23.811  1.00  0.00    -0.019 A 
ATOM      7  N   UNL     1     -49.367  31.230  25.106  1.00  0.00    -0.231 NA
ATOM      8  C   UNL     1     -46.895  30.759  23.915  1.00  0.00    -0.049 A 
ATOM      9  H   UNL     1     -47.775  28.918  23.238  1.00  0.00     0.066 H 
ATOM     10  C   UNL     1     -48.378  32.139  25.206  1.00  0.00     0.073 A 
ATOM     11  C   UNL     1     -47.110  31.943  24.626  1.00  0.00     0.000 A 
ATOM     12  H   UNL     1     -45.941  30.561  23.435  1.00  0.00     0.063 H 
ATOM     13  C   UNL     1     -48.600  33.317  25.909  1.00  0.00    -0.033 A 
ATOM     14  C   UNL     1     -46.106  32.917  24.763  1.00  0.00    -0.053 A 
ATOM     15  H   UNL     1     -49.581  33.468  26.357  1.00  0.00     0.065 H 
ATOM     16  C   UNL     1     -46.356  34.089  25.477  1.00  0.00    -0.058 A 
ATOM     17  H   UNL     1     -45.128  32.769  24.314  1.00  0.00     0.063 H 
ATOM     18  H   UNL     1     -45.570  34.834  25.575  1.00  0.00     0.063 H 
BRANCH   5  19
ATOM     19  N   UNL     1     -50.215  29.209  24.350  1.00  0.00    -0.373 N 
ATOM     20  H   UNL     1     -50.572  29.187  25.306  1.00  0.00     0.161 HD
BRANCH  19  21
ATOM     21  C   UNL     1     -49.856  27.877  23.891  1.00  0.00     0.005 C 
ATOM     22  H   UNL     1     -48.965  27.894  23.256  1.00  0.00     0.045 H 
ATOM     23  H   UNL     1     -50.678  27.476  23.288  1.00  0.00     0.045 H 
ATOM     24  H   UNL     1     -49.692  27.192  24.731  1.00  0.00     0.045 H 
ENDBRANCH  19  21
ENDBRANCH   5  19
ENDBRANCH   1   4
BRANCH   1  25
ATOM     25  C   UNL     1     -47.443  35.408  28.301  1.00  0.00    -0.044 C 
ATOM     26  H   UNL     1     -48.255  35.728  28.968  1.00  0.00     0.027 H 
ATOM     27  H   UNL     1     -47.267  34.347  28.525  1.00  0.00     0.027 H 
BRANCH  25  28
ATOM     28  C   UNL     1     -46.192  36.226  28.635  1.00  0.00    -0.010 C 
ATOM     29  C   UNL     1     -45.917  37.306  27.588  1.00  0.00    -0.024 C 
ATOM     30  C   UNL     1     -46.292  37.046  29.924  1.00  0.00     0.085 C 
ATOM     31  H   UNL     1     -45.332  35.543  28.695  1.00  0.00     0.033 H 
ATOM     32  C   UNL     1     -44.856  38.179  28.269  1.00  0.00     0.064 C 
ATOM     33  H   UNL     1     -46.833  37.871  27.379  1.00  0.00     0.029 H 
ATOM     34  H   UNL     1     -45.555  36.883  26.646  1.00  0.00     0.029 H 
ATOM     35  C   UNL     1     -45.299  38.215  29.749  1.00  0.00     0.101 C 
ATOM     36  H   UNL     1     -47.307  37.441  30.048  1.00  0.00     0.063 H 
ATOM     37  H   UNL     1     -43.883  37.672  28.186  1.00  0.00     0.056 H 
ATOM     38  H   UNL     1     -45.788  39.158  30.021  1.00  0.00     0.065 H 
BRANCH  30  39
ATOM     39  O   UNL     1     -45.976  36.251  31.059  1.00  0.00    -0.390 OA
ATOM     40  H   UNL     1     -46.105  35.322  30.766  1.00  0.00     0.211 HD
ENDBRANCH  30  39
BRANCH  32  41
ATOM     41  N   UNL     1     -44.641  39.502  27.705  1.00  0.00    -0.326 N 
ATOM     42  C   UNL     1     -45.243  40.040  26.599  1.00  0.00     0.010 A 
ATOM     43  C   UNL     1     -43.723  40.400  28.199  1.00  0.00     0.146 A 
ATOM     44  C   UNL     1     -44.756  41.324  26.398  1.00  0.00    -0.014 A 
ATOM     45  H   UNL     1     -45.983  39.491  26.030  1.00  0.00     0.082 H 
ATOM     46  C   UNL     1     -43.749  41.539  27.401  1.00  0.00     0.065 A 
ATOM     47  N   UNL     1     -42.942  40.188  29.275  1.00  0.00    -0.218 NA
ATOM     48  C   UNL     1     -42.843  42.557  27.752  1.00  0.00     0.136 A 
ATOM     49  C   UNL     1     -42.138  41.237  29.516  1.00  0.00     0.120 A 
ATOM     50  N   UNL     1     -42.044  42.384  28.824  1.00  0.00    -0.219 NA
ATOM     51  H   UNL     1     -41.478  41.148  30.374  1.00  0.00     0.106 H 
BRANCH  44  52
ATOM     52  C   UNL     1     -45.190  42.277  25.315  1.00  0.00    -0.014 C 
ATOM     53  C   UNL     1     -44.026  42.834  24.472  1.00  0.00    -0.046 C 
ATOM     54  C   UNL     1     -45.929  43.508  25.873  1.00  0.00    -0.046 C 
ATOM     55  H   UNL     1     -45.865  41.756  24.629  1.00  0.00     0.035 H 
ATOM     56  C   UNL     1     -44.333  44.316  24.295  1.00  0.00    -0.053 C 
ATOM     57  H   UNL     1     -43.055  42.720  24.968  1.00  0.00     0.027 H 
ATOM     58  H   UNL     1     -43.950  42.326  23.505  1.00  0.00     0.027 H 
ATOM     59  C   UNL     1     -45.008  44.691  25.602  1.00  0.00    -0.053 C 
ATOM     60  H   UNL     1     -46.187  43.431  26.935  1.00  0.00     0.027 H 
ATOM     61  H   UNL     1     -46.865  43.645  25.320  1.00  0.00     0.027 H 
ATOM     62  H   UNL     1     -45.022  44.461  23.455  1.00  0.00     0.027 H 
ATOM     63  H   UNL     1     -43.433  44.907  24.106  1.00  0.00     0.027 H 
ATOM     64  H   UNL     1     -44.266  44.784  26.402  1.00  0.00     0.027 H 
ATOM     65  H   UNL     1     -45.557  45.634  25.531  1.00  0.00     0.027 H 
ENDBRANCH  44  52
BRANCH  48  66
ATOM     66  N   UNL     1     -42.670  43.742  27.047  1.00  0.00    -0.383 N 
ATOM     67  H   UNL     1     -42.328  43.529  26.117  1.00  0.00     0.158 HD
ATOM     68  H   UNL     1     -43.481  44.345  27.072  1.00  0.00     0.158 HD
ENDBRANCH  48  66
ENDBRANCH  32  41
BRANCH  35  69
ATOM     69  O   UNL     1     -44.181  38.028  30.629  1.00  0.00    -0.388 OA
ATOM     70  H   UNL     1     -44.433  37.280  31.214  1.00  0.00     0.211 HD
ENDBRANCH  35  69
ENDBRANCH  25  28
ENDBRANCH   1  25
TORSDOF 10
ENDMDL
MODEL 6
REMARK VINA RESULT:      -9.5      3.128     11.330
REMARK SMILES CNc1ccc2ccc(CC[C@H]3C[C@@H](n4cc(C5CCCC5)c5c(N)ncnc54)[C@H](O)[C@@H]3O)cc2n1
REMARK SMILES IDX 10 1 9 4 3 5 4 6 36 7 5 8 35 10 6 11 34 13 7 14 8 16 2 19
REMARK SMILES IDX 1 21 11 25 12 28 13 29 32 30 14 32 30 35 33 39 15 41 16 42
REMARK SMILES IDX 29 43 17 44 23 46 28 47 24 48 27 49 26 50 18 52 19 53 22 54
REMARK SMILES IDX 20 56 21 59 25 66 31 69
REMARK H PARENT 10 2 10 3 4 9 5 12 34 15 7 17 8 18 2 20 1 22 1 23 1 24 11 26
REMARK H PARENT 11 27 12 31 13 33 13 34 32 36 14 37 30 38 33 40 16 45 27 51
REMARK H PARENT 18 55 19 57 19 58 22 60 22 61 20 62 20 63 21 64 21 65 25 67
REMARK H PARENT 25 68 31 70
REMARK Flexibility Score: inf
ROOT
ATOM      1  C   UNL     1     -47.980  35.939  28.400  1.00  0.00    -0.027 C 
ATOM      2  H   UNL     1     -48.883  36.331  28.884  1.00  0.00     0.032 H 
ATOM      3  H   UNL     1     -47.642  35.098  29.016  1.00  0.00     0.032 H 
ENDROOT
BRANCH   1   4
ATOM      4  C   UNL     1     -46.912  37.007  28.400  1.00  0.00    -0.046 A 
ATOM      5  C   UNL     1     -45.049  40.900  26.382  1.00  0.00     0.126 A 
ATOM      6  C   UNL     1     -44.018  40.954  27.308  1.00  0.00    -0.019 A 
ATOM      7  N   UNL     1     -46.002  39.948  26.417  1.00  0.00    -0.231 NA
ATOM      8  C   UNL     1     -43.951  39.983  28.300  1.00  0.00    -0.049 A 
ATOM      9  H   UNL     1     -43.286  41.753  27.276  1.00  0.00     0.066 H 
ATOM     10  C   UNL     1     -45.944  39.008  27.378  1.00  0.00     0.073 A 
ATOM     11  C   UNL     1     -44.924  38.980  28.349  1.00  0.00     0.000 A 
ATOM     12  H   UNL     1     -43.149  40.019  29.031  1.00  0.00     0.063 H 
ATOM     13  C   UNL     1     -46.918  38.017  27.426  1.00  0.00    -0.033 A 
ATOM     14  C   UNL     1     -44.902  37.974  29.330  1.00  0.00    -0.053 A 
ATOM     15  H   UNL     1     -47.706  38.040  26.675  1.00  0.00     0.065 H 
ATOM     16  C   UNL     1     -45.890  36.990  29.351  1.00  0.00    -0.058 A 
ATOM     17  H   UNL     1     -44.116  37.952  30.081  1.00  0.00     0.063 H 
ATOM     18  H   UNL     1     -45.860  36.218  30.116  1.00  0.00     0.063 H 
BRANCH   5  19
ATOM     19  N   UNL     1     -45.188  41.849  25.367  1.00  0.00    -0.373 N 
ATOM     20  H   UNL     1     -45.508  41.300  24.569  1.00  0.00     0.161 HD
BRANCH  19  21
ATOM     21  C   UNL     1     -43.960  42.564  25.056  1.00  0.00     0.005 C 
ATOM     22  H   UNL     1     -43.485  42.177  24.150  1.00  0.00     0.045 H 
ATOM     23  H   UNL     1     -43.251  42.426  25.880  1.00  0.00     0.045 H 
ATOM     24  H   UNL     1     -44.137  43.639  24.943  1.00  0.00     0.045 H 
ENDBRANCH  19  21
ENDBRANCH   5  19
ENDBRANCH   1   4
BRANCH   1  25
ATOM     25  C   UNL     1     -48.299  35.473  26.976  1.00  0.00    -0.044 C 
ATOM     26  H   UNL     1     -49.383  35.524  26.809  1.00  0.00     0.027 H 
ATOM     27  H   UNL     1     -47.846  36.164  26.253  1.00  0.00     0.027 H 
BRANCH  25  28
ATOM     28  C   UNL     1     -47.832  34.041  26.693  1.00  0.00    -0.010 C 
ATOM     29  C   UNL     1     -48.986  33.135  26.263  1.00  0.00    -0.024 C 
ATOM     30  C   UNL     1     -46.863  33.909  25.514  1.00  0.00     0.085 C 
ATOM     31  H   UNL     1     -47.366  33.638  27.603  1.00  0.00     0.033 H 
ATOM     32  C   UNL     1     -48.264  31.891  25.734  1.00  0.00     0.064 C 
ATOM     33  H   UNL     1     -49.578  33.624  25.480  1.00  0.00     0.029 H 
ATOM     34  H   UNL     1     -49.655  32.897  27.096  1.00  0.00     0.029 H 
ATOM     35  C   UNL     1     -47.027  32.461  25.005  1.00  0.00     0.101 C 
ATOM     36  H   UNL     1     -47.133  34.612  24.717  1.00  0.00     0.063 H 
ATOM     37  H   UNL     1     -47.942  31.284  26.593  1.00  0.00     0.056 H 
ATOM     38  H   UNL     1     -47.142  32.464  23.915  1.00  0.00     0.065 H 
BRANCH  30  39
ATOM     39  O   UNL     1     -45.528  34.178  25.920  1.00  0.00    -0.390 OA
ATOM     40  H   UNL     1     -45.517  34.018  26.889  1.00  0.00     0.211 HD
ENDBRANCH  30  39
BRANCH  32  41
ATOM     41  N   UNL     1     -49.047  30.986  24.907  1.00  0.00    -0.326 N 
ATOM     42  C   UNL     1     -49.893  31.320  23.884  1.00  0.00     0.010 A 
ATOM     43  C   UNL     1     -49.084  29.623  25.094  1.00  0.00     0.146 A 
ATOM     44  C   UNL     1     -50.447  30.162  23.357  1.00  0.00    -0.014 A 
ATOM     45  H   UNL     1     -50.044  32.350  23.583  1.00  0.00     0.082 H 
ATOM     46  C   UNL     1     -49.959  29.075  24.162  1.00  0.00     0.065 A 
ATOM     47  N   UNL     1     -48.380  28.956  26.029  1.00  0.00    -0.218 NA
ATOM     48  C   UNL     1     -50.137  27.681  24.232  1.00  0.00     0.136 A 
ATOM     49  C   UNL     1     -48.624  27.636  25.980  1.00  0.00     0.120 A 
ATOM     50  N   UNL     1     -49.451  26.976  25.153  1.00  0.00    -0.219 NA
ATOM     51  H   UNL     1     -48.089  27.023  26.701  1.00  0.00     0.106 H 
BRANCH  44  52
ATOM     52  C   UNL     1     -51.396  30.084  22.190  1.00  0.00    -0.014 C 
ATOM     53  C   UNL     1     -50.700  30.143  20.816  1.00  0.00    -0.046 C 
ATOM     54  C   UNL     1     -52.425  31.229  22.187  1.00  0.00    -0.046 C 
ATOM     55  H   UNL     1     -51.941  29.136  22.235  1.00  0.00     0.035 H 
ATOM     56  C   UNL     1     -51.565  31.068  19.969  1.00  0.00    -0.053 C 
ATOM     57  H   UNL     1     -49.683  30.549  20.877  1.00  0.00     0.027 H 
ATOM     58  H   UNL     1     -50.618  29.150  20.363  1.00  0.00     0.027 H 
ATOM     59  C   UNL     1     -52.079  32.082  20.973  1.00  0.00    -0.053 C 
ATOM     60  H   UNL     1     -52.436  31.822  23.108  1.00  0.00     0.027 H 
ATOM     61  H   UNL     1     -53.429  30.809  22.058  1.00  0.00     0.027 H 
ATOM     62  H   UNL     1     -52.400  30.508  19.530  1.00  0.00     0.027 H 
ATOM     63  H   UNL     1     -51.001  31.534  19.156  1.00  0.00     0.027 H 
ATOM     64  H   UNL     1     -51.292  32.801  21.227  1.00  0.00     0.027 H 
ATOM     65  H   UNL     1     -52.944  32.638  20.599  1.00  0.00     0.027 H 
ENDBRANCH  44  52
BRANCH  48  66
ATOM     66  N   UNL     1     -51.012  26.953  23.434  1.00  0.00    -0.383 N 
ATOM     67  H   UNL     1     -51.067  27.386  22.519  1.00  0.00     0.158 HD
ATOM     68  H   UNL     1     -50.814  25.962  23.422  1.00  0.00     0.158 HD
ENDBRANCH  48  66
ENDBRANCH  32  41
BRANCH  35  69
ATOM     69  O   UNL     1     -45.847  31.707  25.322  1.00  0.00    -0.388 OA
ATOM     70  H   UNL     1     -45.140  32.376  25.458  1.00  0.00     0.211 HD
ENDBRANCH  35  69
ENDBRANCH  25  28
ENDBRANCH   1  25
TORSDOF 10
ENDMDL
MODEL 7
REMARK VINA RESULT:      -9.4      1.700      2.175
REMARK SMILES CNc1ccc2ccc(CC[C@H]3C[C@@H](n4cc(C5CCCC5)c5c(N)ncnc54)[C@H](O)[C@@H]3O)cc2n1
REMARK SMILES IDX 10 1 9 4 3 5 4 6 36 7 5 8 35 10 6 11 34 13 7 14 8 16 2 19
REMARK SMILES IDX 1 21 11 25 12 28 13 29 32 30 14 32 30 35 33 39 15 41 16 42
REMARK SMILES IDX 29 43 17 44 23 46 28 47 24 48 27 49 26 50 18 52 19 53 22 54
REMARK SMILES IDX 20 56 21 59 25 66 31 69
REMARK H PARENT 10 2 10 3 4 9 5 12 34 15 7 17 8 18 2 20 1 22 1 23 1 24 11 26
REMARK H PARENT 11 27 12 31 13 33 13 34 32 36 14 37 30 38 33 40 16 45 27 51
REMARK H PARENT 18 55 19 57 19 58 22 60 22 61 20 62 20 63 21 64 21 65 25 67
REMARK H PARENT 25 68 31 70
REMARK Flexibility Score: inf
ROOT
ATOM      1  C   UNL     1     -47.966  33.839  26.507  1.00  0.00    -0.027 C 
ATOM      2  H   UNL     1     -47.852  33.560  27.562  1.00  0.00     0.032 H 
ATOM      3  H   UNL     1     -49.005  34.167  26.385  1.00  0.00     0.032 H 
ENDROOT
BRANCH   1   4
ATOM      4  C   UNL     1     -47.732  32.623  25.643  1.00  0.00    -0.046 A 
ATOM      5  C   UNL     1     -48.931  28.160  24.486  1.00  0.00     0.126 A 
ATOM      6  C   UNL     1     -47.942  28.085  23.518  1.00  0.00    -0.019 A 
ATOM      7  N   UNL     1     -49.133  29.264  25.230  1.00  0.00    -0.231 NA
ATOM      8  C   UNL     1     -47.113  29.183  23.315  1.00  0.00    -0.049 A 
ATOM      9  H   UNL     1     -47.826  27.196  22.910  1.00  0.00     0.066 H 
ATOM     10  C   UNL     1     -48.337  30.332  25.035  1.00  0.00     0.073 A 
ATOM     11  C   UNL     1     -47.299  30.337  24.082  1.00  0.00     0.000 A 
ATOM     12  H   UNL     1     -46.338  29.135  22.557  1.00  0.00     0.063 H 
ATOM     13  C   UNL     1     -48.530  31.478  25.796  1.00  0.00    -0.033 A 
ATOM     14  C   UNL     1     -46.488  31.473  23.919  1.00  0.00    -0.053 A 
ATOM     15  H   UNL     1     -49.333  31.474  26.532  1.00  0.00     0.065 H 
ATOM     16  C   UNL     1     -46.703  32.609  24.699  1.00  0.00    -0.058 A 
ATOM     17  H   UNL     1     -45.688  31.480  23.183  1.00  0.00     0.063 H 
ATOM     18  H   UNL     1     -46.068  33.481  24.562  1.00  0.00     0.063 H 
BRANCH   5  19
ATOM     19  N   UNL     1     -49.809  27.101  24.736  1.00  0.00    -0.373 N 
ATOM     20  H   UNL     1     -50.707  27.564  24.879  1.00  0.00     0.161 HD
BRANCH  19  21
ATOM     21  C   UNL     1     -49.443  26.291  25.886  1.00  0.00     0.005 C 
ATOM     22  H   UNL     1     -49.995  25.346  25.907  1.00  0.00     0.045 H 
ATOM     23  H   UNL     1     -49.698  26.837  26.800  1.00  0.00     0.045 H 
ATOM     24  H   UNL     1     -48.367  26.084  25.908  1.00  0.00     0.045 H 
ENDBRANCH  19  21
ENDBRANCH   5  19
ENDBRANCH   1   4
BRANCH   1  25
ATOM     25  C   UNL     1     -46.997  34.970  26.148  1.00  0.00    -0.044 C 
ATOM     26  H   UNL     1     -45.981  34.565  26.055  1.00  0.00     0.027 H 
ATOM     27  H   UNL     1     -47.254  35.375  25.161  1.00  0.00     0.027 H 
BRANCH  25  28
ATOM     28  C   UNL     1     -46.976  36.097  27.186  1.00  0.00    -0.010 C 
ATOM     29  C   UNL     1     -45.679  36.905  27.131  1.00  0.00    -0.024 C 
ATOM     30  C   UNL     1     -48.038  37.179  26.972  1.00  0.00     0.085 C 
ATOM     31  H   UNL     1     -47.093  35.655  28.186  1.00  0.00     0.033 H 
ATOM     32  C   UNL     1     -46.003  38.131  27.992  1.00  0.00     0.064 C 
ATOM     33  H   UNL     1     -45.452  37.185  26.095  1.00  0.00     0.029 H 
ATOM     34  H   UNL     1     -44.826  36.342  27.524  1.00  0.00     0.029 H 
ATOM     35  C   UNL     1     -47.474  38.450  27.644  1.00  0.00     0.101 C 
ATOM     36  H   UNL     1     -48.185  37.364  25.902  1.00  0.00     0.063 H 
ATOM     37  H   UNL     1     -45.926  37.842  29.051  1.00  0.00     0.056 H 
ATOM     38  H   UNL     1     -47.573  39.302  26.962  1.00  0.00     0.065 H 
BRANCH  30  39
ATOM     39  O   UNL     1     -49.282  36.791  27.539  1.00  0.00    -0.390 OA
ATOM     40  H   UNL     1     -49.937  36.893  26.813  1.00  0.00     0.211 HD
ENDBRANCH  30  39
BRANCH  32  41
ATOM     41  N   UNL     1     -45.121  39.278  27.849  1.00  0.00    -0.326 N 
ATOM     42  C   UNL     1     -45.116  40.200  26.837  1.00  0.00     0.010 A 
ATOM     43  C   UNL     1     -44.095  39.563  28.722  1.00  0.00     0.146 A 
ATOM     44  C   UNL     1     -44.115  41.130  27.076  1.00  0.00    -0.014 A 
ATOM     45  H   UNL     1     -45.823  40.150  26.018  1.00  0.00     0.082 H 
ATOM     46  C   UNL     1     -43.432  40.697  28.266  1.00  0.00     0.065 A 
ATOM     47  N   UNL     1     -43.804  38.848  29.825  1.00  0.00    -0.218 NA
ATOM     48  C   UNL     1     -42.329  41.115  29.032  1.00  0.00     0.136 A 
ATOM     49  C   UNL     1     -42.746  39.358  30.477  1.00  0.00     0.120 A 
ATOM     50  N   UNL     1     -42.005  40.428  30.145  1.00  0.00    -0.219 NA
ATOM     51  H   UNL     1     -42.449  38.841  31.385  1.00  0.00     0.106 H 
BRANCH  44  52
ATOM     52  C   UNL     1     -43.802  42.334  26.227  1.00  0.00    -0.014 C 
ATOM     53  C   UNL     1     -44.059  43.680  26.934  1.00  0.00    -0.046 C 
ATOM     54  C   UNL     1     -44.635  42.377  24.932  1.00  0.00    -0.046 C 
ATOM     55  H   UNL     1     -42.743  42.312  25.951  1.00  0.00     0.035 H 
ATOM     56  C   UNL     1     -44.731  44.560  25.888  1.00  0.00    -0.053 C 
ATOM     57  H   UNL     1     -44.718  43.578  27.804  1.00  0.00     0.027 H 
ATOM     58  H   UNL     1     -43.127  44.130  27.293  1.00  0.00     0.027 H 
ATOM     59  C   UNL     1     -45.562  43.575  25.086  1.00  0.00    -0.053 C 
ATOM     60  H   UNL     1     -45.193  41.457  24.729  1.00  0.00     0.027 H 
ATOM     61  H   UNL     1     -43.965  42.546  24.080  1.00  0.00     0.027 H 
ATOM     62  H   UNL     1     -43.976  45.031  25.248  1.00  0.00     0.027 H 
ATOM     63  H   UNL     1     -45.340  45.349  26.338  1.00  0.00     0.027 H 
ATOM     64  H   UNL     1     -46.460  43.290  25.645  1.00  0.00     0.027 H 
ATOM     65  H   UNL     1     -45.874  43.984  24.120  1.00  0.00     0.027 H 
ENDBRANCH  44  52
BRANCH  48  66
ATOM     66  N   UNL     1     -41.500  42.184  28.712  1.00  0.00    -0.383 N 
ATOM     67  H   UNL     1     -41.114  42.039  27.785  1.00  0.00     0.158 HD
ATOM     68  H   UNL     1     -41.935  43.085  28.853  1.00  0.00     0.158 HD
ENDBRANCH  48  66
ENDBRANCH  32  41
BRANCH  35  69
ATOM     69  O   UNL     1     -48.233  38.742  28.827  1.00  0.00    -0.388 OA
ATOM     70  H   UNL     1     -47.969  38.056  29.480  1.00  0.00     0.211 HD
ENDBRANCH  35  69
ENDBRANCH  25  28
ENDBRANCH   1  25
TORSDOF 10
ENDMDL
