MODEL 1
REMARK VINA RESULT:     -10.4      0.000      0.000
REMARK SMILES c1cc(-c2cn(Cc3cc4[nH]c(CN5CCC6(CCC6)C5)cc4cn3)nn2)c2cncn2c1
REMARK SMILES IDX 8 1 9 2 10 3 11 4 12 5 22 6 23 7 24 8 25 9 7 14 6 17 4 18
REMARK SMILES IDX 5 19 27 20 26 22 3 23 1 24 2 25 33 26 32 29 28 31 31 32
REMARK SMILES IDX 29 33 30 34 13 37 14 40 15 41 21 42 16 43 17 46 18 51 20 52
REMARK SMILES IDX 19 53
REMARK H PARENT 9 10 11 11 22 12 24 13 7 15 7 16 5 21 1 27 2 28 33 30 31 35
REMARK H PARENT 29 36 13 38 13 39 15 44 15 45 21 47 21 48 16 49 16 50 18 54
REMARK H PARENT 18 55 20 56 20 57 19 58 19 59
REMARK Flexibility Score: inf
ROOT
ATOM      1  C   UNL     1     -47.762  35.683  27.002  1.00  0.00     0.064 A 
ATOM      2  C   UNL     1     -48.803  34.766  26.841  1.00  0.00    -0.014 A 
ATOM      3  C   UNL     1     -48.500  33.622  26.103  1.00  0.00     0.049 A 
ATOM      4  N   UNL     1     -49.285  32.551  25.748  1.00  0.00    -0.357 N 
ATOM      5  C   UNL     1     -48.565  31.652  24.999  1.00  0.00     0.030 A 
ATOM      6  C   UNL     1     -47.285  32.153  24.878  1.00  0.00    -0.031 A 
ATOM      7  C   UNL     1     -47.234  33.396  25.569  1.00  0.00     0.018 A 
ATOM      8  C   UNL     1     -46.240  34.352  25.794  1.00  0.00     0.037 A 
ATOM      9  N   UNL     1     -46.510  35.471  26.514  1.00  0.00    -0.259 NA
ATOM     10  H   UNL     1     -49.793  34.923  27.249  1.00  0.00     0.067 H 
ATOM     11  H   UNL     1     -50.269  32.439  25.957  1.00  0.00     0.166 HD
ATOM     12  H   UNL     1     -46.469  31.680  24.346  1.00  0.00     0.065 H 
ATOM     13  H   UNL     1     -45.229  34.253  25.417  1.00  0.00     0.085 H 
ENDROOT
BRANCH   1  14
ATOM     14  C   UNL     1     -47.933  36.939  27.823  1.00  0.00     0.085 C 
ATOM     15  H   UNL     1     -48.419  37.708  27.212  1.00  0.00     0.058 H 
ATOM     16  H   UNL     1     -48.566  36.749  28.698  1.00  0.00     0.058 H 
BRANCH  14  17
ATOM     17  N   UNL     1     -46.682  37.481  28.318  1.00  0.00    -0.246 N 
ATOM     18  C   UNL     1     -44.950  38.702  28.737  1.00  0.00     0.115 A 
ATOM     19  C   UNL     1     -46.071  38.646  27.940  1.00  0.00     0.054 A 
ATOM     20  N   UNL     1     -44.919  37.598  29.550  1.00  0.00    -0.130 NA
ATOM     21  H   UNL     1     -46.464  39.282  27.164  1.00  0.00     0.086 H 
ATOM     22  N   UNL     1     -45.995  36.865  29.297  1.00  0.00    -0.066 NA
BRANCH  18  23
ATOM     23  C   UNL     1     -43.907  39.690  28.765  1.00  0.00     0.029 A 
ATOM     24  C   UNL     1     -41.930  40.658  29.914  1.00  0.00    -0.045 A 
ATOM     25  C   UNL     1     -43.035  39.716  29.808  1.00  0.00    -0.049 A 
ATOM     26  C   UNL     1     -41.751  41.554  28.934  1.00  0.00     0.010 A 
ATOM     27  H   UNL     1     -41.278  40.607  30.779  1.00  0.00     0.064 H 
ATOM     28  H   UNL     1     -43.126  39.001  30.624  1.00  0.00     0.063 H 
ATOM     29  N   UNL     1     -42.634  41.561  27.862  1.00  0.00    -0.306 N 
ATOM     30  H   UNL     1     -40.953  42.285  28.936  1.00  0.00     0.082 H 
ATOM     31  C   UNL     1     -43.704  40.683  27.736  1.00  0.00     0.074 A 
ATOM     32  C   UNL     1     -42.662  42.381  26.762  1.00  0.00     0.099 A 
ATOM     33  C   UNL     1     -44.334  41.073  26.573  1.00  0.00     0.053 A 
ATOM     34  N   UNL     1     -43.672  42.112  25.967  1.00  0.00    -0.244 NA
ATOM     35  H   UNL     1     -41.924  43.155  26.603  1.00  0.00     0.105 H 
ATOM     36  H   UNL     1     -45.233  40.666  26.129  1.00  0.00     0.086 H 
ENDBRANCH  18  23
ENDBRANCH  14  17
ENDBRANCH   1  14
BRANCH   5  37
ATOM     37  C   UNL     1     -49.186  30.394  24.483  1.00  0.00     0.039 C 
ATOM     38  H   UNL     1     -49.865  30.688  23.671  1.00  0.00     0.050 H 
ATOM     39  H   UNL     1     -49.802  29.931  25.264  1.00  0.00     0.050 H 
BRANCH  37  40
ATOM     40  N   UNL     1     -48.161  29.475  23.960  1.00  0.00    -0.297 NA
ATOM     41  C   UNL     1     -48.748  28.502  23.020  1.00  0.00    -0.001 C 
ATOM     42  C   UNL     1     -47.595  28.624  25.031  1.00  0.00     0.004 C 
ATOM     43  C   UNL     1     -49.387  27.422  23.883  1.00  0.00    -0.033 C 
ATOM     44  H   UNL     1     -47.937  28.067  22.422  1.00  0.00     0.043 H 
ATOM     45  H   UNL     1     -49.457  28.950  22.315  1.00  0.00     0.043 H 
ATOM     46  C   UNL     1     -48.462  27.358  25.093  1.00  0.00    -0.016 C 
ATOM     47  H   UNL     1     -46.572  28.364  24.733  1.00  0.00     0.044 H 
ATOM     48  H   UNL     1     -47.516  29.134  25.998  1.00  0.00     0.044 H 
ATOM     49  H   UNL     1     -49.458  26.470  23.347  1.00  0.00     0.029 H 
ATOM     50  H   UNL     1     -50.397  27.725  24.178  1.00  0.00     0.029 H 
ATOM     51  C   UNL     1     -47.686  26.022  25.321  1.00  0.00    -0.046 C 
ATOM     52  C   UNL     1     -49.157  27.065  26.458  1.00  0.00    -0.046 C 
ATOM     53  C   UNL     1     -47.930  26.210  26.830  1.00  0.00    -0.052 C 
ATOM     54  H   UNL     1     -46.638  26.004  25.011  1.00  0.00     0.027 H 
ATOM     55  H   UNL     1     -48.184  25.134  24.911  1.00  0.00     0.027 H 
ATOM     56  H   UNL     1     -49.347  27.925  27.105  1.00  0.00     0.027 H 
ATOM     57  H   UNL     1     -50.081  26.480  26.377  1.00  0.00     0.027 H 
ATOM     58  H   UNL     1     -48.140  25.298  27.395  1.00  0.00     0.027 H 
ATOM     59  H   UNL     1     -47.139  26.770  27.340  1.00  0.00     0.027 H 
ENDBRANCH  37  40
ENDBRANCH   5  37
TORSDOF 5
ENDMDL
MODEL 2
REMARK VINA RESULT:     -10.4      1.618      2.651
REMARK SMILES c1cc(-c2cn(Cc3cc4[nH]c(CN5CCC6(CCC6)C5)cc4cn3)nn2)c2cncn2c1
REMARK SMILES IDX 8 1 9 2 10 3 11 4 12 5 22 6 23 7 24 8 25 9 7 14 6 17 4 18
REMARK SMILES IDX 5 19 27 20 26 22 3 23 1 24 2 25 33 26 32 29 28 31 31 32
REMARK SMILES IDX 29 33 30 34 13 37 14 40 15 41 21 42 16 43 17 46 18 51 20 52
REMARK SMILES IDX 19 53
REMARK H PARENT 9 10 11 11 22 12 24 13 7 15 7 16 5 21 1 27 2 28 33 30 31 35
REMARK H PARENT 29 36 13 38 13 39 15 44 15 45 21 47 21 48 16 49 16 50 18 54
REMARK H PARENT 18 55 20 56 20 57 19 58 19 59
REMARK Flexibility Score: inf
ROOT
ATOM      1  C   UNL     1     -47.697  35.731  27.035  1.00  0.00     0.064 A 
ATOM      2  C   UNL     1     -48.720  34.787  26.921  1.00  0.00    -0.014 A 
ATOM      3  C   UNL     1     -48.404  33.629  26.211  1.00  0.00     0.049 A 
ATOM      4  N   UNL     1     -49.171  32.530  25.904  1.00  0.00    -0.357 N 
ATOM      5  C   UNL     1     -48.445  31.626  25.166  1.00  0.00     0.030 A 
ATOM      6  C   UNL     1     -47.179  32.152  25.006  1.00  0.00    -0.031 A 
ATOM      7  C   UNL     1     -47.144  33.416  25.659  1.00  0.00     0.018 A 
ATOM      8  C   UNL     1     -46.168  34.400  25.836  1.00  0.00     0.037 A 
ATOM      9  N   UNL     1     -46.450  35.534  26.528  1.00  0.00    -0.259 NA
ATOM     10  H   UNL     1     -49.705  34.933  27.344  1.00  0.00     0.067 H 
ATOM     11  H   UNL     1     -50.148  32.403  26.135  1.00  0.00     0.166 HD
ATOM     12  H   UNL     1     -46.363  31.682  24.471  1.00  0.00     0.065 H 
ATOM     13  H   UNL     1     -45.163  34.313  25.442  1.00  0.00     0.085 H 
ENDROOT
BRANCH   1  14
ATOM     14  C   UNL     1     -47.881  37.007  27.822  1.00  0.00     0.085 C 
ATOM     15  H   UNL     1     -48.364  37.758  27.187  1.00  0.00     0.058 H 
ATOM     16  H   UNL     1     -48.521  36.836  28.695  1.00  0.00     0.058 H 
BRANCH  14  17
ATOM     17  N   UNL     1     -46.637  37.568  28.313  1.00  0.00    -0.246 N 
ATOM     18  C   UNL     1     -44.915  38.807  28.717  1.00  0.00     0.115 A 
ATOM     19  C   UNL     1     -46.027  38.725  27.911  1.00  0.00     0.054 A 
ATOM     20  N   UNL     1     -44.886  37.725  29.558  1.00  0.00    -0.130 NA
ATOM     21  H   UNL     1     -46.416  39.339  27.115  1.00  0.00     0.086 H 
ATOM     22  N   UNL     1     -45.956  36.980  29.314  1.00  0.00    -0.066 NA
BRANCH  18  23
ATOM     23  C   UNL     1     -43.876  39.800  28.729  1.00  0.00     0.029 A 
ATOM     24  C   UNL     1     -41.883  40.774  29.844  1.00  0.00    -0.045 A 
ATOM     25  C   UNL     1     -42.984  39.827  29.755  1.00  0.00    -0.049 A 
ATOM     26  C   UNL     1     -41.726  41.674  28.864  1.00  0.00     0.010 A 
ATOM     27  H   UNL     1     -41.214  40.723  30.696  1.00  0.00     0.064 H 
ATOM     28  H   UNL     1     -43.056  39.108  30.570  1.00  0.00     0.063 H 
ATOM     29  N   UNL     1     -42.629  41.680  27.809  1.00  0.00    -0.306 N 
ATOM     30  H   UNL     1     -40.932  42.410  28.854  1.00  0.00     0.082 H 
ATOM     31  C   UNL     1     -43.697  40.798  27.700  1.00  0.00     0.074 A 
ATOM     32  C   UNL     1     -42.682  42.504  26.712  1.00  0.00     0.099 A 
ATOM     33  C   UNL     1     -44.351  41.188  26.549  1.00  0.00     0.053 A 
ATOM     34  N   UNL     1     -43.706  42.233  25.935  1.00  0.00    -0.244 NA
ATOM     35  H   UNL     1     -41.951  43.283  26.542  1.00  0.00     0.105 H 
ATOM     36  H   UNL     1     -45.256  40.778  26.122  1.00  0.00     0.086 H 
ENDBRANCH  18  23
ENDBRANCH  14  17
ENDBRANCH   1  14
BRANCH   5  37
ATOM     37  C   UNL     1     -49.047  30.339  24.700  1.00  0.00     0.039 C 
ATOM     38  H   UNL     1     -49.328  29.779  25.602  1.00  0.00     0.050 H 
ATOM     39  H   UNL     1     -48.293  29.741  24.173  1.00  0.00     0.050 H 
BRANCH  37  40
ATOM     40  N   UNL     1     -50.244  30.584  23.878  1.00  0.00    -0.297 NA
ATOM     41  C   UNL     1     -50.786  29.322  23.339  1.00  0.00    -0.001 C 
ATOM     42  C   UNL     1     -49.920  31.368  22.665  1.00  0.00     0.004 C 
ATOM     43  C   UNL     1     -49.927  28.984  22.127  1.00  0.00    -0.033 C 
ATOM     44  H   UNL     1     -51.821  29.498  23.022  1.00  0.00     0.043 H 
ATOM     45  H   UNL     1     -50.813  28.510  24.074  1.00  0.00     0.043 H 
ATOM     46  C   UNL     1     -49.574  30.355  21.564  1.00  0.00    -0.016 C 
ATOM     47  H   UNL     1     -50.824  31.927  22.390  1.00  0.00     0.044 H 
ATOM     48  H   UNL     1     -49.132  32.112  22.825  1.00  0.00     0.044 H 
ATOM     49  H   UNL     1     -50.470  28.355  21.414  1.00  0.00     0.029 H 
ATOM     50  H   UNL     1     -49.027  28.446  22.442  1.00  0.00     0.029 H 
ATOM     51  C   UNL     1     -50.116  30.698  20.141  1.00  0.00    -0.046 C 
ATOM     52  C   UNL     1     -48.151  30.480  20.937  1.00  0.00    -0.046 C 
ATOM     53  C   UNL     1     -48.770  31.395  19.863  1.00  0.00    -0.052 C 
ATOM     54  H   UNL     1     -50.999  31.340  20.093  1.00  0.00     0.027 H 
ATOM     55  H   UNL     1     -50.289  29.824  19.500  1.00  0.00     0.027 H 
ATOM     56  H   UNL     1     -47.380  30.940  21.561  1.00  0.00     0.027 H 
ATOM     57  H   UNL     1     -47.755  29.543  20.529  1.00  0.00     0.027 H 
ATOM     58  H   UNL     1     -48.374  31.276  18.852  1.00  0.00     0.027 H 
ATOM     59  H   UNL     1     -48.760  32.458  20.127  1.00  0.00     0.027 H 
ENDBRANCH  37  40
ENDBRANCH   5  37
TORSDOF 5
ENDMDL
MODEL 3
REMARK VINA RESULT:     -10.2      1.818      3.341
REMARK SMILES c1cc(-c2cn(Cc3cc4[nH]c(CN5CCC6(CCC6)C5)cc4cn3)nn2)c2cncn2c1
REMARK SMILES IDX 8 1 9 2 10 3 11 4 12 5 22 6 23 7 24 8 25 9 7 14 6 17 4 18
REMARK SMILES IDX 5 19 27 20 26 22 3 23 1 24 2 25 33 26 32 29 28 31 31 32
REMARK SMILES IDX 29 33 30 34 13 37 14 40 15 41 21 42 16 43 17 46 18 51 20 52
REMARK SMILES IDX 19 53
REMARK H PARENT 9 10 11 11 22 12 24 13 7 15 7 16 5 21 1 27 2 28 33 30 31 35
REMARK H PARENT 29 36 13 38 13 39 15 44 15 45 21 47 21 48 16 49 16 50 18 54
REMARK H PARENT 18 55 20 56 20 57 19 58 19 59
REMARK Flexibility Score: inf
ROOT
ATOM      1  C   UNL     1     -47.267  35.682  28.385  1.00  0.00     0.064 A 
ATOM      2  C   UNL     1     -46.359  34.785  27.818  1.00  0.00    -0.014 A 
ATOM      3  C   UNL     1     -46.865  33.955  26.818  1.00  0.00     0.049 A 
ATOM      4  N   UNL     1     -46.256  32.967  26.082  1.00  0.00    -0.357 N 
ATOM      5  C   UNL     1     -47.151  32.395  25.209  1.00  0.00     0.030 A 
ATOM      6  C   UNL     1     -48.360  33.039  25.383  1.00  0.00    -0.031 A 
ATOM      7  C   UNL     1     -48.190  34.023  26.397  1.00  0.00     0.018 A 
ATOM      8  C   UNL     1     -49.030  34.963  26.999  1.00  0.00     0.037 A 
ATOM      9  N   UNL     1     -48.559  35.786  27.971  1.00  0.00    -0.259 NA
ATOM     10  H   UNL     1     -45.325  34.719  28.131  1.00  0.00     0.067 H 
ATOM     11  H   UNL     1     -45.299  32.654  26.182  1.00  0.00     0.166 HD
ATOM     12  H   UNL     1     -49.273  32.823  24.842  1.00  0.00     0.065 H 
ATOM     13  H   UNL     1     -50.072  35.083  26.729  1.00  0.00     0.085 H 
ENDROOT
BRANCH   1  14
ATOM     14  C   UNL     1     -46.844  36.677  29.440  1.00  0.00     0.085 C 
ATOM     15  H   UNL     1     -47.679  36.855  30.126  1.00  0.00     0.058 H 
ATOM     16  H   UNL     1     -46.000  36.289  30.024  1.00  0.00     0.058 H 
BRANCH  14  17
ATOM     17  N   UNL     1     -46.429  37.956  28.896  1.00  0.00    -0.246 N 
ATOM     18  C   UNL     1     -45.333  39.618  28.059  1.00  0.00     0.115 A 
ATOM     19  C   UNL     1     -45.163  38.345  28.554  1.00  0.00     0.054 A 
ATOM     20  N   UNL     1     -46.662  39.951  28.118  1.00  0.00    -0.130 NA
ATOM     21  H   UNL     1     -44.301  37.716  28.707  1.00  0.00     0.086 H 
ATOM     22  N   UNL     1     -47.327  38.918  28.616  1.00  0.00    -0.066 NA
BRANCH  18  23
ATOM     23  C   UNL     1     -44.344  40.540  27.572  1.00  0.00     0.029 A 
ATOM     24  C   UNL     1     -43.589  42.099  25.793  1.00  0.00    -0.045 A 
ATOM     25  C   UNL     1     -44.517  41.132  26.360  1.00  0.00    -0.049 A 
ATOM     26  C   UNL     1     -42.499  42.435  26.497  1.00  0.00     0.010 A 
ATOM     27  H   UNL     1     -43.805  42.526  24.821  1.00  0.00     0.064 H 
ATOM     28  H   UNL     1     -45.393  40.906  25.754  1.00  0.00     0.063 H 
ATOM     29  N   UNL     1     -42.288  41.838  27.733  1.00  0.00    -0.306 N 
ATOM     30  H   UNL     1     -41.763  43.147  26.148  1.00  0.00     0.082 H 
ATOM     31  C   UNL     1     -43.149  40.903  28.297  1.00  0.00     0.074 A 
ATOM     32  C   UNL     1     -41.253  42.008  28.617  1.00  0.00     0.099 A 
ATOM     33  C   UNL     1     -42.538  40.542  29.479  1.00  0.00     0.053 A 
ATOM     34  N   UNL     1     -41.374  41.243  29.678  1.00  0.00    -0.244 NA
ATOM     35  H   UNL     1     -40.442  42.697  28.427  1.00  0.00     0.105 H 
ATOM     36  H   UNL     1     -42.866  39.811  30.207  1.00  0.00     0.086 H 
ENDBRANCH  18  23
ENDBRANCH  14  17
ENDBRANCH   1  14
BRANCH   5  37
ATOM     37  C   UNL     1     -46.744  31.290  24.288  1.00  0.00     0.039 C 
ATOM     38  H   UNL     1     -45.921  30.755  24.784  1.00  0.00     0.050 H 
ATOM     39  H   UNL     1     -46.340  31.706  23.357  1.00  0.00     0.050 H 
BRANCH  37  40
ATOM     40  N   UNL     1     -47.862  30.363  24.050  1.00  0.00    -0.297 NA
ATOM     41  C   UNL     1     -47.372  29.028  23.657  1.00  0.00    -0.001 C 
ATOM     42  C   UNL     1     -48.682  30.785  22.891  1.00  0.00     0.004 C 
ATOM     43  C   UNL     1     -47.036  29.127  22.175  1.00  0.00    -0.033 C 
ATOM     44  H   UNL     1     -48.183  28.304  23.806  1.00  0.00     0.043 H 
ATOM     45  H   UNL     1     -46.523  28.681  24.258  1.00  0.00     0.043 H 
ATOM     46  C   UNL     1     -48.075  30.111  21.652  1.00  0.00    -0.016 C 
ATOM     47  H   UNL     1     -49.700  30.412  23.061  1.00  0.00     0.044 H 
ATOM     48  H   UNL     1     -48.764  31.873  22.789  1.00  0.00     0.044 H 
ATOM     49  H   UNL     1     -47.087  28.149  21.686  1.00  0.00     0.029 H 
ATOM     50  H   UNL     1     -46.022  29.521  22.045  1.00  0.00     0.029 H 
ATOM     51  C   UNL     1     -49.104  29.567  20.611  1.00  0.00    -0.046 C 
ATOM     52  C   UNL     1     -47.590  31.065  20.518  1.00  0.00    -0.046 C 
ATOM     53  C   UNL     1     -48.985  30.919  19.881  1.00  0.00    -0.052 C 
ATOM     54  H   UNL     1     -50.100  29.320  20.987  1.00  0.00     0.027 H 
ATOM     55  H   UNL     1     -48.739  28.722  20.014  1.00  0.00     0.027 H 
ATOM     56  H   UNL     1     -47.311  32.079  20.817  1.00  0.00     0.027 H 
ATOM     57  H   UNL     1     -46.786  30.653  19.896  1.00  0.00     0.027 H 
ATOM     58  H   UNL     1     -49.007  30.873  18.789  1.00  0.00     0.027 H 
ATOM     59  H   UNL     1     -49.707  31.670  20.219  1.00  0.00     0.027 H 
ENDBRANCH  37  40
ENDBRANCH   5  37
TORSDOF 5
ENDMDL
MODEL 4
REMARK VINA RESULT:     -10.2      1.759      3.454
REMARK SMILES c1cc(-c2cn(Cc3cc4[nH]c(CN5CCC6(CCC6)C5)cc4cn3)nn2)c2cncn2c1
REMARK SMILES IDX 8 1 9 2 10 3 11 4 12 5 22 6 23 7 24 8 25 9 7 14 6 17 4 18
REMARK SMILES IDX 5 19 27 20 26 22 3 23 1 24 2 25 33 26 32 29 28 31 31 32
REMARK SMILES IDX 29 33 30 34 13 37 14 40 15 41 21 42 16 43 17 46 18 51 20 52
REMARK SMILES IDX 19 53
REMARK H PARENT 9 10 11 11 22 12 24 13 7 15 7 16 5 21 1 27 2 28 33 30 31 35
REMARK H PARENT 29 36 13 38 13 39 15 44 15 45 21 47 21 48 16 49 16 50 18 54
REMARK H PARENT 18 55 20 56 20 57 19 58 19 59
REMARK Flexibility Score: inf
ROOT
ATOM      1  C   UNL     1     -45.564  37.265  28.738  1.00  0.00     0.064 A 
ATOM      2  C   UNL     1     -45.115  35.968  28.475  1.00  0.00    -0.014 A 
ATOM      3  C   UNL     1     -45.783  35.286  27.459  1.00  0.00     0.049 A 
ATOM      4  N   UNL     1     -45.607  34.013  26.969  1.00  0.00    -0.357 N 
ATOM      5  C   UNL     1     -46.509  33.755  25.964  1.00  0.00     0.030 A 
ATOM      6  C   UNL     1     -47.273  34.892  25.798  1.00  0.00    -0.031 A 
ATOM      7  C   UNL     1     -46.824  35.863  26.737  1.00  0.00     0.018 A 
ATOM      8  C   UNL     1     -47.200  37.173  27.046  1.00  0.00     0.037 A 
ATOM      9  N   UNL     1     -46.561  37.859  28.029  1.00  0.00    -0.259 NA
ATOM     10  H   UNL     1     -44.306  35.504  29.024  1.00  0.00     0.067 H 
ATOM     11  H   UNL     1     -44.947  33.329  27.315  1.00  0.00     0.166 HD
ATOM     12  H   UNL     1     -48.074  35.014  25.080  1.00  0.00     0.065 H 
ATOM     13  H   UNL     1     -47.997  37.695  26.532  1.00  0.00     0.085 H 
ENDROOT
BRANCH   1  14
ATOM     14  C   UNL     1     -44.899  38.138  29.775  1.00  0.00     0.085 C 
ATOM     15  H   UNL     1     -45.661  38.552  30.444  1.00  0.00     0.058 H 
ATOM     16  H   UNL     1     -44.194  37.555  30.381  1.00  0.00     0.058 H 
BRANCH  14  17
ATOM     17  N   UNL     1     -44.152  39.244  29.207  1.00  0.00    -0.246 N 
ATOM     18  C   UNL     1     -43.418  40.863  27.980  1.00  0.00     0.115 A 
ATOM     19  C   UNL     1     -44.372  39.872  28.011  1.00  0.00     0.054 A 
ATOM     20  N   UNL     1     -42.669  40.805  29.128  1.00  0.00    -0.130 NA
ATOM     21  H   UNL     1     -45.137  39.555  27.322  1.00  0.00     0.086 H 
ATOM     22  N   UNL     1     -43.140  39.820  29.881  1.00  0.00    -0.066 NA
BRANCH  18  23
ATOM     23  C   UNL     1     -43.145  41.826  26.949  1.00  0.00     0.029 A 
ATOM     24  C   UNL     1     -41.477  43.096  25.618  1.00  0.00    -0.045 A 
ATOM     25  C   UNL     1     -41.857  42.155  26.661  1.00  0.00    -0.049 A 
ATOM     26  C   UNL     1     -42.442  43.677  24.892  1.00  0.00     0.010 A 
ATOM     27  H   UNL     1     -40.425  43.299  25.452  1.00  0.00     0.064 H 
ATOM     28  H   UNL     1     -41.034  41.701  27.210  1.00  0.00     0.063 H 
ATOM     29  N   UNL     1     -43.767  43.371  25.172  1.00  0.00    -0.306 N 
ATOM     30  H   UNL     1     -42.243  44.385  24.098  1.00  0.00     0.082 H 
ATOM     31  C   UNL     1     -44.163  42.486  26.167  1.00  0.00     0.074 A 
ATOM     32  C   UNL     1     -44.913  43.844  24.582  1.00  0.00     0.099 A 
ATOM     33  C   UNL     1     -45.542  42.523  26.132  1.00  0.00     0.053 A 
ATOM     34  N   UNL     1     -45.997  43.352  25.137  1.00  0.00    -0.244 NA
ATOM     35  H   UNL     1     -44.890  44.546  23.760  1.00  0.00     0.105 H 
ATOM     36  H   UNL     1     -46.242  42.000  26.770  1.00  0.00     0.086 H 
ENDBRANCH  18  23
ENDBRANCH  14  17
ENDBRANCH   1  14
BRANCH   5  37
ATOM     37  C   UNL     1     -46.532  32.436  25.260  1.00  0.00     0.039 C 
ATOM     38  H   UNL     1     -46.568  31.664  26.040  1.00  0.00     0.050 H 
ATOM     39  H   UNL     1     -45.597  32.290  24.706  1.00  0.00     0.050 H 
BRANCH  37  40
ATOM     40  N   UNL     1     -47.719  32.321  24.396  1.00  0.00    -0.297 NA
ATOM     41  C   UNL     1     -48.922  31.997  25.185  1.00  0.00    -0.001 C 
ATOM     42  C   UNL     1     -47.601  31.180  23.459  1.00  0.00     0.004 C 
ATOM     43  C   UNL     1     -48.863  30.496  25.436  1.00  0.00    -0.033 C 
ATOM     44  H   UNL     1     -49.806  32.237  24.581  1.00  0.00     0.043 H 
ATOM     45  H   UNL     1     -49.004  32.575  26.112  1.00  0.00     0.043 H 
ATOM     46  C   UNL     1     -48.205  29.961  24.170  1.00  0.00    -0.016 C 
ATOM     47  H   UNL     1     -48.195  31.429  22.570  1.00  0.00     0.044 H 
ATOM     48  H   UNL     1     -46.577  31.008  23.109  1.00  0.00     0.044 H 
ATOM     49  H   UNL     1     -49.860  30.078  25.610  1.00  0.00     0.029 H 
ATOM     50  H   UNL     1     -48.246  30.286  26.317  1.00  0.00     0.029 H 
ATOM     51  C   UNL     1     -49.062  29.015  23.272  1.00  0.00    -0.046 C 
ATOM     52  C   UNL     1     -47.255  28.739  24.368  1.00  0.00    -0.046 C 
ATOM     53  C   UNL     1     -47.785  28.188  23.031  1.00  0.00    -0.052 C 
ATOM     54  H   UNL     1     -49.512  29.459  22.380  1.00  0.00     0.027 H 
ATOM     55  H   UNL     1     -49.839  28.460  23.812  1.00  0.00     0.027 H 
ATOM     56  H   UNL     1     -46.184  28.953  24.399  1.00  0.00     0.027 H 
ATOM     57  H   UNL     1     -47.509  28.106  25.227  1.00  0.00     0.027 H 
ATOM     58  H   UNL     1     -47.922  27.105  22.984  1.00  0.00     0.027 H 
ATOM     59  H   UNL     1     -47.207  28.511  22.158  1.00  0.00     0.027 H 
ENDBRANCH  37  40
ENDBRANCH   5  37
TORSDOF 5
ENDMDL
MODEL 5
REMARK VINA RESULT:     -10.0      1.767      3.501
REMARK SMILES c1cc(-c2cn(Cc3cc4[nH]c(CN5CCC6(CCC6)C5)cc4cn3)nn2)c2cncn2c1
REMARK SMILES IDX 8 1 9 2 10 3 11 4 12 5 22 6 23 7 24 8 25 9 7 14 6 17 4 18
REMARK SMILES IDX 5 19 27 20 26 22 3 23 1 24 2 25 33 26 32 29 28 31 31 32
REMARK SMILES IDX 29 33 30 34 13 37 14 40 15 41 21 42 16 43 17 46 18 51 20 52
REMARK SMILES IDX 19 53
REMARK H PARENT 9 10 11 11 22 12 24 13 7 15 7 16 5 21 1 27 2 28 33 30 31 35
REMARK H PARENT 29 36 13 38 13 39 15 44 15 45 21 47 21 48 16 49 16 50 18 54
REMARK H PARENT 18 55 20 56 20 57 19 58 19 59
REMARK Flexibility Score: inf
ROOT
ATOM      1  C   UNL     1     -45.933  36.566  28.949  1.00  0.00     0.064 A 
ATOM      2  C   UNL     1     -45.383  35.556  28.156  1.00  0.00    -0.014 A 
ATOM      3  C   UNL     1     -46.276  34.874  27.331  1.00  0.00     0.049 A 
ATOM      4  N   UNL     1     -46.070  33.833  26.456  1.00  0.00    -0.357 N 
ATOM      5  C   UNL     1     -47.252  33.465  25.858  1.00  0.00     0.030 A 
ATOM      6  C   UNL     1     -48.236  34.295  26.353  1.00  0.00    -0.031 A 
ATOM      7  C   UNL     1     -47.632  35.186  27.284  1.00  0.00     0.018 A 
ATOM      8  C   UNL     1     -48.100  36.225  28.092  1.00  0.00     0.037 A 
ATOM      9  N   UNL     1     -47.249  36.907  28.901  1.00  0.00    -0.259 NA
ATOM     10  H   UNL     1     -44.331  35.300  28.177  1.00  0.00     0.067 H 
ATOM     11  H   UNL     1     -45.192  33.358  26.292  1.00  0.00     0.166 HD
ATOM     12  H   UNL     1     -49.284  34.265  26.080  1.00  0.00     0.065 H 
ATOM     13  H   UNL     1     -49.139  36.533  28.115  1.00  0.00     0.085 H 
ENDROOT
BRANCH   1  14
ATOM     14  C   UNL     1     -45.075  37.422  29.850  1.00  0.00     0.085 C 
ATOM     15  H   UNL     1     -45.657  37.718  30.730  1.00  0.00     0.058 H 
ATOM     16  H   UNL     1     -44.197  36.864  30.195  1.00  0.00     0.058 H 
BRANCH  14  17
ATOM     17  N   UNL     1     -44.585  38.627  29.209  1.00  0.00    -0.246 N 
ATOM     18  C   UNL     1     -44.280  40.345  27.936  1.00  0.00     0.115 A 
ATOM     19  C   UNL     1     -45.073  39.230  28.083  1.00  0.00     0.054 A 
ATOM     20  N   UNL     1     -43.360  40.380  28.952  1.00  0.00    -0.130 NA
ATOM     21  H   UNL     1     -45.887  38.816  27.510  1.00  0.00     0.086 H 
ATOM     22  N   UNL     1     -43.567  39.331  29.737  1.00  0.00    -0.066 NA
BRANCH  18  23
ATOM     23  C   UNL     1     -44.307  41.347  26.907  1.00  0.00     0.029 A 
ATOM     24  C   UNL     1     -45.628  42.729  25.323  1.00  0.00    -0.045 A 
ATOM     25  C   UNL     1     -45.494  41.707  26.350  1.00  0.00    -0.049 A 
ATOM     26  C   UNL     1     -44.526  43.360  24.895  1.00  0.00     0.010 A 
ATOM     27  H   UNL     1     -46.614  42.958  24.935  1.00  0.00     0.064 H 
ATOM     28  H   UNL     1     -46.422  41.237  26.672  1.00  0.00     0.063 H 
ATOM     29  N   UNL     1     -43.297  43.005  25.435  1.00  0.00    -0.306 N 
ATOM     30  H   UNL     1     -44.541  44.133  24.137  1.00  0.00     0.082 H 
ATOM     31  C   UNL     1     -43.134  42.027  26.408  1.00  0.00     0.074 A 
ATOM     32  C   UNL     1     -42.047  43.493  25.149  1.00  0.00     0.099 A 
ATOM     33  C   UNL     1     -41.771  41.965  26.610  1.00  0.00     0.053 A 
ATOM     34  N   UNL     1     -41.107  42.888  25.840  1.00  0.00    -0.244 NA
ATOM     35  H   UNL     1     -41.888  44.281  24.426  1.00  0.00     0.105 H 
ATOM     36  H   UNL     1     -41.220  41.306  27.268  1.00  0.00     0.086 H 
ENDBRANCH  18  23
ENDBRANCH  14  17
ENDBRANCH   1  14
BRANCH   5  37
ATOM     37  C   UNL     1     -47.306  32.353  24.861  1.00  0.00     0.039 C 
ATOM     38  H   UNL     1     -46.542  31.623  25.162  1.00  0.00     0.050 H 
ATOM     39  H   UNL     1     -47.022  32.724  23.869  1.00  0.00     0.050 H 
BRANCH  37  40
ATOM     40  N   UNL     1     -48.630  31.708  24.861  1.00  0.00    -0.297 NA
ATOM     41  C   UNL     1     -48.580  30.391  25.523  1.00  0.00    -0.001 C 
ATOM     42  C   UNL     1     -49.080  31.389  23.487  1.00  0.00     0.004 C 
ATOM     43  C   UNL     1     -48.024  29.424  24.485  1.00  0.00    -0.033 C 
ATOM     44  H   UNL     1     -49.604  30.100  25.789  1.00  0.00     0.043 H 
ATOM     45  H   UNL     1     -47.999  30.391  26.451  1.00  0.00     0.043 H 
ATOM     46  C   UNL     1     -48.575  29.974  23.175  1.00  0.00    -0.016 C 
ATOM     47  H   UNL     1     -50.178  31.403  23.494  1.00  0.00     0.044 H 
ATOM     48  H   UNL     1     -48.766  32.129  22.743  1.00  0.00     0.044 H 
ATOM     49  H   UNL     1     -48.341  28.396  24.685  1.00  0.00     0.029 H 
ATOM     50  H   UNL     1     -46.930  29.453  24.493  1.00  0.00     0.029 H 
ATOM     51  C   UNL     1     -49.569  29.063  22.388  1.00  0.00    -0.046 C 
ATOM     52  C   UNL     1     -47.634  29.836  21.938  1.00  0.00    -0.046 C 
ATOM     53  C   UNL     1     -48.888  29.545  21.092  1.00  0.00    -0.052 C 
ATOM     54  H   UNL     1     -50.632  29.301  22.479  1.00  0.00     0.027 H 
ATOM     55  H   UNL     1     -49.438  27.989  22.568  1.00  0.00     0.027 H 
ATOM     56  H   UNL     1     -47.068  30.726  21.653  1.00  0.00     0.027 H 
ATOM     57  H   UNL     1     -46.943  28.986  21.990  1.00  0.00     0.027 H 
ATOM     58  H   UNL     1     -48.770  28.792  20.309  1.00  0.00     0.027 H 
ATOM     59  H   UNL     1     -49.347  30.440  20.658  1.00  0.00     0.027 H 
ENDBRANCH  37  40
ENDBRANCH   5  37
TORSDOF 5
ENDMDL
MODEL 6
REMARK VINA RESULT:     -10.0      1.161      2.453
REMARK SMILES c1cc(-c2cn(Cc3cc4[nH]c(CN5CCC6(CCC6)C5)cc4cn3)nn2)c2cncn2c1
REMARK SMILES IDX 8 1 9 2 10 3 11 4 12 5 22 6 23 7 24 8 25 9 7 14 6 17 4 18
REMARK SMILES IDX 5 19 27 20 26 22 3 23 1 24 2 25 33 26 32 29 28 31 31 32
REMARK SMILES IDX 29 33 30 34 13 37 14 40 15 41 21 42 16 43 17 46 18 51 20 52
REMARK SMILES IDX 19 53
REMARK H PARENT 9 10 11 11 22 12 24 13 7 15 7 16 5 21 1 27 2 28 33 30 31 35
REMARK H PARENT 29 36 13 38 13 39 15 44 15 45 21 47 21 48 16 49 16 50 18 54
REMARK H PARENT 18 55 20 56 20 57 19 58 19 59
REMARK Flexibility Score: inf
ROOT
ATOM      1  C   UNL     1     -47.572  35.302  27.203  1.00  0.00     0.064 A 
ATOM      2  C   UNL     1     -48.555  34.450  26.694  1.00  0.00    -0.014 A 
ATOM      3  C   UNL     1     -48.102  33.421  25.869  1.00  0.00     0.049 A 
ATOM      4  N   UNL     1     -48.794  32.437  25.203  1.00  0.00    -0.357 N 
ATOM      5  C   UNL     1     -47.932  31.640  24.489  1.00  0.00     0.030 A 
ATOM      6  C   UNL     1     -46.656  32.116  24.712  1.00  0.00    -0.031 A 
ATOM      7  C   UNL     1     -46.753  33.240  25.579  1.00  0.00     0.018 A 
ATOM      8  C   UNL     1     -45.829  34.122  26.146  1.00  0.00     0.037 A 
ATOM      9  N   UNL     1     -46.246  35.129  26.957  1.00  0.00    -0.259 NA
ATOM     10  H   UNL     1     -49.608  34.573  26.909  1.00  0.00     0.067 H 
ATOM     11  H   UNL     1     -49.800  32.324  25.185  1.00  0.00     0.166 HD
ATOM     12  H   UNL     1     -45.746  31.704  24.293  1.00  0.00     0.065 H 
ATOM     13  H   UNL     1     -44.762  34.051  25.974  1.00  0.00     0.085 H 
ENDROOT
BRANCH   1  14
ATOM     14  C   UNL     1     -47.913  36.426  28.153  1.00  0.00     0.085 C 
ATOM     15  H   UNL     1     -48.752  37.002  27.747  1.00  0.00     0.058 H 
ATOM     16  H   UNL     1     -48.212  36.031  29.131  1.00  0.00     0.058 H 
BRANCH  14  17
ATOM     17  N   UNL     1     -46.811  37.340  28.386  1.00  0.00    -0.246 N 
ATOM     18  C   UNL     1     -45.331  38.908  28.264  1.00  0.00     0.115 A 
ATOM     19  C   UNL     1     -46.347  38.318  27.549  1.00  0.00     0.054 A 
ATOM     20  N   UNL     1     -45.213  38.284  29.479  1.00  0.00    -0.130 NA
ATOM     21  H   UNL     1     -46.754  38.479  26.564  1.00  0.00     0.086 H 
ATOM     22  N   UNL     1     -46.137  37.335  29.550  1.00  0.00    -0.066 NA
BRANCH  18  23
ATOM     23  C   UNL     1     -44.455  39.980  27.878  1.00  0.00     0.029 A 
ATOM     24  C   UNL     1     -43.839  41.728  26.225  1.00  0.00    -0.045 A 
ATOM     25  C   UNL     1     -44.653  40.615  26.692  1.00  0.00    -0.049 A 
ATOM     26  C   UNL     1     -42.836  42.162  27.001  1.00  0.00     0.010 A 
ATOM     27  H   UNL     1     -44.068  42.180  25.267  1.00  0.00     0.064 H 
ATOM     28  H   UNL     1     -45.463  40.312  26.030  1.00  0.00     0.063 H 
ATOM     29  N   UNL     1     -42.601  41.525  28.212  1.00  0.00    -0.306 N 
ATOM     30  H   UNL     1     -42.188  42.984  26.728  1.00  0.00     0.082 H 
ATOM     31  C   UNL     1     -43.351  40.453  28.681  1.00  0.00     0.074 A 
ATOM     32  C   UNL     1     -41.638  41.777  29.156  1.00  0.00     0.099 A 
ATOM     33  C   UNL     1     -42.749  40.105  29.872  1.00  0.00     0.053 A 
ATOM     34  N   UNL     1     -41.701  40.941  30.167  1.00  0.00    -0.244 NA
ATOM     35  H   UNL     1     -40.919  42.577  29.045  1.00  0.00     0.105 H 
ATOM     36  H   UNL     1     -43.008  39.296  30.542  1.00  0.00     0.086 H 
ENDBRANCH  18  23
ENDBRANCH  14  17
ENDBRANCH   1  14
BRANCH   5  37
ATOM     37  C   UNL     1     -48.430  30.491  23.672  1.00  0.00     0.039 C 
ATOM     38  H   UNL     1     -47.582  29.804  23.547  1.00  0.00     0.050 H 
ATOM     39  H   UNL     1     -48.713  30.837  22.671  1.00  0.00     0.050 H 
BRANCH  37  40
ATOM     40  N   UNL     1     -49.532  29.795  24.357  1.00  0.00    -0.297 NA
ATOM     41  C   UNL     1     -49.042  28.606  25.079  1.00  0.00    -0.001 C 
ATOM     42  C   UNL     1     -50.506  29.237  23.392  1.00  0.00     0.004 C 
ATOM     43  C   UNL     1     -48.899  27.510  24.030  1.00  0.00    -0.033 C 
ATOM     44  H   UNL     1     -49.799  28.314  25.818  1.00  0.00     0.043 H 
ATOM     45  H   UNL     1     -48.112  28.782  25.631  1.00  0.00     0.043 H 
ATOM     46  C   UNL     1     -50.034  27.814  23.060  1.00  0.00    -0.016 C 
ATOM     47  H   UNL     1     -51.480  29.201  23.898  1.00  0.00     0.044 H 
ATOM     48  H   UNL     1     -50.643  29.861  22.501  1.00  0.00     0.044 H 
ATOM     49  H   UNL     1     -48.973  26.514  24.478  1.00  0.00     0.029 H 
ATOM     50  H   UNL     1     -47.927  27.591  23.533  1.00  0.00     0.029 H 
ATOM     51  C   UNL     1     -51.163  26.744  22.933  1.00  0.00    -0.046 C 
ATOM     52  C   UNL     1     -49.733  27.522  21.557  1.00  0.00    -0.046 C 
ATOM     53  C   UNL     1     -51.190  27.041  21.421  1.00  0.00    -0.052 C 
ATOM     54  H   UNL     1     -52.094  26.944  23.470  1.00  0.00     0.027 H 
ATOM     55  H   UNL     1     -50.844  25.720  23.165  1.00  0.00     0.027 H 
ATOM     56  H   UNL     1     -49.460  28.380  20.938  1.00  0.00     0.027 H 
ATOM     57  H   UNL     1     -48.998  26.725  21.392  1.00  0.00     0.027 H 
ATOM     58  H   UNL     1     -51.347  26.177  20.770  1.00  0.00     0.027 H 
ATOM     59  H   UNL     1     -51.894  27.832  21.139  1.00  0.00     0.027 H 
ENDBRANCH  37  40
ENDBRANCH   5  37
TORSDOF 5
ENDMDL
MODEL 7
REMARK VINA RESULT:      -9.8      2.153      3.521
REMARK SMILES c1cc(-c2cn(Cc3cc4[nH]c(CN5CCC6(CCC6)C5)cc4cn3)nn2)c2cncn2c1
REMARK SMILES IDX 8 1 9 2 10 3 11 4 12 5 22 6 23 7 24 8 25 9 7 14 6 17 4 18
REMARK SMILES IDX 5 19 27 20 26 22 3 23 1 24 2 25 33 26 32 29 28 31 31 32
REMARK SMILES IDX 29 33 30 34 13 37 14 40 15 41 21 42 16 43 17 46 18 51 20 52
REMARK SMILES IDX 19 53
REMARK H PARENT 9 10 11 11 22 12 24 13 7 15 7 16 5 21 1 27 2 28 33 30 31 35
REMARK H PARENT 29 36 13 38 13 39 15 44 15 45 21 47 21 48 16 49 16 50 18 54
REMARK H PARENT 18 55 20 56 20 57 19 58 19 59
REMARK Flexibility Score: inf
ROOT
ATOM      1  C   UNL     1     -46.806  36.460  28.020  1.00  0.00     0.064 A 
ATOM      2  C   UNL     1     -45.920  35.646  27.311  1.00  0.00    -0.014 A 
ATOM      3  C   UNL     1     -46.499  34.633  26.548  1.00  0.00     0.049 A 
ATOM      4  N   UNL     1     -45.923  33.664  25.760  1.00  0.00    -0.357 N 
ATOM      5  C   UNL     1     -46.888  32.862  25.200  1.00  0.00     0.030 A 
ATOM      6  C   UNL     1     -48.112  33.333  25.629  1.00  0.00    -0.031 A 
ATOM      7  C   UNL     1     -47.877  34.449  26.481  1.00  0.00     0.018 A 
ATOM      8  C   UNL     1     -48.698  35.320  27.202  1.00  0.00     0.037 A 
ATOM      9  N   UNL     1     -48.157  36.317  27.949  1.00  0.00    -0.259 NA
ATOM     10  H   UNL     1     -44.846  35.774  27.348  1.00  0.00     0.067 H 
ATOM     11  H   UNL     1     -44.930  33.513  25.633  1.00  0.00     0.166 HD
ATOM     12  H   UNL     1     -49.076  32.918  25.363  1.00  0.00     0.065 H 
ATOM     13  H   UNL     1     -49.779  35.247  27.204  1.00  0.00     0.085 H 
ENDROOT
BRANCH   1  14
ATOM     14  C   UNL     1     -46.322  37.629  28.844  1.00  0.00     0.085 C 
ATOM     15  H   UNL     1     -47.103  37.918  29.557  1.00  0.00     0.058 H 
ATOM     16  H   UNL     1     -45.425  37.358  29.414  1.00  0.00     0.058 H 
BRANCH  14  17
ATOM     17  N   UNL     1     -45.982  38.795  28.052  1.00  0.00    -0.246 N 
ATOM     18  C   UNL     1     -44.986  40.441  27.072  1.00  0.00     0.115 A 
ATOM     19  C   UNL     1     -44.778  39.441  27.993  1.00  0.00     0.054 A 
ATOM     20  N   UNL     1     -46.277  40.372  26.614  1.00  0.00    -0.130 NA
ATOM     21  H   UNL     1     -43.935  39.152  28.600  1.00  0.00     0.086 H 
ATOM     22  N   UNL     1     -46.873  39.348  27.209  1.00  0.00    -0.066 NA
BRANCH  18  23
ATOM     23  C   UNL     1     -44.079  41.461  26.621  1.00  0.00     0.029 A 
ATOM     24  C   UNL     1     -41.757  42.331  26.490  1.00  0.00    -0.045 A 
ATOM     25  C   UNL     1     -42.756  41.366  26.923  1.00  0.00    -0.049 A 
ATOM     26  C   UNL     1     -42.150  43.377  25.750  1.00  0.00     0.010 A 
ATOM     27  H   UNL     1     -40.722  42.176  26.771  1.00  0.00     0.064 H 
ATOM     28  H   UNL     1     -42.382  40.528  27.508  1.00  0.00     0.063 H 
ATOM     29  N   UNL     1     -43.496  43.509  25.437  1.00  0.00    -0.306 N 
ATOM     30  H   UNL     1     -41.469  44.136  25.387  1.00  0.00     0.082 H 
ATOM     31  C   UNL     1     -44.476  42.612  25.844  1.00  0.00     0.074 A 
ATOM     32  C   UNL     1     -44.130  44.489  24.715  1.00  0.00     0.099 A 
ATOM     33  C   UNL     1     -45.654  43.148  25.366  1.00  0.00     0.053 A 
ATOM     34  N   UNL     1     -45.428  44.300  24.654  1.00  0.00    -0.244 NA
ATOM     35  H   UNL     1     -43.592  45.313  24.268  1.00  0.00     0.105 H 
ATOM     36  H   UNL     1     -46.661  42.773  25.493  1.00  0.00     0.086 H 
ENDBRANCH  18  23
ENDBRANCH  14  17
ENDBRANCH   1  14
BRANCH   5  37
ATOM     37  C   UNL     1     -46.527  31.725  24.297  1.00  0.00     0.039 C 
ATOM     38  H   UNL     1     -45.674  31.213  24.762  1.00  0.00     0.050 H 
ATOM     39  H   UNL     1     -46.183  32.109  23.330  1.00  0.00     0.050 H 
BRANCH  37  40
ATOM     40  N   UNL     1     -47.651  30.784  24.159  1.00  0.00    -0.297 NA
ATOM     41  C   UNL     1     -47.170  29.418  23.886  1.00  0.00    -0.001 C 
ATOM     42  C   UNL     1     -48.485  31.101  22.977  1.00  0.00     0.004 C 
ATOM     43  C   UNL     1     -46.853  29.378  22.396  1.00  0.00    -0.033 C 
ATOM     44  H   UNL     1     -47.982  28.714  24.110  1.00  0.00     0.043 H 
ATOM     45  H   UNL     1     -46.315  29.123  24.505  1.00  0.00     0.043 H 
ATOM     46  C   UNL     1     -47.896  30.314  21.798  1.00  0.00    -0.016 C 
ATOM     47  H   UNL     1     -49.502  30.750  23.194  1.00  0.00     0.044 H 
ATOM     48  H   UNL     1     -48.565  32.176  22.776  1.00  0.00     0.044 H 
ATOM     49  H   UNL     1     -46.914  28.359  22.000  1.00  0.00     0.029 H 
ATOM     50  H   UNL     1     -45.841  29.755  22.217  1.00  0.00     0.029 H 
ATOM     51  C   UNL     1     -48.940  29.681  20.825  1.00  0.00    -0.046 C 
ATOM     52  C   UNL     1     -47.423  31.157  20.574  1.00  0.00    -0.046 C 
ATOM     53  C   UNL     1     -48.827  30.959  19.971  1.00  0.00    -0.052 C 
ATOM     54  H   UNL     1     -49.932  29.474  21.234  1.00  0.00     0.027 H 
ATOM     55  H   UNL     1     -48.586  28.783  20.303  1.00  0.00     0.027 H 
ATOM     56  H   UNL     1     -47.138  32.193  20.776  1.00  0.00     0.027 H 
ATOM     57  H   UNL     1     -46.629  30.686  19.983  1.00  0.00     0.027 H 
ATOM     58  H   UNL     1     -48.863  30.812  18.889  1.00  0.00     0.027 H 
ATOM     59  H   UNL     1     -49.543  31.741  20.248  1.00  0.00     0.027 H 
ENDBRANCH  37  40
ENDBRANCH   5  37
TORSDOF 5
ENDMDL
