MODEL 1
REMARK VINA RESULT:     -10.4      0.000      0.000
REMARK SMILES CNc1ccc2ccc(OC[C@H]3O[C@@H](n4cc(Cl)c5c(N)ncnc54)C[C@@H]3O)cc2n1
REMARK SMILES IDX 11 1 10 4 9 5 3 6 4 7 31 8 5 9 30 11 6 12 29 14 7 15 8 17
REMARK SMILES IDX 2 20 1 22 12 26 13 27 27 28 14 30 26 31 28 36 15 38 16 39
REMARK SMILES IDX 25 40 17 41 19 43 24 44 18 45 20 46 23 47 22 48 21 50
REMARK H PARENT 11 2 11 3 4 10 5 13 29 16 7 18 8 19 2 21 1 23 1 24 1 25 12 29
REMARK H PARENT 27 32 14 33 26 34 26 35 28 37 16 42 23 49 21 51 21 52
REMARK Flexibility Score: inf
ROOT
ATOM      1  C   UNL     1     -47.168  36.290  27.302  1.00  0.00     0.117 C 
ATOM      2  H   UNL     1     -48.073  35.758  27.618  1.00  0.00     0.073 H 
ATOM      3  H   UNL     1     -47.509  37.319  27.132  1.00  0.00     0.073 H 
ENDROOT
BRANCH   1   4
ATOM      4  O   UNL     1     -46.724  35.659  26.101  1.00  0.00    -0.491 OA
BRANCH   4   5
ATOM      5  C   UNL     1     -47.182  34.406  25.806  1.00  0.00     0.121 A 
ATOM      6  C   UNL     1     -46.933  30.075  23.849  1.00  0.00     0.126 A 
ATOM      7  C   UNL     1     -48.171  29.714  24.370  1.00  0.00    -0.019 A 
ATOM      8  N   UNL     1     -46.397  31.290  24.080  1.00  0.00    -0.231 NA
ATOM      9  C   UNL     1     -48.884  30.633  25.132  1.00  0.00    -0.049 A 
ATOM     10  H   UNL     1     -48.572  28.721  24.197  1.00  0.00     0.066 H 
ATOM     11  C   UNL     1     -47.081  32.185  24.816  1.00  0.00     0.076 A 
ATOM     12  C   UNL     1     -48.343  31.898  25.368  1.00  0.00     0.001 A 
ATOM     13  H   UNL     1     -49.852  30.352  25.540  1.00  0.00     0.063 H 
ATOM     14  C   UNL     1     -46.524  33.438  25.044  1.00  0.00     0.007 A 
ATOM     15  C   UNL     1     -49.016  32.863  26.131  1.00  0.00    -0.049 A 
ATOM     16  H   UNL     1     -45.551  33.624  24.601  1.00  0.00     0.069 H 
ATOM     17  C   UNL     1     -48.434  34.110  26.346  1.00  0.00    -0.019 A 
ATOM     18  H   UNL     1     -49.992  32.650  26.561  1.00  0.00     0.063 H 
ATOM     19  H   UNL     1     -48.959  34.856  26.939  1.00  0.00     0.066 H 
BRANCH   6  20
ATOM     20  N   UNL     1     -46.226  29.111  23.108  1.00  0.00    -0.373 N 
ATOM     21  H   UNL     1     -45.258  29.409  23.016  1.00  0.00     0.161 HD
BRANCH  20  22
ATOM     22  C   UNL     1     -46.327  27.759  23.636  1.00  0.00     0.005 C 
ATOM     23  H   UNL     1     -46.199  27.009  22.848  1.00  0.00     0.045 H 
ATOM     24  H   UNL     1     -47.324  27.620  24.067  1.00  0.00     0.045 H 
ATOM     25  H   UNL     1     -45.600  27.584  24.436  1.00  0.00     0.045 H 
ENDBRANCH  20  22
ENDBRANCH   6  20
ENDBRANCH   4   5
ENDBRANCH   1   4
BRANCH   1  26
ATOM     26  C   UNL     1     -46.117  36.207  28.417  1.00  0.00     0.120 C 
ATOM     27  O   UNL     1     -44.982  37.014  28.034  1.00  0.00    -0.348 OA
ATOM     28  C   UNL     1     -46.619  36.756  29.755  1.00  0.00     0.088 C 
ATOM     29  H   UNL     1     -45.765  35.177  28.534  1.00  0.00     0.067 H 
ATOM     30  C   UNL     1     -44.887  38.126  28.955  1.00  0.00     0.138 C 
ATOM     31  C   UNL     1     -46.217  38.207  29.687  1.00  0.00     0.022 C 
ATOM     32  H   UNL     1     -47.688  36.613  29.935  1.00  0.00     0.063 H 
ATOM     33  H   UNL     1     -44.052  37.913  29.634  1.00  0.00     0.085 H 
ATOM     34  H   UNL     1     -46.111  38.683  30.667  1.00  0.00     0.034 H 
ATOM     35  H   UNL     1     -46.953  38.776  29.106  1.00  0.00     0.034 H 
BRANCH  28  36
ATOM     36  O   UNL     1     -45.909  36.159  30.843  1.00  0.00    -0.390 OA
ATOM     37  H   UNL     1     -46.150  36.642  31.653  1.00  0.00     0.211 HD
ENDBRANCH  28  36
BRANCH  30  38
ATOM     38  N   UNL     1     -44.566  39.343  28.221  1.00  0.00    -0.304 N 
ATOM     39  C   UNL     1     -45.166  39.798  27.073  1.00  0.00     0.028 A 
ATOM     40  C   UNL     1     -43.600  40.237  28.615  1.00  0.00     0.149 A 
ATOM     41  C   UNL     1     -44.570  40.992  26.730  1.00  0.00     0.072 A 
ATOM     42  H   UNL     1     -45.954  39.237  26.589  1.00  0.00     0.084 H 
ATOM     43  C   UNL     1     -43.577  41.285  27.703  1.00  0.00     0.080 A 
ATOM     44  N   UNL     1     -42.822  40.109  29.703  1.00  0.00    -0.218 NA
ATOM     45  Cl  UNL     1     -44.956  41.944  25.376  1.00  0.00    -0.082 Cl
ATOM     46  C   UNL     1     -42.645  42.306  27.946  1.00  0.00     0.137 A 
ATOM     47  C   UNL     1     -41.969  41.138  29.827  1.00  0.00     0.120 A 
ATOM     48  N   UNL     1     -41.837  42.207  29.020  1.00  0.00    -0.219 NA
ATOM     49  H   UNL     1     -41.302  41.104  30.684  1.00  0.00     0.106 H 
BRANCH  46  50
ATOM     50  N   UNL     1     -42.490  43.423  27.142  1.00  0.00    -0.383 N 
ATOM     51  H   UNL     1     -43.301  44.027  27.181  1.00  0.00     0.158 HD
ATOM     52  H   UNL     1     -41.582  43.866  27.179  1.00  0.00     0.158 HD
ENDBRANCH  46  50
ENDBRANCH  30  38
ENDBRANCH   1  26
TORSDOF 8
ENDMDL
MODEL 2
REMARK VINA RESULT:      -9.3      5.557     11.646
REMARK SMILES CNc1ccc2ccc(OC[C@H]3O[C@@H](n4cc(Cl)c5c(N)ncnc54)C[C@@H]3O)cc2n1
REMARK SMILES IDX 11 1 10 4 9 5 3 6 4 7 31 8 5 9 30 11 6 12 29 14 7 15 8 17
REMARK SMILES IDX 2 20 1 22 12 26 13 27 27 28 14 30 26 31 28 36 15 38 16 39
REMARK SMILES IDX 25 40 17 41 19 43 24 44 18 45 20 46 23 47 22 48 21 50
REMARK H PARENT 11 2 11 3 4 10 5 13 29 16 7 18 8 19 2 21 1 23 1 24 1 25 12 29
REMARK H PARENT 27 32 14 33 26 34 26 35 28 37 16 42 23 49 21 51 21 52
REMARK Flexibility Score: inf
ROOT
ATOM      1  C   UNL     1     -48.382  31.717  23.997  1.00  0.00     0.117 C 
ATOM      2  H   UNL     1     -48.529  32.712  23.560  1.00  0.00     0.073 H 
ATOM      3  H   UNL     1     -49.348  31.218  23.854  1.00  0.00     0.073 H 
ENDROOT
BRANCH   1   4
ATOM      4  O   UNL     1     -48.074  31.921  25.376  1.00  0.00    -0.491 OA
BRANCH   4   5
ATOM      5  C   UNL     1     -47.945  33.199  25.841  1.00  0.00     0.121 A 
ATOM      6  C   UNL     1     -49.435  37.172  27.999  1.00  0.00     0.126 A 
ATOM      7  C   UNL     1     -48.202  37.789  27.820  1.00  0.00    -0.019 A 
ATOM      8  N   UNL     1     -49.662  35.913  27.571  1.00  0.00    -0.231 NA
ATOM      9  C   UNL     1     -47.183  37.104  27.168  1.00  0.00    -0.049 A 
ATOM     10  H   UNL     1     -48.029  38.792  28.198  1.00  0.00     0.066 H 
ATOM     11  C   UNL     1     -48.681  35.243  26.939  1.00  0.00     0.076 A 
ATOM     12  C   UNL     1     -47.411  35.805  26.712  1.00  0.00     0.001 A 
ATOM     13  H   UNL     1     -46.218  37.585  27.029  1.00  0.00     0.063 H 
ATOM     14  C   UNL     1     -48.925  33.948  26.496  1.00  0.00     0.007 A 
ATOM     15  C   UNL     1     -46.419  35.064  26.052  1.00  0.00    -0.049 A 
ATOM     16  H   UNL     1     -49.917  33.550  26.687  1.00  0.00     0.069 H 
ATOM     17  C   UNL     1     -46.691  33.768  25.620  1.00  0.00    -0.019 A 
ATOM     18  H   UNL     1     -45.436  35.490  25.871  1.00  0.00     0.063 H 
ATOM     19  H   UNL     1     -45.919  33.197  25.108  1.00  0.00     0.066 H 
BRANCH   6  20
ATOM     20  N   UNL     1     -50.433  37.884  28.688  1.00  0.00    -0.373 N 
ATOM     21  H   UNL     1     -50.287  37.773  29.688  1.00  0.00     0.161 HD
BRANCH  20  22
ATOM     22  C   UNL     1     -50.537  39.284  28.309  1.00  0.00     0.005 C 
ATOM     23  H   UNL     1     -51.295  39.436  27.532  1.00  0.00     0.045 H 
ATOM     24  H   UNL     1     -49.575  39.614  27.902  1.00  0.00     0.045 H 
ATOM     25  H   UNL     1     -50.761  39.919  29.173  1.00  0.00     0.045 H 
ENDBRANCH  20  22
ENDBRANCH   6  20
ENDBRANCH   4   5
ENDBRANCH   1   4
BRANCH   1  26
ATOM     26  C   UNL     1     -47.247  31.001  23.254  1.00  0.00     0.120 C 
ATOM     27  O   UNL     1     -46.827  29.869  24.047  1.00  0.00    -0.348 OA
ATOM     28  C   UNL     1     -47.676  30.452  21.892  1.00  0.00     0.088 C 
ATOM     29  H   UNL     1     -46.384  31.665  23.144  1.00  0.00     0.067 H 
ATOM     30  C   UNL     1     -47.153  28.662  23.320  1.00  0.00     0.138 C 
ATOM     31  C   UNL     1     -48.136  29.056  22.229  1.00  0.00     0.022 C 
ATOM     32  H   UNL     1     -48.438  31.045  21.380  1.00  0.00     0.063 H 
ATOM     33  H   UNL     1     -46.216  28.268  22.910  1.00  0.00     0.085 H 
ATOM     34  H   UNL     1     -48.102  28.363  21.383  1.00  0.00     0.034 H 
ATOM     35  H   UNL     1     -49.163  29.080  22.614  1.00  0.00     0.034 H 
BRANCH  28  36
ATOM     36  O   UNL     1     -46.551  30.338  21.017  1.00  0.00    -0.390 OA
ATOM     37  H   UNL     1     -45.785  30.737  21.468  1.00  0.00     0.211 HD
ENDBRANCH  28  36
BRANCH  30  38
ATOM     38  N   UNL     1     -47.692  27.668  24.238  1.00  0.00    -0.304 N 
ATOM     39  C   UNL     1     -46.980  26.757  24.980  1.00  0.00     0.028 A 
ATOM     40  C   UNL     1     -49.032  27.526  24.507  1.00  0.00     0.149 A 
ATOM     41  C   UNL     1     -47.879  26.025  25.724  1.00  0.00     0.072 A 
ATOM     42  H   UNL     1     -45.902  26.694  24.912  1.00  0.00     0.084 H 
ATOM     43  C   UNL     1     -49.185  26.505  25.437  1.00  0.00     0.080 A 
ATOM     44  N   UNL     1     -50.014  28.262  23.961  1.00  0.00    -0.218 NA
ATOM     45  Cl  UNL     1     -47.490  24.763  26.795  1.00  0.00    -0.082 Cl
ATOM     46  C   UNL     1     -50.498  26.216  25.839  1.00  0.00     0.137 A 
ATOM     47  C   UNL     1     -51.222  27.892  24.414  1.00  0.00     0.120 A 
ATOM     48  N   UNL     1     -51.513  26.923  25.302  1.00  0.00    -0.219 NA
ATOM     49  H   UNL     1     -52.070  28.440  24.015  1.00  0.00     0.106 H 
BRANCH  46  50
ATOM     50  N   UNL     1     -50.832  25.234  26.757  1.00  0.00    -0.383 N 
ATOM     51  H   UNL     1     -50.869  25.602  27.700  1.00  0.00     0.158 HD
ATOM     52  H   UNL     1     -51.572  24.606  26.476  1.00  0.00     0.158 HD
ENDBRANCH  46  50
ENDBRANCH  30  38
ENDBRANCH   1  26
TORSDOF 8
ENDMDL
MODEL 3
REMARK VINA RESULT:      -9.0      3.076      9.908
REMARK SMILES CNc1ccc2ccc(OC[C@H]3O[C@@H](n4cc(Cl)c5c(N)ncnc54)C[C@@H]3O)cc2n1
REMARK SMILES IDX 11 1 10 4 9 5 3 6 4 7 31 8 5 9 30 11 6 12 29 14 7 15 8 17
REMARK SMILES IDX 2 20 1 22 12 26 13 27 27 28 14 30 26 31 28 36 15 38 16 39
REMARK SMILES IDX 25 40 17 41 19 43 24 44 18 45 20 46 23 47 22 48 21 50
REMARK H PARENT 11 2 11 3 4 10 5 13 29 16 7 18 8 19 2 21 1 23 1 24 1 25 12 29
REMARK H PARENT 27 32 14 33 26 34 26 35 28 37 16 42 23 49 21 51 21 52
REMARK Flexibility Score: inf
ROOT
ATOM      1  C   UNL     1     -48.549  35.599  27.041  1.00  0.00     0.117 C 
ATOM      2  H   UNL     1     -48.382  36.004  26.036  1.00  0.00     0.073 H 
ATOM      3  H   UNL     1     -49.532  35.116  26.973  1.00  0.00     0.073 H 
ENDROOT
BRANCH   1   4
ATOM      4  O   UNL     1     -48.552  36.714  27.932  1.00  0.00    -0.491 OA
BRANCH   4   5
ATOM      5  C   UNL     1     -47.456  37.529  27.973  1.00  0.00     0.121 A 
ATOM      6  C   UNL     1     -44.547  40.925  26.341  1.00  0.00     0.126 A 
ATOM      7  C   UNL     1     -43.721  40.820  27.455  1.00  0.00    -0.019 A 
ATOM      8  N   UNL     1     -45.650  40.161  26.207  1.00  0.00    -0.231 NA
ATOM      9  C   UNL     1     -44.025  39.894  28.446  1.00  0.00    -0.049 A 
ATOM     10  H   UNL     1     -42.854  41.465  27.559  1.00  0.00     0.066 H 
ATOM     11  C   UNL     1     -45.951  39.262  27.161  1.00  0.00     0.076 A 
ATOM     12  C   UNL     1     -45.159  39.091  28.312  1.00  0.00     0.001 A 
ATOM     13  H   UNL     1     -43.381  39.813  29.318  1.00  0.00     0.063 H 
ATOM     14  C   UNL     1     -47.087  38.474  27.013  1.00  0.00     0.007 A 
ATOM     15  C   UNL     1     -45.516  38.143  29.281  1.00  0.00    -0.049 A 
ATOM     16  H   UNL     1     -47.672  38.633  26.112  1.00  0.00     0.069 H 
ATOM     17  C   UNL     1     -46.661  37.368  29.107  1.00  0.00    -0.019 A 
ATOM     18  H   UNL     1     -44.910  38.003  30.172  1.00  0.00     0.063 H 
ATOM     19  H   UNL     1     -46.935  36.633  29.861  1.00  0.00     0.066 H 
BRANCH   6  20
ATOM     20  N   UNL     1     -44.225  41.893  25.373  1.00  0.00    -0.373 N 
ATOM     21  H   UNL     1     -45.085  42.281  24.995  1.00  0.00     0.161 HD
BRANCH  20  22
ATOM     22  C   UNL     1     -43.325  42.933  25.844  1.00  0.00     0.005 C 
ATOM     23  H   UNL     1     -43.826  43.616  26.537  1.00  0.00     0.045 H 
ATOM     24  H   UNL     1     -42.985  43.523  24.986  1.00  0.00     0.045 H 
ATOM     25  H   UNL     1     -42.435  42.509  26.321  1.00  0.00     0.045 H 
ENDBRANCH  20  22
ENDBRANCH   6  20
ENDBRANCH   4   5
ENDBRANCH   1   4
BRANCH   1  26
ATOM     26  C   UNL     1     -47.435  34.598  27.375  1.00  0.00     0.120 C 
ATOM     27  O   UNL     1     -47.899  33.273  27.039  1.00  0.00    -0.348 OA
ATOM     28  C   UNL     1     -46.155  34.837  26.571  1.00  0.00     0.088 C 
ATOM     29  H   UNL     1     -47.221  34.611  28.448  1.00  0.00     0.067 H 
ATOM     30  C   UNL     1     -47.091  32.774  25.948  1.00  0.00     0.138 C 
ATOM     31  C   UNL     1     -46.364  33.971  25.354  1.00  0.00     0.022 C 
ATOM     32  H   UNL     1     -45.958  35.883  26.326  1.00  0.00     0.063 H 
ATOM     33  H   UNL     1     -46.398  32.036  26.369  1.00  0.00     0.085 H 
ATOM     34  H   UNL     1     -45.435  33.675  24.857  1.00  0.00     0.034 H 
ATOM     35  H   UNL     1     -46.995  34.493  24.625  1.00  0.00     0.034 H 
BRANCH  28  36
ATOM     36  O   UNL     1     -45.017  34.330  27.274  1.00  0.00    -0.390 OA
ATOM     37  H   UNL     1     -45.308  33.556  27.787  1.00  0.00     0.211 HD
ENDBRANCH  28  36
BRANCH  30  38
ATOM     38  N   UNL     1     -47.939  32.089  24.983  1.00  0.00    -0.304 N 
ATOM     39  C   UNL     1     -49.313  32.080  24.949  1.00  0.00     0.028 A 
ATOM     40  C   UNL     1     -47.454  31.353  23.928  1.00  0.00     0.149 A 
ATOM     41  C   UNL     1     -49.703  31.327  23.864  1.00  0.00     0.072 A 
ATOM     42  H   UNL     1     -49.898  32.597  25.698  1.00  0.00     0.084 H 
ATOM     43  C   UNL     1     -48.534  30.863  23.204  1.00  0.00     0.080 A 
ATOM     44  N   UNL     1     -46.154  31.158  23.653  1.00  0.00    -0.218 NA
ATOM     45  Cl  UNL     1     -51.308  31.007  23.401  1.00  0.00    -0.082 Cl
ATOM     46  C   UNL     1     -48.230  30.084  22.077  1.00  0.00     0.137 A 
ATOM     47  C   UNL     1     -45.986  30.395  22.562  1.00  0.00     0.120 A 
ATOM     48  N   UNL     1     -46.936  29.853  21.776  1.00  0.00    -0.219 NA
ATOM     49  H   UNL     1     -44.960  30.188  22.276  1.00  0.00     0.106 H 
BRANCH  46  50
ATOM     50  N   UNL     1     -49.180  29.519  21.243  1.00  0.00    -0.383 N 
ATOM     51  H   UNL     1     -49.856  30.205  20.929  1.00  0.00     0.158 HD
ATOM     52  H   UNL     1     -48.827  28.870  20.554  1.00  0.00     0.158 HD
ENDBRANCH  46  50
ENDBRANCH  30  38
ENDBRANCH   1  26
TORSDOF 8
ENDMDL
MODEL 4
REMARK VINA RESULT:      -8.7      5.098     11.503
REMARK SMILES CNc1ccc2ccc(OC[C@H]3O[C@@H](n4cc(Cl)c5c(N)ncnc54)C[C@@H]3O)cc2n1
REMARK SMILES IDX 11 1 10 4 9 5 3 6 4 7 31 8 5 9 30 11 6 12 29 14 7 15 8 17
REMARK SMILES IDX 2 20 1 22 12 26 13 27 27 28 14 30 26 31 28 36 15 38 16 39
REMARK SMILES IDX 25 40 17 41 19 43 24 44 18 45 20 46 23 47 22 48 21 50
REMARK H PARENT 11 2 11 3 4 10 5 13 29 16 7 18 8 19 2 21 1 23 1 24 1 25 12 29
REMARK H PARENT 27 32 14 33 26 34 26 35 28 37 16 42 23 49 21 51 21 52
REMARK Flexibility Score: inf
ROOT
ATOM      1  C   UNL     1     -49.877  32.141  24.702  1.00  0.00     0.117 C 
ATOM      2  H   UNL     1     -50.153  33.191  24.553  1.00  0.00     0.073 H 
ATOM      3  H   UNL     1     -50.794  31.677  25.087  1.00  0.00     0.073 H 
ENDROOT
BRANCH   1   4
ATOM      4  O   UNL     1     -48.819  32.131  25.660  1.00  0.00    -0.491 OA
BRANCH   4   5
ATOM      5  C   UNL     1     -48.255  33.318  26.032  1.00  0.00     0.121 A 
ATOM      6  C   UNL     1     -48.265  37.703  27.884  1.00  0.00     0.126 A 
ATOM      7  C   UNL     1     -46.898  37.849  27.671  1.00  0.00    -0.019 A 
ATOM      8  N   UNL     1     -48.914  36.570  27.547  1.00  0.00    -0.231 NA
ATOM      9  C   UNL     1     -46.185  36.812  27.078  1.00  0.00    -0.049 A 
ATOM     10  H   UNL     1     -46.388  38.757  27.976  1.00  0.00     0.066 H 
ATOM     11  C   UNL     1     -48.231  35.563  26.973  1.00  0.00     0.076 A 
ATOM     12  C   UNL     1     -46.850  35.640  26.716  1.00  0.00     0.001 A 
ATOM     13  H   UNL     1     -45.116  36.925  26.912  1.00  0.00     0.063 H 
ATOM     14  C   UNL     1     -48.910  34.401  26.623  1.00  0.00     0.007 A 
ATOM     15  C   UNL     1     -46.181  34.561  26.119  1.00  0.00    -0.049 A 
ATOM     16  H   UNL     1     -49.974  34.379  26.835  1.00  0.00     0.069 H 
ATOM     17  C   UNL     1     -46.886  33.408  25.780  1.00  0.00    -0.019 A 
ATOM     18  H   UNL     1     -45.115  34.612  25.916  1.00  0.00     0.063 H 
ATOM     19  H   UNL     1     -46.363  32.574  25.317  1.00  0.00     0.066 H 
BRANCH   6  20
ATOM     20  N   UNL     1     -48.948  38.759  28.512  1.00  0.00    -0.373 N 
ATOM     21  H   UNL     1     -49.227  38.465  29.444  1.00  0.00     0.161 HD
BRANCH  20  22
ATOM     22  C   UNL     1     -48.214  40.014  28.538  1.00  0.00     0.005 C 
ATOM     23  H   UNL     1     -47.736  40.181  29.510  1.00  0.00     0.045 H 
ATOM     24  H   UNL     1     -48.914  40.839  28.368  1.00  0.00     0.045 H 
ATOM     25  H   UNL     1     -47.461  40.057  27.744  1.00  0.00     0.045 H 
ENDBRANCH  20  22
ENDBRANCH   6  20
ENDBRANCH   4   5
ENDBRANCH   1   4
BRANCH   1  26
ATOM     26  C   UNL     1     -49.444  31.536  23.360  1.00  0.00     0.120 C 
ATOM     27  O   UNL     1     -48.692  30.332  23.626  1.00  0.00    -0.348 OA
ATOM     28  C   UNL     1     -50.626  31.133  22.476  1.00  0.00     0.088 C 
ATOM     29  H   UNL     1     -48.784  32.226  22.826  1.00  0.00     0.067 H 
ATOM     30  C   UNL     1     -49.447  29.206  23.118  1.00  0.00     0.138 C 
ATOM     31  C   UNL     1     -50.865  29.700  22.876  1.00  0.00     0.022 C 
ATOM     32  H   UNL     1     -51.513  31.764  22.583  1.00  0.00     0.063 H 
ATOM     33  H   UNL     1     -48.958  28.880  22.192  1.00  0.00     0.085 H 
ATOM     34  H   UNL     1     -51.375  29.106  22.111  1.00  0.00     0.034 H 
ATOM     35  H   UNL     1     -51.458  29.659  23.797  1.00  0.00     0.034 H 
BRANCH  28  36
ATOM     36  O   UNL     1     -50.249  31.142  21.096  1.00  0.00    -0.390 OA
ATOM     37  H   UNL     1     -49.591  30.436  20.966  1.00  0.00     0.211 HD
ENDBRANCH  28  36
BRANCH  30  38
ATOM     38  N   UNL     1     -49.382  28.105  24.069  1.00  0.00    -0.304 N 
ATOM     39  C   UNL     1     -50.431  27.542  24.754  1.00  0.00     0.028 A 
ATOM     40  C   UNL     1     -48.221  27.447  24.396  1.00  0.00     0.149 A 
ATOM     41  C   UNL     1     -49.930  26.520  25.529  1.00  0.00     0.072 A 
ATOM     42  H   UNL     1     -51.441  27.917  24.646  1.00  0.00     0.084 H 
ATOM     43  C   UNL     1     -48.528  26.445  25.309  1.00  0.00     0.080 A 
ATOM     44  N   UNL     1     -47.004  27.733  23.903  1.00  0.00    -0.218 NA
ATOM     45  Cl  UNL     1     -50.833  25.525  26.571  1.00  0.00    -0.082 Cl
ATOM     46  C   UNL     1     -47.457  25.659  25.759  1.00  0.00     0.137 A 
ATOM     47  C   UNL     1     -46.061  26.923  24.410  1.00  0.00     0.120 A 
ATOM     48  N   UNL     1     -46.217  25.923  25.298  1.00  0.00    -0.219 NA
ATOM     49  H   UNL     1     -45.047  27.093  24.061  1.00  0.00     0.106 H 
BRANCH  46  50
ATOM     50  N   UNL     1     -47.583  24.618  26.664  1.00  0.00    -0.383 N 
ATOM     51  H   UNL     1     -48.504  24.199  26.624  1.00  0.00     0.158 HD
ATOM     52  H   UNL     1     -46.792  23.992  26.723  1.00  0.00     0.158 HD
ENDBRANCH  46  50
ENDBRANCH  30  38
ENDBRANCH   1  26
TORSDOF 8
ENDMDL
MODEL 5
REMARK VINA RESULT:      -8.7      3.316      5.498
REMARK SMILES CNc1ccc2ccc(OC[C@H]3O[C@@H](n4cc(Cl)c5c(N)ncnc54)C[C@@H]3O)cc2n1
REMARK SMILES IDX 11 1 10 4 9 5 3 6 4 7 31 8 5 9 30 11 6 12 29 14 7 15 8 17
REMARK SMILES IDX 2 20 1 22 12 26 13 27 27 28 14 30 26 31 28 36 15 38 16 39
REMARK SMILES IDX 25 40 17 41 19 43 24 44 18 45 20 46 23 47 22 48 21 50
REMARK H PARENT 11 2 11 3 4 10 5 13 29 16 7 18 8 19 2 21 1 23 1 24 1 25 12 29
REMARK H PARENT 27 32 14 33 26 34 26 35 28 37 16 42 23 49 21 51 21 52
REMARK Flexibility Score: inf
ROOT
ATOM      1  C   UNL     1     -44.481  40.368  28.108  1.00  0.00     0.117 C 
ATOM      2  H   UNL     1     -44.916  41.139  28.755  1.00  0.00     0.073 H 
ATOM      3  H   UNL     1     -45.103  40.398  27.204  1.00  0.00     0.073 H 
ENDROOT
BRANCH   1   4
ATOM      4  O   UNL     1     -44.603  39.132  28.811  1.00  0.00    -0.491 OA
BRANCH   4   5
ATOM      5  C   UNL     1     -45.462  38.183  28.334  1.00  0.00     0.121 A 
ATOM      6  C   UNL     1     -46.653  33.866  26.723  1.00  0.00     0.126 A 
ATOM      7  C   UNL     1     -47.990  34.228  26.597  1.00  0.00    -0.019 A 
ATOM      8  N   UNL     1     -45.727  34.732  27.180  1.00  0.00    -0.231 NA
ATOM      9  C   UNL     1     -48.382  35.519  26.932  1.00  0.00    -0.049 A 
ATOM     10  H   UNL     1     -48.725  33.507  26.255  1.00  0.00     0.066 H 
ATOM     11  C   UNL     1     -46.098  35.984  27.506  1.00  0.00     0.076 A 
ATOM     12  C   UNL     1     -47.430  36.428  27.397  1.00  0.00     0.001 A 
ATOM     13  H   UNL     1     -49.427  35.803  26.836  1.00  0.00     0.063 H 
ATOM     14  C   UNL     1     -45.137  36.874  27.972  1.00  0.00     0.007 A 
ATOM     15  C   UNL     1     -47.768  37.741  27.753  1.00  0.00    -0.049 A 
ATOM     16  H   UNL     1     -44.122  36.497  28.041  1.00  0.00     0.069 H 
ATOM     17  C   UNL     1     -46.784  38.611  28.219  1.00  0.00    -0.019 A 
ATOM     18  H   UNL     1     -48.793  38.093  27.671  1.00  0.00     0.063 H 
ATOM     19  H   UNL     1     -47.051  39.629  28.493  1.00  0.00     0.066 H 
BRANCH   6  20
ATOM     20  N   UNL     1     -46.298  32.543  26.403  1.00  0.00    -0.373 N 
ATOM     21  H   UNL     1     -46.837  31.906  26.984  1.00  0.00     0.161 HD
BRANCH  20  22
ATOM     22  C   UNL     1     -46.417  32.217  24.990  1.00  0.00     0.005 C 
ATOM     23  H   UNL     1     -47.417  32.447  24.606  1.00  0.00     0.045 H 
ATOM     24  H   UNL     1     -46.252  31.142  24.859  1.00  0.00     0.045 H 
ATOM     25  H   UNL     1     -45.662  32.738  24.392  1.00  0.00     0.045 H 
ENDBRANCH  20  22
ENDBRANCH   6  20
ENDBRANCH   4   5
ENDBRANCH   1   4
BRANCH   1  26
ATOM     26  C   UNL     1     -43.018  40.721  27.813  1.00  0.00     0.120 C 
ATOM     27  O   UNL     1     -42.962  41.409  26.545  1.00  0.00    -0.348 OA
ATOM     28  C   UNL     1     -42.408  41.662  28.854  1.00  0.00     0.088 C 
ATOM     29  H   UNL     1     -42.417  39.811  27.722  1.00  0.00     0.067 H 
ATOM     30  C   UNL     1     -42.534  42.770  26.786  1.00  0.00     0.138 C 
ATOM     31  C   UNL     1     -42.697  43.025  28.277  1.00  0.00     0.022 C 
ATOM     32  H   UNL     1     -42.794  41.534  29.869  1.00  0.00     0.063 H 
ATOM     33  H   UNL     1     -41.488  42.842  26.466  1.00  0.00     0.085 H 
ATOM     34  H   UNL     1     -42.020  43.808  28.630  1.00  0.00     0.034 H 
ATOM     35  H   UNL     1     -43.725  43.324  28.515  1.00  0.00     0.034 H 
BRANCH  28  36
ATOM     36  O   UNL     1     -40.987  41.505  28.905  1.00  0.00    -0.390 OA
ATOM     37  H   UNL     1     -40.613  42.323  29.280  1.00  0.00     0.211 HD
ENDBRANCH  28  36
BRANCH  30  38
ATOM     38  N   UNL     1     -43.317  43.682  25.964  1.00  0.00    -0.304 N 
ATOM     39  C   UNL     1     -44.418  44.407  26.352  1.00  0.00     0.028 A 
ATOM     40  C   UNL     1     -43.027  43.964  24.651  1.00  0.00     0.149 A 
ATOM     41  C   UNL     1     -44.835  45.152  25.271  1.00  0.00     0.072 A 
ATOM     42  H   UNL     1     -44.820  44.327  27.353  1.00  0.00     0.084 H 
ATOM     43  C   UNL     1     -43.959  44.884  24.186  1.00  0.00     0.080 A 
ATOM     44  N   UNL     1     -42.008  43.436  23.952  1.00  0.00    -0.218 NA
ATOM     45  Cl  UNL     1     -46.169  46.204  25.244  1.00  0.00    -0.082 Cl
ATOM     46  C   UNL     1     -43.818  45.296  22.852  1.00  0.00     0.137 A 
ATOM     47  C   UNL     1     -41.979  43.897  22.692  1.00  0.00     0.120 A 
ATOM     48  N   UNL     1     -42.816  44.778  22.113  1.00  0.00    -0.219 NA
ATOM     49  H   UNL     1     -41.184  43.513  22.061  1.00  0.00     0.106 H 
BRANCH  46  50
ATOM     50  N   UNL     1     -44.654  46.207  22.228  1.00  0.00    -0.383 N 
ATOM     51  H   UNL     1     -45.305  46.625  22.881  1.00  0.00     0.158 HD
ATOM     52  H   UNL     1     -44.211  46.822  21.560  1.00  0.00     0.158 HD
ENDBRANCH  46  50
ENDBRANCH  30  38
ENDBRANCH   1  26
TORSDOF 8
ENDMDL
MODEL 6
REMARK VINA RESULT:      -8.6      1.702      2.708
REMARK SMILES CNc1ccc2ccc(OC[C@H]3O[C@@H](n4cc(Cl)c5c(N)ncnc54)C[C@@H]3O)cc2n1
REMARK SMILES IDX 11 1 10 4 9 5 3 6 4 7 31 8 5 9 30 11 6 12 29 14 7 15 8 17
REMARK SMILES IDX 2 20 1 22 12 26 13 27 27 28 14 30 26 31 28 36 15 38 16 39
REMARK SMILES IDX 25 40 17 41 19 43 24 44 18 45 20 46 23 47 22 48 21 50
REMARK H PARENT 11 2 11 3 4 10 5 13 29 16 7 18 8 19 2 21 1 23 1 24 1 25 12 29
REMARK H PARENT 27 32 14 33 26 34 26 35 28 37 16 42 23 49 21 51 21 52
REMARK Flexibility Score: inf
ROOT
ATOM      1  C   UNL     1     -46.896  36.115  27.052  1.00  0.00     0.117 C 
ATOM      2  H   UNL     1     -47.404  37.086  27.073  1.00  0.00     0.073 H 
ATOM      3  H   UNL     1     -46.308  36.143  26.126  1.00  0.00     0.073 H 
ENDROOT
BRANCH   1   4
ATOM      4  O   UNL     1     -47.919  35.121  27.017  1.00  0.00    -0.491 OA
BRANCH   4   5
ATOM      5  C   UNL     1     -47.735  34.010  26.244  1.00  0.00     0.121 A 
ATOM      6  C   UNL     1     -48.918  29.767  24.441  1.00  0.00     0.126 A 
ATOM      7  C   UNL     1     -47.763  29.720  23.667  1.00  0.00    -0.019 A 
ATOM      8  N   UNL     1     -49.188  30.819  25.240  1.00  0.00    -0.231 NA
ATOM      9  C   UNL     1     -46.855  30.771  23.730  1.00  0.00    -0.049 A 
ATOM     10  H   UNL     1     -47.578  28.878  23.008  1.00  0.00     0.066 H 
ATOM     11  C   UNL     1     -48.315  31.840  25.307  1.00  0.00     0.076 A 
ATOM     12  C   UNL     1     -47.120  31.860  24.562  1.00  0.00     0.001 A 
ATOM     13  H   UNL     1     -45.953  30.735  23.125  1.00  0.00     0.063 H 
ATOM     14  C   UNL     1     -48.598  32.918  26.138  1.00  0.00     0.007 A 
ATOM     15  C   UNL     1     -46.243  32.949  24.664  1.00  0.00    -0.049 A 
ATOM     16  H   UNL     1     -49.526  32.867  26.698  1.00  0.00     0.069 H 
ATOM     17  C   UNL     1     -46.553  34.017  25.502  1.00  0.00    -0.019 A 
ATOM     18  H   UNL     1     -45.318  32.972  24.093  1.00  0.00     0.063 H 
ATOM     19  H   UNL     1     -45.869  34.859  25.579  1.00  0.00     0.066 H 
BRANCH   6  20
ATOM     20  N   UNL     1     -49.827  28.701  24.330  1.00  0.00    -0.373 N 
ATOM     21  H   UNL     1     -49.942  28.267  25.242  1.00  0.00     0.161 HD
BRANCH  20  22
ATOM     22  C   UNL     1     -51.106  29.065  23.741  1.00  0.00     0.005 C 
ATOM     23  H   UNL     1     -51.603  28.200  23.289  1.00  0.00     0.045 H 
ATOM     24  H   UNL     1     -50.935  29.801  22.948  1.00  0.00     0.045 H 
ATOM     25  H   UNL     1     -51.771  29.530  24.477  1.00  0.00     0.045 H 
ENDBRANCH  20  22
ENDBRANCH   6  20
ENDBRANCH   4   5
ENDBRANCH   1   4
BRANCH   1  26
ATOM     26  C   UNL     1     -46.007  35.982  28.296  1.00  0.00     0.120 C 
ATOM     27  O   UNL     1     -44.877  36.868  28.144  1.00  0.00    -0.348 OA
ATOM     28  C   UNL     1     -46.720  36.391  29.587  1.00  0.00     0.088 C 
ATOM     29  H   UNL     1     -45.618  34.963  28.380  1.00  0.00     0.067 H 
ATOM     30  C   UNL     1     -44.972  37.900  29.154  1.00  0.00     0.138 C 
ATOM     31  C   UNL     1     -46.393  37.859  29.694  1.00  0.00     0.022 C 
ATOM     32  H   UNL     1     -47.793  36.186  29.601  1.00  0.00     0.063 H 
ATOM     33  H   UNL     1     -44.229  37.665  29.927  1.00  0.00     0.085 H 
ATOM     34  H   UNL     1     -46.451  38.252  30.713  1.00  0.00     0.034 H 
ATOM     35  H   UNL     1     -47.071  38.443  29.060  1.00  0.00     0.034 H 
BRANCH  28  36
ATOM     36  O   UNL     1     -46.135  35.733  30.715  1.00  0.00    -0.390 OA
ATOM     37  H   UNL     1     -45.980  34.804  30.467  1.00  0.00     0.211 HD
ENDBRANCH  28  36
BRANCH  30  38
ATOM     38  N   UNL     1     -44.620  39.188  28.574  1.00  0.00    -0.304 N 
ATOM     39  C   UNL     1     -43.463  39.899  28.778  1.00  0.00     0.028 A 
ATOM     40  C   UNL     1     -45.424  39.872  27.694  1.00  0.00     0.149 A 
ATOM     41  C   UNL     1     -43.536  41.049  28.024  1.00  0.00     0.072 A 
ATOM     42  H   UNL     1     -42.692  39.539  29.446  1.00  0.00     0.084 H 
ATOM     43  C   UNL     1     -44.773  41.044  27.327  1.00  0.00     0.080 A 
ATOM     44  N   UNL     1     -46.630  39.460  27.265  1.00  0.00    -0.218 NA
ATOM     45  Cl  UNL     1     -42.350  42.265  27.948  1.00  0.00    -0.082 Cl
ATOM     46  C   UNL     1     -45.448  41.877  26.422  1.00  0.00     0.137 A 
ATOM     47  C   UNL     1     -47.179  40.339  26.412  1.00  0.00     0.120 A 
ATOM     48  N   UNL     1     -46.666  41.506  25.979  1.00  0.00    -0.219 NA
ATOM     49  H   UNL     1     -48.159  40.078  26.023  1.00  0.00     0.106 H 
BRANCH  46  50
ATOM     50  N   UNL     1     -44.946  43.078  25.949  1.00  0.00    -0.383 N 
ATOM     51  H   UNL     1     -45.127  43.838  26.593  1.00  0.00     0.158 HD
ATOM     52  H   UNL     1     -44.025  43.034  25.534  1.00  0.00     0.158 HD
ENDBRANCH  46  50
ENDBRANCH  30  38
ENDBRANCH   1  26
TORSDOF 8
ENDMDL
MODEL 7
REMARK VINA RESULT:      -8.6      1.577      2.179
REMARK SMILES CNc1ccc2ccc(OC[C@H]3O[C@@H](n4cc(Cl)c5c(N)ncnc54)C[C@@H]3O)cc2n1
REMARK SMILES IDX 11 1 10 4 9 5 3 6 4 7 31 8 5 9 30 11 6 12 29 14 7 15 8 17
REMARK SMILES IDX 2 20 1 22 12 26 13 27 27 28 14 30 26 31 28 36 15 38 16 39
REMARK SMILES IDX 25 40 17 41 19 43 24 44 18 45 20 46 23 47 22 48 21 50
REMARK H PARENT 11 2 11 3 4 10 5 13 29 16 7 18 8 19 2 21 1 23 1 24 1 25 12 29
REMARK H PARENT 27 32 14 33 26 34 26 35 28 37 16 42 23 49 21 51 21 52
REMARK Flexibility Score: inf
ROOT
ATOM      1  C   UNL     1     -45.635  35.164  27.409  1.00  0.00     0.117 C 
ATOM      2  H   UNL     1     -44.778  35.822  27.228  1.00  0.00     0.073 H 
ATOM      3  H   UNL     1     -45.181  34.188  27.622  1.00  0.00     0.073 H 
ENDROOT
BRANCH   1   4
ATOM      4  O   UNL     1     -46.403  35.156  26.206  1.00  0.00    -0.491 OA
BRANCH   4   5
ATOM      5  C   UNL     1     -46.998  33.992  25.810  1.00  0.00     0.121 A 
ATOM      6  C   UNL     1     -47.163  29.749  23.660  1.00  0.00     0.126 A 
ATOM      7  C   UNL     1     -48.480  29.544  24.059  1.00  0.00    -0.019 A 
ATOM      8  N   UNL     1     -46.490  30.868  23.997  1.00  0.00    -0.231 NA
ATOM      9  C   UNL     1     -49.128  30.522  24.805  1.00  0.00    -0.049 A 
ATOM     10  H   UNL     1     -48.994  28.623  23.802  1.00  0.00     0.066 H 
ATOM     11  C   UNL     1     -47.110  31.819  24.719  1.00  0.00     0.076 A 
ATOM     12  C   UNL     1     -48.444  31.689  25.150  1.00  0.00     0.001 A 
ATOM     13  H   UNL     1     -50.156  30.362  25.117  1.00  0.00     0.063 H 
ATOM     14  C   UNL     1     -46.412  32.973  25.056  1.00  0.00     0.007 A 
ATOM     15  C   UNL     1     -49.045  32.707  25.903  1.00  0.00    -0.049 A 
ATOM     16  H   UNL     1     -45.387  33.039  24.705  1.00  0.00     0.069 H 
ATOM     17  C   UNL     1     -48.321  33.851  26.230  1.00  0.00    -0.019 A 
ATOM     18  H   UNL     1     -50.074  32.615  26.239  1.00  0.00     0.063 H 
ATOM     19  H   UNL     1     -48.791  34.639  26.814  1.00  0.00     0.066 H 
BRANCH   6  20
ATOM     20  N   UNL     1     -46.530  28.726  22.932  1.00  0.00    -0.373 N 
ATOM     21  H   UNL     1     -45.719  29.112  22.457  1.00  0.00     0.161 HD
BRANCH  20  22
ATOM     22  C   UNL     1     -46.188  27.554  23.721  1.00  0.00     0.005 C 
ATOM     23  H   UNL     1     -46.792  27.491  24.632  1.00  0.00     0.045 H 
ATOM     24  H   UNL     1     -45.138  27.625  24.025  1.00  0.00     0.045 H 
ATOM     25  H   UNL     1     -46.297  26.631  23.140  1.00  0.00     0.045 H 
ENDBRANCH  20  22
ENDBRANCH   6  20
ENDBRANCH   4   5
ENDBRANCH   1   4
BRANCH   1  26
ATOM     26  C   UNL     1     -46.440  35.697  28.602  1.00  0.00     0.120 C 
ATOM     27  O   UNL     1     -45.585  36.568  29.375  1.00  0.00    -0.348 OA
ATOM     28  C   UNL     1     -47.654  36.529  28.181  1.00  0.00     0.088 C 
ATOM     29  H   UNL     1     -46.748  34.874  29.253  1.00  0.00     0.067 H 
ATOM     30  C   UNL     1     -46.110  37.913  29.286  1.00  0.00     0.138 C 
ATOM     31  C   UNL     1     -47.092  37.927  28.125  1.00  0.00     0.022 C 
ATOM     32  H   UNL     1     -48.120  36.214  27.244  1.00  0.00     0.063 H 
ATOM     33  H   UNL     1     -46.598  38.133  30.243  1.00  0.00     0.085 H 
ATOM     34  H   UNL     1     -47.846  38.712  28.241  1.00  0.00     0.034 H 
ATOM     35  H   UNL     1     -46.573  38.087  27.172  1.00  0.00     0.034 H 
BRANCH  28  36
ATOM     36  O   UNL     1     -48.658  36.505  29.199  1.00  0.00    -0.390 OA
ATOM     37  H   UNL     1     -48.334  37.039  29.946  1.00  0.00     0.211 HD
ENDBRANCH  28  36
BRANCH  30  38
ATOM     38  N   UNL     1     -45.014  38.856  29.116  1.00  0.00    -0.304 N 
ATOM     39  C   UNL     1     -43.929  39.021  29.942  1.00  0.00     0.028 A 
ATOM     40  C   UNL     1     -44.911  39.720  28.052  1.00  0.00     0.149 A 
ATOM     41  C   UNL     1     -43.131  40.003  29.399  1.00  0.00     0.072 A 
ATOM     42  H   UNL     1     -43.817  38.439  30.847  1.00  0.00     0.084 H 
ATOM     43  C   UNL     1     -43.739  40.454  28.198  1.00  0.00     0.080 A 
ATOM     44  N   UNL     1     -45.797  39.821  27.047  1.00  0.00    -0.218 NA
ATOM     45  Cl  UNL     1     -41.674  40.578  30.060  1.00  0.00    -0.082 Cl
ATOM     46  C   UNL     1     -43.462  41.394  27.194  1.00  0.00     0.137 A 
ATOM     47  C   UNL     1     -45.430  40.754  26.155  1.00  0.00     0.120 A 
ATOM     48  N   UNL     1     -44.334  41.535  26.175  1.00  0.00    -0.219 NA
ATOM     49  H   UNL     1     -46.099  40.898  25.312  1.00  0.00     0.106 H 
BRANCH  46  50
ATOM     50  N   UNL     1     -42.340  42.206  27.179  1.00  0.00    -0.383 N 
ATOM     51  H   UNL     1     -42.439  42.992  27.810  1.00  0.00     0.158 HD
ATOM     52  H   UNL     1     -41.451  41.724  27.176  1.00  0.00     0.158 HD
ENDBRANCH  46  50
ENDBRANCH  30  38
ENDBRANCH   1  26
TORSDOF 8
ENDMDL
