MODEL 1
REMARK VINA RESULT:     -10.3      0.000      0.000
REMARK SMILES CNc1ccc2ccc(OC[C@H]3O[C@@H](n4cc(-c5ccn(C6COC6)n5)c5c(N)ncnc54)[C@@H](F)[C@@H]3O)cc2n1
REMARK SMILES IDX 11 1 10 4 9 5 3 6 4 7 40 8 5 9 39 11 6 12 38 14 7 15 8 17
REMARK SMILES IDX 2 20 1 22 12 26 13 27 36 28 14 30 34 31 35 34 37 36 15 38
REMARK SMILES IDX 16 39 33 40 17 41 27 43 32 44 28 45 31 46 30 47 18 49 19 50
REMARK SMILES IDX 26 51 20 52 21 54 22 56 23 57 25 58 24 60 29 65
REMARK H PARENT 11 2 11 3 4 10 5 13 38 16 7 18 8 19 2 21 1 23 1 24 1 25 12 29
REMARK H PARENT 36 32 14 33 34 35 37 37 16 42 31 48 19 53 20 55 22 59 23 61
REMARK H PARENT 23 62 25 63 25 64 29 66 29 67
REMARK Flexibility Score: inf
ROOT
ATOM      1  C   UNL     1     -46.222  35.649  26.693  1.00  0.00     0.117 C 
ATOM      2  H   UNL     1     -45.425  34.924  26.487  1.00  0.00     0.073 H 
ATOM      3  H   UNL     1     -46.040  36.458  25.974  1.00  0.00     0.073 H 
ENDROOT
BRANCH   1   4
ATOM      4  O   UNL     1     -47.525  35.138  26.409  1.00  0.00    -0.491 OA
BRANCH   4   5
ATOM      5  C   UNL     1     -47.636  33.890  25.863  1.00  0.00     0.121 A 
ATOM      6  C   UNL     1     -46.223  30.211  23.206  1.00  0.00     0.126 A 
ATOM      7  C   UNL     1     -47.330  29.454  23.560  1.00  0.00    -0.019 A 
ATOM      8  N   UNL     1     -46.020  31.455  23.679  1.00  0.00    -0.231 NA
ATOM      9  C   UNL     1     -48.276  30.004  24.419  1.00  0.00    -0.049 A 
ATOM     10  H   UNL     1     -47.451  28.441  23.193  1.00  0.00     0.066 H 
ATOM     11  C   UNL     1     -46.931  31.994  24.510  1.00  0.00     0.076 A 
ATOM     12  C   UNL     1     -48.088  31.298  24.911  1.00  0.00     0.001 A 
ATOM     13  H   UNL     1     -49.145  29.417  24.704  1.00  0.00     0.063 H 
ATOM     14  C   UNL     1     -46.727  33.280  24.997  1.00  0.00     0.007 A 
ATOM     15  C   UNL     1     -49.008  31.900  25.781  1.00  0.00    -0.049 A 
ATOM     16  H   UNL     1     -45.821  33.782  24.671  1.00  0.00     0.069 H 
ATOM     17  C   UNL     1     -48.778  33.192  26.253  1.00  0.00    -0.019 A 
ATOM     18  H   UNL     1     -49.904  31.370  26.097  1.00  0.00     0.063 H 
ATOM     19  H   UNL     1     -49.495  33.654  26.927  1.00  0.00     0.066 H 
BRANCH   6  20
ATOM     20  N   UNL     1     -45.226  29.721  22.362  1.00  0.00    -0.373 N 
ATOM     21  H   UNL     1     -45.661  29.728  21.440  1.00  0.00     0.161 HD
BRANCH  20  22
ATOM     22  C   UNL     1     -44.749  28.394  22.711  1.00  0.00     0.005 C 
ATOM     23  H   UNL     1     -44.302  27.884  21.851  1.00  0.00     0.045 H 
ATOM     24  H   UNL     1     -44.021  28.430  23.530  1.00  0.00     0.045 H 
ATOM     25  H   UNL     1     -45.596  27.786  23.044  1.00  0.00     0.045 H 
ENDBRANCH  20  22
ENDBRANCH   6  20
ENDBRANCH   4   5
ENDBRANCH   1   4
BRANCH   1  26
ATOM     26  C   UNL     1     -46.137  36.219  28.109  1.00  0.00     0.123 C 
ATOM     27  O   UNL     1     -44.895  36.914  28.297  1.00  0.00    -0.345 OA
ATOM     28  C   UNL     1     -47.247  37.219  28.412  1.00  0.00     0.119 C 
ATOM     29  H   UNL     1     -46.177  35.399  28.837  1.00  0.00     0.067 H 
ATOM     30  C   UNL     1     -45.148  38.035  29.182  1.00  0.00     0.169 C 
ATOM     31  C   UNL     1     -46.631  38.020  29.541  1.00  0.00     0.173 C 
ATOM     32  H   UNL     1     -47.464  37.875  27.561  1.00  0.00     0.066 H 
ATOM     33  H   UNL     1     -44.523  37.893  30.071  1.00  0.00     0.088 H 
ATOM     34  F   UNL     1     -47.179  39.258  29.589  1.00  0.00    -0.239 F 
ATOM     35  H   UNL     1     -46.803  37.535  30.508  1.00  0.00     0.074 H 
BRANCH  28  36
ATOM     36  O   UNL     1     -48.453  36.577  28.809  1.00  0.00    -0.387 OA
ATOM     37  H   UNL     1     -49.137  36.816  28.153  1.00  0.00     0.211 HD
ENDBRANCH  28  36
BRANCH  30  38
ATOM     38  N   UNL     1     -44.710  39.259  28.525  1.00  0.00    -0.302 N 
ATOM     39  C   UNL     1     -45.304  39.880  27.457  1.00  0.00     0.019 A 
ATOM     40  C   UNL     1     -43.612  39.984  28.921  1.00  0.00     0.148 A 
ATOM     41  C   UNL     1     -44.569  41.012  27.159  1.00  0.00     0.033 A 
ATOM     42  H   UNL     1     -46.182  39.471  26.975  1.00  0.00     0.083 H 
ATOM     43  C   UNL     1     -43.512  41.112  28.112  1.00  0.00     0.071 A 
ATOM     44  N   UNL     1     -42.797  39.648  29.935  1.00  0.00    -0.218 NA
ATOM     45  C   UNL     1     -42.475  42.006  28.430  1.00  0.00     0.137 A 
ATOM     46  C   UNL     1     -41.831  40.559  30.117  1.00  0.00     0.120 A 
ATOM     47  N   UNL     1     -41.632  41.702  29.436  1.00  0.00    -0.219 NA
ATOM     48  H   UNL     1     -41.125  40.355  30.916  1.00  0.00     0.106 H 
BRANCH  41  49
ATOM     49  C   UNL     1     -44.854  41.923  26.054  1.00  0.00     0.095 A 
ATOM     50  C   UNL     1     -46.036  42.676  25.898  1.00  0.00    -0.016 A 
ATOM     51  N   UNL     1     -43.967  42.177  25.084  1.00  0.00    -0.172 NA
ATOM     52  C   UNL     1     -45.842  43.402  24.745  1.00  0.00     0.026 A 
ATOM     53  H   UNL     1     -46.912  42.687  26.533  1.00  0.00     0.066 H 
ATOM     54  N   UNL     1     -44.577  43.101  24.322  1.00  0.00    -0.264 N 
ATOM     55  H   UNL     1     -46.475  44.100  24.217  1.00  0.00     0.084 H 
BRANCH  54  56
ATOM     56  C   UNL     1     -43.992  43.614  23.080  1.00  0.00     0.099 C 
ATOM     57  C   UNL     1     -42.469  43.760  23.119  1.00  0.00     0.071 C 
ATOM     58  C   UNL     1     -43.976  45.141  22.997  1.00  0.00     0.071 C 
ATOM     59  H   UNL     1     -44.373  43.114  22.183  1.00  0.00     0.060 H 
ATOM     60  O   UNL     1     -42.571  45.129  22.632  1.00  0.00    -0.377 OA
ATOM     61  H   UNL     1     -41.926  43.122  22.416  1.00  0.00     0.059 H 
ATOM     62  H   UNL     1     -41.972  43.738  24.094  1.00  0.00     0.059 H 
ATOM     63  H   UNL     1     -44.129  45.700  23.927  1.00  0.00     0.059 H 
ATOM     64  H   UNL     1     -44.598  45.568  22.204  1.00  0.00     0.059 H 
ENDBRANCH  54  56
ENDBRANCH  41  49
BRANCH  45  65
ATOM     65  N   UNL     1     -42.266  43.232  27.807  1.00  0.00    -0.383 N 
ATOM     66  H   UNL     1     -43.104  43.485  27.291  1.00  0.00     0.158 HD
ATOM     67  H   UNL     1     -41.412  43.260  27.265  1.00  0.00     0.158 HD
ENDBRANCH  45  65
ENDBRANCH  30  38
ENDBRANCH   1  26
TORSDOF 10
ENDMDL
MODEL 2
REMARK VINA RESULT:      -9.6      1.620      2.232
REMARK SMILES CNc1ccc2ccc(OC[C@H]3O[C@@H](n4cc(-c5ccn(C6COC6)n5)c5c(N)ncnc54)[C@@H](F)[C@@H]3O)cc2n1
REMARK SMILES IDX 11 1 10 4 9 5 3 6 4 7 40 8 5 9 39 11 6 12 38 14 7 15 8 17
REMARK SMILES IDX 2 20 1 22 12 26 13 27 36 28 14 30 34 31 35 34 37 36 15 38
REMARK SMILES IDX 16 39 33 40 17 41 27 43 32 44 28 45 31 46 30 47 18 49 19 50
REMARK SMILES IDX 26 51 20 52 21 54 22 56 23 57 25 58 24 60 29 65
REMARK H PARENT 11 2 11 3 4 10 5 13 38 16 7 18 8 19 2 21 1 23 1 24 1 25 12 29
REMARK H PARENT 36 32 14 33 34 35 37 37 16 42 31 48 19 53 20 55 22 59 23 61
REMARK H PARENT 23 62 25 63 25 64 29 66 29 67
REMARK Flexibility Score: inf
ROOT
ATOM      1  C   UNL     1     -46.588  35.839  26.617  1.00  0.00     0.117 C 
ATOM      2  H   UNL     1     -45.654  35.318  26.373  1.00  0.00     0.073 H 
ATOM      3  H   UNL     1     -46.652  36.637  25.866  1.00  0.00     0.073 H 
ENDROOT
BRANCH   1   4
ATOM      4  O   UNL     1     -47.744  35.020  26.438  1.00  0.00    -0.491 OA
BRANCH   4   5
ATOM      5  C   UNL     1     -47.605  33.817  25.804  1.00  0.00     0.121 A 
ATOM      6  C   UNL     1     -48.991  29.478  24.449  1.00  0.00     0.126 A 
ATOM      7  C   UNL     1     -47.829  29.270  23.720  1.00  0.00    -0.019 A 
ATOM      8  N   UNL     1     -49.226  30.622  25.118  1.00  0.00    -0.231 NA
ATOM      9  C   UNL     1     -46.862  30.270  23.693  1.00  0.00    -0.049 A 
ATOM     10  H   UNL     1     -47.681  28.354  23.160  1.00  0.00     0.066 H 
ATOM     11  C   UNL     1     -48.296  31.593  25.097  1.00  0.00     0.076 A 
ATOM     12  C   UNL     1     -47.084  31.459  24.391  1.00  0.00     0.001 A 
ATOM     13  H   UNL     1     -45.951  30.116  23.123  1.00  0.00     0.063 H 
ATOM     14  C   UNL     1     -48.534  32.774  25.791  1.00  0.00     0.007 A 
ATOM     15  C   UNL     1     -46.145  32.501  24.397  1.00  0.00    -0.049 A 
ATOM     16  H   UNL     1     -49.480  32.844  26.317  1.00  0.00     0.069 H 
ATOM     17  C   UNL     1     -46.410  33.674  25.102  1.00  0.00    -0.019 A 
ATOM     18  H   UNL     1     -45.207  32.406  23.854  1.00  0.00     0.063 H 
ATOM     19  H   UNL     1     -45.677  34.477  25.103  1.00  0.00     0.066 H 
BRANCH   6  20
ATOM     20  N   UNL     1     -50.011  28.528  24.509  1.00  0.00    -0.373 N 
ATOM     21  H   UNL     1     -50.768  29.011  24.992  1.00  0.00     0.161 HD
BRANCH  20  22
ATOM     22  C   UNL     1     -49.645  27.301  25.195  1.00  0.00     0.005 C 
ATOM     23  H   UNL     1     -49.449  27.474  26.258  1.00  0.00     0.045 H 
ATOM     24  H   UNL     1     -50.419  26.533  25.087  1.00  0.00     0.045 H 
ATOM     25  H   UNL     1     -48.722  26.909  24.756  1.00  0.00     0.045 H 
ENDBRANCH  20  22
ENDBRANCH   6  20
ENDBRANCH   4   5
ENDBRANCH   1   4
BRANCH   1  26
ATOM     26  C   UNL     1     -46.554  36.472  28.008  1.00  0.00     0.123 C 
ATOM     27  O   UNL     1     -45.270  37.059  28.262  1.00  0.00    -0.345 OA
ATOM     28  C   UNL     1     -47.584  37.583  28.178  1.00  0.00     0.119 C 
ATOM     29  H   UNL     1     -46.726  35.697  28.766  1.00  0.00     0.067 H 
ATOM     30  C   UNL     1     -45.481  38.244  29.073  1.00  0.00     0.169 C 
ATOM     31  C   UNL     1     -46.981  38.382  29.314  1.00  0.00     0.173 C 
ATOM     32  H   UNL     1     -47.675  38.211  27.284  1.00  0.00     0.066 H 
ATOM     33  H   UNL     1     -44.939  38.091  30.014  1.00  0.00     0.088 H 
ATOM     34  F   UNL     1     -47.412  39.666  29.264  1.00  0.00    -0.239 F 
ATOM     35  H   UNL     1     -47.269  37.966  30.286  1.00  0.00     0.074 H 
BRANCH  28  36
ATOM     36  O   UNL     1     -48.872  37.075  28.506  1.00  0.00    -0.387 OA
ATOM     37  H   UNL     1     -49.524  37.762  28.267  1.00  0.00     0.211 HD
ENDBRANCH  28  36
BRANCH  30  38
ATOM     38  N   UNL     1     -44.881  39.386  28.399  1.00  0.00    -0.302 N 
ATOM     39  C   UNL     1     -45.356  40.030  27.285  1.00  0.00     0.019 A 
ATOM     40  C   UNL     1     -43.727  40.001  28.822  1.00  0.00     0.148 A 
ATOM     41  C   UNL     1     -44.487  41.062  26.986  1.00  0.00     0.033 A 
ATOM     42  H   UNL     1     -46.252  39.702  26.776  1.00  0.00     0.083 H 
ATOM     43  C   UNL     1     -43.468  41.081  27.983  1.00  0.00     0.071 A 
ATOM     44  N   UNL     1     -42.999  39.615  29.883  1.00  0.00    -0.218 NA
ATOM     45  C   UNL     1     -42.352  41.866  28.320  1.00  0.00     0.137 A 
ATOM     46  C   UNL     1     -41.946  40.421  30.081  1.00  0.00     0.120 A 
ATOM     47  N   UNL     1     -41.592  41.509  29.374  1.00  0.00    -0.219 NA
ATOM     48  H   UNL     1     -41.302  40.169  30.919  1.00  0.00     0.106 H 
BRANCH  41  49
ATOM     49  C   UNL     1     -44.621  41.958  25.840  1.00  0.00     0.095 A 
ATOM     50  C   UNL     1     -43.878  41.874  24.644  1.00  0.00    -0.016 A 
ATOM     51  N   UNL     1     -45.530  42.939  25.796  1.00  0.00    -0.172 NA
ATOM     52  C   UNL     1     -44.364  42.891  23.855  1.00  0.00     0.026 A 
ATOM     53  H   UNL     1     -43.093  41.173  24.391  1.00  0.00     0.066 H 
ATOM     54  N   UNL     1     -45.376  43.468  24.571  1.00  0.00    -0.264 N 
ATOM     55  H   UNL     1     -44.093  43.228  22.865  1.00  0.00     0.084 H 
BRANCH  54  56
ATOM     56  C   UNL     1     -46.123  44.644  24.116  1.00  0.00     0.099 C 
ATOM     57  C   UNL     1     -45.827  45.920  24.909  1.00  0.00     0.071 C 
ATOM     58  C   UNL     1     -47.512  44.767  24.746  1.00  0.00     0.071 C 
ATOM     59  H   UNL     1     -46.104  44.776  23.029  1.00  0.00     0.060 H 
ATOM     60  O   UNL     1     -47.252  46.150  25.104  1.00  0.00    -0.377 OA
ATOM     61  H   UNL     1     -45.364  46.725  24.332  1.00  0.00     0.059 H 
ATOM     62  H   UNL     1     -45.321  45.822  25.875  1.00  0.00     0.059 H 
ATOM     63  H   UNL     1     -47.718  44.169  25.640  1.00  0.00     0.059 H 
ATOM     64  H   UNL     1     -48.347  44.680  24.044  1.00  0.00     0.059 H 
ENDBRANCH  54  56
ENDBRANCH  41  49
BRANCH  45  65
ATOM     65  N   UNL     1     -41.981  43.038  27.669  1.00  0.00    -0.383 N 
ATOM     66  H   UNL     1     -41.780  43.750  28.365  1.00  0.00     0.158 HD
ATOM     67  H   UNL     1     -42.641  43.320  26.955  1.00  0.00     0.158 HD
ENDBRANCH  45  65
ENDBRANCH  30  38
ENDBRANCH   1  26
TORSDOF 10
ENDMDL
MODEL 3
REMARK VINA RESULT:      -9.2      3.103      4.026
REMARK SMILES CNc1ccc2ccc(OC[C@H]3O[C@@H](n4cc(-c5ccn(C6COC6)n5)c5c(N)ncnc54)[C@@H](F)[C@@H]3O)cc2n1
REMARK SMILES IDX 11 1 10 4 9 5 3 6 4 7 40 8 5 9 39 11 6 12 38 14 7 15 8 17
REMARK SMILES IDX 2 20 1 22 12 26 13 27 36 28 14 30 34 31 35 34 37 36 15 38
REMARK SMILES IDX 16 39 33 40 17 41 27 43 32 44 28 45 31 46 30 47 18 49 19 50
REMARK SMILES IDX 26 51 20 52 21 54 22 56 23 57 25 58 24 60 29 65
REMARK H PARENT 11 2 11 3 4 10 5 13 38 16 7 18 8 19 2 21 1 23 1 24 1 25 12 29
REMARK H PARENT 36 32 14 33 34 35 37 37 16 42 31 48 19 53 20 55 22 59 23 61
REMARK H PARENT 23 62 25 63 25 64 29 66 29 67
REMARK Flexibility Score: inf
ROOT
ATOM      1  C   UNL     1     -46.883  34.777  27.850  1.00  0.00     0.117 C 
ATOM      2  H   UNL     1     -47.873  34.959  28.285  1.00  0.00     0.073 H 
ATOM      3  H   UNL     1     -46.656  33.740  28.127  1.00  0.00     0.073 H 
ENDROOT
BRANCH   1   4
ATOM      4  O   UNL     1     -46.885  34.825  26.422  1.00  0.00    -0.491 OA
BRANCH   4   5
ATOM      5  C   UNL     1     -47.230  33.699  25.729  1.00  0.00     0.121 A 
ATOM      6  C   UNL     1     -46.504  30.132  22.672  1.00  0.00     0.126 A 
ATOM      7  C   UNL     1     -47.758  29.590  22.915  1.00  0.00    -0.019 A 
ATOM      8  N   UNL     1     -46.067  31.244  23.295  1.00  0.00    -0.231 NA
ATOM      9  C   UNL     1     -48.603  30.226  23.819  1.00  0.00    -0.049 A 
ATOM     10  H   UNL     1     -48.071  28.675  22.428  1.00  0.00     0.066 H 
ATOM     11  C   UNL     1     -46.879  31.863  24.169  1.00  0.00     0.076 A 
ATOM     12  C   UNL     1     -48.171  31.387  24.465  1.00  0.00     0.001 A 
ATOM     13  H   UNL     1     -49.585  29.807  24.017  1.00  0.00     0.063 H 
ATOM     14  C   UNL     1     -46.432  33.014  24.810  1.00  0.00     0.007 A 
ATOM     15  C   UNL     1     -48.980  32.066  25.387  1.00  0.00    -0.049 A 
ATOM     16  H   UNL     1     -45.430  33.347  24.562  1.00  0.00     0.069 H 
ATOM     17  C   UNL     1     -48.507  33.217  26.014  1.00  0.00    -0.019 A 
ATOM     18  H   UNL     1     -49.979  31.705  25.622  1.00  0.00     0.063 H 
ATOM     19  H   UNL     1     -49.140  33.741  26.727  1.00  0.00     0.066 H 
BRANCH   6  20
ATOM     20  N   UNL     1     -45.596  29.542  21.792  1.00  0.00    -0.373 N 
ATOM     21  H   UNL     1     -46.177  28.941  21.208  1.00  0.00     0.161 HD
BRANCH  20  22
ATOM     22  C   UNL     1     -44.540  28.785  22.443  1.00  0.00     0.005 C 
ATOM     23  H   UNL     1     -43.880  28.302  21.715  1.00  0.00     0.045 H 
ATOM     24  H   UNL     1     -43.944  29.418  23.110  1.00  0.00     0.045 H 
ATOM     25  H   UNL     1     -44.991  27.992  23.048  1.00  0.00     0.045 H 
ENDBRANCH  20  22
ENDBRANCH   6  20
ENDBRANCH   4   5
ENDBRANCH   1   4
BRANCH   1  26
ATOM     26  C   UNL     1     -45.811  35.693  28.443  1.00  0.00     0.123 C 
ATOM     27  O   UNL     1     -45.460  36.725  27.510  1.00  0.00    -0.345 OA
ATOM     28  C   UNL     1     -46.270  36.392  29.717  1.00  0.00     0.119 C 
ATOM     29  H   UNL     1     -44.906  35.108  28.653  1.00  0.00     0.067 H 
ATOM     30  C   UNL     1     -45.158  37.922  28.272  1.00  0.00     0.169 C 
ATOM     31  C   UNL     1     -45.347  37.593  29.751  1.00  0.00     0.173 C 
ATOM     32  H   UNL     1     -47.314  36.723  29.662  1.00  0.00     0.066 H 
ATOM     33  H   UNL     1     -44.118  38.190  28.055  1.00  0.00     0.088 H 
ATOM     34  F   UNL     1     -45.917  38.602  30.451  1.00  0.00    -0.239 F 
ATOM     35  H   UNL     1     -44.393  37.345  30.229  1.00  0.00     0.074 H 
BRANCH  28  36
ATOM     36  O   UNL     1     -46.115  35.568  30.866  1.00  0.00    -0.387 OA
ATOM     37  H   UNL     1     -45.926  34.663  30.549  1.00  0.00     0.211 HD
ENDBRANCH  28  36
BRANCH  30  38
ATOM     38  N   UNL     1     -46.003  39.008  27.794  1.00  0.00    -0.302 N 
ATOM     39  C   UNL     1     -47.355  39.142  27.976  1.00  0.00     0.019 A 
ATOM     40  C   UNL     1     -45.528  40.087  27.089  1.00  0.00     0.148 A 
ATOM     41  C   UNL     1     -47.752  40.318  27.368  1.00  0.00     0.033 A 
ATOM     42  H   UNL     1     -47.938  38.395  28.497  1.00  0.00     0.083 H 
ATOM     43  C   UNL     1     -46.590  40.951  26.836  1.00  0.00     0.071 A 
ATOM     44  N   UNL     1     -44.245  40.265  26.732  1.00  0.00    -0.218 NA
ATOM     45  C   UNL     1     -46.263  42.150  26.179  1.00  0.00     0.137 A 
ATOM     46  C   UNL     1     -44.067  41.425  26.084  1.00  0.00     0.120 A 
ATOM     47  N   UNL     1     -44.988  42.363  25.799  1.00  0.00    -0.219 NA
ATOM     48  H   UNL     1     -43.055  41.639  25.755  1.00  0.00     0.106 H 
BRANCH  41  49
ATOM     49  C   UNL     1     -49.130  40.797  27.302  1.00  0.00     0.095 A 
ATOM     50  C   UNL     1     -50.138  40.525  28.250  1.00  0.00    -0.016 A 
ATOM     51  N   UNL     1     -49.562  41.612  26.332  1.00  0.00    -0.172 NA
ATOM     52  C   UNL     1     -51.245  41.203  27.792  1.00  0.00     0.026 A 
ATOM     53  H   UNL     1     -50.072  39.915  29.142  1.00  0.00     0.066 H 
ATOM     54  N   UNL     1     -50.837  41.869  26.669  1.00  0.00    -0.264 N 
ATOM     55  H   UNL     1     -52.253  41.278  28.173  1.00  0.00     0.084 H 
BRANCH  54  56
ATOM     56  C   UNL     1     -51.734  42.666  25.828  1.00  0.00     0.099 C 
ATOM     57  C   UNL     1     -51.046  43.328  24.631  1.00  0.00     0.071 C 
ATOM     58  C   UNL     1     -51.913  44.104  26.316  1.00  0.00     0.071 C 
ATOM     59  H   UNL     1     -52.668  42.150  25.581  1.00  0.00     0.060 H 
ATOM     60  O   UNL     1     -51.628  44.615  24.987  1.00  0.00    -0.377 OA
ATOM     61  H   UNL     1     -51.394  42.986  23.652  1.00  0.00     0.059 H 
ATOM     62  H   UNL     1     -49.954  43.389  24.632  1.00  0.00     0.059 H 
ATOM     63  H   UNL     1     -51.187  44.487  27.041  1.00  0.00     0.059 H 
ATOM     64  H   UNL     1     -52.927  44.360  26.639  1.00  0.00     0.059 H 
ENDBRANCH  54  56
ENDBRANCH  41  49
BRANCH  45  65
ATOM     65  N   UNL     1     -47.158  43.183  25.921  1.00  0.00    -0.383 N 
ATOM     66  H   UNL     1     -47.750  43.315  26.736  1.00  0.00     0.158 HD
ATOM     67  H   UNL     1     -47.660  43.063  25.050  1.00  0.00     0.158 HD
ENDBRANCH  45  65
ENDBRANCH  30  38
ENDBRANCH   1  26
TORSDOF 10
ENDMDL
MODEL 4
REMARK VINA RESULT:      -9.0      3.134      4.965
REMARK SMILES CNc1ccc2ccc(OC[C@H]3O[C@@H](n4cc(-c5ccn(C6COC6)n5)c5c(N)ncnc54)[C@@H](F)[C@@H]3O)cc2n1
REMARK SMILES IDX 11 1 10 4 9 5 3 6 4 7 40 8 5 9 39 11 6 12 38 14 7 15 8 17
REMARK SMILES IDX 2 20 1 22 12 26 13 27 36 28 14 30 34 31 35 34 37 36 15 38
REMARK SMILES IDX 16 39 33 40 17 41 27 43 32 44 28 45 31 46 30 47 18 49 19 50
REMARK SMILES IDX 26 51 20 52 21 54 22 56 23 57 25 58 24 60 29 65
REMARK H PARENT 11 2 11 3 4 10 5 13 38 16 7 18 8 19 2 21 1 23 1 24 1 25 12 29
REMARK H PARENT 36 32 14 33 34 35 37 37 16 42 31 48 19 53 20 55 22 59 23 61
REMARK H PARENT 23 62 25 63 25 64 29 66 29 67
REMARK Flexibility Score: inf
ROOT
ATOM      1  C   UNL     1     -45.772  38.294  28.782  1.00  0.00     0.117 C 
ATOM      2  H   UNL     1     -46.013  38.751  29.749  1.00  0.00     0.073 H 
ATOM      3  H   UNL     1     -45.514  37.257  29.034  1.00  0.00     0.073 H 
ENDROOT
BRANCH   1   4
ATOM      4  O   UNL     1     -46.894  38.231  27.901  1.00  0.00    -0.491 OA
BRANCH   4   5
ATOM      5  C   UNL     1     -47.286  37.011  27.425  1.00  0.00     0.121 A 
ATOM      6  C   UNL     1     -46.644  32.803  25.312  1.00  0.00     0.126 A 
ATOM      7  C   UNL     1     -47.968  32.437  25.506  1.00  0.00    -0.019 A 
ATOM      8  N   UNL     1     -46.154  33.984  25.733  1.00  0.00    -0.231 NA
ATOM      9  C   UNL     1     -48.827  33.328  26.141  1.00  0.00    -0.049 A 
ATOM     10  H   UNL     1     -48.328  31.465  25.189  1.00  0.00     0.066 H 
ATOM     11  C   UNL     1     -46.980  34.850  26.348  1.00  0.00     0.076 A 
ATOM     12  C   UNL     1     -48.340  34.563  26.574  1.00  0.00     0.001 A 
ATOM     13  H   UNL     1     -49.865  33.048  26.299  1.00  0.00     0.063 H 
ATOM     14  C   UNL     1     -46.478  36.073  26.780  1.00  0.00     0.007 A 
ATOM     15  C   UNL     1     -49.161  35.497  27.222  1.00  0.00    -0.049 A 
ATOM     16  H   UNL     1     -45.425  36.256  26.594  1.00  0.00     0.069 H 
ATOM     17  C   UNL     1     -48.631  36.715  27.644  1.00  0.00    -0.019 A 
ATOM     18  H   UNL     1     -50.212  35.283  27.402  1.00  0.00     0.063 H 
ATOM     19  H   UNL     1     -49.273  37.436  28.145  1.00  0.00     0.066 H 
BRANCH   6  20
ATOM     20  N   UNL     1     -45.721  31.956  24.698  1.00  0.00    -0.373 N 
ATOM     21  H   UNL     1     -45.012  32.591  24.331  1.00  0.00     0.161 HD
BRANCH  20  22
ATOM     22  C   UNL     1     -46.281  31.125  23.645  1.00  0.00     0.005 C 
ATOM     23  H   UNL     1     -47.173  31.580  23.202  1.00  0.00     0.045 H 
ATOM     24  H   UNL     1     -45.546  30.923  22.858  1.00  0.00     0.045 H 
ATOM     25  H   UNL     1     -46.585  30.166  24.073  1.00  0.00     0.045 H 
ENDBRANCH  20  22
ENDBRANCH   6  20
ENDBRANCH   4   5
ENDBRANCH   1   4
BRANCH   1  26
ATOM     26  C   UNL     1     -44.565  38.954  28.113  1.00  0.00     0.123 C 
ATOM     27  O   UNL     1     -44.905  39.398  26.791  1.00  0.00    -0.345 OA
ATOM     28  C   UNL     1     -44.065  40.178  28.871  1.00  0.00     0.119 C 
ATOM     29  H   UNL     1     -43.752  38.223  28.024  1.00  0.00     0.067 H 
ATOM     30  C   UNL     1     -44.164  40.619  26.534  1.00  0.00     0.169 C 
ATOM     31  C   UNL     1     -43.337  40.932  27.777  1.00  0.00     0.173 C 
ATOM     32  H   UNL     1     -44.884  40.790  29.267  1.00  0.00     0.066 H 
ATOM     33  H   UNL     1     -43.521  40.430  25.666  1.00  0.00     0.088 H 
ATOM     34  F   UNL     1     -43.295  42.255  28.068  1.00  0.00    -0.239 F 
ATOM     35  H   UNL     1     -42.306  40.576  27.671  1.00  0.00     0.074 H 
BRANCH  28  36
ATOM     36  O   UNL     1     -43.201  39.828  29.945  1.00  0.00    -0.387 OA
ATOM     37  H   UNL     1     -43.757  39.445  30.651  1.00  0.00     0.211 HD
ENDBRANCH  28  36
BRANCH  30  38
ATOM     38  N   UNL     1     -45.104  41.669  26.167  1.00  0.00    -0.302 N 
ATOM     39  C   UNL     1     -46.415  41.774  26.552  1.00  0.00     0.019 A 
ATOM     40  C   UNL     1     -44.776  42.740  25.371  1.00  0.00     0.148 A 
ATOM     41  C   UNL     1     -46.935  42.922  25.986  1.00  0.00     0.033 A 
ATOM     42  H   UNL     1     -46.888  41.027  27.175  1.00  0.00     0.083 H 
ATOM     43  C   UNL     1     -45.889  43.569  25.266  1.00  0.00     0.071 A 
ATOM     44  N   UNL     1     -43.569  42.940  24.815  1.00  0.00    -0.218 NA
ATOM     45  C   UNL     1     -45.702  44.756  24.537  1.00  0.00     0.137 A 
ATOM     46  C   UNL     1     -43.527  44.086  24.120  1.00  0.00     0.120 A 
ATOM     47  N   UNL     1     -44.508  44.992  23.959  1.00  0.00    -0.219 NA
ATOM     48  H   UNL     1     -42.584  44.315  23.633  1.00  0.00     0.106 H 
BRANCH  41  49
ATOM     49  C   UNL     1     -48.321  43.364  26.123  1.00  0.00     0.095 A 
ATOM     50  C   UNL     1     -48.996  43.577  27.343  1.00  0.00    -0.016 A 
ATOM     51  N   UNL     1     -49.085  43.671  25.068  1.00  0.00    -0.172 NA
ATOM     52  C   UNL     1     -50.249  44.013  26.980  1.00  0.00     0.026 A 
ATOM     53  H   UNL     1     -48.624  43.430  28.349  1.00  0.00     0.066 H 
ATOM     54  N   UNL     1     -50.238  44.093  25.615  1.00  0.00    -0.264 N 
ATOM     55  H   UNL     1     -51.116  44.283  27.566  1.00  0.00     0.084 H 
BRANCH  54  56
ATOM     56  C   UNL     1     -51.409  44.457  24.813  1.00  0.00     0.099 C 
ATOM     57  C   UNL     1     -51.758  43.444  23.719  1.00  0.00     0.071 C 
ATOM     58  C   UNL     1     -51.082  45.376  23.636  1.00  0.00     0.071 C 
ATOM     59  H   UNL     1     -52.264  44.778  25.417  1.00  0.00     0.060 H 
ATOM     60  O   UNL     1     -51.813  44.510  22.727  1.00  0.00    -0.377 OA
ATOM     61  H   UNL     1     -52.728  42.953  23.836  1.00  0.00     0.059 H 
ATOM     62  H   UNL     1     -51.002  42.703  23.441  1.00  0.00     0.059 H 
ATOM     63  H   UNL     1     -50.033  45.457  23.332  1.00  0.00     0.059 H 
ATOM     64  H   UNL     1     -51.527  46.374  23.690  1.00  0.00     0.059 H 
ENDBRANCH  54  56
ENDBRANCH  41  49
BRANCH  45  65
ATOM     65  N   UNL     1     -46.656  45.759  24.397  1.00  0.00    -0.383 N 
ATOM     66  H   UNL     1     -47.263  45.751  25.211  1.00  0.00     0.158 HD
ATOM     67  H   UNL     1     -47.141  45.723  23.509  1.00  0.00     0.158 HD
ENDBRANCH  45  65
ENDBRANCH  30  38
ENDBRANCH   1  26
TORSDOF 10
ENDMDL
MODEL 5
REMARK VINA RESULT:      -8.9      1.780      2.415
REMARK SMILES CNc1ccc2ccc(OC[C@H]3O[C@@H](n4cc(-c5ccn(C6COC6)n5)c5c(N)ncnc54)[C@@H](F)[C@@H]3O)cc2n1
REMARK SMILES IDX 11 1 10 4 9 5 3 6 4 7 40 8 5 9 39 11 6 12 38 14 7 15 8 17
REMARK SMILES IDX 2 20 1 22 12 26 13 27 36 28 14 30 34 31 35 34 37 36 15 38
REMARK SMILES IDX 16 39 33 40 17 41 27 43 32 44 28 45 31 46 30 47 18 49 19 50
REMARK SMILES IDX 26 51 20 52 21 54 22 56 23 57 25 58 24 60 29 65
REMARK H PARENT 11 2 11 3 4 10 5 13 38 16 7 18 8 19 2 21 1 23 1 24 1 25 12 29
REMARK H PARENT 36 32 14 33 34 35 37 37 16 42 31 48 19 53 20 55 22 59 23 61
REMARK H PARENT 23 62 25 63 25 64 29 66 29 67
REMARK Flexibility Score: inf
ROOT
ATOM      1  C   UNL     1     -46.133  34.506  26.575  1.00  0.00     0.117 C 
ATOM      2  H   UNL     1     -45.531  33.642  26.881  1.00  0.00     0.073 H 
ATOM      3  H   UNL     1     -45.401  35.203  26.147  1.00  0.00     0.073 H 
ENDROOT
BRANCH   1   4
ATOM      4  O   UNL     1     -47.058  34.198  25.532  1.00  0.00    -0.491 OA
BRANCH   4   5
ATOM      5  C   UNL     1     -47.149  32.905  25.096  1.00  0.00     0.121 A 
ATOM      6  C   UNL     1     -48.998  28.529  24.953  1.00  0.00     0.126 A 
ATOM      7  C   UNL     1     -48.114  28.124  23.963  1.00  0.00    -0.019 A 
ATOM      8  N   UNL     1     -48.990  29.777  25.460  1.00  0.00    -0.231 NA
ATOM      9  C   UNL     1     -47.172  29.031  23.489  1.00  0.00    -0.049 A 
ATOM     10  H   UNL     1     -48.166  27.125  23.547  1.00  0.00     0.066 H 
ATOM     11  C   UNL     1     -48.081  30.659  25.005  1.00  0.00     0.076 A 
ATOM     12  C   UNL     1     -47.141  30.327  24.011  1.00  0.00     0.001 A 
ATOM     13  H   UNL     1     -46.478  28.723  22.712  1.00  0.00     0.063 H 
ATOM     14  C   UNL     1     -48.067  31.947  25.529  1.00  0.00     0.007 A 
ATOM     15  C   UNL     1     -46.215  31.281  23.567  1.00  0.00    -0.049 A 
ATOM     16  H   UNL     1     -48.810  32.168  26.289  1.00  0.00     0.069 H 
ATOM     17  C   UNL     1     -46.223  32.565  24.111  1.00  0.00    -0.019 A 
ATOM     18  H   UNL     1     -45.486  31.034  22.799  1.00  0.00     0.063 H 
ATOM     19  H   UNL     1     -45.502  33.301  23.764  1.00  0.00     0.066 H 
BRANCH   6  20
ATOM     20  N   UNL     1     -49.979  27.681  25.466  1.00  0.00    -0.373 N 
ATOM     21  H   UNL     1     -49.449  26.904  25.862  1.00  0.00     0.161 HD
BRANCH  20  22
ATOM     22  C   UNL     1     -50.941  27.216  24.481  1.00  0.00     0.005 C 
ATOM     23  H   UNL     1     -50.966  26.123  24.423  1.00  0.00     0.045 H 
ATOM     24  H   UNL     1     -51.948  27.592  24.693  1.00  0.00     0.045 H 
ATOM     25  H   UNL     1     -50.647  27.585  23.494  1.00  0.00     0.045 H 
ENDBRANCH  20  22
ENDBRANCH   6  20
ENDBRANCH   4   5
ENDBRANCH   1   4
BRANCH   1  26
ATOM     26  C   UNL     1     -46.823  35.182  27.760  1.00  0.00     0.123 C 
ATOM     27  O   UNL     1     -45.870  35.909  28.548  1.00  0.00    -0.345 OA
ATOM     28  C   UNL     1     -47.890  36.182  27.331  1.00  0.00     0.119 C 
ATOM     29  H   UNL     1     -47.278  34.417  28.403  1.00  0.00     0.067 H 
ATOM     30  C   UNL     1     -46.537  37.089  29.066  1.00  0.00     0.169 C 
ATOM     31  C   UNL     1     -47.974  37.075  28.551  1.00  0.00     0.173 C 
ATOM     32  H   UNL     1     -47.587  36.770  26.456  1.00  0.00     0.066 H 
ATOM     33  H   UNL     1     -46.506  37.024  30.160  1.00  0.00     0.088 H 
ATOM     34  F   UNL     1     -48.425  38.304  28.202  1.00  0.00    -0.239 F 
ATOM     35  H   UNL     1     -48.661  36.662  29.297  1.00  0.00     0.074 H 
BRANCH  28  36
ATOM     36  O   UNL     1     -49.133  35.551  27.045  1.00  0.00    -0.387 OA
ATOM     37  H   UNL     1     -49.811  35.985  27.598  1.00  0.00     0.211 HD
ENDBRANCH  28  36
BRANCH  30  38
ATOM     38  N   UNL     1     -45.778  38.268  28.672  1.00  0.00    -0.302 N 
ATOM     39  C   UNL     1     -46.091  39.157  27.676  1.00  0.00     0.019 A 
ATOM     40  C   UNL     1     -44.614  38.664  29.286  1.00  0.00     0.148 A 
ATOM     41  C   UNL     1     -45.109  40.127  27.646  1.00  0.00     0.033 A 
ATOM     42  H   UNL     1     -46.966  39.029  27.052  1.00  0.00     0.083 H 
ATOM     43  C   UNL     1     -44.184  39.849  28.695  1.00  0.00     0.071 A 
ATOM     44  N   UNL     1     -44.021  38.009  30.298  1.00  0.00    -0.218 NA
ATOM     45  C   UNL     1     -43.035  40.432  29.256  1.00  0.00     0.137 A 
ATOM     46  C   UNL     1     -42.920  38.645  30.722  1.00  0.00     0.120 A 
ATOM     47  N   UNL     1     -42.407  39.803  30.269  1.00  0.00    -0.219 NA
ATOM     48  H   UNL     1     -42.378  38.173  31.536  1.00  0.00     0.106 H 
BRANCH  41  49
ATOM     49  C   UNL     1     -45.058  41.232  26.692  1.00  0.00     0.095 A 
ATOM     50  C   UNL     1     -46.156  41.737  25.965  1.00  0.00    -0.016 A 
ATOM     51  N   UNL     1     -43.938  41.925  26.453  1.00  0.00    -0.172 NA
ATOM     52  C   UNL     1     -45.642  42.780  25.229  1.00  0.00     0.026 A 
ATOM     53  H   UNL     1     -47.181  41.388  25.971  1.00  0.00     0.066 H 
ATOM     54  N   UNL     1     -44.326  42.878  25.588  1.00  0.00    -0.264 N 
ATOM     55  H   UNL     1     -46.096  43.452  24.515  1.00  0.00     0.084 H 
BRANCH  54  56
ATOM     56  C   UNL     1     -43.388  43.828  24.983  1.00  0.00     0.099 C 
ATOM     57  C   UNL     1     -43.057  43.534  23.518  1.00  0.00     0.071 C 
ATOM     58  C   UNL     1     -41.920  43.472  25.220  1.00  0.00     0.071 C 
ATOM     59  H   UNL     1     -43.641  44.874  25.186  1.00  0.00     0.060 H 
ATOM     60  O   UNL     1     -41.631  43.623  23.805  1.00  0.00    -0.377 OA
ATOM     61  H   UNL     1     -43.373  44.304  22.809  1.00  0.00     0.059 H 
ATOM     62  H   UNL     1     -43.305  42.545  23.120  1.00  0.00     0.059 H 
ATOM     63  H   UNL     1     -41.693  42.454  25.555  1.00  0.00     0.059 H 
ATOM     64  H   UNL     1     -41.361  44.192  25.827  1.00  0.00     0.059 H 
ENDBRANCH  54  56
ENDBRANCH  41  49
BRANCH  45  65
ATOM     65  N   UNL     1     -42.502  41.659  28.875  1.00  0.00    -0.383 N 
ATOM     66  H   UNL     1     -43.187  42.154  28.312  1.00  0.00     0.158 HD
ATOM     67  H   UNL     1     -41.586  41.578  28.450  1.00  0.00     0.158 HD
ENDBRANCH  45  65
ENDBRANCH  30  38
ENDBRANCH   1  26
TORSDOF 10
ENDMDL
MODEL 6
REMARK VINA RESULT:      -8.5      2.463      3.547
REMARK SMILES CNc1ccc2ccc(OC[C@H]3O[C@@H](n4cc(-c5ccn(C6COC6)n5)c5c(N)ncnc54)[C@@H](F)[C@@H]3O)cc2n1
REMARK SMILES IDX 11 1 10 4 9 5 3 6 4 7 40 8 5 9 39 11 6 12 38 14 7 15 8 17
REMARK SMILES IDX 2 20 1 22 12 26 13 27 36 28 14 30 34 31 35 34 37 36 15 38
REMARK SMILES IDX 16 39 33 40 17 41 27 43 32 44 28 45 31 46 30 47 18 49 19 50
REMARK SMILES IDX 26 51 20 52 21 54 22 56 23 57 25 58 24 60 29 65
REMARK H PARENT 11 2 11 3 4 10 5 13 38 16 7 18 8 19 2 21 1 23 1 24 1 25 12 29
REMARK H PARENT 36 32 14 33 34 35 37 37 16 42 31 48 19 53 20 55 22 59 23 61
REMARK H PARENT 23 62 25 63 25 64 29 66 29 67
REMARK Flexibility Score: inf
ROOT
ATOM      1  C   UNL     1     -46.385  34.512  27.198  1.00  0.00     0.117 C 
ATOM      2  H   UNL     1     -45.424  34.951  27.495  1.00  0.00     0.073 H 
ATOM      3  H   UNL     1     -46.486  34.783  26.140  1.00  0.00     0.073 H 
ENDROOT
BRANCH   1   4
ATOM      4  O   UNL     1     -46.386  33.085  27.255  1.00  0.00    -0.491 OA
BRANCH   4   5
ATOM      5  C   UNL     1     -46.818  32.386  26.163  1.00  0.00     0.121 A 
ATOM      6  C   UNL     1     -46.619  30.879  21.660  1.00  0.00     0.126 A 
ATOM      7  C   UNL     1     -47.749  30.089  21.812  1.00  0.00    -0.019 A 
ATOM      8  N   UNL     1     -46.113  31.614  22.668  1.00  0.00    -0.231 NA
ATOM      9  C   UNL     1     -48.397  30.069  23.043  1.00  0.00    -0.049 A 
ATOM     10  H   UNL     1     -48.115  29.478  20.995  1.00  0.00     0.066 H 
ATOM     11  C   UNL     1     -46.734  31.600  23.861  1.00  0.00     0.076 A 
ATOM     12  C   UNL     1     -47.893  30.835  24.097  1.00  0.00     0.001 A 
ATOM     13  H   UNL     1     -49.281  29.452  23.171  1.00  0.00     0.063 H 
ATOM     14  C   UNL     1     -46.217  32.362  24.902  1.00  0.00     0.007 A 
ATOM     15  C   UNL     1     -48.504  30.851  25.359  1.00  0.00    -0.049 A 
ATOM     16  H   UNL     1     -45.320  32.932  24.685  1.00  0.00     0.069 H 
ATOM     17  C   UNL     1     -47.964  31.625  26.385  1.00  0.00    -0.019 A 
ATOM     18  H   UNL     1     -49.399  30.263  25.551  1.00  0.00     0.063 H 
ATOM     19  H   UNL     1     -48.443  31.634  27.361  1.00  0.00     0.066 H 
BRANCH   6  20
ATOM     20  N   UNL     1     -45.908  30.936  20.461  1.00  0.00    -0.373 N 
ATOM     21  H   UNL     1     -44.935  31.014  20.756  1.00  0.00     0.161 HD
BRANCH  20  22
ATOM     22  C   UNL     1     -46.288  32.039  19.594  1.00  0.00     0.005 C 
ATOM     23  H   UNL     1     -47.339  31.974  19.292  1.00  0.00     0.045 H 
ATOM     24  H   UNL     1     -46.106  33.008  20.073  1.00  0.00     0.045 H 
ATOM     25  H   UNL     1     -45.686  31.999  18.681  1.00  0.00     0.045 H 
ENDBRANCH  20  22
ENDBRANCH   6  20
ENDBRANCH   4   5
ENDBRANCH   1   4
BRANCH   1  26
ATOM     26  C   UNL     1     -47.560  35.108  27.975  1.00  0.00     0.123 C 
ATOM     27  O   UNL     1     -47.141  36.270  28.706  1.00  0.00    -0.345 OA
ATOM     28  C   UNL     1     -48.704  35.550  27.070  1.00  0.00     0.119 C 
ATOM     29  H   UNL     1     -47.931  34.371  28.698  1.00  0.00     0.067 H 
ATOM     30  C   UNL     1     -48.251  37.204  28.720  1.00  0.00     0.169 C 
ATOM     31  C   UNL     1     -49.402  36.571  27.944  1.00  0.00     0.173 C 
ATOM     32  H   UNL     1     -48.350  36.025  26.147  1.00  0.00     0.066 H 
ATOM     33  H   UNL     1     -48.522  37.369  29.769  1.00  0.00     0.088 H 
ATOM     34  F   UNL     1     -50.079  37.459  27.176  1.00  0.00    -0.239 F 
ATOM     35  H   UNL     1     -50.120  36.089  28.617  1.00  0.00     0.074 H 
BRANCH  28  36
ATOM     36  O   UNL     1     -49.561  34.469  26.723  1.00  0.00    -0.387 OA
ATOM     37  H   UNL     1     -49.300  34.168  25.830  1.00  0.00     0.211 HD
ENDBRANCH  28  36
BRANCH  30  38
ATOM     38  N   UNL     1     -47.799  38.477  28.175  1.00  0.00    -0.302 N 
ATOM     39  C   UNL     1     -46.558  38.764  27.669  1.00  0.00     0.019 A 
ATOM     40  C   UNL     1     -48.598  39.591  28.079  1.00  0.00     0.148 A 
ATOM     41  C   UNL     1     -46.560  40.082  27.254  1.00  0.00     0.033 A 
ATOM     42  H   UNL     1     -45.763  38.030  27.657  1.00  0.00     0.083 H 
ATOM     43  C   UNL     1     -47.868  40.608  27.471  1.00  0.00     0.071 A 
ATOM     44  N   UNL     1     -49.875  39.656  28.494  1.00  0.00    -0.218 NA
ATOM     45  C   UNL     1     -48.565  41.805  27.231  1.00  0.00     0.137 A 
ATOM     46  C   UNL     1     -50.418  40.855  28.241  1.00  0.00     0.120 A 
ATOM     47  N   UNL     1     -49.845  41.912  27.638  1.00  0.00    -0.219 NA
ATOM     48  H   UNL     1     -51.449  40.989  28.554  1.00  0.00     0.106 H 
BRANCH  41  49
ATOM     49  C   UNL     1     -45.406  40.782  26.696  1.00  0.00     0.095 A 
ATOM     50  C   UNL     1     -44.070  40.627  27.120  1.00  0.00    -0.016 A 
ATOM     51  N   UNL     1     -45.508  41.621  25.658  1.00  0.00    -0.172 NA
ATOM     52  C   UNL     1     -43.340  41.451  26.295  1.00  0.00     0.026 A 
ATOM     53  H   UNL     1     -43.690  40.005  27.920  1.00  0.00     0.066 H 
ATOM     54  N   UNL     1     -44.238  41.988  25.414  1.00  0.00    -0.264 N 
ATOM     55  H   UNL     1     -42.285  41.677  26.252  1.00  0.00     0.084 H 
BRANCH  54  56
ATOM     56  C   UNL     1     -43.882  42.981  24.397  1.00  0.00     0.099 C 
ATOM     57  C   UNL     1     -42.496  43.603  24.587  1.00  0.00     0.071 C 
ATOM     58  C   UNL     1     -44.382  44.390  24.717  1.00  0.00     0.071 C 
ATOM     59  H   UNL     1     -44.088  42.647  23.375  1.00  0.00     0.060 H 
ATOM     60  O   UNL     1     -43.061  44.941  24.468  1.00  0.00    -0.377 OA
ATOM     61  H   UNL     1     -41.782  43.395  23.784  1.00  0.00     0.059 H 
ATOM     62  H   UNL     1     -42.004  43.482  25.557  1.00  0.00     0.059 H 
ATOM     63  H   UNL     1     -44.698  44.594  25.746  1.00  0.00     0.059 H 
ATOM     64  H   UNL     1     -45.125  44.788  24.018  1.00  0.00     0.059 H 
ENDBRANCH  54  56
ENDBRANCH  41  49
BRANCH  45  65
ATOM     65  N   UNL     1     -48.046  42.902  26.551  1.00  0.00    -0.383 N 
ATOM     66  H   UNL     1     -47.033  42.878  26.614  1.00  0.00     0.158 HD
ATOM     67  H   UNL     1     -48.466  43.778  26.835  1.00  0.00     0.158 HD
ENDBRANCH  45  65
ENDBRANCH  30  38
ENDBRANCH   1  26
TORSDOF 10
ENDMDL
MODEL 7
REMARK VINA RESULT:      -8.4      3.511      5.888
REMARK SMILES CNc1ccc2ccc(OC[C@H]3O[C@@H](n4cc(-c5ccn(C6COC6)n5)c5c(N)ncnc54)[C@@H](F)[C@@H]3O)cc2n1
REMARK SMILES IDX 11 1 10 4 9 5 3 6 4 7 40 8 5 9 39 11 6 12 38 14 7 15 8 17
REMARK SMILES IDX 2 20 1 22 12 26 13 27 36 28 14 30 34 31 35 34 37 36 15 38
REMARK SMILES IDX 16 39 33 40 17 41 27 43 32 44 28 45 31 46 30 47 18 49 19 50
REMARK SMILES IDX 26 51 20 52 21 54 22 56 23 57 25 58 24 60 29 65
REMARK H PARENT 11 2 11 3 4 10 5 13 38 16 7 18 8 19 2 21 1 23 1 24 1 25 12 29
REMARK H PARENT 36 32 14 33 34 35 37 37 16 42 31 48 19 53 20 55 22 59 23 61
REMARK H PARENT 23 62 25 63 25 64 29 66 29 67
REMARK Flexibility Score: inf
ROOT
ATOM      1  C   UNL     1     -45.277  38.947  28.566  1.00  0.00     0.117 C 
ATOM      2  H   UNL     1     -45.262  39.442  29.545  1.00  0.00     0.073 H 
ATOM      3  H   UNL     1     -44.972  37.915  28.784  1.00  0.00     0.073 H 
ENDROOT
BRANCH   1   4
ATOM      4  O   UNL     1     -46.586  38.873  28.001  1.00  0.00    -0.491 OA
BRANCH   4   5
ATOM      5  C   UNL     1     -47.054  37.658  27.586  1.00  0.00     0.121 A 
ATOM      6  C   UNL     1     -46.688  33.343  25.626  1.00  0.00     0.126 A 
ATOM      7  C   UNL     1     -48.022  33.053  25.872  1.00  0.00    -0.019 A 
ATOM      8  N   UNL     1     -46.127  34.513  25.986  1.00  0.00    -0.231 NA
ATOM      9  C   UNL     1     -48.816  34.011  26.495  1.00  0.00    -0.049 A 
ATOM     10  H   UNL     1     -48.439  32.090  25.605  1.00  0.00     0.066 H 
ATOM     11  C   UNL     1     -46.889  35.444  26.588  1.00  0.00     0.076 A 
ATOM     12  C   UNL     1     -48.254  35.235  26.864  1.00  0.00     0.001 A 
ATOM     13  H   UNL     1     -49.861  33.791  26.694  1.00  0.00     0.063 H 
ATOM     14  C   UNL     1     -46.314  36.655  26.956  1.00  0.00     0.007 A 
ATOM     15  C   UNL     1     -49.007  36.235  27.497  1.00  0.00    -0.049 A 
ATOM     16  H   UNL     1     -45.259  36.777  26.733  1.00  0.00     0.069 H 
ATOM     17  C   UNL     1     -48.404  37.440  27.855  1.00  0.00    -0.019 A 
ATOM     18  H   UNL     1     -50.062  36.082  27.715  1.00  0.00     0.063 H 
ATOM     19  H   UNL     1     -48.994  38.211  28.344  1.00  0.00     0.066 H 
BRANCH   6  20
ATOM     20  N   UNL     1     -45.827  32.427  25.020  1.00  0.00    -0.373 N 
ATOM     21  H   UNL     1     -45.123  33.012  24.572  1.00  0.00     0.161 HD
BRANCH  20  22
ATOM     22  C   UNL     1     -46.472  31.547  24.061  1.00  0.00     0.005 C 
ATOM     23  H   UNL     1     -47.562  31.653  24.083  1.00  0.00     0.045 H 
ATOM     24  H   UNL     1     -46.109  31.727  23.043  1.00  0.00     0.045 H 
ATOM     25  H   UNL     1     -46.243  30.509  24.319  1.00  0.00     0.045 H 
ENDBRANCH  20  22
ENDBRANCH   6  20
ENDBRANCH   4   5
ENDBRANCH   1   4
BRANCH   1  26
ATOM     26  C   UNL     1     -44.274  39.561  27.589  1.00  0.00     0.123 C 
ATOM     27  O   UNL     1     -44.932  39.953  26.375  1.00  0.00    -0.345 OA
ATOM     28  C   UNL     1     -43.598  40.810  28.143  1.00  0.00     0.119 C 
ATOM     29  H   UNL     1     -43.510  38.816  27.332  1.00  0.00     0.067 H 
ATOM     30  C   UNL     1     -44.276  41.152  25.887  1.00  0.00     0.169 C 
ATOM     31  C   UNL     1     -43.164  41.507  26.870  1.00  0.00     0.173 C 
ATOM     32  H   UNL     1     -44.291  41.450  28.702  1.00  0.00     0.066 H 
ATOM     33  H   UNL     1     -43.871  40.917  24.896  1.00  0.00     0.088 H 
ATOM     34  F   UNL     1     -43.047  42.840  27.082  1.00  0.00    -0.239 F 
ATOM     35  H   UNL     1     -42.193  41.133  26.526  1.00  0.00     0.074 H 
BRANCH  28  36
ATOM     36  O   UNL     1     -42.494  40.494  28.982  1.00  0.00    -0.387 OA
ATOM     37  H   UNL     1     -42.545  39.539  29.179  1.00  0.00     0.211 HD
ENDBRANCH  28  36
BRANCH  30  38
ATOM     38  N   UNL     1     -45.275  42.198  25.719  1.00  0.00    -0.302 N 
ATOM     39  C   UNL     1     -46.413  42.378  26.462  1.00  0.00     0.019 A 
ATOM     40  C   UNL     1     -45.190  43.187  24.769  1.00  0.00     0.148 A 
ATOM     41  C   UNL     1     -47.070  43.491  25.972  1.00  0.00     0.033 A 
ATOM     42  H   UNL     1     -46.686  41.702  27.261  1.00  0.00     0.083 H 
ATOM     43  C   UNL     1     -46.279  44.041  24.921  1.00  0.00     0.071 A 
ATOM     44  N   UNL     1     -44.200  43.300  23.868  1.00  0.00    -0.218 NA
ATOM     45  C   UNL     1     -46.307  45.156  24.066  1.00  0.00     0.137 A 
ATOM     46  C   UNL     1     -44.357  44.381  23.091  1.00  0.00     0.120 A 
ATOM     47  N   UNL     1     -45.336  45.302  23.144  1.00  0.00    -0.219 NA
ATOM     48  H   UNL     1     -43.599  44.538  22.330  1.00  0.00     0.106 H 
BRANCH  41  49
ATOM     49  C   UNL     1     -48.350  43.989  26.470  1.00  0.00     0.095 A 
ATOM     50  C   UNL     1     -49.560  44.003  25.745  1.00  0.00    -0.016 A 
ATOM     51  N   UNL     1     -48.509  44.441  27.719  1.00  0.00    -0.172 NA
ATOM     52  C   UNL     1     -50.487  44.523  26.618  1.00  0.00     0.026 A 
ATOM     53  H   UNL     1     -49.734  43.683  24.726  1.00  0.00     0.066 H 
ATOM     54  N   UNL     1     -49.820  44.728  27.794  1.00  0.00    -0.264 N 
ATOM     55  H   UNL     1     -51.540  44.741  26.507  1.00  0.00     0.084 H 
BRANCH  54  56
ATOM     56  C   UNL     1     -50.430  45.340  28.978  1.00  0.00     0.099 C 
ATOM     57  C   UNL     1     -51.426  44.435  29.708  1.00  0.00     0.071 C 
ATOM     58  C   UNL     1     -51.670  46.179  28.662  1.00  0.00     0.071 C 
ATOM     59  H   UNL     1     -49.704  45.832  29.634  1.00  0.00     0.060 H 
ATOM     60  O   UNL     1     -52.424  45.497  29.699  1.00  0.00    -0.377 OA
ATOM     61  H   UNL     1     -51.139  44.161  30.727  1.00  0.00     0.059 H 
ATOM     62  H   UNL     1     -51.804  43.553  29.183  1.00  0.00     0.059 H 
ATOM     63  H   UNL     1     -52.142  46.037  27.684  1.00  0.00     0.059 H 
ATOM     64  H   UNL     1     -51.570  47.249  28.871  1.00  0.00     0.059 H 
ENDBRANCH  54  56
ENDBRANCH  41  49
BRANCH  45  65
ATOM     65  N   UNL     1     -47.254  46.174  24.123  1.00  0.00    -0.383 N 
ATOM     66  H   UNL     1     -47.616  46.338  23.189  1.00  0.00     0.158 HD
ATOM     67  H   UNL     1     -46.916  47.003  24.596  1.00  0.00     0.158 HD
ENDBRANCH  45  65
ENDBRANCH  30  38
ENDBRANCH   1  26
TORSDOF 10
ENDMDL
