MODEL 1
REMARK VINA RESULT:      -9.6      0.000      0.000
REMARK SMILES CCc1cc(N2CCC2)nc2cc(F)cc(OCc3cncc(-n4cc([C@H]5CCCO5)c5c(N)ncnc54)c3)c12
REMARK SMILES IDX 18 1 17 4 16 5 3 6 4 7 40 8 5 9 11 11 10 12 12 13 15 14
REMARK SMILES IDX 13 15 14 18 2 19 1 22 6 26 7 27 9 28 8 29 19 36 20 37 39 38
REMARK SMILES IDX 21 39 23 41 22 43 24 45 25 46 38 47 26 48 32 50 37 51 33 52
REMARK SMILES IDX 36 53 35 54 27 56 28 57 31 58 29 60 30 63 34 68
REMARK H PARENT 18 2 18 3 4 10 12 16 15 17 2 20 2 21 1 23 1 24 1 25 7 30 7 31
REMARK H PARENT 9 32 9 33 8 34 8 35 20 40 39 42 22 44 25 49 36 55 27 59 28 61
REMARK H PARENT 28 62 29 64 29 65 30 66 30 67 34 69 34 70
REMARK Flexibility Score: inf
ROOT
ATOM      1  C   UNL     1     -49.038  35.971  27.293  1.00  0.00     0.115 C 
ATOM      2  H   UNL     1     -49.267  35.568  28.286  1.00  0.00     0.076 H 
ATOM      3  H   UNL     1     -49.969  36.225  26.772  1.00  0.00     0.076 H 
ENDROOT
BRANCH   1   4
ATOM      4  O   UNL     1     -48.209  37.129  27.405  1.00  0.00    -0.488 OA
BRANCH   4   5
ATOM      5  C   UNL     1     -47.233  37.128  28.369  1.00  0.00     0.132 A 
ATOM      6  C   UNL     1     -46.167  39.248  27.378  1.00  0.00    -0.031 A 
ATOM      7  C   UNL     1     -45.102  40.162  27.466  1.00  0.00    -0.015 A 
ATOM      8  C   UNL     1     -46.238  38.165  28.308  1.00  0.00     0.046 A 
ATOM      9  C   UNL     1     -44.137  40.024  28.449  1.00  0.00     0.129 A 
ATOM     10  H   UNL     1     -45.037  40.992  26.768  1.00  0.00     0.066 H 
ATOM     11  C   UNL     1     -45.203  38.135  29.279  1.00  0.00     0.080 A 
ATOM     12  N   UNL     1     -44.204  39.024  29.345  1.00  0.00    -0.231 NA
ATOM     13  C   UNL     1     -45.178  37.140  30.238  1.00  0.00     0.000 A 
ATOM     14  C   UNL     1     -47.170  36.130  29.344  1.00  0.00     0.017 A 
ATOM     15  C   UNL     1     -46.145  36.153  30.271  1.00  0.00     0.129 A 
ATOM     16  H   UNL     1     -44.383  37.127  30.979  1.00  0.00     0.068 H 
ATOM     17  H   UNL     1     -47.881  35.316  29.404  1.00  0.00     0.069 H 
ATOM     18  F   UNL     1     -46.084  35.197  31.206  1.00  0.00    -0.207 F 
BRANCH   6  19
ATOM     19  C   UNL     1     -47.168  39.494  26.267  1.00  0.00    -0.030 C 
ATOM     20  H   UNL     1     -47.806  38.608  26.149  1.00  0.00     0.031 H 
ATOM     21  H   UNL     1     -46.669  39.587  25.299  1.00  0.00     0.031 H 
BRANCH  19  22
ATOM     22  C   UNL     1     -48.062  40.692  26.555  1.00  0.00    -0.061 C 
ATOM     23  H   UNL     1     -48.996  40.610  25.990  1.00  0.00     0.023 H 
ATOM     24  H   UNL     1     -47.583  41.638  26.283  1.00  0.00     0.023 H 
ATOM     25  H   UNL     1     -48.317  40.746  27.619  1.00  0.00     0.023 H 
ENDBRANCH  19  22
ENDBRANCH   6  19
BRANCH   9  26
ATOM     26  N   UNL     1     -43.082  40.950  28.544  1.00  0.00    -0.356 N 
ATOM     27  C   UNL     1     -42.023  40.874  29.510  1.00  0.00     0.021 C 
ATOM     28  C   UNL     1     -42.187  41.336  27.493  1.00  0.00     0.021 C 
ATOM     29  C   UNL     1     -41.243  41.826  28.596  1.00  0.00    -0.018 C 
ATOM     30  H   UNL     1     -41.596  39.870  29.601  1.00  0.00     0.049 H 
ATOM     31  H   UNL     1     -42.298  41.271  30.490  1.00  0.00     0.049 H 
ATOM     32  H   UNL     1     -42.591  42.110  26.835  1.00  0.00     0.049 H 
ATOM     33  H   UNL     1     -41.818  40.485  26.911  1.00  0.00     0.049 H 
ATOM     34  H   UNL     1     -41.355  42.886  28.848  1.00  0.00     0.030 H 
ATOM     35  H   UNL     1     -40.185  41.592  28.457  1.00  0.00     0.030 H 
ENDBRANCH   9  26
ENDBRANCH   4   5
ENDBRANCH   1   4
BRANCH   1  36
ATOM     36  C   UNL     1     -48.284  34.921  26.523  1.00  0.00     0.010 A 
ATOM     37  C   UNL     1     -47.004  35.164  26.047  1.00  0.00     0.034 A 
ATOM     38  C   UNL     1     -48.858  33.676  26.227  1.00  0.00    -0.028 A 
ATOM     39  N   UNL     1     -46.290  34.272  25.332  1.00  0.00    -0.262 NA
ATOM     40  H   UNL     1     -46.496  36.107  26.229  1.00  0.00     0.084 H 
ATOM     41  C   UNL     1     -48.145  32.713  25.497  1.00  0.00     0.066 A 
ATOM     42  H   UNL     1     -49.871  33.498  26.577  1.00  0.00     0.065 H 
ATOM     43  C   UNL     1     -46.870  33.070  25.074  1.00  0.00     0.051 A 
ATOM     44  H   UNL     1     -46.218  32.410  24.517  1.00  0.00     0.086 H 
BRANCH  41  45
ATOM     45  N   UNL     1     -48.710  31.429  25.214  1.00  0.00    -0.299 N 
ATOM     46  C   UNL     1     -48.273  30.230  25.760  1.00  0.00     0.018 A 
ATOM     47  C   UNL     1     -49.767  31.124  24.356  1.00  0.00     0.150 A 
ATOM     48  C   UNL     1     -49.030  29.175  25.284  1.00  0.00     0.012 A 
ATOM     49  H   UNL     1     -47.432  30.202  26.437  1.00  0.00     0.083 H 
ATOM     50  C   UNL     1     -49.981  29.748  24.384  1.00  0.00     0.067 A 
ATOM     51  N   UNL     1     -50.485  32.000  23.625  1.00  0.00    -0.218 NA
ATOM     52  C   UNL     1     -51.016  29.250  23.572  1.00  0.00     0.136 A 
ATOM     53  C   UNL     1     -51.441  31.410  22.897  1.00  0.00     0.120 A 
ATOM     54  N   UNL     1     -51.743  30.104  22.832  1.00  0.00    -0.219 NA
ATOM     55  H   UNL     1     -52.050  32.068  22.283  1.00  0.00     0.106 H 
BRANCH  48  56
ATOM     56  C   UNL     1     -48.876  27.715  25.595  1.00  0.00     0.085 C 
ATOM     57  C   UNL     1     -47.795  26.984  24.805  1.00  0.00    -0.020 C 
ATOM     58  O   UNL     1     -48.552  27.499  26.990  1.00  0.00    -0.373 OA
ATOM     59  H   UNL     1     -49.842  27.221  25.422  1.00  0.00     0.066 H 
ATOM     60  C   UNL     1     -47.471  25.826  25.716  1.00  0.00    -0.027 C 
ATOM     61  H   UNL     1     -48.130  26.674  23.811  1.00  0.00     0.030 H 
ATOM     62  H   UNL     1     -46.897  27.602  24.684  1.00  0.00     0.030 H 
ATOM     63  C   UNL     1     -47.543  26.482  27.075  1.00  0.00     0.048 C 
ATOM     64  H   UNL     1     -48.246  25.056  25.627  1.00  0.00     0.029 H 
ATOM     65  H   UNL     1     -46.501  25.365  25.514  1.00  0.00     0.029 H 
ATOM     66  H   UNL     1     -47.797  25.776  27.870  1.00  0.00     0.057 H 
ATOM     67  H   UNL     1     -46.597  26.971  27.331  1.00  0.00     0.057 H 
ENDBRANCH  48  56
BRANCH  52  68
ATOM     68  N   UNL     1     -51.357  27.904  23.500  1.00  0.00    -0.383 N 
ATOM     69  H   UNL     1     -51.050  27.474  22.627  1.00  0.00     0.158 HD
ATOM     70  H   UNL     1     -51.069  27.426  24.344  1.00  0.00     0.158 HD
ENDBRANCH  52  68
ENDBRANCH  41  45
ENDBRANCH   1  36
TORSDOF 9
ENDMDL
MODEL 2
REMARK VINA RESULT:      -9.5      1.800      2.555
REMARK SMILES CCc1cc(N2CCC2)nc2cc(F)cc(OCc3cncc(-n4cc([C@H]5CCCO5)c5c(N)ncnc54)c3)c12
REMARK SMILES IDX 18 1 17 4 16 5 3 6 4 7 40 8 5 9 11 11 10 12 12 13 15 14
REMARK SMILES IDX 13 15 14 18 2 19 1 22 6 26 7 27 9 28 8 29 19 36 20 37 39 38
REMARK SMILES IDX 21 39 23 41 22 43 24 45 25 46 38 47 26 48 32 50 37 51 33 52
REMARK SMILES IDX 36 53 35 54 27 56 28 57 31 58 29 60 30 63 34 68
REMARK H PARENT 18 2 18 3 4 10 12 16 15 17 2 20 2 21 1 23 1 24 1 25 7 30 7 31
REMARK H PARENT 9 32 9 33 8 34 8 35 20 40 39 42 22 44 25 49 36 55 27 59 28 61
REMARK H PARENT 28 62 29 64 29 65 30 66 30 67 34 69 34 70
REMARK Flexibility Score: inf
ROOT
ATOM      1  C   UNL     1     -49.106  35.733  27.499  1.00  0.00     0.115 C 
ATOM      2  H   UNL     1     -49.632  35.202  28.300  1.00  0.00     0.076 H 
ATOM      3  H   UNL     1     -49.829  36.276  26.876  1.00  0.00     0.076 H 
ENDROOT
BRANCH   1   4
ATOM      4  O   UNL     1     -48.151  36.644  28.047  1.00  0.00    -0.488 OA
BRANCH   4   5
ATOM      5  C   UNL     1     -48.359  37.986  27.850  1.00  0.00     0.132 A 
ATOM      6  C   UNL     1     -45.836  38.399  27.579  1.00  0.00    -0.031 A 
ATOM      7  C   UNL     1     -44.831  39.365  27.391  1.00  0.00    -0.015 A 
ATOM      8  C   UNL     1     -47.202  38.815  27.649  1.00  0.00     0.046 A 
ATOM      9  C   UNL     1     -45.158  40.704  27.265  1.00  0.00     0.129 A 
ATOM     10  H   UNL     1     -43.789  39.063  27.332  1.00  0.00     0.066 H 
ATOM     11  C   UNL     1     -47.416  40.209  27.492  1.00  0.00     0.080 A 
ATOM     12  N   UNL     1     -46.440  41.107  27.307  1.00  0.00    -0.231 NA
ATOM     13  C   UNL     1     -48.698  40.724  27.529  1.00  0.00     0.000 A 
ATOM     14  C   UNL     1     -49.640  38.540  27.895  1.00  0.00     0.017 A 
ATOM     15  C   UNL     1     -49.793  39.904  27.728  1.00  0.00     0.129 A 
ATOM     16  H   UNL     1     -48.853  41.792  27.405  1.00  0.00     0.068 H 
ATOM     17  H   UNL     1     -50.533  37.955  28.075  1.00  0.00     0.069 H 
ATOM     18  F   UNL     1     -51.021  40.437  27.771  1.00  0.00    -0.207 F 
BRANCH   6  19
ATOM     19  C   UNL     1     -45.367  36.963  27.701  1.00  0.00    -0.030 C 
ATOM     20  H   UNL     1     -44.380  36.861  27.230  1.00  0.00     0.031 H 
ATOM     21  H   UNL     1     -46.003  36.289  27.120  1.00  0.00     0.031 H 
BRANCH  19  22
ATOM     22  C   UNL     1     -45.254  36.517  29.151  1.00  0.00    -0.061 C 
ATOM     23  H   UNL     1     -44.925  37.352  29.778  1.00  0.00     0.023 H 
ATOM     24  H   UNL     1     -44.538  35.698  29.275  1.00  0.00     0.023 H 
ATOM     25  H   UNL     1     -46.220  36.170  29.533  1.00  0.00     0.023 H 
ENDBRANCH  19  22
ENDBRANCH   6  19
BRANCH   9  26
ATOM     26  N   UNL     1     -44.152  41.665  27.063  1.00  0.00    -0.356 N 
ATOM     27  C   UNL     1     -42.745  41.401  27.179  1.00  0.00     0.021 C 
ATOM     28  C   UNL     1     -43.971  42.481  25.898  1.00  0.00     0.021 C 
ATOM     29  C   UNL     1     -42.529  42.687  26.374  1.00  0.00    -0.018 C 
ATOM     30  H   UNL     1     -42.437  40.481  26.669  1.00  0.00     0.049 H 
ATOM     31  H   UNL     1     -42.383  41.415  28.209  1.00  0.00     0.049 H 
ATOM     32  H   UNL     1     -44.599  43.375  25.887  1.00  0.00     0.049 H 
ATOM     33  H   UNL     1     -44.075  41.920  24.963  1.00  0.00     0.049 H 
ATOM     34  H   UNL     1     -42.379  43.582  26.986  1.00  0.00     0.030 H 
ATOM     35  H   UNL     1     -41.759  42.640  25.599  1.00  0.00     0.030 H 
ENDBRANCH   9  26
ENDBRANCH   4   5
ENDBRANCH   1   4
BRANCH   1  36
ATOM     36  C   UNL     1     -48.370  34.717  26.668  1.00  0.00     0.010 A 
ATOM     37  C   UNL     1     -47.060  34.935  26.266  1.00  0.00     0.034 A 
ATOM     38  C   UNL     1     -48.989  33.533  26.241  1.00  0.00    -0.028 A 
ATOM     39  N   UNL     1     -46.359  34.073  25.504  1.00  0.00    -0.262 NA
ATOM     40  H   UNL     1     -46.516  35.831  26.551  1.00  0.00     0.084 H 
ATOM     41  C   UNL     1     -48.291  32.603  25.456  1.00  0.00     0.066 A 
ATOM     42  H   UNL     1     -50.023  33.378  26.533  1.00  0.00     0.065 H 
ATOM     43  C   UNL     1     -46.984  32.930  25.117  1.00  0.00     0.051 A 
ATOM     44  H   UNL     1     -46.340  32.288  24.529  1.00  0.00     0.086 H 
BRANCH  41  45
ATOM     45  N   UNL     1     -48.904  31.379  25.038  1.00  0.00    -0.299 N 
ATOM     46  C   UNL     1     -48.389  30.111  25.273  1.00  0.00     0.018 A 
ATOM     47  C   UNL     1     -50.091  31.210  24.325  1.00  0.00     0.150 A 
ATOM     48  C   UNL     1     -49.222  29.142  24.742  1.00  0.00     0.012 A 
ATOM     49  H   UNL     1     -47.447  29.980  25.784  1.00  0.00     0.083 H 
ATOM     50  C   UNL     1     -50.306  29.847  24.133  1.00  0.00     0.067 A 
ATOM     51  N   UNL     1     -50.916  32.187  23.898  1.00  0.00    -0.218 NA
ATOM     52  C   UNL     1     -51.465  29.481  23.425  1.00  0.00     0.136 A 
ATOM     53  C   UNL     1     -51.984  31.716  23.241  1.00  0.00     0.120 A 
ATOM     54  N   UNL     1     -52.300  30.438  22.987  1.00  0.00    -0.219 NA
ATOM     55  H   UNL     1     -52.682  32.460  22.869  1.00  0.00     0.106 H 
BRANCH  48  56
ATOM     56  C   UNL     1     -49.027  27.654  24.748  1.00  0.00     0.085 C 
ATOM     57  C   UNL     1     -47.691  27.168  25.302  1.00  0.00    -0.020 C 
ATOM     58  O   UNL     1     -50.041  26.987  25.537  1.00  0.00    -0.373 OA
ATOM     59  H   UNL     1     -49.144  27.287  23.720  1.00  0.00     0.066 H 
ATOM     60  C   UNL     1     -48.028  25.765  25.742  1.00  0.00    -0.027 C 
ATOM     61  H   UNL     1     -46.884  27.209  24.564  1.00  0.00     0.030 H 
ATOM     62  H   UNL     1     -47.381  27.750  26.178  1.00  0.00     0.030 H 
ATOM     63  C   UNL     1     -49.416  25.952  26.310  1.00  0.00     0.048 C 
ATOM     64  H   UNL     1     -48.063  25.100  24.871  1.00  0.00     0.029 H 
ATOM     65  H   UNL     1     -47.323  25.349  26.466  1.00  0.00     0.029 H 
ATOM     66  H   UNL     1     -50.017  25.041  26.259  1.00  0.00     0.057 H 
ATOM     67  H   UNL     1     -49.378  26.289  27.350  1.00  0.00     0.057 H 
ENDBRANCH  48  56
BRANCH  52  68
ATOM     68  N   UNL     1     -51.822  28.163  23.163  1.00  0.00    -0.383 N 
ATOM     69  H   UNL     1     -52.552  27.827  23.792  1.00  0.00     0.158 HD
ATOM     70  H   UNL     1     -52.011  28.043  22.176  1.00  0.00     0.158 HD
ENDBRANCH  52  68
ENDBRANCH  41  45
ENDBRANCH   1  36
TORSDOF 9
ENDMDL
MODEL 3
REMARK VINA RESULT:      -9.4      3.297     10.896
REMARK SMILES CCc1cc(N2CCC2)nc2cc(F)cc(OCc3cncc(-n4cc([C@H]5CCCO5)c5c(N)ncnc54)c3)c12
REMARK SMILES IDX 18 1 17 4 16 5 3 6 4 7 40 8 5 9 11 11 10 12 12 13 15 14
REMARK SMILES IDX 13 15 14 18 2 19 1 22 6 26 7 27 9 28 8 29 19 36 20 37 39 38
REMARK SMILES IDX 21 39 23 41 22 43 24 45 25 46 38 47 26 48 32 50 37 51 33 52
REMARK SMILES IDX 36 53 35 54 27 56 28 57 31 58 29 60 30 63 34 68
REMARK H PARENT 18 2 18 3 4 10 12 16 15 17 2 20 2 21 1 23 1 24 1 25 7 30 7 31
REMARK H PARENT 9 32 9 33 8 34 8 35 20 40 39 42 22 44 25 49 36 55 27 59 28 61
REMARK H PARENT 28 62 29 64 29 65 30 66 30 67 34 69 34 70
REMARK Flexibility Score: inf
ROOT
ATOM      1  C   UNL     1     -46.102  32.956  23.730  1.00  0.00     0.115 C 
ATOM      2  H   UNL     1     -45.115  32.484  23.675  1.00  0.00     0.076 H 
ATOM      3  H   UNL     1     -46.135  33.826  23.062  1.00  0.00     0.076 H 
ENDROOT
BRANCH   1   4
ATOM      4  O   UNL     1     -47.122  32.023  23.369  1.00  0.00    -0.488 OA
BRANCH   4   5
ATOM      5  C   UNL     1     -46.796  30.690  23.358  1.00  0.00     0.132 A 
ATOM      6  C   UNL     1     -48.870  30.110  24.763  1.00  0.00    -0.031 A 
ATOM      7  C   UNL     1     -49.579  29.088  25.421  1.00  0.00    -0.015 A 
ATOM      8  C   UNL     1     -47.661  29.789  24.072  1.00  0.00     0.046 A 
ATOM      9  C   UNL     1     -49.118  27.783  25.392  1.00  0.00     0.129 A 
ATOM     10  H   UNL     1     -50.501  29.317  25.947  1.00  0.00     0.066 H 
ATOM     11  C   UNL     1     -47.297  28.418  24.098  1.00  0.00     0.080 A 
ATOM     12  N   UNL     1     -47.995  27.463  24.727  1.00  0.00    -0.231 NA
ATOM     13  C   UNL     1     -46.153  27.989  23.451  1.00  0.00     0.000 A 
ATOM     14  C   UNL     1     -45.640  30.225  22.727  1.00  0.00     0.017 A 
ATOM     15  C   UNL     1     -45.337  28.878  22.777  1.00  0.00     0.129 A 
ATOM     16  H   UNL     1     -45.883  26.937  23.475  1.00  0.00     0.068 H 
ATOM     17  H   UNL     1     -44.948  30.876  22.207  1.00  0.00     0.069 H 
ATOM     18  F   UNL     1     -44.229  28.432  22.171  1.00  0.00    -0.207 F 
BRANCH   6  19
ATOM     19  C   UNL     1     -49.465  31.501  24.855  1.00  0.00    -0.030 C 
ATOM     20  H   UNL     1     -48.686  32.245  24.638  1.00  0.00     0.031 H 
ATOM     21  H   UNL     1     -49.770  31.733  25.879  1.00  0.00     0.031 H 
BRANCH  19  22
ATOM     22  C   UNL     1     -50.607  31.704  23.870  1.00  0.00    -0.061 C 
ATOM     23  H   UNL     1     -50.506  31.013  23.027  1.00  0.00     0.023 H 
ATOM     24  H   UNL     1     -50.631  32.723  23.472  1.00  0.00     0.023 H 
ATOM     25  H   UNL     1     -51.575  31.514  24.345  1.00  0.00     0.023 H 
ENDBRANCH  19  22
ENDBRANCH   6  19
BRANCH   9  26
ATOM     26  N   UNL     1     -49.838  26.762  26.038  1.00  0.00    -0.356 N 
ATOM     27  C   UNL     1     -51.261  26.593  25.948  1.00  0.00     0.021 C 
ATOM     28  C   UNL     1     -49.596  25.352  25.940  1.00  0.00     0.021 C 
ATOM     29  C   UNL     1     -51.032  25.161  26.443  1.00  0.00    -0.018 C 
ATOM     30  H   UNL     1     -51.638  26.671  24.922  1.00  0.00     0.049 H 
ATOM     31  H   UNL     1     -51.821  27.247  26.620  1.00  0.00     0.049 H 
ATOM     32  H   UNL     1     -48.809  24.995  26.608  1.00  0.00     0.049 H 
ATOM     33  H   UNL     1     -49.417  25.020  24.913  1.00  0.00     0.049 H 
ATOM     34  H   UNL     1     -51.117  25.039  27.528  1.00  0.00     0.030 H 
ATOM     35  H   UNL     1     -51.613  24.384  25.940  1.00  0.00     0.030 H 
ENDBRANCH   9  26
ENDBRANCH   4   5
ENDBRANCH   1   4
BRANCH   1  36
ATOM     36  C   UNL     1     -46.337  33.388  25.152  1.00  0.00     0.010 A 
ATOM     37  C   UNL     1     -46.339  32.466  26.189  1.00  0.00     0.034 A 
ATOM     38  C   UNL     1     -46.598  34.728  25.477  1.00  0.00    -0.028 A 
ATOM     39  N   UNL     1     -46.567  32.790  27.477  1.00  0.00    -0.262 NA
ATOM     40  H   UNL     1     -46.154  31.410  26.015  1.00  0.00     0.084 H 
ATOM     41  C   UNL     1     -46.828  35.110  26.807  1.00  0.00     0.066 A 
ATOM     42  H   UNL     1     -46.623  35.443  24.660  1.00  0.00     0.065 H 
ATOM     43  C   UNL     1     -46.804  34.099  27.759  1.00  0.00     0.051 A 
ATOM     44  H   UNL     1     -46.952  34.270  28.818  1.00  0.00     0.086 H 
BRANCH  41  45
ATOM     45  N   UNL     1     -47.066  36.479  27.154  1.00  0.00    -0.299 N 
ATOM     46  C   UNL     1     -46.105  37.480  27.144  1.00  0.00     0.018 A 
ATOM     47  C   UNL     1     -48.261  37.065  27.568  1.00  0.00     0.150 A 
ATOM     48  C   UNL     1     -46.659  38.689  27.528  1.00  0.00     0.012 A 
ATOM     49  H   UNL     1     -45.079  37.263  26.887  1.00  0.00     0.083 H 
ATOM     50  C   UNL     1     -48.036  38.419  27.803  1.00  0.00     0.067 A 
ATOM     51  N   UNL     1     -49.452  36.447  27.710  1.00  0.00    -0.218 NA
ATOM     52  C   UNL     1     -49.137  39.181  28.234  1.00  0.00     0.136 A 
ATOM     53  C   UNL     1     -50.422  37.274  28.122  1.00  0.00     0.120 A 
ATOM     54  N   UNL     1     -50.332  38.587  28.385  1.00  0.00    -0.219 NA
ATOM     55  H   UNL     1     -51.403  36.829  28.258  1.00  0.00     0.106 H 
BRANCH  48  56
ATOM     56  C   UNL     1     -45.970  40.013  27.679  1.00  0.00     0.085 C 
ATOM     57  C   UNL     1     -44.472  40.012  27.389  1.00  0.00    -0.020 C 
ATOM     58  O   UNL     1     -46.536  41.012  26.798  1.00  0.00    -0.373 OA
ATOM     59  H   UNL     1     -46.136  40.373  28.703  1.00  0.00     0.066 H 
ATOM     60  C   UNL     1     -44.224  41.453  27.021  1.00  0.00    -0.027 C 
ATOM     61  H   UNL     1     -43.874  39.672  28.240  1.00  0.00     0.030 H 
ATOM     62  H   UNL     1     -44.228  39.378  26.528  1.00  0.00     0.030 H 
ATOM     63  C   UNL     1     -45.467  41.779  26.225  1.00  0.00     0.048 C 
ATOM     64  H   UNL     1     -44.185  42.067  27.929  1.00  0.00     0.029 H 
ATOM     65  H   UNL     1     -43.301  41.611  26.457  1.00  0.00     0.029 H 
ATOM     66  H   UNL     1     -45.719  42.842  26.256  1.00  0.00     0.057 H 
ATOM     67  H   UNL     1     -45.360  41.475  25.179  1.00  0.00     0.057 H 
ENDBRANCH  48  56
BRANCH  52  68
ATOM     68  N   UNL     1     -49.073  40.545  28.498  1.00  0.00    -0.383 N 
ATOM     69  H   UNL     1     -49.941  41.026  28.261  1.00  0.00     0.158 HD
ATOM     70  H   UNL     1     -48.733  40.701  29.439  1.00  0.00     0.158 HD
ENDBRANCH  52  68
ENDBRANCH  41  45
ENDBRANCH   1  36
TORSDOF 9
ENDMDL
MODEL 4
REMARK VINA RESULT:      -9.3      2.299      3.327
REMARK SMILES CCc1cc(N2CCC2)nc2cc(F)cc(OCc3cncc(-n4cc([C@H]5CCCO5)c5c(N)ncnc54)c3)c12
REMARK SMILES IDX 18 1 17 4 16 5 3 6 4 7 40 8 5 9 11 11 10 12 12 13 15 14
REMARK SMILES IDX 13 15 14 18 2 19 1 22 6 26 7 27 9 28 8 29 19 36 20 37 39 38
REMARK SMILES IDX 21 39 23 41 22 43 24 45 25 46 38 47 26 48 32 50 37 51 33 52
REMARK SMILES IDX 36 53 35 54 27 56 28 57 31 58 29 60 30 63 34 68
REMARK H PARENT 18 2 18 3 4 10 12 16 15 17 2 20 2 21 1 23 1 24 1 25 7 30 7 31
REMARK H PARENT 9 32 9 33 8 34 8 35 20 40 39 42 22 44 25 49 36 55 27 59 28 61
REMARK H PARENT 28 62 29 64 29 65 30 66 30 67 34 69 34 70
REMARK Flexibility Score: inf
ROOT
ATOM      1  C   UNL     1     -45.692  36.411  27.884  1.00  0.00     0.115 C 
ATOM      2  H   UNL     1     -45.032  36.524  27.017  1.00  0.00     0.076 H 
ATOM      3  H   UNL     1     -45.189  35.820  28.659  1.00  0.00     0.076 H 
ENDROOT
BRANCH   1   4
ATOM      4  O   UNL     1     -46.056  37.691  28.405  1.00  0.00    -0.488 OA
BRANCH   4   5
ATOM      5  C   UNL     1     -45.046  38.572  28.701  1.00  0.00     0.132 A 
ATOM      6  C   UNL     1     -45.826  40.181  26.854  1.00  0.00    -0.031 A 
ATOM      7  C   UNL     1     -45.561  41.383  26.173  1.00  0.00    -0.015 A 
ATOM      8  C   UNL     1     -44.951  39.765  27.905  1.00  0.00     0.046 A 
ATOM      9  C   UNL     1     -44.472  42.163  26.521  1.00  0.00     0.129 A 
ATOM     10  H   UNL     1     -46.220  41.712  25.374  1.00  0.00     0.066 H 
ATOM     11  C   UNL     1     -43.879  40.652  28.183  1.00  0.00     0.080 A 
ATOM     12  N   UNL     1     -43.654  41.796  27.523  1.00  0.00    -0.231 NA
ATOM     13  C   UNL     1     -42.977  40.360  29.188  1.00  0.00     0.000 A 
ATOM     14  C   UNL     1     -44.109  38.300  29.701  1.00  0.00     0.017 A 
ATOM     15  C   UNL     1     -43.089  39.202  29.936  1.00  0.00     0.129 A 
ATOM     16  H   UNL     1     -42.160  41.046  29.396  1.00  0.00     0.068 H 
ATOM     17  H   UNL     1     -44.128  37.398  30.300  1.00  0.00     0.069 H 
ATOM     18  F   UNL     1     -42.191  38.943  30.894  1.00  0.00    -0.207 F 
BRANCH   6  19
ATOM     19  C   UNL     1     -47.045  39.408  26.394  1.00  0.00    -0.030 C 
ATOM     20  H   UNL     1     -46.921  38.346  26.648  1.00  0.00     0.031 H 
ATOM     21  H   UNL     1     -47.124  39.407  25.304  1.00  0.00     0.031 H 
BRANCH  19  22
ATOM     22  C   UNL     1     -48.325  39.909  27.049  1.00  0.00    -0.061 C 
ATOM     23  H   UNL     1     -48.809  40.654  26.410  1.00  0.00     0.023 H 
ATOM     24  H   UNL     1     -48.134  40.369  28.023  1.00  0.00     0.023 H 
ATOM     25  H   UNL     1     -49.034  39.089  27.205  1.00  0.00     0.023 H 
ENDBRANCH  19  22
ENDBRANCH   6  19
BRANCH   9  26
ATOM     26  N   UNL     1     -44.220  43.371  25.848  1.00  0.00    -0.356 N 
ATOM     27  C   UNL     1     -45.020  44.556  25.984  1.00  0.00     0.021 C 
ATOM     28  C   UNL     1     -42.995  44.116  25.858  1.00  0.00     0.021 C 
ATOM     29  C   UNL     1     -43.826  45.320  25.401  1.00  0.00    -0.018 C 
ATOM     30  H   UNL     1     -45.257  44.797  27.026  1.00  0.00     0.049 H 
ATOM     31  H   UNL     1     -45.925  44.544  25.372  1.00  0.00     0.049 H 
ATOM     32  H   UNL     1     -42.255  43.752  25.141  1.00  0.00     0.049 H 
ATOM     33  H   UNL     1     -42.557  44.207  26.857  1.00  0.00     0.049 H 
ATOM     34  H   UNL     1     -43.864  45.457  24.316  1.00  0.00     0.030 H 
ATOM     35  H   UNL     1     -43.589  46.273  25.883  1.00  0.00     0.030 H 
ENDBRANCH   9  26
ENDBRANCH   4   5
ENDBRANCH   1   4
BRANCH   1  36
ATOM     36  C   UNL     1     -46.945  35.711  27.432  1.00  0.00     0.010 A 
ATOM     37  C   UNL     1     -48.194  36.281  27.629  1.00  0.00     0.034 A 
ATOM     38  C   UNL     1     -46.899  34.444  26.830  1.00  0.00    -0.028 A 
ATOM     39  N   UNL     1     -49.351  35.691  27.268  1.00  0.00    -0.262 NA
ATOM     40  H   UNL     1     -48.311  37.254  28.096  1.00  0.00     0.084 H 
ATOM     41  C   UNL     1     -48.079  33.800  26.427  1.00  0.00     0.066 A 
ATOM     42  H   UNL     1     -45.922  33.988  26.702  1.00  0.00     0.065 H 
ATOM     43  C   UNL     1     -49.270  34.470  26.675  1.00  0.00     0.051 A 
ATOM     44  H   UNL     1     -50.243  34.083  26.397  1.00  0.00     0.086 H 
BRANCH  41  45
ATOM     45  N   UNL     1     -48.042  32.521  25.785  1.00  0.00    -0.299 N 
ATOM     46  C   UNL     1     -48.801  31.421  26.161  1.00  0.00     0.018 A 
ATOM     47  C   UNL     1     -47.259  32.124  24.702  1.00  0.00     0.150 A 
ATOM     48  C   UNL     1     -48.533  30.341  25.339  1.00  0.00     0.012 A 
ATOM     49  H   UNL     1     -49.469  31.470  27.009  1.00  0.00     0.083 H 
ATOM     50  C   UNL     1     -47.543  30.792  24.411  1.00  0.00     0.067 A 
ATOM     51  N   UNL     1     -46.379  32.889  24.025  1.00  0.00    -0.218 NA
ATOM     52  C   UNL     1     -46.842  30.212  23.338  1.00  0.00     0.136 A 
ATOM     53  C   UNL     1     -45.776  32.229  23.027  1.00  0.00     0.120 A 
ATOM     54  N   UNL     1     -45.957  30.955  22.650  1.00  0.00    -0.219 NA
ATOM     55  H   UNL     1     -45.052  32.796  22.449  1.00  0.00     0.106 H 
BRANCH  48  56
ATOM     56  C   UNL     1     -49.111  28.959  25.414  1.00  0.00     0.085 C 
ATOM     57  C   UNL     1     -49.945  28.527  24.212  1.00  0.00    -0.020 C 
ATOM     58  O   UNL     1     -48.076  27.955  25.550  1.00  0.00    -0.373 OA
ATOM     59  H   UNL     1     -49.727  28.891  26.321  1.00  0.00     0.066 H 
ATOM     60  C   UNL     1     -49.841  27.024  24.283  1.00  0.00    -0.027 C 
ATOM     61  H   UNL     1     -50.975  28.894  24.255  1.00  0.00     0.030 H 
ATOM     62  H   UNL     1     -49.501  28.869  23.269  1.00  0.00     0.030 H 
ATOM     63  C   UNL     1     -48.402  26.841  24.707  1.00  0.00     0.048 C 
ATOM     64  H   UNL     1     -50.515  26.641  25.059  1.00  0.00     0.029 H 
ATOM     65  H   UNL     1     -50.077  26.521  23.342  1.00  0.00     0.029 H 
ATOM     66  H   UNL     1     -48.240  25.907  25.252  1.00  0.00     0.057 H 
ATOM     67  H   UNL     1     -47.728  26.865  23.845  1.00  0.00     0.057 H 
ENDBRANCH  48  56
BRANCH  52  68
ATOM     68  N   UNL     1     -47.023  28.899  22.920  1.00  0.00    -0.383 N 
ATOM     69  H   UNL     1     -48.008  28.631  22.903  1.00  0.00     0.158 HD
ATOM     70  H   UNL     1     -46.513  28.733  22.061  1.00  0.00     0.158 HD
ENDBRANCH  52  68
ENDBRANCH  41  45
ENDBRANCH   1  36
TORSDOF 9
ENDMDL
MODEL 5
REMARK VINA RESULT:      -9.3      2.502      3.459
REMARK SMILES CCc1cc(N2CCC2)nc2cc(F)cc(OCc3cncc(-n4cc([C@H]5CCCO5)c5c(N)ncnc54)c3)c12
REMARK SMILES IDX 18 1 17 4 16 5 3 6 4 7 40 8 5 9 11 11 10 12 12 13 15 14
REMARK SMILES IDX 13 15 14 18 2 19 1 22 6 26 7 27 9 28 8 29 19 36 20 37 39 38
REMARK SMILES IDX 21 39 23 41 22 43 24 45 25 46 38 47 26 48 32 50 37 51 33 52
REMARK SMILES IDX 36 53 35 54 27 56 28 57 31 58 29 60 30 63 34 68
REMARK H PARENT 18 2 18 3 4 10 12 16 15 17 2 20 2 21 1 23 1 24 1 25 7 30 7 31
REMARK H PARENT 9 32 9 33 8 34 8 35 20 40 39 42 22 44 25 49 36 55 27 59 28 61
REMARK H PARENT 28 62 29 64 29 65 30 66 30 67 34 69 34 70
REMARK Flexibility Score: inf
ROOT
ATOM      1  C   UNL     1     -48.855  36.237  27.508  1.00  0.00     0.115 C 
ATOM      2  H   UNL     1     -49.728  35.988  28.122  1.00  0.00     0.076 H 
ATOM      3  H   UNL     1     -49.183  36.578  26.517  1.00  0.00     0.076 H 
ENDROOT
BRANCH   1   4
ATOM      4  O   UNL     1     -48.074  37.253  28.140  1.00  0.00    -0.488 OA
BRANCH   4   5
ATOM      5  C   UNL     1     -48.337  38.560  27.812  1.00  0.00     0.132 A 
ATOM      6  C   UNL     1     -45.850  39.000  27.328  1.00  0.00    -0.031 A 
ATOM      7  C   UNL     1     -44.890  39.963  26.969  1.00  0.00    -0.015 A 
ATOM      8  C   UNL     1     -47.221  39.389  27.445  1.00  0.00     0.046 A 
ATOM      9  C   UNL     1     -45.266  41.272  26.719  1.00  0.00     0.129 A 
ATOM     10  H   UNL     1     -43.845  39.681  26.873  1.00  0.00     0.066 H 
ATOM     11  C   UNL     1     -47.488  40.751  27.150  1.00  0.00     0.080 A 
ATOM     12  N   UNL     1     -46.555  41.646  26.803  1.00  0.00    -0.231 NA
ATOM     13  C   UNL     1     -48.781  41.236  27.217  1.00  0.00     0.000 A 
ATOM     14  C   UNL     1     -49.628  39.085  27.882  1.00  0.00     0.017 A 
ATOM     15  C   UNL     1     -49.834  40.418  27.578  1.00  0.00     0.129 A 
ATOM     16  H   UNL     1     -48.976  42.280  26.988  1.00  0.00     0.068 H 
ATOM     17  H   UNL     1     -50.489  38.502  28.185  1.00  0.00     0.069 H 
ATOM     18  F   UNL     1     -51.072  40.923  27.644  1.00  0.00    -0.207 F 
BRANCH   6  19
ATOM     19  C   UNL     1     -45.330  37.598  27.574  1.00  0.00    -0.030 C 
ATOM     20  H   UNL     1     -44.479  37.404  26.908  1.00  0.00     0.031 H 
ATOM     21  H   UNL     1     -46.067  36.846  27.282  1.00  0.00     0.031 H 
BRANCH  19  22
ATOM     22  C   UNL     1     -44.866  37.402  29.011  1.00  0.00    -0.061 C 
ATOM     23  H   UNL     1     -43.890  37.875  29.160  1.00  0.00     0.023 H 
ATOM     24  H   UNL     1     -44.774  36.343  29.272  1.00  0.00     0.023 H 
ATOM     25  H   UNL     1     -45.571  37.855  29.717  1.00  0.00     0.023 H 
ENDBRANCH  19  22
ENDBRANCH   6  19
BRANCH   9  26
ATOM     26  N   UNL     1     -44.305  42.228  26.345  1.00  0.00    -0.356 N 
ATOM     27  C   UNL     1     -42.924  42.183  26.736  1.00  0.00     0.021 C 
ATOM     28  C   UNL     1     -43.983  42.640  25.010  1.00  0.00     0.021 C 
ATOM     29  C   UNL     1     -42.659  43.158  25.583  1.00  0.00    -0.018 C 
ATOM     30  H   UNL     1     -42.475  41.192  26.614  1.00  0.00     0.049 H 
ATOM     31  H   UNL     1     -42.743  42.572  27.741  1.00  0.00     0.049 H 
ATOM     32  H   UNL     1     -44.658  43.402  24.612  1.00  0.00     0.049 H 
ATOM     33  H   UNL     1     -43.891  41.800  24.314  1.00  0.00     0.049 H 
ATOM     34  H   UNL     1     -42.675  44.213  25.872  1.00  0.00     0.030 H 
ATOM     35  H   UNL     1     -41.769  42.954  24.983  1.00  0.00     0.030 H 
ENDBRANCH   9  26
ENDBRANCH   4   5
ENDBRANCH   1   4
BRANCH   1  36
ATOM     36  C   UNL     1     -48.007  35.002  27.375  1.00  0.00     0.010 A 
ATOM     37  C   UNL     1     -46.904  34.800  28.191  1.00  0.00     0.034 A 
ATOM     38  C   UNL     1     -48.277  34.029  26.400  1.00  0.00    -0.028 A 
ATOM     39  N   UNL     1     -46.094  33.726  28.103  1.00  0.00    -0.262 NA
ATOM     40  H   UNL     1     -46.626  35.512  28.963  1.00  0.00     0.084 H 
ATOM     41  C   UNL     1     -47.467  32.890  26.282  1.00  0.00     0.066 A 
ATOM     42  H   UNL     1     -49.124  34.203  25.744  1.00  0.00     0.065 H 
ATOM     43  C   UNL     1     -46.391  32.796  27.157  1.00  0.00     0.051 A 
ATOM     44  H   UNL     1     -45.705  31.959  27.173  1.00  0.00     0.086 H 
BRANCH  41  45
ATOM     45  N   UNL     1     -47.750  31.877  25.310  1.00  0.00    -0.299 N 
ATOM     46  C   UNL     1     -48.651  30.836  25.487  1.00  0.00     0.018 A 
ATOM     47  C   UNL     1     -47.194  31.724  24.041  1.00  0.00     0.150 A 
ATOM     48  C   UNL     1     -48.693  30.034  24.360  1.00  0.00     0.012 A 
ATOM     49  H   UNL     1     -49.189  30.718  26.416  1.00  0.00     0.083 H 
ATOM     50  C   UNL     1     -47.757  30.601  23.440  1.00  0.00     0.067 A 
ATOM     51  N   UNL     1     -46.275  32.526  23.465  1.00  0.00    -0.218 NA
ATOM     52  C   UNL     1     -47.313  30.284  22.143  1.00  0.00     0.136 A 
ATOM     53  C   UNL     1     -45.934  32.125  22.233  1.00  0.00     0.120 A 
ATOM     54  N   UNL     1     -46.396  31.067  21.551  1.00  0.00    -0.219 NA
ATOM     55  H   UNL     1     -45.192  32.732  21.722  1.00  0.00     0.106 H 
BRANCH  48  56
ATOM     56  C   UNL     1     -49.506  28.792  24.142  1.00  0.00     0.085 C 
ATOM     57  C   UNL     1     -48.726  27.482  24.156  1.00  0.00    -0.020 C 
ATOM     58  O   UNL     1     -50.534  28.644  25.152  1.00  0.00    -0.373 OA
ATOM     59  H   UNL     1     -50.030  28.887  23.181  1.00  0.00     0.066 H 
ATOM     60  C   UNL     1     -49.793  26.486  24.533  1.00  0.00    -0.027 C 
ATOM     61  H   UNL     1     -48.246  27.262  23.197  1.00  0.00     0.030 H 
ATOM     62  H   UNL     1     -47.951  27.482  24.932  1.00  0.00     0.030 H 
ATOM     63  C   UNL     1     -50.588  27.268  25.553  1.00  0.00     0.048 C 
ATOM     64  H   UNL     1     -50.417  26.261  23.659  1.00  0.00     0.029 H 
ATOM     65  H   UNL     1     -49.399  25.546  24.927  1.00  0.00     0.029 H 
ATOM     66  H   UNL     1     -51.631  26.942  25.613  1.00  0.00     0.057 H 
ATOM     67  H   UNL     1     -50.141  27.192  26.549  1.00  0.00     0.057 H 
ENDBRANCH  48  56
BRANCH  52  68
ATOM     68  N   UNL     1     -47.788  29.203  21.410  1.00  0.00    -0.383 N 
ATOM     69  H   UNL     1     -47.243  28.355  21.574  1.00  0.00     0.158 HD
ATOM     70  H   UNL     1     -48.788  29.108  21.537  1.00  0.00     0.158 HD
ENDBRANCH  52  68
ENDBRANCH  41  45
ENDBRANCH   1  36
TORSDOF 9
ENDMDL
MODEL 6
REMARK VINA RESULT:      -9.0      2.562      4.071
REMARK SMILES CCc1cc(N2CCC2)nc2cc(F)cc(OCc3cncc(-n4cc([C@H]5CCCO5)c5c(N)ncnc54)c3)c12
REMARK SMILES IDX 18 1 17 4 16 5 3 6 4 7 40 8 5 9 11 11 10 12 12 13 15 14
REMARK SMILES IDX 13 15 14 18 2 19 1 22 6 26 7 27 9 28 8 29 19 36 20 37 39 38
REMARK SMILES IDX 21 39 23 41 22 43 24 45 25 46 38 47 26 48 32 50 37 51 33 52
REMARK SMILES IDX 36 53 35 54 27 56 28 57 31 58 29 60 30 63 34 68
REMARK H PARENT 18 2 18 3 4 10 12 16 15 17 2 20 2 21 1 23 1 24 1 25 7 30 7 31
REMARK H PARENT 9 32 9 33 8 34 8 35 20 40 39 42 22 44 25 49 36 55 27 59 28 61
REMARK H PARENT 28 62 29 64 29 65 30 66 30 67 34 69 34 70
REMARK Flexibility Score: inf
ROOT
ATOM      1  C   UNL     1     -47.513  34.707  27.479  1.00  0.00     0.115 C 
ATOM      2  H   UNL     1     -46.537  34.991  27.890  1.00  0.00     0.076 H 
ATOM      3  H   UNL     1     -48.096  34.174  28.240  1.00  0.00     0.076 H 
ENDROOT
BRANCH   1   4
ATOM      4  O   UNL     1     -48.225  35.866  27.041  1.00  0.00    -0.488 OA
BRANCH   4   5
ATOM      5  C   UNL     1     -47.724  37.095  27.389  1.00  0.00     0.132 A 
ATOM      6  C   UNL     1     -50.072  37.947  27.998  1.00  0.00    -0.031 A 
ATOM      7  C   UNL     1     -50.832  39.051  28.425  1.00  0.00    -0.015 A 
ATOM      8  C   UNL     1     -48.660  38.095  27.827  1.00  0.00     0.046 A 
ATOM      9  C   UNL     1     -50.221  40.266  28.688  1.00  0.00     0.129 A 
ATOM     10  H   UNL     1     -51.905  38.953  28.562  1.00  0.00     0.066 H 
ATOM     11  C   UNL     1     -48.146  39.379  28.142  1.00  0.00     0.080 A 
ATOM     12  N   UNL     1     -48.892  40.412  28.555  1.00  0.00    -0.231 NA
ATOM     13  C   UNL     1     -46.792  39.632  28.027  1.00  0.00     0.000 A 
ATOM     14  C   UNL     1     -46.364  37.389  27.271  1.00  0.00     0.017 A 
ATOM     15  C   UNL     1     -45.914  38.655  27.598  1.00  0.00     0.129 A 
ATOM     16  H   UNL     1     -46.406  40.618  28.273  1.00  0.00     0.068 H 
ATOM     17  H   UNL     1     -45.633  36.675  26.914  1.00  0.00     0.069 H 
ATOM     18  F   UNL     1     -44.610  38.937  27.486  1.00  0.00    -0.207 F 
BRANCH   6  19
ATOM     19  C   UNL     1     -50.840  36.667  27.742  1.00  0.00    -0.030 C 
ATOM     20  H   UNL     1     -50.562  35.918  28.495  1.00  0.00     0.031 H 
ATOM     21  H   UNL     1     -50.540  36.209  26.796  1.00  0.00     0.031 H 
BRANCH  19  22
ATOM     22  C   UNL     1     -52.346  36.876  27.811  1.00  0.00    -0.061 C 
ATOM     23  H   UNL     1     -52.629  37.769  27.245  1.00  0.00     0.023 H 
ATOM     24  H   UNL     1     -52.697  37.002  28.840  1.00  0.00     0.023 H 
ATOM     25  H   UNL     1     -52.882  36.023  27.383  1.00  0.00     0.023 H 
ENDBRANCH  19  22
ENDBRANCH   6  19
BRANCH   9  26
ATOM     26  N   UNL     1     -50.983  41.362  29.130  1.00  0.00    -0.356 N 
ATOM     27  C   UNL     1     -50.822  42.706  28.649  1.00  0.00     0.021 C 
ATOM     28  C   UNL     1     -52.413  41.463  29.134  1.00  0.00     0.021 C 
ATOM     29  C   UNL     1     -52.218  42.981  29.220  1.00  0.00    -0.018 C 
ATOM     30  H   UNL     1     -50.751  42.766  27.558  1.00  0.00     0.049 H 
ATOM     31  H   UNL     1     -49.997  43.242  29.124  1.00  0.00     0.049 H 
ATOM     32  H   UNL     1     -52.883  40.996  30.003  1.00  0.00     0.049 H 
ATOM     33  H   UNL     1     -52.870  41.106  28.206  1.00  0.00     0.049 H 
ATOM     34  H   UNL     1     -52.217  43.379  30.240  1.00  0.00     0.030 H 
ATOM     35  H   UNL     1     -52.879  43.583  28.592  1.00  0.00     0.030 H 
ENDBRANCH   9  26
ENDBRANCH   4   5
ENDBRANCH   1   4
BRANCH   1  36
ATOM     36  C   UNL     1     -47.280  33.817  26.288  1.00  0.00     0.010 A 
ATOM     37  C   UNL     1     -46.407  34.188  25.277  1.00  0.00     0.034 A 
ATOM     38  C   UNL     1     -47.963  32.600  26.139  1.00  0.00    -0.028 A 
ATOM     39  N   UNL     1     -46.177  33.444  24.177  1.00  0.00    -0.262 NA
ATOM     40  H   UNL     1     -45.848  35.118  25.317  1.00  0.00     0.084 H 
ATOM     41  C   UNL     1     -47.744  31.789  25.016  1.00  0.00     0.066 A 
ATOM     42  H   UNL     1     -48.668  32.325  26.919  1.00  0.00     0.065 H 
ATOM     43  C   UNL     1     -46.844  32.264  24.070  1.00  0.00     0.051 A 
ATOM     44  H   UNL     1     -46.581  31.723  23.170  1.00  0.00     0.086 H 
BRANCH  41  45
ATOM     45  N   UNL     1     -48.414  30.532  24.868  1.00  0.00    -0.299 N 
ATOM     46  C   UNL     1     -47.864  29.297  25.183  1.00  0.00     0.018 A 
ATOM     47  C   UNL     1     -49.699  30.294  24.384  1.00  0.00     0.150 A 
ATOM     48  C   UNL     1     -48.770  28.283  24.926  1.00  0.00     0.012 A 
ATOM     49  H   UNL     1     -46.851  29.216  25.549  1.00  0.00     0.083 H 
ATOM     50  C   UNL     1     -49.940  28.923  24.411  1.00  0.00     0.067 A 
ATOM     51  N   UNL     1     -50.585  31.223  23.969  1.00  0.00    -0.218 NA
ATOM     52  C   UNL     1     -51.197  28.489  23.954  1.00  0.00     0.136 A 
ATOM     53  C   UNL     1     -51.744  30.691  23.561  1.00  0.00     0.120 A 
ATOM     54  N   UNL     1     -52.095  29.396  23.532  1.00  0.00    -0.219 NA
ATOM     55  H   UNL     1     -52.495  31.393  23.210  1.00  0.00     0.106 H 
BRANCH  48  56
ATOM     56  C   UNL     1     -48.573  26.805  25.097  1.00  0.00     0.085 C 
ATOM     57  C   UNL     1     -47.150  26.364  25.424  1.00  0.00    -0.020 C 
ATOM     58  O   UNL     1     -49.398  26.278  26.164  1.00  0.00    -0.373 OA
ATOM     59  H   UNL     1     -48.902  26.304  24.177  1.00  0.00     0.066 H 
ATOM     60  C   UNL     1     -47.382  25.044  26.115  1.00  0.00    -0.027 C 
ATOM     61  H   UNL     1     -46.515  26.284  24.536  1.00  0.00     0.030 H 
ATOM     62  H   UNL     1     -46.665  27.052  26.127  1.00  0.00     0.030 H 
ATOM     63  C   UNL     1     -48.621  25.343  26.926  1.00  0.00     0.048 C 
ATOM     64  H   UNL     1     -47.596  24.267  25.370  1.00  0.00     0.029 H 
ATOM     65  H   UNL     1     -46.540  24.712  26.727  1.00  0.00     0.029 H 
ATOM     66  H   UNL     1     -49.217  24.448  27.129  1.00  0.00     0.057 H 
ATOM     67  H   UNL     1     -48.368  25.817  27.879  1.00  0.00     0.057 H 
ENDBRANCH  48  56
BRANCH  52  68
ATOM     68  N   UNL     1     -51.589  27.155  23.929  1.00  0.00    -0.383 N 
ATOM     69  H   UNL     1     -51.476  26.702  24.836  1.00  0.00     0.158 HD
ATOM     70  H   UNL     1     -52.508  27.070  23.512  1.00  0.00     0.158 HD
ENDBRANCH  52  68
ENDBRANCH  41  45
ENDBRANCH   1  36
TORSDOF 9
ENDMDL
MODEL 7
REMARK VINA RESULT:      -8.7      2.734     11.441
REMARK SMILES CCc1cc(N2CCC2)nc2cc(F)cc(OCc3cncc(-n4cc([C@H]5CCCO5)c5c(N)ncnc54)c3)c12
REMARK SMILES IDX 18 1 17 4 16 5 3 6 4 7 40 8 5 9 11 11 10 12 12 13 15 14
REMARK SMILES IDX 13 15 14 18 2 19 1 22 6 26 7 27 9 28 8 29 19 36 20 37 39 38
REMARK SMILES IDX 21 39 23 41 22 43 24 45 25 46 38 47 26 48 32 50 37 51 33 52
REMARK SMILES IDX 36 53 35 54 27 56 28 57 31 58 29 60 30 63 34 68
REMARK H PARENT 18 2 18 3 4 10 12 16 15 17 2 20 2 21 1 23 1 24 1 25 7 30 7 31
REMARK H PARENT 9 32 9 33 8 34 8 35 20 40 39 42 22 44 25 49 36 55 27 59 28 61
REMARK H PARENT 28 62 29 64 29 65 30 66 30 67 34 69 34 70
REMARK Flexibility Score: inf
ROOT
ATOM      1  C   UNL     1     -45.808  34.604  27.843  1.00  0.00     0.115 C 
ATOM      2  H   UNL     1     -46.354  33.883  28.462  1.00  0.00     0.076 H 
ATOM      3  H   UNL     1     -44.799  34.225  27.634  1.00  0.00     0.076 H 
ENDROOT
BRANCH   1   4
ATOM      4  O   UNL     1     -46.505  34.839  26.618  1.00  0.00    -0.488 OA
BRANCH   4   5
ATOM      5  C   UNL     1     -47.874  34.748  26.632  1.00  0.00     0.132 A 
ATOM      6  C   UNL     1     -47.805  32.607  25.210  1.00  0.00    -0.031 A 
ATOM      7  C   UNL     1     -48.568  31.629  24.547  1.00  0.00    -0.015 A 
ATOM      8  C   UNL     1     -48.474  33.658  25.912  1.00  0.00     0.046 A 
ATOM      9  C   UNL     1     -49.951  31.674  24.580  1.00  0.00     0.129 A 
ATOM     10  H   UNL     1     -48.073  30.823  24.012  1.00  0.00     0.066 H 
ATOM     11  C   UNL     1     -49.891  33.591  25.890  1.00  0.00     0.080 A 
ATOM     12  N   UNL     1     -50.593  32.643  25.256  1.00  0.00    -0.231 NA
ATOM     13  C   UNL     1     -50.643  34.547  26.547  1.00  0.00     0.000 A 
ATOM     14  C   UNL     1     -48.663  35.704  27.274  1.00  0.00     0.017 A 
ATOM     15  C   UNL     1     -50.040  35.587  27.228  1.00  0.00     0.129 A 
ATOM     16  H   UNL     1     -51.728  34.486  26.526  1.00  0.00     0.068 H 
ATOM     17  H   UNL     1     -48.251  36.556  27.800  1.00  0.00     0.069 H 
ATOM     18  F   UNL     1     -50.798  36.503  27.843  1.00  0.00    -0.207 F 
BRANCH   6  19
ATOM     19  C   UNL     1     -46.300  32.460  25.112  1.00  0.00    -0.030 C 
ATOM     20  H   UNL     1     -45.929  31.920  25.993  1.00  0.00     0.031 H 
ATOM     21  H   UNL     1     -45.804  33.432  25.174  1.00  0.00     0.031 H 
BRANCH  19  22
ATOM     22  C   UNL     1     -45.878  31.693  23.867  1.00  0.00    -0.061 C 
ATOM     23  H   UNL     1     -46.724  31.593  23.180  1.00  0.00     0.023 H 
ATOM     24  H   UNL     1     -45.515  30.688  24.107  1.00  0.00     0.023 H 
ATOM     25  H   UNL     1     -45.074  32.215  23.337  1.00  0.00     0.023 H 
ENDBRANCH  19  22
ENDBRANCH   6  19
BRANCH   9  26
ATOM     26  N   UNL     1     -50.709  30.685  23.928  1.00  0.00    -0.356 N 
ATOM     27  C   UNL     1     -52.110  30.802  23.632  1.00  0.00     0.021 C 
ATOM     28  C   UNL     1     -50.422  30.086  22.658  1.00  0.00     0.021 C 
ATOM     29  C   UNL     1     -51.898  29.673  22.617  1.00  0.00    -0.018 C 
ATOM     30  H   UNL     1     -52.376  31.771  23.195  1.00  0.00     0.049 H 
ATOM     31  H   UNL     1     -52.756  30.567  24.481  1.00  0.00     0.049 H 
ATOM     32  H   UNL     1     -49.702  29.266  22.712  1.00  0.00     0.049 H 
ATOM     33  H   UNL     1     -50.124  30.816  21.898  1.00  0.00     0.049 H 
ATOM     34  H   UNL     1     -52.097  28.671  23.010  1.00  0.00     0.030 H 
ATOM     35  H   UNL     1     -52.401  29.797  21.655  1.00  0.00     0.030 H 
ENDBRANCH   9  26
ENDBRANCH   4   5
ENDBRANCH   1   4
BRANCH   1  36
ATOM     36  C   UNL     1     -45.725  35.903  28.598  1.00  0.00     0.010 A 
ATOM     37  C   UNL     1     -46.093  35.979  29.933  1.00  0.00     0.034 A 
ATOM     38  C   UNL     1     -45.311  37.088  27.972  1.00  0.00    -0.028 A 
ATOM     39  N   UNL     1     -46.062  37.118  30.653  1.00  0.00    -0.262 NA
ATOM     40  H   UNL     1     -46.432  35.106  30.484  1.00  0.00     0.084 H 
ATOM     41  C   UNL     1     -45.252  38.293  28.688  1.00  0.00     0.066 A 
ATOM     42  H   UNL     1     -45.050  37.032  26.920  1.00  0.00     0.065 H 
ATOM     43  C   UNL     1     -45.643  38.246  30.021  1.00  0.00     0.051 A 
ATOM     44  H   UNL     1     -45.628  39.105  30.680  1.00  0.00     0.086 H 
BRANCH  41  45
ATOM     45  N   UNL     1     -44.803  39.503  28.068  1.00  0.00    -0.299 N 
ATOM     46  C   UNL     1     -45.356  40.061  26.923  1.00  0.00     0.018 A 
ATOM     47  C   UNL     1     -43.753  40.332  28.459  1.00  0.00     0.150 A 
ATOM     48  C   UNL     1     -44.694  41.229  26.585  1.00  0.00     0.012 A 
ATOM     49  H   UNL     1     -46.172  39.578  26.407  1.00  0.00     0.083 H 
ATOM     50  C   UNL     1     -43.668  41.396  27.565  1.00  0.00     0.067 A 
ATOM     51  N   UNL     1     -42.951  40.160  29.529  1.00  0.00    -0.218 NA
ATOM     52  C   UNL     1     -42.656  42.345  27.801  1.00  0.00     0.136 A 
ATOM     53  C   UNL     1     -42.030  41.125  29.651  1.00  0.00     0.120 A 
ATOM     54  N   UNL     1     -41.843  42.192  28.860  1.00  0.00    -0.219 NA
ATOM     55  H   UNL     1     -41.352  41.035  30.494  1.00  0.00     0.106 H 
BRANCH  48  56
ATOM     56  C   UNL     1     -44.951  42.126  25.410  1.00  0.00     0.085 C 
ATOM     57  C   UNL     1     -45.466  43.522  25.747  1.00  0.00    -0.020 C 
ATOM     58  O   UNL     1     -43.751  42.334  24.626  1.00  0.00    -0.373 OA
ATOM     59  H   UNL     1     -45.670  41.629  24.746  1.00  0.00     0.066 H 
ATOM     60  C   UNL     1     -45.039  44.314  24.537  1.00  0.00    -0.027 C 
ATOM     61  H   UNL     1     -46.546  43.545  25.923  1.00  0.00     0.030 H 
ATOM     62  H   UNL     1     -44.968  43.933  26.634  1.00  0.00     0.030 H 
ATOM     63  C   UNL     1     -43.681  43.716  24.249  1.00  0.00     0.048 C 
ATOM     64  H   UNL     1     -45.723  44.116  23.703  1.00  0.00     0.029 H 
ATOM     65  H   UNL     1     -45.005  45.393  24.706  1.00  0.00     0.029 H 
ATOM     66  H   UNL     1     -43.401  43.797  23.196  1.00  0.00     0.057 H 
ATOM     67  H   UNL     1     -42.902  44.189  24.856  1.00  0.00     0.057 H 
ENDBRANCH  48  56
BRANCH  52  68
ATOM     68  N   UNL     1     -42.452  43.466  27.005  1.00  0.00    -0.383 N 
ATOM     69  H   UNL     1     -42.234  43.220  26.039  1.00  0.00     0.158 HD
ATOM     70  H   UNL     1     -43.213  44.122  27.125  1.00  0.00     0.158 HD
ENDBRANCH  52  68
ENDBRANCH  41  45
ENDBRANCH   1  36
TORSDOF 9
ENDMDL
