MODEL 1
REMARK VINA RESULT:      -9.6      0.000      0.000
REMARK SMILES Cn1ccc(-c2cn(-c3cncc(COc4ccc(CN5CCOCC5)c(N)c4)c3)c3ncnc(N)c23)n1
REMARK SMILES IDX 14 1 13 4 9 5 10 6 30 7 11 8 12 11 8 13 6 14 7 15 37 16
REMARK SMILES IDX 31 18 35 19 32 20 34 21 33 22 5 24 2 25 3 26 38 27 4 28 1 31
REMARK SMILES IDX 36 35 15 38 16 39 17 40 29 41 18 42 27 44 19 46 28 48 20 51
REMARK SMILES IDX 21 54 22 55 26 56 23 57 25 60 24 63
REMARK H PARENT 14 2 14 3 10 9 30 10 12 12 7 17 33 23 3 29 4 30 1 32 1 33 1 34
REMARK H PARENT 36 36 36 37 17 43 29 45 18 47 28 49 28 50 20 52 20 53 22 58
REMARK H PARENT 22 59 26 61 26 62 23 64 23 65 25 66 25 67
REMARK Flexibility Score: inf
ROOT
ATOM      1  C   UNL     1     -46.396  34.342  27.396  1.00  0.00     0.115 C 
ATOM      2  H   UNL     1     -45.476  34.247  27.986  1.00  0.00     0.076 H 
ATOM      3  H   UNL     1     -47.096  33.618  27.830  1.00  0.00     0.076 H 
ENDROOT
BRANCH   1   4
ATOM      4  C   UNL     1     -46.924  35.747  27.521  1.00  0.00     0.010 A 
ATOM      5  C   UNL     1     -46.568  38.158  27.534  1.00  0.00     0.066 A 
ATOM      6  C   UNL     1     -47.906  38.279  27.889  1.00  0.00     0.051 A 
ATOM      7  C   UNL     1     -46.087  36.857  27.331  1.00  0.00    -0.028 A 
ATOM      8  N   UNL     1     -48.747  37.226  28.064  1.00  0.00    -0.262 NA
ATOM      9  H   UNL     1     -48.399  39.230  28.049  1.00  0.00     0.086 H 
ATOM     10  H   UNL     1     -45.050  36.661  27.076  1.00  0.00     0.065 H 
ATOM     11  C   UNL     1     -48.235  35.990  27.895  1.00  0.00     0.034 A 
ATOM     12  H   UNL     1     -48.934  35.178  28.082  1.00  0.00     0.084 H 
BRANCH   5  13
ATOM     13  N   UNL     1     -45.700  39.290  27.413  1.00  0.00    -0.299 N 
ATOM     14  C   UNL     1     -44.718  41.120  26.528  1.00  0.00     0.033 A 
ATOM     15  C   UNL     1     -45.753  40.222  26.388  1.00  0.00     0.021 A 
ATOM     16  C   UNL     1     -44.011  40.782  27.712  1.00  0.00     0.071 A 
ATOM     17  H   UNL     1     -46.504  40.175  25.614  1.00  0.00     0.083 H 
ATOM     18  C   UNL     1     -44.638  39.655  28.246  1.00  0.00     0.150 A 
ATOM     19  C   UNL     1     -42.903  41.284  28.418  1.00  0.00     0.137 A 
ATOM     20  N   UNL     1     -44.249  39.017  29.367  1.00  0.00    -0.218 NA
ATOM     21  N   UNL     1     -42.492  40.654  29.533  1.00  0.00    -0.219 NA
ATOM     22  C   UNL     1     -43.179  39.578  29.942  1.00  0.00     0.120 A 
ATOM     23  H   UNL     1     -42.820  39.103  30.850  1.00  0.00     0.106 H 
BRANCH  14  24
ATOM     24  C   UNL     1     -44.392  42.206  25.604  1.00  0.00     0.095 A 
ATOM     25  N   UNL     1     -43.354  43.401  24.203  1.00  0.00    -0.275 N 
ATOM     26  C   UNL     1     -44.593  43.962  24.278  1.00  0.00     0.025 A 
ATOM     27  N   UNL     1     -43.196  42.337  25.016  1.00  0.00    -0.173 NA
ATOM     28  C   UNL     1     -45.301  43.200  25.180  1.00  0.00    -0.016 A 
ATOM     29  H   UNL     1     -44.870  44.826  23.691  1.00  0.00     0.084 H 
ATOM     30  H   UNL     1     -46.327  43.342  25.481  1.00  0.00     0.066 H 
BRANCH  25  31
ATOM     31  C   UNL     1     -42.261  43.815  23.357  1.00  0.00     0.030 C 
ATOM     32  H   UNL     1     -41.641  44.540  23.892  1.00  0.00     0.048 H 
ATOM     33  H   UNL     1     -42.679  44.273  22.456  1.00  0.00     0.048 H 
ATOM     34  H   UNL     1     -41.669  42.933  23.101  1.00  0.00     0.048 H 
ENDBRANCH  25  31
ENDBRANCH  14  24
BRANCH  19  35
ATOM     35  N   UNL     1     -42.181  42.404  28.030  1.00  0.00    -0.383 N 
ATOM     36  H   UNL     1     -41.170  42.253  28.072  1.00  0.00     0.158 HD
ATOM     37  H   UNL     1     -42.531  43.238  28.480  1.00  0.00     0.158 HD
ENDBRANCH  19  35
ENDBRANCH   5  13
ENDBRANCH   1   4
BRANCH   1  38
ATOM     38  O   UNL     1     -46.052  34.027  26.037  1.00  0.00    -0.489 OA
BRANCH  38  39
ATOM     39  C   UNL     1     -46.783  32.988  25.524  1.00  0.00     0.121 A 
ATOM     40  C   UNL     1     -47.942  32.627  26.202  1.00  0.00    -0.019 A 
ATOM     41  C   UNL     1     -46.422  32.334  24.347  1.00  0.00     0.003 A 
ATOM     42  C   UNL     1     -48.723  31.576  25.724  1.00  0.00    -0.052 A 
ATOM     43  H   UNL     1     -48.234  33.160  27.102  1.00  0.00     0.066 H 
ATOM     44  C   UNL     1     -47.163  31.236  23.891  1.00  0.00     0.040 A 
ATOM     45  H   UNL     1     -45.564  32.677  23.779  1.00  0.00     0.068 H 
ATOM     46  C   UNL     1     -48.350  30.874  24.563  1.00  0.00    -0.011 A 
ATOM     47  H   UNL     1     -49.634  31.314  26.259  1.00  0.00     0.063 H 
BRANCH  44  48
ATOM     48  N   UNL     1     -46.826  30.645  22.660  1.00  0.00    -0.398 N 
ATOM     49  H   UNL     1     -46.559  31.309  21.944  1.00  0.00     0.156 HD
ATOM     50  H   UNL     1     -46.106  29.927  22.799  1.00  0.00     0.156 HD
ENDBRANCH  44  48
BRANCH  46  51
ATOM     51  C   UNL     1     -49.263  29.774  24.044  1.00  0.00     0.026 C 
ATOM     52  H   UNL     1     -49.642  30.127  23.075  1.00  0.00     0.048 H 
ATOM     53  H   UNL     1     -50.140  29.673  24.692  1.00  0.00     0.048 H 
BRANCH  51  54
ATOM     54  N   UNL     1     -48.577  28.477  23.862  1.00  0.00    -0.294 NA
ATOM     55  C   UNL     1     -48.433  27.730  25.135  1.00  0.00     0.022 C 
ATOM     56  C   UNL     1     -49.303  27.618  22.900  1.00  0.00     0.022 C 
ATOM     57  C   UNL     1     -49.736  27.093  25.651  1.00  0.00     0.059 C 
ATOM     58  H   UNL     1     -47.713  26.924  24.943  1.00  0.00     0.045 H 
ATOM     59  H   UNL     1     -47.985  28.354  25.915  1.00  0.00     0.045 H 
ATOM     60  C   UNL     1     -50.591  26.990  23.458  1.00  0.00     0.059 C 
ATOM     61  H   UNL     1     -48.620  26.805  22.615  1.00  0.00     0.045 H 
ATOM     62  H   UNL     1     -49.518  28.169  21.977  1.00  0.00     0.045 H 
ATOM     63  O   UNL     1     -50.330  26.248  24.655  1.00  0.00    -0.379 OA
ATOM     64  H   UNL     1     -49.524  26.469  26.523  1.00  0.00     0.058 H 
ATOM     65  H   UNL     1     -50.463  27.851  25.961  1.00  0.00     0.058 H 
ATOM     66  H   UNL     1     -51.357  27.748  23.661  1.00  0.00     0.058 H 
ATOM     67  H   UNL     1     -51.006  26.293  22.723  1.00  0.00     0.058 H 
ENDBRANCH  51  54
ENDBRANCH  46  51
ENDBRANCH  38  39
ENDBRANCH   1  38
TORSDOF 10
ENDMDL
MODEL 2
REMARK VINA RESULT:      -9.5      1.640      2.490
REMARK SMILES Cn1ccc(-c2cn(-c3cncc(COc4ccc(CN5CCOCC5)c(N)c4)c3)c3ncnc(N)c23)n1
REMARK SMILES IDX 14 1 13 4 9 5 10 6 30 7 11 8 12 11 8 13 6 14 7 15 37 16
REMARK SMILES IDX 31 18 35 19 32 20 34 21 33 22 5 24 2 25 3 26 38 27 4 28 1 31
REMARK SMILES IDX 36 35 15 38 16 39 17 40 29 41 18 42 27 44 19 46 28 48 20 51
REMARK SMILES IDX 21 54 22 55 26 56 23 57 25 60 24 63
REMARK H PARENT 14 2 14 3 10 9 30 10 12 12 7 17 33 23 3 29 4 30 1 32 1 33 1 34
REMARK H PARENT 36 36 36 37 17 43 29 45 18 47 28 49 28 50 20 52 20 53 22 58
REMARK H PARENT 22 59 26 61 26 62 23 64 23 65 25 66 25 67
REMARK Flexibility Score: inf
ROOT
ATOM      1  C   UNL     1     -45.917  34.537  27.341  1.00  0.00     0.115 C 
ATOM      2  H   UNL     1     -44.860  34.251  27.280  1.00  0.00     0.076 H 
ATOM      3  H   UNL     1     -46.401  33.741  27.921  1.00  0.00     0.076 H 
ENDROOT
BRANCH   1   4
ATOM      4  C   UNL     1     -46.032  35.864  28.044  1.00  0.00     0.010 A 
ATOM      5  C   UNL     1     -46.005  38.301  28.002  1.00  0.00     0.066 A 
ATOM      6  C   UNL     1     -46.114  38.252  29.387  1.00  0.00     0.051 A 
ATOM      7  C   UNL     1     -45.984  37.071  27.330  1.00  0.00    -0.028 A 
ATOM      8  N   UNL     1     -46.179  37.102  30.107  1.00  0.00    -0.262 NA
ATOM      9  H   UNL     1     -46.165  39.134  30.013  1.00  0.00     0.086 H 
ATOM     10  H   UNL     1     -45.876  37.007  26.252  1.00  0.00     0.065 H 
ATOM     11  C   UNL     1     -46.118  35.940  29.424  1.00  0.00     0.034 A 
ATOM     12  H   UNL     1     -46.136  35.047  30.044  1.00  0.00     0.084 H 
BRANCH   5  13
ATOM     13  N   UNL     1     -45.883  39.533  27.283  1.00  0.00    -0.299 N 
ATOM     14  C   UNL     1     -44.925  41.268  26.202  1.00  0.00     0.033 A 
ATOM     15  C   UNL     1     -44.705  40.018  26.737  1.00  0.00     0.021 A 
ATOM     16  C   UNL     1     -46.302  41.570  26.365  1.00  0.00     0.071 A 
ATOM     17  H   UNL     1     -43.783  39.457  26.784  1.00  0.00     0.083 H 
ATOM     18  C   UNL     1     -46.876  40.483  27.027  1.00  0.00     0.150 A 
ATOM     19  C   UNL     1     -47.159  42.636  26.037  1.00  0.00     0.137 A 
ATOM     20  N   UNL     1     -48.173  40.397  27.382  1.00  0.00    -0.218 NA
ATOM     21  N   UNL     1     -48.454  42.573  26.394  1.00  0.00    -0.219 NA
ATOM     22  C   UNL     1     -48.884  41.474  27.030  1.00  0.00     0.120 A 
ATOM     23  H   UNL     1     -49.937  41.459  27.293  1.00  0.00     0.106 H 
BRANCH  14  24
ATOM     24  C   UNL     1     -43.912  42.136  25.603  1.00  0.00     0.095 A 
ATOM     25  N   UNL     1     -42.913  43.405  24.239  1.00  0.00    -0.275 N 
ATOM     26  C   UNL     1     -42.150  43.449  25.367  1.00  0.00     0.025 A 
ATOM     27  N   UNL     1     -43.986  42.596  24.348  1.00  0.00    -0.173 NA
ATOM     28  C   UNL     1     -42.780  42.637  26.283  1.00  0.00    -0.016 A 
ATOM     29  H   UNL     1     -41.253  44.049  25.432  1.00  0.00     0.084 H 
ATOM     30  H   UNL     1     -42.465  42.441  27.297  1.00  0.00     0.066 H 
BRANCH  25  31
ATOM     31  C   UNL     1     -42.692  44.128  23.010  1.00  0.00     0.030 C 
ATOM     32  H   UNL     1     -42.208  45.083  23.233  1.00  0.00     0.048 H 
ATOM     33  H   UNL     1     -43.660  44.302  22.534  1.00  0.00     0.048 H 
ATOM     34  H   UNL     1     -42.048  43.524  22.366  1.00  0.00     0.048 H 
ENDBRANCH  25  31
ENDBRANCH  14  24
BRANCH  19  35
ATOM     35  N   UNL     1     -46.750  43.780  25.367  1.00  0.00    -0.383 N 
ATOM     36  H   UNL     1     -46.300  43.570  24.472  1.00  0.00     0.158 HD
ATOM     37  H   UNL     1     -46.253  44.408  25.983  1.00  0.00     0.158 HD
ENDBRANCH  19  35
ENDBRANCH   5  13
ENDBRANCH   1   4
BRANCH   1  38
ATOM     38  O   UNL     1     -46.407  34.610  25.993  1.00  0.00    -0.489 OA
BRANCH  38  39
ATOM     39  C   UNL     1     -47.029  33.461  25.583  1.00  0.00     0.121 A 
ATOM     40  C   UNL     1     -48.365  33.299  25.934  1.00  0.00    -0.019 A 
ATOM     41  C   UNL     1     -46.383  32.499  24.808  1.00  0.00     0.003 A 
ATOM     42  C   UNL     1     -49.047  32.147  25.544  1.00  0.00    -0.052 A 
ATOM     43  H   UNL     1     -48.873  34.065  26.513  1.00  0.00     0.066 H 
ATOM     44  C   UNL     1     -47.037  31.310  24.463  1.00  0.00     0.040 A 
ATOM     45  H   UNL     1     -45.367  32.673  24.468  1.00  0.00     0.068 H 
ATOM     46  C   UNL     1     -48.397  31.145  24.800  1.00  0.00    -0.011 A 
ATOM     47  H   UNL     1     -50.095  32.041  25.815  1.00  0.00     0.063 H 
BRANCH  44  48
ATOM     48  N   UNL     1     -46.391  30.393  23.614  1.00  0.00    -0.398 N 
ATOM     49  H   UNL     1     -45.387  30.512  23.567  1.00  0.00     0.156 HD
ATOM     50  H   UNL     1     -46.647  29.433  23.872  1.00  0.00     0.156 HD
ENDBRANCH  44  48
BRANCH  46  51
ATOM     51  C   UNL     1     -49.196  29.933  24.345  1.00  0.00     0.026 C 
ATOM     52  H   UNL     1     -49.400  30.089  23.277  1.00  0.00     0.048 H 
ATOM     53  H   UNL     1     -50.174  29.917  24.838  1.00  0.00     0.048 H 
BRANCH  51  54
ATOM     54  N   UNL     1     -48.479  28.653  24.528  1.00  0.00    -0.294 NA
ATOM     55  C   UNL     1     -48.927  27.922  25.738  1.00  0.00     0.022 C 
ATOM     56  C   UNL     1     -48.661  27.766  23.358  1.00  0.00     0.022 C 
ATOM     57  C   UNL     1     -50.308  27.256  25.607  1.00  0.00     0.059 C 
ATOM     58  H   UNL     1     -48.185  27.135  25.918  1.00  0.00     0.045 H 
ATOM     59  H   UNL     1     -48.902  28.566  26.624  1.00  0.00     0.045 H 
ATOM     60  C   UNL     1     -50.049  27.110  23.269  1.00  0.00     0.059 C 
ATOM     61  H   UNL     1     -47.908  26.969  23.438  1.00  0.00     0.045 H 
ATOM     62  H   UNL     1     -48.435  28.302  22.429  1.00  0.00     0.045 H 
ATOM     63  O   UNL     1     -50.357  26.387  24.466  1.00  0.00    -0.379 OA
ATOM     64  H   UNL     1     -50.512  26.647  26.491  1.00  0.00     0.058 H 
ATOM     65  H   UNL     1     -51.111  27.998  25.529  1.00  0.00     0.058 H 
ATOM     66  H   UNL     1     -50.836  27.848  23.079  1.00  0.00     0.058 H 
ATOM     67  H   UNL     1     -50.063  26.395  22.441  1.00  0.00     0.058 H 
ENDBRANCH  51  54
ENDBRANCH  46  51
ENDBRANCH  38  39
ENDBRANCH   1  38
TORSDOF 10
ENDMDL
MODEL 3
REMARK VINA RESULT:      -9.5      1.706      1.999
REMARK SMILES Cn1ccc(-c2cn(-c3cncc(COc4ccc(CN5CCOCC5)c(N)c4)c3)c3ncnc(N)c23)n1
REMARK SMILES IDX 14 1 13 4 9 5 10 6 30 7 11 8 12 11 8 13 6 14 7 15 37 16
REMARK SMILES IDX 31 18 35 19 32 20 34 21 33 22 5 24 2 25 3 26 38 27 4 28 1 31
REMARK SMILES IDX 36 35 15 38 16 39 17 40 29 41 18 42 27 44 19 46 28 48 20 51
REMARK SMILES IDX 21 54 22 55 26 56 23 57 25 60 24 63
REMARK H PARENT 14 2 14 3 10 9 30 10 12 12 7 17 33 23 3 29 4 30 1 32 1 33 1 34
REMARK H PARENT 36 36 36 37 17 43 29 45 18 47 28 49 28 50 20 52 20 53 22 58
REMARK H PARENT 22 59 26 61 26 62 23 64 23 65 25 66 25 67
REMARK Flexibility Score: inf
ROOT
ATOM      1  C   UNL     1     -47.683  35.469  26.639  1.00  0.00     0.115 C 
ATOM      2  H   UNL     1     -48.627  35.964  26.382  1.00  0.00     0.076 H 
ATOM      3  H   UNL     1     -47.113  35.426  25.704  1.00  0.00     0.076 H 
ENDROOT
BRANCH   1   4
ATOM      4  C   UNL     1     -46.960  36.289  27.676  1.00  0.00     0.010 A 
ATOM      5  C   UNL     1     -45.632  38.235  28.300  1.00  0.00     0.066 A 
ATOM      6  C   UNL     1     -45.543  37.674  29.569  1.00  0.00     0.051 A 
ATOM      7  C   UNL     1     -46.376  37.522  27.350  1.00  0.00    -0.028 A 
ATOM      8  N   UNL     1     -46.110  36.491  29.922  1.00  0.00    -0.262 NA
ATOM      9  H   UNL     1     -45.017  38.141  30.393  1.00  0.00     0.086 H 
ATOM     10  H   UNL     1     -46.481  37.867  26.326  1.00  0.00     0.065 H 
ATOM     11  C   UNL     1     -46.786  35.819  28.968  1.00  0.00     0.034 A 
ATOM     12  H   UNL     1     -47.190  34.861  29.285  1.00  0.00     0.084 H 
BRANCH   5  13
ATOM     13  N   UNL     1     -44.973  39.457  27.952  1.00  0.00    -0.299 N 
ATOM     14  C   UNL     1     -44.409  41.296  26.771  1.00  0.00     0.033 A 
ATOM     15  C   UNL     1     -45.301  40.250  26.864  1.00  0.00     0.021 A 
ATOM     16  C   UNL     1     -43.514  41.197  27.868  1.00  0.00     0.071 A 
ATOM     17  H   UNL     1     -46.128  40.010  26.212  1.00  0.00     0.083 H 
ATOM     18  C   UNL     1     -43.885  40.061  28.588  1.00  0.00     0.150 A 
ATOM     19  C   UNL     1     -42.417  41.929  28.359  1.00  0.00     0.137 A 
ATOM     20  N   UNL     1     -43.262  39.615  29.697  1.00  0.00    -0.218 NA
ATOM     21  N   UNL     1     -41.775  41.493  29.458  1.00  0.00    -0.219 NA
ATOM     22  C   UNL     1     -42.228  40.384  30.059  1.00  0.00     0.120 A 
ATOM     23  H   UNL     1     -41.687  40.070  30.947  1.00  0.00     0.106 H 
BRANCH  14  24
ATOM     24  C   UNL     1     -44.376  42.306  25.714  1.00  0.00     0.095 A 
ATOM     25  N   UNL     1     -43.698  43.512  24.115  1.00  0.00    -0.275 N 
ATOM     26  C   UNL     1     -45.024  43.807  24.227  1.00  0.00     0.025 A 
ATOM     27  N   UNL     1     -43.270  42.611  25.022  1.00  0.00    -0.173 NA
ATOM     28  C   UNL     1     -45.500  43.030  25.258  1.00  0.00    -0.016 A 
ATOM     29  H   UNL     1     -45.513  44.517  23.574  1.00  0.00     0.084 H 
ATOM     30  H   UNL     1     -46.515  42.990  25.623  1.00  0.00     0.066 H 
BRANCH  25  31
ATOM     31  C   UNL     1     -42.769  44.039  23.145  1.00  0.00     0.030 C 
ATOM     32  H   UNL     1     -43.279  44.168  22.187  1.00  0.00     0.048 H 
ATOM     33  H   UNL     1     -41.945  43.328  23.037  1.00  0.00     0.048 H 
ATOM     34  H   UNL     1     -42.402  45.002  23.507  1.00  0.00     0.048 H 
ENDBRANCH  25  31
ENDBRANCH  14  24
BRANCH  19  35
ATOM     35  N   UNL     1     -41.934  43.089  27.771  1.00  0.00    -0.383 N 
ATOM     36  H   UNL     1     -42.089  43.109  26.760  1.00  0.00     0.158 HD
ATOM     37  H   UNL     1     -40.997  43.296  28.087  1.00  0.00     0.158 HD
ENDBRANCH  19  35
ENDBRANCH   5  13
ENDBRANCH   1   4
BRANCH   1  38
ATOM     38  O   UNL     1     -48.021  34.166  27.139  1.00  0.00    -0.489 OA
BRANCH  38  39
ATOM     39  C   UNL     1     -47.963  33.190  26.180  1.00  0.00     0.121 A 
ATOM     40  C   UNL     1     -48.937  32.198  26.219  1.00  0.00    -0.019 A 
ATOM     41  C   UNL     1     -47.002  33.194  25.169  1.00  0.00     0.003 A 
ATOM     42  C   UNL     1     -48.925  31.179  25.267  1.00  0.00    -0.052 A 
ATOM     43  H   UNL     1     -49.701  32.216  26.991  1.00  0.00     0.066 H 
ATOM     44  C   UNL     1     -46.941  32.143  24.246  1.00  0.00     0.040 A 
ATOM     45  H   UNL     1     -46.299  34.017  25.096  1.00  0.00     0.068 H 
ATOM     46  C   UNL     1     -47.935  31.143  24.268  1.00  0.00    -0.011 A 
ATOM     47  H   UNL     1     -49.701  30.418  25.304  1.00  0.00     0.063 H 
BRANCH  44  48
ATOM     48  N   UNL     1     -46.014  32.212  23.189  1.00  0.00    -0.398 N 
ATOM     49  H   UNL     1     -46.304  31.716  22.355  1.00  0.00     0.156 HD
ATOM     50  H   UNL     1     -45.782  33.191  22.986  1.00  0.00     0.156 HD
ENDBRANCH  44  48
BRANCH  46  51
ATOM     51  C   UNL     1     -47.995  30.047  23.214  1.00  0.00     0.026 C 
ATOM     52  H   UNL     1     -48.666  29.276  23.617  1.00  0.00     0.048 H 
ATOM     53  H   UNL     1     -47.016  29.568  23.109  1.00  0.00     0.048 H 
BRANCH  51  54
ATOM     54  N   UNL     1     -48.508  30.515  21.908  1.00  0.00    -0.294 NA
ATOM     55  C   UNL     1     -48.629  29.415  20.921  1.00  0.00     0.022 C 
ATOM     56  C   UNL     1     -49.834  31.156  22.053  1.00  0.00     0.022 C 
ATOM     57  C   UNL     1     -49.814  28.463  21.169  1.00  0.00     0.059 C 
ATOM     58  H   UNL     1     -48.773  29.890  19.943  1.00  0.00     0.045 H 
ATOM     59  H   UNL     1     -47.698  28.844  20.844  1.00  0.00     0.045 H 
ATOM     60  C   UNL     1     -50.992  30.171  22.286  1.00  0.00     0.059 C 
ATOM     61  H   UNL     1     -50.031  31.703  21.120  1.00  0.00     0.045 H 
ATOM     62  H   UNL     1     -49.813  31.911  22.847  1.00  0.00     0.045 H 
ATOM     63  O   UNL     1     -51.051  29.186  21.248  1.00  0.00    -0.379 OA
ATOM     64  H   UNL     1     -49.901  27.756  20.340  1.00  0.00     0.058 H 
ATOM     65  H   UNL     1     -49.678  27.878  22.085  1.00  0.00     0.058 H 
ATOM     66  H   UNL     1     -50.910  29.670  23.257  1.00  0.00     0.058 H 
ATOM     67  H   UNL     1     -51.942  30.714  22.277  1.00  0.00     0.058 H 
ENDBRANCH  51  54
ENDBRANCH  46  51
ENDBRANCH  38  39
ENDBRANCH   1  38
TORSDOF 10
ENDMDL
MODEL 4
REMARK VINA RESULT:      -9.0      1.472      1.992
REMARK SMILES Cn1ccc(-c2cn(-c3cncc(COc4ccc(CN5CCOCC5)c(N)c4)c3)c3ncnc(N)c23)n1
REMARK SMILES IDX 14 1 13 4 9 5 10 6 30 7 11 8 12 11 8 13 6 14 7 15 37 16
REMARK SMILES IDX 31 18 35 19 32 20 34 21 33 22 5 24 2 25 3 26 38 27 4 28 1 31
REMARK SMILES IDX 36 35 15 38 16 39 17 40 29 41 18 42 27 44 19 46 28 48 20 51
REMARK SMILES IDX 21 54 22 55 26 56 23 57 25 60 24 63
REMARK H PARENT 14 2 14 3 10 9 30 10 12 12 7 17 33 23 3 29 4 30 1 32 1 33 1 34
REMARK H PARENT 36 36 36 37 17 43 29 45 18 47 28 49 28 50 20 52 20 53 22 58
REMARK H PARENT 22 59 26 61 26 62 23 64 23 65 25 66 25 67
REMARK Flexibility Score: inf
ROOT
ATOM      1  C   UNL     1     -47.130  33.686  25.778  1.00  0.00     0.115 C 
ATOM      2  H   UNL     1     -47.362  33.729  24.707  1.00  0.00     0.076 H 
ATOM      3  H   UNL     1     -46.041  33.568  25.835  1.00  0.00     0.076 H 
ENDROOT
BRANCH   1   4
ATOM      4  C   UNL     1     -47.570  34.969  26.433  1.00  0.00     0.010 A 
ATOM      5  C   UNL     1     -47.087  37.214  27.249  1.00  0.00     0.066 A 
ATOM      6  C   UNL     1     -48.383  37.231  27.751  1.00  0.00     0.051 A 
ATOM      7  C   UNL     1     -46.695  36.058  26.562  1.00  0.00    -0.028 A 
ATOM      8  N   UNL     1     -49.261  36.201  27.630  1.00  0.00    -0.262 NA
ATOM      9  H   UNL     1     -48.809  38.075  28.278  1.00  0.00     0.086 H 
ATOM     10  H   UNL     1     -45.694  35.942  26.156  1.00  0.00     0.065 H 
ATOM     11  C   UNL     1     -48.831  35.092  26.993  1.00  0.00     0.034 A 
ATOM     12  H   UNL     1     -49.554  34.281  26.953  1.00  0.00     0.084 H 
BRANCH   5  13
ATOM     13  N   UNL     1     -46.173  38.299  27.445  1.00  0.00    -0.299 N 
ATOM     14  C   UNL     1     -44.979  40.165  27.015  1.00  0.00     0.033 A 
ATOM     15  C   UNL     1     -45.999  39.356  26.566  1.00  0.00     0.021 A 
ATOM     16  C   UNL     1     -44.522  39.636  28.251  1.00  0.00     0.071 A 
ATOM     17  H   UNL     1     -46.591  39.453  25.668  1.00  0.00     0.083 H 
ATOM     18  C   UNL     1     -45.277  38.490  28.501  1.00  0.00     0.150 A 
ATOM     19  C   UNL     1     -43.551  39.977  29.210  1.00  0.00     0.137 A 
ATOM     20  N   UNL     1     -45.130  37.691  29.576  1.00  0.00    -0.218 NA
ATOM     21  N   UNL     1     -43.381  39.186  30.284  1.00  0.00    -0.219 NA
ATOM     22  C   UNL     1     -44.169  38.108  30.409  1.00  0.00     0.120 A 
ATOM     23  H   UNL     1     -44.006  37.501  31.294  1.00  0.00     0.106 H 
BRANCH  14  24
ATOM     24  C   UNL     1     -44.446  41.339  26.325  1.00  0.00     0.095 A 
ATOM     25  N   UNL     1     -43.089  42.741  25.512  1.00  0.00    -0.275 N 
ATOM     26  C   UNL     1     -44.307  43.135  25.044  1.00  0.00     0.025 A 
ATOM     27  N   UNL     1     -43.145  41.658  26.312  1.00  0.00    -0.173 NA
ATOM     28  C   UNL     1     -45.216  42.234  25.550  1.00  0.00    -0.016 A 
ATOM     29  H   UNL     1     -44.425  43.991  24.395  1.00  0.00     0.084 H 
ATOM     30  H   UNL     1     -46.282  42.225  25.378  1.00  0.00     0.066 H 
BRANCH  25  31
ATOM     31  C   UNL     1     -41.810  43.343  25.222  1.00  0.00     0.030 C 
ATOM     32  H   UNL     1     -41.537  43.133  24.184  1.00  0.00     0.048 H 
ATOM     33  H   UNL     1     -41.066  42.913  25.898  1.00  0.00     0.048 H 
ATOM     34  H   UNL     1     -41.893  44.422  25.376  1.00  0.00     0.048 H 
ENDBRANCH  25  31
ENDBRANCH  14  24
BRANCH  19  35
ATOM     35  N   UNL     1     -42.730  41.092  29.119  1.00  0.00    -0.383 N 
ATOM     36  H   UNL     1     -43.242  41.968  29.254  1.00  0.00     0.158 HD
ATOM     37  H   UNL     1     -42.132  41.041  28.306  1.00  0.00     0.158 HD
ENDBRANCH  19  35
ENDBRANCH   5  13
ENDBRANCH   1   4
BRANCH   1  38
ATOM     38  O   UNL     1     -47.834  32.553  26.311  1.00  0.00    -0.489 OA
BRANCH  38  39
ATOM     39  C   UNL     1     -48.167  31.629  25.357  1.00  0.00     0.121 A 
ATOM     40  C   UNL     1     -48.370  30.320  25.780  1.00  0.00    -0.019 A 
ATOM     41  C   UNL     1     -48.344  31.971  24.017  1.00  0.00     0.003 A 
ATOM     42  C   UNL     1     -48.710  29.337  24.850  1.00  0.00    -0.052 A 
ATOM     43  H   UNL     1     -48.260  30.064  26.830  1.00  0.00     0.066 H 
ATOM     44  C   UNL     1     -48.622  30.983  23.064  1.00  0.00     0.040 A 
ATOM     45  H   UNL     1     -48.266  33.009  23.710  1.00  0.00     0.068 H 
ATOM     46  C   UNL     1     -48.847  29.656  23.487  1.00  0.00    -0.011 A 
ATOM     47  H   UNL     1     -48.877  28.321  25.200  1.00  0.00     0.063 H 
BRANCH  44  48
ATOM     48  N   UNL     1     -48.875  31.365  21.734  1.00  0.00    -0.398 N 
ATOM     49  H   UNL     1     -49.044  32.357  21.615  1.00  0.00     0.156 HD
ATOM     50  H   UNL     1     -48.120  31.035  21.122  1.00  0.00     0.156 HD
ENDBRANCH  44  48
BRANCH  46  51
ATOM     51  C   UNL     1     -49.277  28.566  22.517  1.00  0.00     0.026 C 
ATOM     52  H   UNL     1     -49.194  27.620  23.069  1.00  0.00     0.048 H 
ATOM     53  H   UNL     1     -48.565  28.495  21.688  1.00  0.00     0.048 H 
BRANCH  51  54
ATOM     54  N   UNL     1     -50.662  28.731  22.025  1.00  0.00    -0.294 NA
ATOM     55  C   UNL     1     -51.118  27.571  21.222  1.00  0.00     0.022 C 
ATOM     56  C   UNL     1     -51.609  28.919  23.146  1.00  0.00     0.022 C 
ATOM     57  C   UNL     1     -51.444  26.313  22.047  1.00  0.00     0.059 C 
ATOM     58  H   UNL     1     -52.035  27.889  20.710  1.00  0.00     0.045 H 
ATOM     59  H   UNL     1     -50.401  27.326  20.431  1.00  0.00     0.045 H 
ATOM     60  C   UNL     1     -51.919  27.637  23.937  1.00  0.00     0.059 C 
ATOM     61  H   UNL     1     -52.549  29.292  22.715  1.00  0.00     0.045 H 
ATOM     62  H   UNL     1     -51.255  29.706  23.822  1.00  0.00     0.045 H 
ATOM     63  O   UNL     1     -52.403  26.601  23.074  1.00  0.00    -0.379 OA
ATOM     64  H   UNL     1     -51.880  25.547  21.400  1.00  0.00     0.058 H 
ATOM     65  H   UNL     1     -50.545  25.882  22.502  1.00  0.00     0.058 H 
ATOM     66  H   UNL     1     -51.040  27.274  24.482  1.00  0.00     0.058 H 
ATOM     67  H   UNL     1     -52.701  27.842  24.674  1.00  0.00     0.058 H 
ENDBRANCH  51  54
ENDBRANCH  46  51
ENDBRANCH  38  39
ENDBRANCH   1  38
TORSDOF 10
ENDMDL
MODEL 5
REMARK VINA RESULT:      -8.9      2.618     12.676
REMARK SMILES Cn1ccc(-c2cn(-c3cncc(COc4ccc(CN5CCOCC5)c(N)c4)c3)c3ncnc(N)c23)n1
REMARK SMILES IDX 14 1 13 4 9 5 10 6 30 7 11 8 12 11 8 13 6 14 7 15 37 16
REMARK SMILES IDX 31 18 35 19 32 20 34 21 33 22 5 24 2 25 3 26 38 27 4 28 1 31
REMARK SMILES IDX 36 35 15 38 16 39 17 40 29 41 18 42 27 44 19 46 28 48 20 51
REMARK SMILES IDX 21 54 22 55 26 56 23 57 25 60 24 63
REMARK H PARENT 14 2 14 3 10 9 30 10 12 12 7 17 33 23 3 29 4 30 1 32 1 33 1 34
REMARK H PARENT 36 36 36 37 17 43 29 45 18 47 28 49 28 50 20 52 20 53 22 58
REMARK H PARENT 22 59 26 61 26 62 23 64 23 65 25 66 25 67
REMARK Flexibility Score: inf
ROOT
ATOM      1  C   UNL     1     -48.688  35.367  27.277  1.00  0.00     0.115 C 
ATOM      2  H   UNL     1     -48.853  36.314  26.749  1.00  0.00     0.076 H 
ATOM      3  H   UNL     1     -49.688  35.013  27.557  1.00  0.00     0.076 H 
ENDROOT
BRANCH   1   4
ATOM      4  C   UNL     1     -48.009  34.393  26.350  1.00  0.00     0.010 A 
ATOM      5  C   UNL     1     -47.951  32.250  25.190  1.00  0.00     0.066 A 
ATOM      6  C   UNL     1     -46.673  32.598  24.767  1.00  0.00     0.051 A 
ATOM      7  C   UNL     1     -48.626  33.188  25.983  1.00  0.00    -0.028 A 
ATOM      8  N   UNL     1     -46.054  33.763  25.090  1.00  0.00    -0.262 NA
ATOM      9  H   UNL     1     -46.062  31.969  24.131  1.00  0.00     0.086 H 
ATOM     10  H   UNL     1     -49.618  32.995  26.382  1.00  0.00     0.065 H 
ATOM     11  C   UNL     1     -46.724  34.622  25.886  1.00  0.00     0.034 A 
ATOM     12  H   UNL     1     -46.176  35.522  26.148  1.00  0.00     0.084 H 
BRANCH   5  13
ATOM     13  N   UNL     1     -48.548  30.988  24.874  1.00  0.00    -0.299 N 
ATOM     14  C   UNL     1     -49.053  28.792  25.007  1.00  0.00     0.033 A 
ATOM     15  C   UNL     1     -48.441  29.845  25.651  1.00  0.00     0.021 A 
ATOM     16  C   UNL     1     -49.615  29.291  23.803  1.00  0.00     0.071 A 
ATOM     17  H   UNL     1     -47.919  29.846  26.596  1.00  0.00     0.083 H 
ATOM     18  C   UNL     1     -49.298  30.649  23.745  1.00  0.00     0.150 A 
ATOM     19  C   UNL     1     -50.362  28.768  22.732  1.00  0.00     0.137 A 
ATOM     20  N   UNL     1     -49.642  31.477  22.738  1.00  0.00    -0.218 NA
ATOM     21  N   UNL     1     -50.705  29.576  21.712  1.00  0.00    -0.219 NA
ATOM     22  C   UNL     1     -50.338  30.864  21.772  1.00  0.00     0.120 A 
ATOM     23  H   UNL     1     -50.641  31.483  20.934  1.00  0.00     0.106 H 
BRANCH  14  24
ATOM     24  C   UNL     1     -49.087  27.406  25.470  1.00  0.00     0.095 A 
ATOM     25  N   UNL     1     -48.466  25.515  26.183  1.00  0.00    -0.275 N 
ATOM     26  C   UNL     1     -49.828  25.466  26.227  1.00  0.00     0.025 A 
ATOM     27  N   UNL     1     -47.986  26.681  25.707  1.00  0.00    -0.173 NA
ATOM     28  C   UNL     1     -50.266  26.690  25.775  1.00  0.00    -0.016 A 
ATOM     29  H   UNL     1     -50.361  24.594  26.580  1.00  0.00     0.084 H 
ATOM     30  H   UNL     1     -51.291  27.016  25.686  1.00  0.00     0.066 H 
BRANCH  25  31
ATOM     31  C   UNL     1     -47.545  24.486  26.600  1.00  0.00     0.030 C 
ATOM     32  H   UNL     1     -47.950  23.506  26.332  1.00  0.00     0.048 H 
ATOM     33  H   UNL     1     -47.420  24.555  27.684  1.00  0.00     0.048 H 
ATOM     34  H   UNL     1     -46.592  24.649  26.090  1.00  0.00     0.048 H 
ENDBRANCH  25  31
ENDBRANCH  14  24
BRANCH  19  35
ATOM     35  N   UNL     1     -50.771  27.445  22.647  1.00  0.00    -0.383 N 
ATOM     36  H   UNL     1     -50.055  26.791  22.971  1.00  0.00     0.158 HD
ATOM     37  H   UNL     1     -51.186  27.248  21.746  1.00  0.00     0.158 HD
ENDBRANCH  19  35
ENDBRANCH   5  13
ENDBRANCH   1   4
BRANCH   1  38
ATOM     38  O   UNL     1     -47.870  35.665  28.419  1.00  0.00    -0.489 OA
BRANCH  38  39
ATOM     39  C   UNL     1     -47.165  36.832  28.287  1.00  0.00     0.121 A 
ATOM     40  C   UNL     1     -47.533  37.686  27.253  1.00  0.00    -0.019 A 
ATOM     41  C   UNL     1     -46.145  37.191  29.167  1.00  0.00     0.003 A 
ATOM     42  C   UNL     1     -46.848  38.887  27.070  1.00  0.00    -0.052 A 
ATOM     43  H   UNL     1     -48.348  37.416  26.587  1.00  0.00     0.066 H 
ATOM     44  C   UNL     1     -45.408  38.363  28.958  1.00  0.00     0.040 A 
ATOM     45  H   UNL     1     -45.921  36.559  30.021  1.00  0.00     0.068 H 
ATOM     46  C   UNL     1     -45.786  39.243  27.922  1.00  0.00    -0.011 A 
ATOM     47  H   UNL     1     -47.156  39.549  26.265  1.00  0.00     0.063 H 
BRANCH  44  48
ATOM     48  N   UNL     1     -44.439  38.743  29.905  1.00  0.00    -0.398 N 
ATOM     49  H   UNL     1     -44.209  39.729  29.885  1.00  0.00     0.156 HD
ATOM     50  H   UNL     1     -44.724  38.439  30.843  1.00  0.00     0.156 HD
ENDBRANCH  44  48
BRANCH  46  51
ATOM     51  C   UNL     1     -45.106  40.590  27.724  1.00  0.00     0.026 C 
ATOM     52  H   UNL     1     -44.965  41.008  28.730  1.00  0.00     0.048 H 
ATOM     53  H   UNL     1     -45.778  41.280  27.203  1.00  0.00     0.048 H 
BRANCH  51  54
ATOM     54  N   UNL     1     -43.798  40.493  27.041  1.00  0.00    -0.294 NA
ATOM     55  C   UNL     1     -43.800  41.162  25.718  1.00  0.00     0.022 C 
ATOM     56  C   UNL     1     -42.722  41.093  27.861  1.00  0.00     0.022 C 
ATOM     57  C   UNL     1     -43.778  42.699  25.779  1.00  0.00     0.059 C 
ATOM     58  H   UNL     1     -42.892  40.829  25.200  1.00  0.00     0.045 H 
ATOM     59  H   UNL     1     -44.639  40.822  25.101  1.00  0.00     0.045 H 
ATOM     60  C   UNL     1     -42.726  42.631  27.887  1.00  0.00     0.059 C 
ATOM     61  H   UNL     1     -41.766  40.760  27.432  1.00  0.00     0.045 H 
ATOM     62  H   UNL     1     -42.748  40.697  28.882  1.00  0.00     0.045 H 
ATOM     63  O   UNL     1     -42.672  43.171  26.561  1.00  0.00    -0.379 OA
ATOM     64  H   UNL     1     -43.666  43.110  24.772  1.00  0.00     0.058 H 
ATOM     65  H   UNL     1     -44.710  43.102  26.193  1.00  0.00     0.058 H 
ATOM     66  H   UNL     1     -43.609  43.026  28.403  1.00  0.00     0.058 H 
ATOM     67  H   UNL     1     -41.844  42.991  28.424  1.00  0.00     0.058 H 
ENDBRANCH  51  54
ENDBRANCH  46  51
ENDBRANCH  38  39
ENDBRANCH   1  38
TORSDOF 10
ENDMDL
MODEL 6
REMARK VINA RESULT:      -8.9      2.643     12.363
REMARK SMILES Cn1ccc(-c2cn(-c3cncc(COc4ccc(CN5CCOCC5)c(N)c4)c3)c3ncnc(N)c23)n1
REMARK SMILES IDX 14 1 13 4 9 5 10 6 30 7 11 8 12 11 8 13 6 14 7 15 37 16
REMARK SMILES IDX 31 18 35 19 32 20 34 21 33 22 5 24 2 25 3 26 38 27 4 28 1 31
REMARK SMILES IDX 36 35 15 38 16 39 17 40 29 41 18 42 27 44 19 46 28 48 20 51
REMARK SMILES IDX 21 54 22 55 26 56 23 57 25 60 24 63
REMARK H PARENT 14 2 14 3 10 9 30 10 12 12 7 17 33 23 3 29 4 30 1 32 1 33 1 34
REMARK H PARENT 36 36 36 37 17 43 29 45 18 47 28 49 28 50 20 52 20 53 22 58
REMARK H PARENT 22 59 26 61 26 62 23 64 23 65 25 66 25 67
REMARK Flexibility Score: inf
ROOT
ATOM      1  C   UNL     1     -47.559  36.770  26.965  1.00  0.00     0.115 C 
ATOM      2  H   UNL     1     -47.144  37.199  26.046  1.00  0.00     0.076 H 
ATOM      3  H   UNL     1     -48.648  36.814  26.842  1.00  0.00     0.076 H 
ENDROOT
BRANCH   1   4
ATOM      4  C   UNL     1     -47.088  35.346  27.105  1.00  0.00     0.010 A 
ATOM      5  C   UNL     1     -47.107  33.020  26.377  1.00  0.00     0.066 A 
ATOM      6  C   UNL     1     -46.308  32.745  27.481  1.00  0.00     0.051 A 
ATOM      7  C   UNL     1     -47.481  34.357  26.190  1.00  0.00    -0.028 A 
ATOM      8  N   UNL     1     -45.896  33.680  28.376  1.00  0.00    -0.262 NA
ATOM      9  H   UNL     1     -45.935  31.756  27.717  1.00  0.00     0.086 H 
ATOM     10  H   UNL     1     -48.125  34.665  25.371  1.00  0.00     0.065 H 
ATOM     11  C   UNL     1     -46.308  34.950  28.179  1.00  0.00     0.034 A 
ATOM     12  H   UNL     1     -45.986  35.656  28.940  1.00  0.00     0.084 H 
BRANCH   5  13
ATOM     13  N   UNL     1     -47.566  31.996  25.487  1.00  0.00    -0.299 N 
ATOM     14  C   UNL     1     -48.649  30.155  24.757  1.00  0.00     0.033 A 
ATOM     15  C   UNL     1     -48.515  31.037  25.807  1.00  0.00     0.021 A 
ATOM     16  C   UNL     1     -47.796  30.596  23.712  1.00  0.00     0.071 A 
ATOM     17  H   UNL     1     -49.014  31.027  26.764  1.00  0.00     0.083 H 
ATOM     18  C   UNL     1     -47.144  31.738  24.180  1.00  0.00     0.150 A 
ATOM     19  C   UNL     1     -47.481  30.177  22.407  1.00  0.00     0.137 A 
ATOM     20  N   UNL     1     -46.233  32.444  23.482  1.00  0.00    -0.218 NA
ATOM     21  N   UNL     1     -46.565  30.862  21.698  1.00  0.00    -0.219 NA
ATOM     22  C   UNL     1     -46.006  31.942  22.263  1.00  0.00     0.120 A 
ATOM     23  H   UNL     1     -45.278  32.472  21.655  1.00  0.00     0.106 H 
BRANCH  14  24
ATOM     24  C   UNL     1     -49.496  28.963  24.740  1.00  0.00     0.095 A 
ATOM     25  N   UNL     1     -50.293  27.064  25.216  1.00  0.00    -0.275 N 
ATOM     26  C   UNL     1     -51.186  27.598  24.335  1.00  0.00     0.025 A 
ATOM     27  N   UNL     1     -49.241  27.868  25.467  1.00  0.00    -0.173 NA
ATOM     28  C   UNL     1     -50.700  28.843  24.010  1.00  0.00    -0.016 A 
ATOM     29  H   UNL     1     -52.079  27.069  24.030  1.00  0.00     0.084 H 
ATOM     30  H   UNL     1     -51.154  29.561  23.344  1.00  0.00     0.066 H 
BRANCH  25  31
ATOM     31  C   UNL     1     -50.385  25.787  25.882  1.00  0.00     0.030 C 
ATOM     32  H   UNL     1     -51.044  25.127  25.311  1.00  0.00     0.048 H 
ATOM     33  H   UNL     1     -50.795  25.950  26.882  1.00  0.00     0.048 H 
ATOM     34  H   UNL     1     -49.383  25.356  25.941  1.00  0.00     0.048 H 
ENDBRANCH  25  31
ENDBRANCH  14  24
BRANCH  19  35
ATOM     35  N   UNL     1     -48.052  29.074  21.788  1.00  0.00    -0.383 N 
ATOM     36  H   UNL     1     -48.382  29.282  20.843  1.00  0.00     0.158 HD
ATOM     37  H   UNL     1     -48.706  28.609  22.401  1.00  0.00     0.158 HD
ENDBRANCH  19  35
ENDBRANCH   5  13
ENDBRANCH   1   4
BRANCH   1  38
ATOM     38  O   UNL     1     -47.094  37.586  28.052  1.00  0.00    -0.489 OA
BRANCH  38  39
ATOM     39  C   UNL     1     -46.518  38.758  27.637  1.00  0.00     0.121 A 
ATOM     40  C   UNL     1     -47.296  39.614  26.866  1.00  0.00    -0.019 A 
ATOM     41  C   UNL     1     -45.220  39.118  27.996  1.00  0.00     0.003 A 
ATOM     42  C   UNL     1     -46.759  40.820  26.415  1.00  0.00    -0.052 A 
ATOM     43  H   UNL     1     -48.318  39.343  26.613  1.00  0.00     0.066 H 
ATOM     44  C   UNL     1     -44.647  40.295  27.498  1.00  0.00     0.040 A 
ATOM     45  H   UNL     1     -44.649  38.483  28.667  1.00  0.00     0.068 H 
ATOM     46  C   UNL     1     -45.436  41.177  26.730  1.00  0.00    -0.011 A 
ATOM     47  H   UNL     1     -47.386  41.484  25.824  1.00  0.00     0.063 H 
BRANCH  44  48
ATOM     48  N   UNL     1     -43.367  40.675  27.940  1.00  0.00    -0.398 N 
ATOM     49  H   UNL     1     -43.316  41.625  28.285  1.00  0.00     0.156 HD
ATOM     50  H   UNL     1     -43.017  40.001  28.631  1.00  0.00     0.156 HD
ENDBRANCH  44  48
BRANCH  46  51
ATOM     51  C   UNL     1     -44.910  42.528  26.268  1.00  0.00     0.026 C 
ATOM     52  H   UNL     1     -44.655  43.082  27.182  1.00  0.00     0.048 H 
ATOM     53  H   UNL     1     -45.709  43.100  25.784  1.00  0.00     0.048 H 
BRANCH  51  54
ATOM     54  N   UNL     1     -43.717  42.430  25.400  1.00  0.00    -0.294 NA
ATOM     55  C   UNL     1     -44.043  42.619  23.966  1.00  0.00     0.022 C 
ATOM     56  C   UNL     1     -42.696  43.432  25.780  1.00  0.00     0.022 C 
ATOM     57  C   UNL     1     -44.348  44.074  23.568  1.00  0.00     0.059 C 
ATOM     58  H   UNL     1     -43.162  42.289  23.401  1.00  0.00     0.045 H 
ATOM     59  H   UNL     1     -44.863  41.964  23.654  1.00  0.00     0.045 H 
ATOM     60  C   UNL     1     -43.031  44.871  25.353  1.00  0.00     0.059 C 
ATOM     61  H   UNL     1     -41.758  43.138  25.289  1.00  0.00     0.045 H 
ATOM     62  H   UNL     1     -42.498  43.392  26.857  1.00  0.00     0.045 H 
ATOM     63  O   UNL     1     -43.275  44.950  23.944  1.00  0.00    -0.379 OA
ATOM     64  H   UNL     1     -44.464  44.146  22.484  1.00  0.00     0.058 H 
ATOM     65  H   UNL     1     -45.280  44.432  24.021  1.00  0.00     0.058 H 
ATOM     66  H   UNL     1     -43.900  45.263  25.894  1.00  0.00     0.058 H 
ATOM     67  H   UNL     1     -42.183  45.526  25.577  1.00  0.00     0.058 H 
ENDBRANCH  51  54
ENDBRANCH  46  51
ENDBRANCH  38  39
ENDBRANCH   1  38
TORSDOF 10
ENDMDL
MODEL 7
REMARK VINA RESULT:      -8.7      2.187      3.233
REMARK SMILES Cn1ccc(-c2cn(-c3cncc(COc4ccc(CN5CCOCC5)c(N)c4)c3)c3ncnc(N)c23)n1
REMARK SMILES IDX 14 1 13 4 9 5 10 6 30 7 11 8 12 11 8 13 6 14 7 15 37 16
REMARK SMILES IDX 31 18 35 19 32 20 34 21 33 22 5 24 2 25 3 26 38 27 4 28 1 31
REMARK SMILES IDX 36 35 15 38 16 39 17 40 29 41 18 42 27 44 19 46 28 48 20 51
REMARK SMILES IDX 21 54 22 55 26 56 23 57 25 60 24 63
REMARK H PARENT 14 2 14 3 10 9 30 10 12 12 7 17 33 23 3 29 4 30 1 32 1 33 1 34
REMARK H PARENT 36 36 36 37 17 43 29 45 18 47 28 49 28 50 20 52 20 53 22 58
REMARK H PARENT 22 59 26 61 26 62 23 64 23 65 25 66 25 67
REMARK Flexibility Score: inf
ROOT
ATOM      1  C   UNL     1     -47.525  34.982  27.345  1.00  0.00     0.115 C 
ATOM      2  H   UNL     1     -48.408  34.701  27.931  1.00  0.00     0.076 H 
ATOM      3  H   UNL     1     -47.904  35.227  26.345  1.00  0.00     0.076 H 
ENDROOT
BRANCH   1   4
ATOM      4  C   UNL     1     -46.867  36.178  27.981  1.00  0.00     0.010 A 
ATOM      5  C   UNL     1     -46.090  38.486  27.872  1.00  0.00     0.066 A 
ATOM      6  C   UNL     1     -45.542  38.284  29.133  1.00  0.00     0.051 A 
ATOM      7  C   UNL     1     -46.780  37.405  27.306  1.00  0.00    -0.028 A 
ATOM      8  N   UNL     1     -45.623  37.115  29.821  1.00  0.00    -0.262 NA
ATOM      9  H   UNL     1     -45.009  39.049  29.683  1.00  0.00     0.086 H 
ATOM     10  H   UNL     1     -47.219  37.460  26.315  1.00  0.00     0.065 H 
ATOM     11  C   UNL     1     -46.263  36.088  29.225  1.00  0.00     0.034 A 
ATOM     12  H   UNL     1     -46.270  35.163  29.795  1.00  0.00     0.084 H 
BRANCH   5  13
ATOM     13  N   UNL     1     -45.936  39.716  27.156  1.00  0.00    -0.299 N 
ATOM     14  C   UNL     1     -44.934  41.424  26.072  1.00  0.00     0.033 A 
ATOM     15  C   UNL     1     -44.748  40.166  26.602  1.00  0.00     0.021 A 
ATOM     16  C   UNL     1     -46.300  41.767  26.247  1.00  0.00     0.071 A 
ATOM     17  H   UNL     1     -43.843  39.577  26.640  1.00  0.00     0.083 H 
ATOM     18  C   UNL     1     -46.901  40.697  26.910  1.00  0.00     0.150 A 
ATOM     19  C   UNL     1     -47.126  42.860  25.928  1.00  0.00     0.137 A 
ATOM     20  N   UNL     1     -48.198  40.649  27.276  1.00  0.00    -0.218 NA
ATOM     21  N   UNL     1     -48.420  42.836  26.295  1.00  0.00    -0.219 NA
ATOM     22  C   UNL     1     -48.878  41.749  26.932  1.00  0.00     0.120 A 
ATOM     23  H   UNL     1     -49.929  41.765  27.203  1.00  0.00     0.106 H 
BRANCH  14  24
ATOM     24  C   UNL     1     -43.900  42.262  25.467  1.00  0.00     0.095 A 
ATOM     25  N   UNL     1     -42.864  43.485  24.089  1.00  0.00    -0.275 N 
ATOM     26  C   UNL     1     -42.113  43.541  25.225  1.00  0.00     0.025 A 
ATOM     27  N   UNL     1     -43.952  42.697  24.201  1.00  0.00    -0.173 NA
ATOM     28  C   UNL     1     -42.767  42.759  26.149  1.00  0.00    -0.016 A 
ATOM     29  H   UNL     1     -41.207  44.127  25.287  1.00  0.00     0.084 H 
ATOM     30  H   UNL     1     -42.468  42.579  27.171  1.00  0.00     0.066 H 
BRANCH  25  31
ATOM     31  C   UNL     1     -42.616  44.179  22.848  1.00  0.00     0.030 C 
ATOM     32  H   UNL     1     -41.887  43.618  22.257  1.00  0.00     0.048 H 
ATOM     33  H   UNL     1     -42.222  45.172  23.082  1.00  0.00     0.048 H 
ATOM     34  H   UNL     1     -43.560  44.258  22.302  1.00  0.00     0.048 H 
ENDBRANCH  25  31
ENDBRANCH  14  24
BRANCH  19  35
ATOM     35  N   UNL     1     -46.687  43.993  25.257  1.00  0.00    -0.383 N 
ATOM     36  H   UNL     1     -46.892  44.855  25.768  1.00  0.00     0.158 HD
ATOM     37  H   UNL     1     -46.961  43.971  24.285  1.00  0.00     0.158 HD
ENDBRANCH  19  35
ENDBRANCH   5  13
ENDBRANCH   1   4
BRANCH   1  38
ATOM     38  O   UNL     1     -46.652  33.842  27.338  1.00  0.00    -0.489 OA
BRANCH  38  39
ATOM     39  C   UNL     1     -46.953  32.939  26.352  1.00  0.00     0.121 A 
ATOM     40  C   UNL     1     -46.433  33.181  25.085  1.00  0.00    -0.019 A 
ATOM     41  C   UNL     1     -47.711  31.795  26.596  1.00  0.00     0.003 A 
ATOM     42  C   UNL     1     -46.709  32.295  24.044  1.00  0.00    -0.052 A 
ATOM     43  H   UNL     1     -45.818  34.059  24.907  1.00  0.00     0.066 H 
ATOM     44  C   UNL     1     -48.048  30.932  25.546  1.00  0.00     0.040 A 
ATOM     45  H   UNL     1     -48.041  31.571  27.605  1.00  0.00     0.068 H 
ATOM     46  C   UNL     1     -47.510  31.160  24.262  1.00  0.00    -0.011 A 
ATOM     47  H   UNL     1     -46.284  32.492  23.062  1.00  0.00     0.063 H 
BRANCH  44  48
ATOM     48  N   UNL     1     -48.745  29.743  25.833  1.00  0.00    -0.398 N 
ATOM     49  H   UNL     1     -48.456  29.294  26.693  1.00  0.00     0.156 HD
ATOM     50  H   UNL     1     -49.757  29.915  25.816  1.00  0.00     0.156 HD
ENDBRANCH  44  48
BRANCH  46  51
ATOM     51  C   UNL     1     -47.736  30.188  23.113  1.00  0.00     0.026 C 
ATOM     52  H   UNL     1     -47.121  29.306  23.337  1.00  0.00     0.048 H 
ATOM     53  H   UNL     1     -47.337  30.604  22.182  1.00  0.00     0.048 H 
BRANCH  51  54
ATOM     54  N   UNL     1     -49.149  29.780  22.958  1.00  0.00    -0.294 NA
ATOM     55  C   UNL     1     -50.010  30.890  22.485  1.00  0.00     0.022 C 
ATOM     56  C   UNL     1     -49.278  28.655  22.004  1.00  0.00     0.022 C 
ATOM     57  C   UNL     1     -49.835  31.245  20.998  1.00  0.00     0.059 C 
ATOM     58  H   UNL     1     -51.047  30.565  22.638  1.00  0.00     0.045 H 
ATOM     59  H   UNL     1     -49.882  31.784  23.104  1.00  0.00     0.045 H 
ATOM     60  C   UNL     1     -49.109  29.054  20.528  1.00  0.00     0.059 C 
ATOM     61  H   UNL     1     -50.286  28.237  22.133  1.00  0.00     0.045 H 
ATOM     62  H   UNL     1     -48.581  27.849  22.261  1.00  0.00     0.045 H 
ATOM     63  O   UNL     1     -50.025  30.093  20.164  1.00  0.00    -0.379 OA
ATOM     64  H   UNL     1     -50.581  31.988  20.704  1.00  0.00     0.058 H 
ATOM     65  H   UNL     1     -48.848  31.678  20.798  1.00  0.00     0.058 H 
ATOM     66  H   UNL     1     -48.086  29.379  20.309  1.00  0.00     0.058 H 
ATOM     67  H   UNL     1     -49.322  28.191  19.889  1.00  0.00     0.058 H 
ENDBRANCH  51  54
ENDBRANCH  46  51
ENDBRANCH  38  39
ENDBRANCH   1  38
TORSDOF 10
ENDMDL
