MODEL 1
REMARK VINA RESULT:     -10.5      0.000      0.000
REMARK SMILES CCc1nc2cc(OC[C@H]3O[C@@H](n4cc(-c5ccn(C)n5)c5c(N)ncnc54)[C@@H](F)[C@@H]3O)ccc2o1
REMARK SMILES IDX 9 1 8 4 7 5 3 6 4 7 36 8 5 9 35 10 6 11 34 12 33 14 2 17
REMARK SMILES IDX 1 20 10 24 11 25 31 26 12 28 29 29 30 32 32 34 13 36 14 37
REMARK SMILES IDX 28 38 15 39 22 41 27 42 23 43 26 44 25 45 16 47 17 48 21 49
REMARK SMILES IDX 18 50 19 52 20 54 24 58
REMARK H PARENT 9 2 9 3 6 13 34 15 33 16 2 18 2 19 1 21 1 22 1 23 10 27 31 30
REMARK H PARENT 12 31 29 33 32 35 14 40 26 46 17 51 18 53 20 55 20 56 20 57
REMARK H PARENT 24 59 24 60
REMARK Flexibility Score: inf
ROOT
ATOM      1  C   UNL     1     -46.962  36.219  27.070  1.00  0.00     0.117 C 
ATOM      2  H   UNL     1     -48.014  35.995  27.278  1.00  0.00     0.073 H 
ATOM      3  H   UNL     1     -46.922  37.276  26.784  1.00  0.00     0.073 H 
ENDROOT
BRANCH   1   4
ATOM      4  O   UNL     1     -46.499  35.501  25.919  1.00  0.00    -0.491 OA
BRANCH   4   5
ATOM      5  C   UNL     1     -47.015  34.261  25.656  1.00  0.00     0.121 A 
ATOM      6  C   UNL     1     -47.786  30.130  24.163  1.00  0.00     0.195 A 
ATOM      7  N   UNL     1     -46.780  30.954  23.936  1.00  0.00    -0.214 NA
ATOM      8  O   UNL     1     -48.759  30.620  24.996  1.00  0.00    -0.441 OA
ATOM      9  C   UNL     1     -47.106  32.067  24.671  1.00  0.00     0.113 A 
ATOM     10  C   UNL     1     -48.314  31.868  25.318  1.00  0.00     0.155 A 
ATOM     11  C   UNL     1     -46.429  33.285  24.838  1.00  0.00     0.010 A 
ATOM     12  C   UNL     1     -48.930  32.798  26.140  1.00  0.00    -0.013 A 
ATOM     13  H   UNL     1     -45.487  33.416  24.327  1.00  0.00     0.069 H 
ATOM     14  C   UNL     1     -48.242  34.010  26.292  1.00  0.00    -0.016 A 
ATOM     15  H   UNL     1     -49.877  32.601  26.626  1.00  0.00     0.066 H 
ATOM     16  H   UNL     1     -48.677  34.785  26.923  1.00  0.00     0.066 H 
BRANCH   6  17
ATOM     17  C   UNL     1     -47.999  28.760  23.634  1.00  0.00     0.021 C 
ATOM     18  H   UNL     1     -48.924  28.350  24.052  1.00  0.00     0.036 H 
ATOM     19  H   UNL     1     -48.128  28.798  22.546  1.00  0.00     0.036 H 
BRANCH  17  20
ATOM     20  C   UNL     1     -46.837  27.846  23.980  1.00  0.00    -0.057 C 
ATOM     21  H   UNL     1     -47.098  26.794  23.819  1.00  0.00     0.024 H 
ATOM     22  H   UNL     1     -45.959  28.070  23.364  1.00  0.00     0.024 H 
ATOM     23  H   UNL     1     -46.556  27.969  25.031  1.00  0.00     0.024 H 
ENDBRANCH  17  20
ENDBRANCH   6  17
ENDBRANCH   4   5
ENDBRANCH   1   4
BRANCH   1  24
ATOM     24  C   UNL     1     -46.046  35.970  28.282  1.00  0.00     0.123 C 
ATOM     25  O   UNL     1     -44.861  36.791  28.150  1.00  0.00    -0.345 OA
ATOM     26  C   UNL     1     -46.700  36.369  29.607  1.00  0.00     0.119 C 
ATOM     27  H   UNL     1     -45.702  34.931  28.304  1.00  0.00     0.067 H 
ATOM     28  C   UNL     1     -44.953  37.867  29.119  1.00  0.00     0.169 C 
ATOM     29  C   UNL     1     -46.359  37.836  29.705  1.00  0.00     0.173 C 
ATOM     30  H   UNL     1     -47.776  36.178  29.624  1.00  0.00     0.066 H 
ATOM     31  H   UNL     1     -44.198  37.649  29.886  1.00  0.00     0.088 H 
ATOM     32  F   UNL     1     -47.239  38.524  28.925  1.00  0.00    -0.239 F 
ATOM     33  H   UNL     1     -46.403  38.246  30.719  1.00  0.00     0.074 H 
BRANCH  26  34
ATOM     34  O   UNL     1     -46.109  35.672  30.708  1.00  0.00    -0.387 OA
ATOM     35  H   UNL     1     -46.813  35.454  31.344  1.00  0.00     0.211 HD
ENDBRANCH  26  34
BRANCH  28  36
ATOM     36  N   UNL     1     -44.597  39.134  28.505  1.00  0.00    -0.302 N 
ATOM     37  C   UNL     1     -45.192  39.735  27.428  1.00  0.00     0.019 A 
ATOM     38  C   UNL     1     -43.564  39.924  28.955  1.00  0.00     0.148 A 
ATOM     39  C   UNL     1     -44.555  40.941  27.206  1.00  0.00     0.033 A 
ATOM     40  H   UNL     1     -46.027  39.277  26.911  1.00  0.00     0.083 H 
ATOM     41  C   UNL     1     -43.491  41.056  28.150  1.00  0.00     0.071 A 
ATOM     42  N   UNL     1     -42.772  39.624  29.999  1.00  0.00    -0.218 NA
ATOM     43  C   UNL     1     -42.448  41.952  28.442  1.00  0.00     0.137 A 
ATOM     44  C   UNL     1     -41.838  40.567  30.194  1.00  0.00     0.120 A 
ATOM     45  N   UNL     1     -41.631  41.689  29.482  1.00  0.00    -0.219 NA
ATOM     46  H   UNL     1     -41.160  40.403  31.026  1.00  0.00     0.106 H 
BRANCH  39  47
ATOM     47  C   UNL     1     -44.918  41.911  26.178  1.00  0.00     0.095 A 
ATOM     48  C   UNL     1     -44.237  42.095  24.956  1.00  0.00    -0.016 A 
ATOM     49  N   UNL     1     -45.928  42.777  26.322  1.00  0.00    -0.173 NA
ATOM     50  C   UNL     1     -44.903  43.125  24.331  1.00  0.00     0.025 A 
ATOM     51  H   UNL     1     -43.376  41.557  24.585  1.00  0.00     0.066 H 
ATOM     52  N   UNL     1     -45.896  43.500  25.189  1.00  0.00    -0.275 N 
ATOM     53  H   UNL     1     -44.745  43.614  23.381  1.00  0.00     0.084 H 
BRANCH  52  54
ATOM     54  C   UNL     1     -46.858  44.556  24.994  1.00  0.00     0.030 C 
ATOM     55  H   UNL     1     -46.378  45.508  25.232  1.00  0.00     0.048 H 
ATOM     56  H   UNL     1     -47.714  44.395  25.653  1.00  0.00     0.048 H 
ATOM     57  H   UNL     1     -47.183  44.538  23.950  1.00  0.00     0.048 H 
ENDBRANCH  52  54
ENDBRANCH  39  47
BRANCH  43  58
ATOM     58  N   UNL     1     -42.156  43.095  27.706  1.00  0.00    -0.383 N 
ATOM     59  H   UNL     1     -42.277  43.953  28.230  1.00  0.00     0.158 HD
ATOM     60  H   UNL     1     -42.640  43.059  26.816  1.00  0.00     0.158 HD
ENDBRANCH  43  58
ENDBRANCH  28  36
ENDBRANCH   1  24
TORSDOF 10
ENDMDL
MODEL 2
REMARK VINA RESULT:      -8.6      2.344      3.224
REMARK SMILES CCc1nc2cc(OC[C@H]3O[C@@H](n4cc(-c5ccn(C)n5)c5c(N)ncnc54)[C@@H](F)[C@@H]3O)ccc2o1
REMARK SMILES IDX 9 1 8 4 7 5 3 6 4 7 36 8 5 9 35 10 6 11 34 12 33 14 2 17
REMARK SMILES IDX 1 20 10 24 11 25 31 26 12 28 29 29 30 32 32 34 13 36 14 37
REMARK SMILES IDX 28 38 15 39 22 41 27 42 23 43 26 44 25 45 16 47 17 48 21 49
REMARK SMILES IDX 18 50 19 52 20 54 24 58
REMARK H PARENT 9 2 9 3 6 13 34 15 33 16 2 18 2 19 1 21 1 22 1 23 10 27 31 30
REMARK H PARENT 12 31 29 33 32 35 14 40 26 46 17 51 18 53 20 55 20 56 20 57
REMARK H PARENT 24 59 24 60
REMARK Flexibility Score: inf
ROOT
ATOM      1  C   UNL     1     -46.659  35.323  26.218  1.00  0.00     0.117 C 
ATOM      2  H   UNL     1     -46.970  36.248  25.721  1.00  0.00     0.073 H 
ATOM      3  H   UNL     1     -45.961  34.826  25.535  1.00  0.00     0.073 H 
ENDROOT
BRANCH   1   4
ATOM      4  O   UNL     1     -47.760  34.415  26.354  1.00  0.00    -0.491 OA
BRANCH   4   5
ATOM      5  C   UNL     1     -47.707  33.204  25.719  1.00  0.00     0.121 A 
ATOM      6  C   UNL     1     -48.451  29.060  24.249  1.00  0.00     0.195 A 
ATOM      7  N   UNL     1     -49.131  29.808  25.098  1.00  0.00    -0.214 NA
ATOM      8  O   UNL     1     -47.328  29.650  23.729  1.00  0.00    -0.441 OA
ATOM      9  C   UNL     1     -48.412  30.977  25.143  1.00  0.00     0.113 A 
ATOM     10  C   UNL     1     -47.310  30.883  24.310  1.00  0.00     0.155 A 
ATOM     11  C   UNL     1     -48.629  32.158  25.866  1.00  0.00     0.010 A 
ATOM     12  C   UNL     1     -46.374  31.889  24.127  1.00  0.00    -0.013 A 
ATOM     13  H   UNL     1     -49.497  32.209  26.507  1.00  0.00     0.069 H 
ATOM     14  C   UNL     1     -46.604  33.062  24.860  1.00  0.00    -0.016 A 
ATOM     15  H   UNL     1     -45.525  31.774  23.466  1.00  0.00     0.066 H 
ATOM     16  H   UNL     1     -45.901  33.889  24.762  1.00  0.00     0.066 H 
BRANCH   6  17
ATOM     17  C   UNL     1     -48.741  27.677  23.795  1.00  0.00     0.021 C 
ATOM     18  H   UNL     1     -47.809  27.101  23.776  1.00  0.00     0.036 H 
ATOM     19  H   UNL     1     -49.408  27.183  24.512  1.00  0.00     0.036 H 
BRANCH  17  20
ATOM     20  C   UNL     1     -49.373  27.667  22.415  1.00  0.00    -0.057 C 
ATOM     21  H   UNL     1     -48.900  26.921  21.768  1.00  0.00     0.024 H 
ATOM     22  H   UNL     1     -50.441  27.432  22.471  1.00  0.00     0.024 H 
ATOM     23  H   UNL     1     -49.264  28.647  21.940  1.00  0.00     0.024 H 
ENDBRANCH  17  20
ENDBRANCH   6  17
ENDBRANCH   4   5
ENDBRANCH   1   4
BRANCH   1  24
ATOM     24  C   UNL     1     -45.978  35.572  27.575  1.00  0.00     0.123 C 
ATOM     25  O   UNL     1     -45.534  36.949  27.631  1.00  0.00    -0.345 OA
ATOM     26  C   UNL     1     -46.930  35.379  28.757  1.00  0.00     0.119 C 
ATOM     27  H   UNL     1     -45.080  34.953  27.680  1.00  0.00     0.067 H 
ATOM     28  C   UNL     1     -46.406  37.663  28.544  1.00  0.00     0.169 C 
ATOM     29  C   UNL     1     -47.572  36.740  28.879  1.00  0.00     0.173 C 
ATOM     30  H   UNL     1     -47.655  34.578  28.592  1.00  0.00     0.066 H 
ATOM     31  H   UNL     1     -45.802  37.878  29.434  1.00  0.00     0.088 H 
ATOM     32  F   UNL     1     -48.558  36.823  27.942  1.00  0.00    -0.239 F 
ATOM     33  H   UNL     1     -48.009  36.950  29.859  1.00  0.00     0.074 H 
BRANCH  26  34
ATOM     34  O   UNL     1     -46.212  35.087  29.960  1.00  0.00    -0.387 OA
ATOM     35  H   UNL     1     -45.924  34.157  29.925  1.00  0.00     0.211 HD
ENDBRANCH  26  34
BRANCH  28  36
ATOM     36  N   UNL     1     -46.808  38.936  27.971  1.00  0.00    -0.302 N 
ATOM     37  C   UNL     1     -48.063  39.482  27.950  1.00  0.00     0.019 A 
ATOM     38  C   UNL     1     -45.928  39.790  27.348  1.00  0.00     0.148 A 
ATOM     39  C   UNL     1     -47.982  40.717  27.336  1.00  0.00     0.033 A 
ATOM     40  H   UNL     1     -48.914  38.968  28.382  1.00  0.00     0.083 H 
ATOM     41  C   UNL     1     -46.632  40.909  26.914  1.00  0.00     0.071 A 
ATOM     42  N   UNL     1     -44.614  39.555  27.194  1.00  0.00    -0.218 NA
ATOM     43  C   UNL     1     -45.888  41.867  26.205  1.00  0.00     0.137 A 
ATOM     44  C   UNL     1     -44.011  40.553  26.531  1.00  0.00     0.120 A 
ATOM     45  N   UNL     1     -44.565  41.671  26.030  1.00  0.00    -0.219 NA
ATOM     46  H   UNL     1     -42.942  40.443  26.372  1.00  0.00     0.106 H 
BRANCH  39  47
ATOM     47  C   UNL     1     -49.094  41.645  27.155  1.00  0.00     0.095 A 
ATOM     48  C   UNL     1     -49.967  42.077  28.177  1.00  0.00    -0.016 A 
ATOM     49  N   UNL     1     -49.432  42.149  25.962  1.00  0.00    -0.173 NA
ATOM     50  C   UNL     1     -50.867  42.905  27.544  1.00  0.00     0.025 A 
ATOM     51  H   UNL     1     -49.948  41.816  29.225  1.00  0.00     0.066 H 
ATOM     52  N   UNL     1     -50.509  42.908  26.228  1.00  0.00    -0.275 N 
ATOM     53  H   UNL     1     -51.715  43.463  27.914  1.00  0.00     0.084 H 
BRANCH  52  54
ATOM     54  C   UNL     1     -51.160  43.615  25.153  1.00  0.00     0.030 C 
ATOM     55  H   UNL     1     -51.290  44.657  25.455  1.00  0.00     0.048 H 
ATOM     56  H   UNL     1     -52.133  43.160  24.954  1.00  0.00     0.048 H 
ATOM     57  H   UNL     1     -50.528  43.548  24.264  1.00  0.00     0.048 H 
ENDBRANCH  52  54
ENDBRANCH  39  47
BRANCH  43  58
ATOM     58  N   UNL     1     -46.421  43.010  25.620  1.00  0.00    -0.383 N 
ATOM     59  H   UNL     1     -47.294  42.844  25.134  1.00  0.00     0.158 HD
ATOM     60  H   UNL     1     -45.706  43.479  25.076  1.00  0.00     0.158 HD
ENDBRANCH  43  58
ENDBRANCH  28  36
ENDBRANCH   1  24
TORSDOF 10
ENDMDL
MODEL 3
REMARK VINA RESULT:      -8.5      1.691      2.154
REMARK SMILES CCc1nc2cc(OC[C@H]3O[C@@H](n4cc(-c5ccn(C)n5)c5c(N)ncnc54)[C@@H](F)[C@@H]3O)ccc2o1
REMARK SMILES IDX 9 1 8 4 7 5 3 6 4 7 36 8 5 9 35 10 6 11 34 12 33 14 2 17
REMARK SMILES IDX 1 20 10 24 11 25 31 26 12 28 29 29 30 32 32 34 13 36 14 37
REMARK SMILES IDX 28 38 15 39 22 41 27 42 23 43 26 44 25 45 16 47 17 48 21 49
REMARK SMILES IDX 18 50 19 52 20 54 24 58
REMARK H PARENT 9 2 9 3 6 13 34 15 33 16 2 18 2 19 1 21 1 22 1 23 10 27 31 30
REMARK H PARENT 12 31 29 33 32 35 14 40 26 46 17 51 18 53 20 55 20 56 20 57
REMARK H PARENT 24 59 24 60
REMARK Flexibility Score: inf
ROOT
ATOM      1  C   UNL     1     -45.837  35.208  28.265  1.00  0.00     0.117 C 
ATOM      2  H   UNL     1     -45.582  35.579  27.266  1.00  0.00     0.073 H 
ATOM      3  H   UNL     1     -44.939  35.331  28.879  1.00  0.00     0.073 H 
ENDROOT
BRANCH   1   4
ATOM      4  O   UNL     1     -46.086  33.796  28.242  1.00  0.00    -0.491 OA
BRANCH   4   5
ATOM      5  C   UNL     1     -46.536  33.218  27.085  1.00  0.00     0.121 A 
ATOM      6  C   UNL     1     -48.526  30.654  24.027  1.00  0.00     0.195 A 
ATOM      7  N   UNL     1     -48.581  30.622  25.346  1.00  0.00    -0.214 NA
ATOM      8  O   UNL     1     -47.726  31.638  23.505  1.00  0.00    -0.441 OA
ATOM      9  C   UNL     1     -47.763  31.657  25.726  1.00  0.00     0.113 A 
ATOM     10  C   UNL     1     -47.238  32.278  24.605  1.00  0.00     0.155 A 
ATOM     11  C   UNL     1     -47.415  32.129  27.000  1.00  0.00     0.010 A 
ATOM     12  C   UNL     1     -46.371  33.359  24.638  1.00  0.00    -0.013 A 
ATOM     13  H   UNL     1     -47.839  31.631  27.859  1.00  0.00     0.069 H 
ATOM     14  C   UNL     1     -46.031  33.816  25.918  1.00  0.00    -0.016 A 
ATOM     15  H   UNL     1     -45.983  33.814  23.735  1.00  0.00     0.066 H 
ATOM     16  H   UNL     1     -45.349  34.661  26.012  1.00  0.00     0.066 H 
BRANCH   6  17
ATOM     17  C   UNL     1     -49.208  29.769  23.050  1.00  0.00     0.021 C 
ATOM     18  H   UNL     1     -49.480  28.830  23.542  1.00  0.00     0.036 H 
ATOM     19  H   UNL     1     -50.140  30.237  22.713  1.00  0.00     0.036 H 
BRANCH  17  20
ATOM     20  C   UNL     1     -48.319  29.476  21.855  1.00  0.00    -0.057 C 
ATOM     21  H   UNL     1     -48.058  30.395  21.320  1.00  0.00     0.024 H 
ATOM     22  H   UNL     1     -47.385  28.994  22.164  1.00  0.00     0.024 H 
ATOM     23  H   UNL     1     -48.831  28.809  21.154  1.00  0.00     0.024 H 
ENDBRANCH  17  20
ENDBRANCH   6  17
ENDBRANCH   4   5
ENDBRANCH   1   4
BRANCH   1  24
ATOM     24  C   UNL     1     -47.015  35.967  28.902  1.00  0.00     0.123 C 
ATOM     25  O   UNL     1     -46.538  37.239  29.399  1.00  0.00    -0.345 OA
ATOM     26  C   UNL     1     -48.124  36.286  27.897  1.00  0.00     0.119 C 
ATOM     27  H   UNL     1     -47.406  35.423  29.768  1.00  0.00     0.067 H 
ATOM     28  C   UNL     1     -47.042  38.279  28.522  1.00  0.00     0.169 C 
ATOM     29  C   UNL     1     -47.656  37.595  27.307  1.00  0.00     0.173 C 
ATOM     30  H   UNL     1     -48.256  35.502  27.146  1.00  0.00     0.066 H 
ATOM     31  H   UNL     1     -47.802  38.821  29.100  1.00  0.00     0.088 H 
ATOM     32  F   UNL     1     -46.714  37.316  26.363  1.00  0.00    -0.239 F 
ATOM     33  H   UNL     1     -48.446  38.191  26.841  1.00  0.00     0.074 H 
BRANCH  26  34
ATOM     34  O   UNL     1     -49.379  36.486  28.554  1.00  0.00    -0.387 OA
ATOM     35  H   UNL     1     -49.373  35.977  29.385  1.00  0.00     0.211 HD
ENDBRANCH  26  34
BRANCH  28  36
ATOM     36  N   UNL     1     -45.987  39.224  28.197  1.00  0.00    -0.302 N 
ATOM     37  C   UNL     1     -45.969  40.133  27.173  1.00  0.00     0.019 A 
ATOM     38  C   UNL     1     -44.818  39.322  28.915  1.00  0.00     0.148 A 
ATOM     39  C   UNL     1     -44.789  40.847  27.257  1.00  0.00     0.033 A 
ATOM     40  H   UNL     1     -46.794  40.220  26.475  1.00  0.00     0.083 H 
ATOM     41  C   UNL     1     -44.029  40.313  28.341  1.00  0.00     0.071 A 
ATOM     42  N   UNL     1     -44.513  38.568  29.985  1.00  0.00    -0.218 NA
ATOM     43  C   UNL     1     -42.766  40.510  28.925  1.00  0.00     0.137 A 
ATOM     44  C   UNL     1     -43.299  38.869  30.469  1.00  0.00     0.120 A 
ATOM     45  N   UNL     1     -42.422  39.775  30.002  1.00  0.00    -0.219 NA
ATOM     46  H   UNL     1     -42.980  38.308  31.342  1.00  0.00     0.106 H 
BRANCH  39  47
ATOM     47  C   UNL     1     -44.403  41.946  26.377  1.00  0.00     0.095 A 
ATOM     48  C   UNL     1     -44.057  43.246  26.804  1.00  0.00    -0.016 A 
ATOM     49  N   UNL     1     -44.389  41.837  25.043  1.00  0.00    -0.173 NA
ATOM     50  C   UNL     1     -43.805  43.942  25.644  1.00  0.00     0.025 A 
ATOM     51  H   UNL     1     -44.006  43.625  27.815  1.00  0.00     0.066 H 
ATOM     52  N   UNL     1     -44.023  43.061  24.626  1.00  0.00    -0.275 N 
ATOM     53  H   UNL     1     -43.509  44.967  25.468  1.00  0.00     0.084 H 
BRANCH  52  54
ATOM     54  C   UNL     1     -43.908  43.322  23.212  1.00  0.00     0.030 C 
ATOM     55  H   UNL     1     -42.924  43.758  23.022  1.00  0.00     0.048 H 
ATOM     56  H   UNL     1     -44.690  44.020  22.905  1.00  0.00     0.048 H 
ATOM     57  H   UNL     1     -44.020  42.376  22.677  1.00  0.00     0.048 H 
ENDBRANCH  52  54
ENDBRANCH  39  47
BRANCH  43  58
ATOM     58  N   UNL     1     -41.802  41.391  28.450  1.00  0.00    -0.383 N 
ATOM     59  H   UNL     1     -42.080  42.363  28.510  1.00  0.00     0.158 HD
ATOM     60  H   UNL     1     -41.485  41.088  27.536  1.00  0.00     0.158 HD
ENDBRANCH  43  58
ENDBRANCH  28  36
ENDBRANCH   1  24
TORSDOF 10
ENDMDL
MODEL 4
REMARK VINA RESULT:      -8.4      3.524      7.992
REMARK SMILES CCc1nc2cc(OC[C@H]3O[C@@H](n4cc(-c5ccn(C)n5)c5c(N)ncnc54)[C@@H](F)[C@@H]3O)ccc2o1
REMARK SMILES IDX 9 1 8 4 7 5 3 6 4 7 36 8 5 9 35 10 6 11 34 12 33 14 2 17
REMARK SMILES IDX 1 20 10 24 11 25 31 26 12 28 29 29 30 32 32 34 13 36 14 37
REMARK SMILES IDX 28 38 15 39 22 41 27 42 23 43 26 44 25 45 16 47 17 48 21 49
REMARK SMILES IDX 18 50 19 52 20 54 24 58
REMARK H PARENT 9 2 9 3 6 13 34 15 33 16 2 18 2 19 1 21 1 22 1 23 10 27 31 30
REMARK H PARENT 12 31 29 33 32 35 14 40 26 46 17 51 18 53 20 55 20 56 20 57
REMARK H PARENT 24 59 24 60
REMARK Flexibility Score: inf
ROOT
ATOM      1  C   UNL     1     -44.991  36.058  28.311  1.00  0.00     0.117 C 
ATOM      2  H   UNL     1     -44.019  35.588  28.499  1.00  0.00     0.073 H 
ATOM      3  H   UNL     1     -44.940  36.478  27.301  1.00  0.00     0.073 H 
ENDROOT
BRANCH   1   4
ATOM      4  O   UNL     1     -45.196  37.182  29.176  1.00  0.00    -0.491 OA
BRANCH   4   5
ATOM      5  C   UNL     1     -44.633  38.386  28.848  1.00  0.00     0.121 A 
ATOM      6  C   UNL     1     -43.412  42.185  26.857  1.00  0.00     0.195 A 
ATOM      7  N   UNL     1     -44.256  41.245  26.474  1.00  0.00    -0.214 NA
ATOM      8  O   UNL     1     -42.807  41.962  28.068  1.00  0.00    -0.441 OA
ATOM      9  C   UNL     1     -44.211  40.336  27.503  1.00  0.00     0.113 A 
ATOM     10  C   UNL     1     -43.326  40.770  28.476  1.00  0.00     0.155 A 
ATOM     11  C   UNL     1     -44.888  39.121  27.682  1.00  0.00     0.010 A 
ATOM     12  C   UNL     1     -43.045  40.083  29.646  1.00  0.00    -0.013 A 
ATOM     13  H   UNL     1     -45.575  38.805  26.911  1.00  0.00     0.069 H 
ATOM     14  C   UNL     1     -43.727  38.869  29.807  1.00  0.00    -0.016 A 
ATOM     15  H   UNL     1     -42.344  40.458  30.381  1.00  0.00     0.066 H 
ATOM     16  H   UNL     1     -43.546  38.279  30.705  1.00  0.00     0.066 H 
BRANCH   6  17
ATOM     17  C   UNL     1     -43.035  43.434  26.150  1.00  0.00     0.021 C 
ATOM     18  H   UNL     1     -41.944  43.527  26.138  1.00  0.00     0.036 H 
ATOM     19  H   UNL     1     -43.365  43.384  25.106  1.00  0.00     0.036 H 
BRANCH  17  20
ATOM     20  C   UNL     1     -43.640  44.655  26.821  1.00  0.00    -0.057 C 
ATOM     21  H   UNL     1     -42.925  45.483  26.856  1.00  0.00     0.024 H 
ATOM     22  H   UNL     1     -44.529  45.002  26.282  1.00  0.00     0.024 H 
ATOM     23  H   UNL     1     -43.935  44.417  27.848  1.00  0.00     0.024 H 
ENDBRANCH  17  20
ENDBRANCH   6  17
ENDBRANCH   4   5
ENDBRANCH   1   4
BRANCH   1  24
ATOM     24  C   UNL     1     -46.163  35.065  28.407  1.00  0.00     0.123 C 
ATOM     25  O   UNL     1     -47.304  35.742  28.986  1.00  0.00    -0.345 OA
ATOM     26  C   UNL     1     -46.617  34.555  27.038  1.00  0.00     0.119 C 
ATOM     27  H   UNL     1     -45.919  34.237  29.081  1.00  0.00     0.067 H 
ATOM     28  C   UNL     1     -48.276  35.961  27.933  1.00  0.00     0.169 C 
ATOM     29  C   UNL     1     -47.605  35.614  26.610  1.00  0.00     0.173 C 
ATOM     30  H   UNL     1     -45.789  34.434  26.334  1.00  0.00     0.066 H 
ATOM     31  H   UNL     1     -49.111  35.281  28.145  1.00  0.00     0.088 H 
ATOM     32  F   UNL     1     -46.899  36.671  26.117  1.00  0.00    -0.239 F 
ATOM     33  H   UNL     1     -48.317  35.289  25.847  1.00  0.00     0.074 H 
BRANCH  26  34
ATOM     34  O   UNL     1     -47.292  33.298  27.149  1.00  0.00    -0.387 OA
ATOM     35  H   UNL     1     -48.151  33.372  26.696  1.00  0.00     0.211 HD
ENDBRANCH  26  34
BRANCH  28  36
ATOM     36  N   UNL     1     -48.794  37.318  27.994  1.00  0.00    -0.302 N 
ATOM     37  C   UNL     1     -48.138  38.475  27.670  1.00  0.00     0.019 A 
ATOM     38  C   UNL     1     -50.071  37.617  28.407  1.00  0.00     0.148 A 
ATOM     39  C   UNL     1     -49.016  39.527  27.844  1.00  0.00     0.033 A 
ATOM     40  H   UNL     1     -47.109  38.469  27.326  1.00  0.00     0.083 H 
ATOM     41  C   UNL     1     -50.241  38.997  28.350  1.00  0.00     0.071 A 
ATOM     42  N   UNL     1     -50.980  36.708  28.799  1.00  0.00    -0.218 NA
ATOM     43  C   UNL     1     -51.484  39.482  28.791  1.00  0.00     0.137 A 
ATOM     44  C   UNL     1     -52.131  37.291  29.167  1.00  0.00     0.120 A 
ATOM     45  N   UNL     1     -52.425  38.603  29.192  1.00  0.00    -0.219 NA
ATOM     46  H   UNL     1     -52.923  36.623  29.490  1.00  0.00     0.106 H 
BRANCH  39  47
ATOM     47  C   UNL     1     -48.722  40.929  27.561  1.00  0.00     0.095 A 
ATOM     48  C   UNL     1     -47.841  41.389  26.560  1.00  0.00    -0.016 A 
ATOM     49  N   UNL     1     -49.235  41.937  28.278  1.00  0.00    -0.173 NA
ATOM     50  C   UNL     1     -47.851  42.760  26.683  1.00  0.00     0.025 A 
ATOM     51  H   UNL     1     -47.272  40.803  25.852  1.00  0.00     0.066 H 
ATOM     52  N   UNL     1     -48.690  43.033  27.723  1.00  0.00    -0.275 N 
ATOM     53  H   UNL     1     -47.334  43.536  26.139  1.00  0.00     0.084 H 
BRANCH  52  54
ATOM     54  C   UNL     1     -49.019  44.333  28.255  1.00  0.00     0.030 C 
ATOM     55  H   UNL     1     -49.638  44.195  29.145  1.00  0.00     0.048 H 
ATOM     56  H   UNL     1     -49.568  44.906  27.504  1.00  0.00     0.048 H 
ATOM     57  H   UNL     1     -48.088  44.847  28.509  1.00  0.00     0.048 H 
ENDBRANCH  52  54
ENDBRANCH  39  47
BRANCH  43  58
ATOM     58  N   UNL     1     -51.819  40.828  28.890  1.00  0.00    -0.383 N 
ATOM     59  H   UNL     1     -52.817  40.998  28.853  1.00  0.00     0.158 HD
ATOM     60  H   UNL     1     -51.264  41.366  28.234  1.00  0.00     0.158 HD
ENDBRANCH  43  58
ENDBRANCH  28  36
ENDBRANCH   1  24
TORSDOF 10
ENDMDL
MODEL 5
REMARK VINA RESULT:      -8.3      3.699      6.091
REMARK SMILES CCc1nc2cc(OC[C@H]3O[C@@H](n4cc(-c5ccn(C)n5)c5c(N)ncnc54)[C@@H](F)[C@@H]3O)ccc2o1
REMARK SMILES IDX 9 1 8 4 7 5 3 6 4 7 36 8 5 9 35 10 6 11 34 12 33 14 2 17
REMARK SMILES IDX 1 20 10 24 11 25 31 26 12 28 29 29 30 32 32 34 13 36 14 37
REMARK SMILES IDX 28 38 15 39 22 41 27 42 23 43 26 44 25 45 16 47 17 48 21 49
REMARK SMILES IDX 18 50 19 52 20 54 24 58
REMARK H PARENT 9 2 9 3 6 13 34 15 33 16 2 18 2 19 1 21 1 22 1 23 10 27 31 30
REMARK H PARENT 12 31 29 33 32 35 14 40 26 46 17 51 18 53 20 55 20 56 20 57
REMARK H PARENT 24 59 24 60
REMARK Flexibility Score: inf
ROOT
ATOM      1  C   UNL     1     -47.711  36.750  27.340  1.00  0.00     0.117 C 
ATOM      2  H   UNL     1     -47.544  37.775  26.989  1.00  0.00     0.073 H 
ATOM      3  H   UNL     1     -47.821  36.131  26.443  1.00  0.00     0.073 H 
ENDROOT
BRANCH   1   4
ATOM      4  O   UNL     1     -48.963  36.639  28.028  1.00  0.00    -0.491 OA
BRANCH   4   5
ATOM      5  C   UNL     1     -49.784  37.732  28.100  1.00  0.00     0.121 A 
ATOM      6  C   UNL     1     -51.495  41.848  28.229  1.00  0.00     0.195 A 
ATOM      7  N   UNL     1     -50.249  41.438  28.085  1.00  0.00    -0.214 NA
ATOM      8  O   UNL     1     -52.423  40.846  28.363  1.00  0.00    -0.441 OA
ATOM      9  C   UNL     1     -50.356  40.069  28.121  1.00  0.00     0.113 A 
ATOM     10  C   UNL     1     -51.681  39.705  28.293  1.00  0.00     0.155 A 
ATOM     11  C   UNL     1     -49.376  39.071  28.018  1.00  0.00     0.010 A 
ATOM     12  C   UNL     1     -52.133  38.397  28.375  1.00  0.00    -0.013 A 
ATOM     13  H   UNL     1     -48.350  39.379  27.881  1.00  0.00     0.069 H 
ATOM     14  C   UNL     1     -51.141  37.413  28.273  1.00  0.00    -0.016 A 
ATOM     15  H   UNL     1     -53.180  38.157  28.511  1.00  0.00     0.066 H 
ATOM     16  H   UNL     1     -51.432  36.364  28.334  1.00  0.00     0.066 H 
BRANCH   6  17
ATOM     17  C   UNL     1     -52.014  43.238  28.272  1.00  0.00     0.021 C 
ATOM     18  H   UNL     1     -53.091  43.228  28.077  1.00  0.00     0.036 H 
ATOM     19  H   UNL     1     -51.874  43.656  29.276  1.00  0.00     0.036 H 
BRANCH  17  20
ATOM     20  C   UNL     1     -51.321  44.120  27.249  1.00  0.00    -0.057 C 
ATOM     21  H   UNL     1     -50.955  45.045  27.706  1.00  0.00     0.024 H 
ATOM     22  H   UNL     1     -50.463  43.606  26.800  1.00  0.00     0.024 H 
ATOM     23  H   UNL     1     -52.015  44.388  26.446  1.00  0.00     0.024 H 
ENDBRANCH  17  20
ENDBRANCH   6  17
ENDBRANCH   4   5
ENDBRANCH   1   4
BRANCH   1  24
ATOM     24  C   UNL     1     -46.555  36.218  28.206  1.00  0.00     0.123 C 
ATOM     25  O   UNL     1     -45.332  36.888  27.818  1.00  0.00    -0.345 OA
ATOM     26  C   UNL     1     -46.751  36.509  29.695  1.00  0.00     0.119 C 
ATOM     27  H   UNL     1     -46.393  35.150  28.026  1.00  0.00     0.067 H 
ATOM     28  C   UNL     1     -44.980  37.820  28.872  1.00  0.00     0.169 C 
ATOM     29  C   UNL     1     -46.160  37.891  29.833  1.00  0.00     0.173 C 
ATOM     30  H   UNL     1     -47.799  36.459  30.003  1.00  0.00     0.066 H 
ATOM     31  H   UNL     1     -44.093  37.401  29.363  1.00  0.00     0.088 H 
ATOM     32  F   UNL     1     -47.094  38.790  29.411  1.00  0.00    -0.239 F 
ATOM     33  H   UNL     1     -45.861  38.157  30.851  1.00  0.00     0.074 H 
BRANCH  26  34
ATOM     34  O   UNL     1     -46.007  35.594  30.505  1.00  0.00    -0.387 OA
ATOM     35  H   UNL     1     -45.123  35.488  30.111  1.00  0.00     0.211 HD
ENDBRANCH  26  34
BRANCH  28  36
ATOM     36  N   UNL     1     -44.601  39.104  28.308  1.00  0.00    -0.302 N 
ATOM     37  C   UNL     1     -45.139  39.726  27.213  1.00  0.00     0.019 A 
ATOM     38  C   UNL     1     -43.602  39.890  28.833  1.00  0.00     0.148 A 
ATOM     39  C   UNL     1     -44.500  40.941  27.055  1.00  0.00     0.033 A 
ATOM     40  H   UNL     1     -45.940  39.274  26.639  1.00  0.00     0.083 H 
ATOM     41  C   UNL     1     -43.492  41.041  28.059  1.00  0.00     0.071 A 
ATOM     42  N   UNL     1     -42.866  39.571  29.913  1.00  0.00    -0.218 NA
ATOM     43  C   UNL     1     -42.475  41.937  28.430  1.00  0.00     0.137 A 
ATOM     44  C   UNL     1     -41.953  40.516  30.181  1.00  0.00     0.120 A 
ATOM     45  N   UNL     1     -41.715  41.655  29.508  1.00  0.00    -0.219 NA
ATOM     46  H   UNL     1     -41.321  40.337  31.047  1.00  0.00     0.106 H 
BRANCH  39  47
ATOM     47  C   UNL     1     -44.813  41.932  26.030  1.00  0.00     0.095 A 
ATOM     48  C   UNL     1     -46.040  42.620  25.911  1.00  0.00    -0.016 A 
ATOM     49  N   UNL     1     -43.963  42.253  25.047  1.00  0.00    -0.173 NA
ATOM     50  C   UNL     1     -45.893  43.413  24.796  1.00  0.00     0.025 A 
ATOM     51  H   UNL     1     -46.912  42.544  26.545  1.00  0.00     0.066 H 
ATOM     52  N   UNL     1     -44.643  43.152  24.315  1.00  0.00    -0.275 N 
ATOM     53  H   UNL     1     -46.563  44.110  24.314  1.00  0.00     0.084 H 
BRANCH  52  54
ATOM     54  C   UNL     1     -44.026  43.725  23.145  1.00  0.00     0.030 C 
ATOM     55  H   UNL     1     -44.403  44.743  23.019  1.00  0.00     0.048 H 
ATOM     56  H   UNL     1     -44.277  43.124  22.268  1.00  0.00     0.048 H 
ATOM     57  H   UNL     1     -42.943  43.731  23.294  1.00  0.00     0.048 H 
ENDBRANCH  52  54
ENDBRANCH  39  47
BRANCH  43  58
ATOM     58  N   UNL     1     -42.151  43.098  27.738  1.00  0.00    -0.383 N 
ATOM     59  H   UNL     1     -42.410  43.945  28.229  1.00  0.00     0.158 HD
ATOM     60  H   UNL     1     -42.488  43.031  26.784  1.00  0.00     0.158 HD
ENDBRANCH  43  58
ENDBRANCH  28  36
ENDBRANCH   1  24
TORSDOF 10
ENDMDL
MODEL 6
REMARK VINA RESULT:      -8.2      2.015      3.480
REMARK SMILES CCc1nc2cc(OC[C@H]3O[C@@H](n4cc(-c5ccn(C)n5)c5c(N)ncnc54)[C@@H](F)[C@@H]3O)ccc2o1
REMARK SMILES IDX 9 1 8 4 7 5 3 6 4 7 36 8 5 9 35 10 6 11 34 12 33 14 2 17
REMARK SMILES IDX 1 20 10 24 11 25 31 26 12 28 29 29 30 32 32 34 13 36 14 37
REMARK SMILES IDX 28 38 15 39 22 41 27 42 23 43 26 44 25 45 16 47 17 48 21 49
REMARK SMILES IDX 18 50 19 52 20 54 24 58
REMARK H PARENT 9 2 9 3 6 13 34 15 33 16 2 18 2 19 1 21 1 22 1 23 10 27 31 30
REMARK H PARENT 12 31 29 33 32 35 14 40 26 46 17 51 18 53 20 55 20 56 20 57
REMARK H PARENT 24 59 24 60
REMARK Flexibility Score: inf
ROOT
ATOM      1  C   UNL     1     -45.669  35.767  28.230  1.00  0.00     0.117 C 
ATOM      2  H   UNL     1     -45.597  36.161  27.211  1.00  0.00     0.073 H 
ATOM      3  H   UNL     1     -44.743  36.058  28.739  1.00  0.00     0.073 H 
ENDROOT
BRANCH   1   4
ATOM      4  O   UNL     1     -45.663  34.333  28.231  1.00  0.00    -0.491 OA
BRANCH   4   5
ATOM      5  C   UNL     1     -46.258  33.664  27.196  1.00  0.00     0.121 A 
ATOM      6  C   UNL     1     -48.546  30.813  24.642  1.00  0.00     0.195 A 
ATOM      7  N   UNL     1     -48.374  30.850  25.950  1.00  0.00    -0.214 NA
ATOM      8  O   UNL     1     -47.919  31.816  23.947  1.00  0.00    -0.441 OA
ATOM      9  C   UNL     1     -47.581  31.956  26.138  1.00  0.00     0.113 A 
ATOM     10  C   UNL     1     -47.300  32.546  24.917  1.00  0.00     0.155 A 
ATOM     11  C   UNL     1     -47.058  32.519  27.311  1.00  0.00     0.010 A 
ATOM     12  C   UNL     1     -46.520  33.680  24.753  1.00  0.00    -0.013 A 
ATOM     13  H   UNL     1     -47.294  32.043  28.251  1.00  0.00     0.069 H 
ATOM     14  C   UNL     1     -46.002  34.228  25.935  1.00  0.00    -0.016 A 
ATOM     15  H   UNL     1     -46.324  34.108  23.778  1.00  0.00     0.066 H 
ATOM     16  H   UNL     1     -45.378  35.118  25.872  1.00  0.00     0.066 H 
BRANCH   6  17
ATOM     17  C   UNL     1     -49.316  29.834  23.836  1.00  0.00     0.021 C 
ATOM     18  H   UNL     1     -50.387  30.016  23.973  1.00  0.00     0.036 H 
ATOM     19  H   UNL     1     -49.100  29.977  22.771  1.00  0.00     0.036 H 
BRANCH  17  20
ATOM     20  C   UNL     1     -48.989  28.407  24.238  1.00  0.00    -0.057 C 
ATOM     21  H   UNL     1     -47.947  28.159  24.008  1.00  0.00     0.024 H 
ATOM     22  H   UNL     1     -49.139  28.253  25.312  1.00  0.00     0.024 H 
ATOM     23  H   UNL     1     -49.632  27.703  23.700  1.00  0.00     0.024 H 
ENDBRANCH  17  20
ENDBRANCH   6  17
ENDBRANCH   4   5
ENDBRANCH   1   4
BRANCH   1  24
ATOM     24  C   UNL     1     -46.884  36.316  29.000  1.00  0.00     0.123 C 
ATOM     25  O   UNL     1     -46.660  37.715  29.292  1.00  0.00    -0.345 OA
ATOM     26  C   UNL     1     -48.177  36.248  28.185  1.00  0.00     0.119 C 
ATOM     27  H   UNL     1     -46.994  35.811  29.965  1.00  0.00     0.067 H 
ATOM     28  C   UNL     1     -47.529  38.496  28.432  1.00  0.00     0.169 C 
ATOM     29  C   UNL     1     -48.138  37.543  27.410  1.00  0.00     0.173 C 
ATOM     30  H   UNL     1     -48.228  35.366  27.540  1.00  0.00     0.066 H 
ATOM     31  H   UNL     1     -48.301  38.921  29.087  1.00  0.00     0.088 H 
ATOM     32  F   UNL     1     -47.312  37.367  26.340  1.00  0.00    -0.239 F 
ATOM     33  H   UNL     1     -49.111  37.882  27.043  1.00  0.00     0.074 H 
BRANCH  26  34
ATOM     34  O   UNL     1     -49.328  36.242  29.036  1.00  0.00    -0.387 OA
ATOM     35  H   UNL     1     -49.305  37.046  29.584  1.00  0.00     0.211 HD
ENDBRANCH  26  34
BRANCH  28  36
ATOM     36  N   UNL     1     -46.798  39.605  27.843  1.00  0.00    -0.302 N 
ATOM     37  C   UNL     1     -45.441  39.779  27.801  1.00  0.00     0.019 A 
ATOM     38  C   UNL     1     -47.415  40.668  27.226  1.00  0.00     0.148 A 
ATOM     39  C   UNL     1     -45.183  40.952  27.118  1.00  0.00     0.033 A 
ATOM     40  H   UNL     1     -44.761  39.058  28.240  1.00  0.00     0.083 H 
ATOM     41  C   UNL     1     -46.434  41.548  26.779  1.00  0.00     0.071 A 
ATOM     42  N   UNL     1     -48.745  40.810  27.096  1.00  0.00    -0.218 NA
ATOM     43  C   UNL     1     -46.897  42.724  26.166  1.00  0.00     0.137 A 
ATOM     44  C   UNL     1     -49.059  41.954  26.471  1.00  0.00     0.120 A 
ATOM     45  N   UNL     1     -48.225  42.905  26.014  1.00  0.00    -0.219 NA
ATOM     46  H   UNL     1     -50.118  42.140  26.318  1.00  0.00     0.106 H 
BRANCH  39  47
ATOM     47  C   UNL     1     -43.855  41.476  26.813  1.00  0.00     0.095 A 
ATOM     48  C   UNL     1     -42.700  41.275  27.598  1.00  0.00    -0.016 A 
ATOM     49  N   UNL     1     -43.610  42.262  25.757  1.00  0.00    -0.173 NA
ATOM     50  C   UNL     1     -41.706  41.973  26.951  1.00  0.00     0.025 A 
ATOM     51  H   UNL     1     -42.606  40.707  28.513  1.00  0.00     0.066 H 
ATOM     52  N   UNL     1     -42.301  42.548  25.866  1.00  0.00    -0.275 N 
ATOM     53  H   UNL     1     -40.659  42.113  27.176  1.00  0.00     0.084 H 
BRANCH  52  54
ATOM     54  C   UNL     1     -41.677  43.397  24.881  1.00  0.00     0.030 C 
ATOM     55  H   UNL     1     -41.395  44.336  25.366  1.00  0.00     0.048 H 
ATOM     56  H   UNL     1     -42.382  43.594  24.070  1.00  0.00     0.048 H 
ATOM     57  H   UNL     1     -40.795  42.883  24.492  1.00  0.00     0.048 H 
ENDBRANCH  52  54
ENDBRANCH  39  47
BRANCH  43  58
ATOM     58  N   UNL     1     -46.083  43.762  25.727  1.00  0.00    -0.383 N 
ATOM     59  H   UNL     1     -45.729  43.628  24.788  1.00  0.00     0.158 HD
ATOM     60  H   UNL     1     -45.380  43.963  26.430  1.00  0.00     0.158 HD
ENDBRANCH  43  58
ENDBRANCH  28  36
ENDBRANCH   1  24
TORSDOF 10
ENDMDL
MODEL 7
REMARK VINA RESULT:      -8.1      3.820      7.111
REMARK SMILES CCc1nc2cc(OC[C@H]3O[C@@H](n4cc(-c5ccn(C)n5)c5c(N)ncnc54)[C@@H](F)[C@@H]3O)ccc2o1
REMARK SMILES IDX 9 1 8 4 7 5 3 6 4 7 36 8 5 9 35 10 6 11 34 12 33 14 2 17
REMARK SMILES IDX 1 20 10 24 11 25 31 26 12 28 29 29 30 32 32 34 13 36 14 37
REMARK SMILES IDX 28 38 15 39 22 41 27 42 23 43 26 44 25 45 16 47 17 48 21 49
REMARK SMILES IDX 18 50 19 52 20 54 24 58
REMARK H PARENT 9 2 9 3 6 13 34 15 33 16 2 18 2 19 1 21 1 22 1 23 10 27 31 30
REMARK H PARENT 12 31 29 33 32 35 14 40 26 46 17 51 18 53 20 55 20 56 20 57
REMARK H PARENT 24 59 24 60
REMARK Flexibility Score: inf
ROOT
ATOM      1  C   UNL     1     -48.596  37.682  27.979  1.00  0.00     0.117 C 
ATOM      2  H   UNL     1     -49.505  37.235  27.562  1.00  0.00     0.073 H 
ATOM      3  H   UNL     1     -48.850  38.006  28.994  1.00  0.00     0.073 H 
ENDROOT
BRANCH   1   4
ATOM      4  O   UNL     1     -48.244  38.883  27.279  1.00  0.00    -0.491 OA
BRANCH   4   5
ATOM      5  C   UNL     1     -48.725  40.082  27.731  1.00  0.00     0.121 A 
ATOM      6  C   UNL     1     -50.729  43.352  30.005  1.00  0.00     0.195 A 
ATOM      7  N   UNL     1     -50.664  42.055  30.240  1.00  0.00    -0.214 NA
ATOM      8  O   UNL     1     -50.073  43.770  28.875  1.00  0.00    -0.441 OA
ATOM      9  C   UNL     1     -49.910  41.578  29.196  1.00  0.00     0.113 A 
ATOM     10  C   UNL     1     -49.550  42.622  28.360  1.00  0.00     0.155 A 
ATOM     11  C   UNL     1     -49.493  40.275  28.888  1.00  0.00     0.010 A 
ATOM     12  C   UNL     1     -48.789  42.483  27.210  1.00  0.00    -0.013 A 
ATOM     13  H   UNL     1     -49.783  39.478  29.556  1.00  0.00     0.069 H 
ATOM     14  C   UNL     1     -48.383  41.174  26.916  1.00  0.00    -0.016 A 
ATOM     15  H   UNL     1     -48.530  43.327  26.584  1.00  0.00     0.066 H 
ATOM     16  H   UNL     1     -47.785  40.998  26.022  1.00  0.00     0.066 H 
BRANCH   6  17
ATOM     17  C   UNL     1     -51.419  44.403  30.795  1.00  0.00     0.021 C 
ATOM     18  H   UNL     1     -52.301  44.747  30.246  1.00  0.00     0.036 H 
ATOM     19  H   UNL     1     -51.775  43.982  31.742  1.00  0.00     0.036 H 
BRANCH  17  20
ATOM     20  C   UNL     1     -50.501  45.581  31.070  1.00  0.00    -0.057 C 
ATOM     21  H   UNL     1     -50.000  45.916  30.156  1.00  0.00     0.024 H 
ATOM     22  H   UNL     1     -51.060  46.431  31.476  1.00  0.00     0.024 H 
ATOM     23  H   UNL     1     -49.732  45.302  31.797  1.00  0.00     0.024 H 
ENDBRANCH  17  20
ENDBRANCH   6  17
ENDBRANCH   4   5
ENDBRANCH   1   4
BRANCH   1  24
ATOM     24  C   UNL     1     -47.411  36.701  28.023  1.00  0.00     0.123 C 
ATOM     25  O   UNL     1     -46.299  37.276  27.298  1.00  0.00    -0.345 OA
ATOM     26  C   UNL     1     -46.911  36.444  29.446  1.00  0.00     0.119 C 
ATOM     27  H   UNL     1     -47.662  35.764  27.513  1.00  0.00     0.067 H 
ATOM     28  C   UNL     1     -45.300  37.687  28.266  1.00  0.00     0.169 C 
ATOM     29  C   UNL     1     -45.928  37.572  29.649  1.00  0.00     0.173 C 
ATOM     30  H   UNL     1     -47.716  36.441  30.186  1.00  0.00     0.066 H 
ATOM     31  H   UNL     1     -44.461  36.989  28.151  1.00  0.00     0.088 H 
ATOM     32  F   UNL     1     -46.635  38.692  29.970  1.00  0.00    -0.239 F 
ATOM     33  H   UNL     1     -45.189  37.394  30.436  1.00  0.00     0.074 H 
BRANCH  26  34
ATOM     34  O   UNL     1     -46.220  35.194  29.536  1.00  0.00    -0.387 OA
ATOM     35  H   UNL     1     -46.772  34.578  30.050  1.00  0.00     0.211 HD
ENDBRANCH  26  34
BRANCH  28  36
ATOM     36  N   UNL     1     -44.805  39.017  27.951  1.00  0.00    -0.302 N 
ATOM     37  C   UNL     1     -45.187  39.825  26.913  1.00  0.00     0.019 A 
ATOM     38  C   UNL     1     -43.844  39.657  28.697  1.00  0.00     0.148 A 
ATOM     39  C   UNL     1     -44.486  41.011  27.015  1.00  0.00     0.033 A 
ATOM     40  H   UNL     1     -45.933  39.510  26.192  1.00  0.00     0.083 H 
ATOM     41  C   UNL     1     -43.599  40.902  28.127  1.00  0.00     0.071 A 
ATOM     42  N   UNL     1     -43.253  39.140  29.788  1.00  0.00    -0.218 NA
ATOM     43  C   UNL     1     -42.596  41.673  28.740  1.00  0.00     0.137 A 
ATOM     44  C   UNL     1     -42.339  39.980  30.297  1.00  0.00     0.120 A 
ATOM     45  N   UNL     1     -41.979  41.191  29.838  1.00  0.00    -0.219 NA
ATOM     46  H   UNL     1     -41.821  39.639  31.189  1.00  0.00     0.106 H 
BRANCH  39  47
ATOM     47  C   UNL     1     -44.637  42.160  26.127  1.00  0.00     0.095 A 
ATOM     48  C   UNL     1     -44.340  42.166  24.747  1.00  0.00    -0.016 A 
ATOM     49  N   UNL     1     -45.033  43.363  26.558  1.00  0.00    -0.173 NA
ATOM     50  C   UNL     1     -44.598  43.454  24.337  1.00  0.00     0.025 A 
ATOM     51  H   UNL     1     -43.981  41.348  24.138  1.00  0.00     0.066 H 
ATOM     52  N   UNL     1     -45.000  44.127  25.453  1.00  0.00    -0.275 N 
ATOM     53  H   UNL     1     -44.515  43.933  23.372  1.00  0.00     0.084 H 
BRANCH  52  54
ATOM     54  C   UNL     1     -45.367  45.519  25.543  1.00  0.00     0.030 C 
ATOM     55  H   UNL     1     -45.980  45.656  26.437  1.00  0.00     0.048 H 
ATOM     56  H   UNL     1     -45.935  45.804  24.654  1.00  0.00     0.048 H 
ATOM     57  H   UNL     1     -44.452  46.113  25.608  1.00  0.00     0.048 H 
ENDBRANCH  52  54
ENDBRANCH  39  47
BRANCH  43  58
ATOM     58  N   UNL     1     -42.147  42.904  28.274  1.00  0.00    -0.383 N 
ATOM     59  H   UNL     1     -42.201  42.998  27.267  1.00  0.00     0.158 HD
ATOM     60  H   UNL     1     -41.242  43.112  28.681  1.00  0.00     0.158 HD
ENDBRANCH  43  58
ENDBRANCH  28  36
ENDBRANCH   1  24
TORSDOF 10
ENDMDL
