MODEL 1
REMARK VINA RESULT:     -10.2      0.000      0.000
REMARK SMILES CNc1ccc2ccc(CCc3cncc(-n4cc(-c5ccn(C)n5)c5c(N)ncnc54)c3)cc2n1
REMARK SMILES IDX 11 1 10 4 9 7 3 8 4 9 36 10 5 11 35 13 6 14 34 16 7 17 8 19
REMARK SMILES IDX 2 22 1 24 12 28 13 29 33 30 14 31 16 33 15 35 17 37 18 38
REMARK SMILES IDX 32 39 19 40 26 42 31 43 27 44 30 45 29 46 20 48 21 49 25 50
REMARK SMILES IDX 22 51 23 53 24 55 28 59
REMARK H PARENT 11 2 11 3 10 5 10 6 4 12 5 15 34 18 7 20 8 21 2 23 1 25 1 26
REMARK H PARENT 1 27 13 32 33 34 15 36 18 41 30 47 21 52 22 54 24 56 24 57
REMARK H PARENT 24 58 28 60 28 61
REMARK Flexibility Score: inf
ROOT
ATOM      1  C   UNL     1     -46.832  33.827  26.590  1.00  0.00    -0.022 C 
ATOM      2  H   UNL     1     -45.910  33.629  27.153  1.00  0.00     0.032 H 
ATOM      3  H   UNL     1     -47.554  33.078  26.938  1.00  0.00     0.032 H 
ENDROOT
BRANCH   1   4
ATOM      4  C   UNL     1     -46.550  33.644  25.089  1.00  0.00    -0.024 C 
ATOM      5  H   UNL     1     -45.506  33.907  24.882  1.00  0.00     0.032 H 
ATOM      6  H   UNL     1     -47.160  34.351  24.511  1.00  0.00     0.032 H 
BRANCH   4   7
ATOM      7  C   UNL     1     -46.794  32.237  24.590  1.00  0.00    -0.046 A 
ATOM      8  C   UNL     1     -49.430  28.262  24.724  1.00  0.00     0.126 A 
ATOM      9  C   UNL     1     -48.743  27.715  23.646  1.00  0.00    -0.019 A 
ATOM     10  N   UNL     1     -49.127  29.483  25.210  1.00  0.00    -0.231 NA
ATOM     11  C   UNL     1     -47.705  28.433  23.063  1.00  0.00    -0.049 A 
ATOM     12  H   UNL     1     -49.024  26.746  23.248  1.00  0.00     0.066 H 
ATOM     13  C   UNL     1     -48.118  30.180  24.655  1.00  0.00     0.073 A 
ATOM     14  C   UNL     1     -47.374  29.693  23.565  1.00  0.00     0.000 A 
ATOM     15  H   UNL     1     -47.172  28.011  22.216  1.00  0.00     0.063 H 
ATOM     16  C   UNL     1     -47.803  31.439  25.155  1.00  0.00    -0.032 A 
ATOM     17  C   UNL     1     -46.345  30.467  23.005  1.00  0.00    -0.053 A 
ATOM     18  H   UNL     1     -48.385  31.814  25.994  1.00  0.00     0.065 H 
ATOM     19  C   UNL     1     -46.060  31.732  23.512  1.00  0.00    -0.058 A 
ATOM     20  H   UNL     1     -45.772  30.095  22.158  1.00  0.00     0.063 H 
ATOM     21  H   UNL     1     -45.281  32.330  23.045  1.00  0.00     0.063 H 
BRANCH   8  22
ATOM     22  N   UNL     1     -50.506  27.528  25.257  1.00  0.00    -0.373 N 
ATOM     23  H   UNL     1     -51.100  27.220  24.492  1.00  0.00     0.161 HD
BRANCH  22  24
ATOM     24  C   UNL     1     -50.106  26.419  26.109  1.00  0.00     0.005 C 
ATOM     25  H   UNL     1     -49.336  25.835  25.593  1.00  0.00     0.045 H 
ATOM     26  H   UNL     1     -49.676  26.771  27.053  1.00  0.00     0.045 H 
ATOM     27  H   UNL     1     -50.944  25.745  26.312  1.00  0.00     0.045 H 
ENDBRANCH  22  24
ENDBRANCH   8  22
ENDBRANCH   4   7
ENDBRANCH   1   4
BRANCH   1  28
ATOM     28  C   UNL     1     -47.335  35.204  26.939  1.00  0.00    -0.027 A 
ATOM     29  C   UNL     1     -48.652  35.429  27.306  1.00  0.00     0.030 A 
ATOM     30  C   UNL     1     -46.460  36.299  26.965  1.00  0.00    -0.032 A 
ATOM     31  N   UNL     1     -49.128  36.633  27.684  1.00  0.00    -0.262 NA
ATOM     32  H   UNL     1     -49.385  34.627  27.315  1.00  0.00     0.084 H 
ATOM     33  C   UNL     1     -46.902  37.561  27.383  1.00  0.00     0.066 A 
ATOM     34  H   UNL     1     -45.432  36.125  26.667  1.00  0.00     0.065 H 
ATOM     35  C   UNL     1     -48.246  37.668  27.717  1.00  0.00     0.051 A 
ATOM     36  H   UNL     1     -48.704  38.587  28.063  1.00  0.00     0.086 H 
BRANCH  33  37
ATOM     37  N   UNL     1     -45.992  38.662  27.488  1.00  0.00    -0.299 N 
ATOM     38  C   UNL     1     -45.917  39.712  26.588  1.00  0.00     0.021 A 
ATOM     39  C   UNL     1     -45.021  38.888  28.463  1.00  0.00     0.150 A 
ATOM     40  C   UNL     1     -44.920  40.585  26.969  1.00  0.00     0.033 A 
ATOM     41  H   UNL     1     -46.569  39.771  25.729  1.00  0.00     0.083 H 
ATOM     42  C   UNL     1     -44.324  40.057  28.149  1.00  0.00     0.071 A 
ATOM     43  N   UNL     1     -44.791  38.117  29.544  1.00  0.00    -0.218 NA
ATOM     44  C   UNL     1     -43.272  40.411  29.016  1.00  0.00     0.137 A 
ATOM     45  C   UNL     1     -43.795  38.576  30.311  1.00  0.00     0.120 A 
ATOM     46  N   UNL     1     -43.038  39.662  30.110  1.00  0.00    -0.219 NA
ATOM     47  H   UNL     1     -43.569  37.998  31.201  1.00  0.00     0.106 H 
BRANCH  40  48
ATOM     48  C   UNL     1     -44.567  41.831  26.277  1.00  0.00     0.095 A 
ATOM     49  C   UNL     1     -44.320  41.929  24.888  1.00  0.00    -0.016 A 
ATOM     50  N   UNL     1     -44.474  43.024  26.880  1.00  0.00    -0.173 NA
ATOM     51  C   UNL     1     -44.048  43.259  24.666  1.00  0.00     0.025 A 
ATOM     52  H   UNL     1     -44.335  41.146  24.143  1.00  0.00     0.066 H 
ATOM     53  N   UNL     1     -44.148  43.867  25.880  1.00  0.00    -0.275 N 
ATOM     54  H   UNL     1     -43.801  43.801  23.763  1.00  0.00     0.084 H 
BRANCH  53  55
ATOM     55  C   UNL     1     -43.950  45.267  26.168  1.00  0.00     0.030 C 
ATOM     56  H   UNL     1     -44.863  45.683  26.600  1.00  0.00     0.048 H 
ATOM     57  H   UNL     1     -43.711  45.780  25.234  1.00  0.00     0.048 H 
ATOM     58  H   UNL     1     -43.125  45.358  26.880  1.00  0.00     0.048 H 
ENDBRANCH  53  55
ENDBRANCH  40  48
BRANCH  44  59
ATOM     59  N   UNL     1     -42.439  41.502  28.826  1.00  0.00    -0.383 N 
ATOM     60  H   UNL     1     -41.644  41.271  28.249  1.00  0.00     0.158 HD
ATOM     61  H   UNL     1     -42.249  42.010  29.696  1.00  0.00     0.158 HD
ENDBRANCH  44  59
ENDBRANCH  33  37
ENDBRANCH   1  28
TORSDOF 9
ENDMDL
MODEL 2
REMARK VINA RESULT:     -10.1      2.025      2.911
REMARK SMILES CNc1ccc2ccc(CCc3cncc(-n4cc(-c5ccn(C)n5)c5c(N)ncnc54)c3)cc2n1
REMARK SMILES IDX 11 1 10 4 9 7 3 8 4 9 36 10 5 11 35 13 6 14 34 16 7 17 8 19
REMARK SMILES IDX 2 22 1 24 12 28 13 29 33 30 14 31 16 33 15 35 17 37 18 38
REMARK SMILES IDX 32 39 19 40 26 42 31 43 27 44 30 45 29 46 20 48 21 49 25 50
REMARK SMILES IDX 22 51 23 53 24 55 28 59
REMARK H PARENT 11 2 11 3 10 5 10 6 4 12 5 15 34 18 7 20 8 21 2 23 1 25 1 26
REMARK H PARENT 1 27 13 32 33 34 15 36 18 41 30 47 21 52 22 54 24 56 24 57
REMARK H PARENT 24 58 28 60 28 61
REMARK Flexibility Score: inf
ROOT
ATOM      1  C   UNL     1     -47.403  35.476  27.515  1.00  0.00    -0.022 C 
ATOM      2  H   UNL     1     -47.933  34.759  28.155  1.00  0.00     0.032 H 
ATOM      3  H   UNL     1     -48.181  35.962  26.912  1.00  0.00     0.032 H 
ENDROOT
BRANCH   1   4
ATOM      4  C   UNL     1     -46.423  34.709  26.609  1.00  0.00    -0.024 C 
ATOM      5  H   UNL     1     -45.622  34.282  27.225  1.00  0.00     0.032 H 
ATOM      6  H   UNL     1     -45.934  35.410  25.921  1.00  0.00     0.032 H 
BRANCH   4   7
ATOM      7  C   UNL     1     -47.068  33.590  25.823  1.00  0.00    -0.046 A 
ATOM      8  C   UNL     1     -46.611  30.005  22.708  1.00  0.00     0.126 A 
ATOM      9  C   UNL     1     -47.920  29.589  22.923  1.00  0.00    -0.019 A 
ATOM     10  N   UNL     1     -46.090  31.068  23.355  1.00  0.00    -0.231 NA
ATOM     11  C   UNL     1     -48.722  30.295  23.815  1.00  0.00    -0.049 A 
ATOM     12  H   UNL     1     -48.310  28.712  22.419  1.00  0.00     0.066 H 
ATOM     13  C   UNL     1     -46.863  31.759  24.212  1.00  0.00     0.073 A 
ATOM     14  C   UNL     1     -48.197  31.404  24.481  1.00  0.00     0.000 A 
ATOM     15  H   UNL     1     -49.743  29.967  23.990  1.00  0.00     0.063 H 
ATOM     16  C   UNL     1     -46.329  32.856  24.879  1.00  0.00    -0.032 A 
ATOM     17  C   UNL     1     -48.958  32.142  25.401  1.00  0.00    -0.053 A 
ATOM     18  H   UNL     1     -45.295  33.124  24.673  1.00  0.00     0.065 H 
ATOM     19  C   UNL     1     -48.395  33.226  26.070  1.00  0.00    -0.058 A 
ATOM     20  H   UNL     1     -49.988  31.866  25.616  1.00  0.00     0.063 H 
ATOM     21  H   UNL     1     -48.990  33.767  26.803  1.00  0.00     0.063 H 
BRANCH   8  22
ATOM     22  N   UNL     1     -45.815  29.238  21.837  1.00  0.00    -0.373 N 
ATOM     23  H   UNL     1     -45.602  29.796  21.015  1.00  0.00     0.161 HD
BRANCH  22  24
ATOM     24  C   UNL     1     -44.611  28.699  22.449  1.00  0.00     0.005 C 
ATOM     25  H   UNL     1     -43.737  29.166  21.985  1.00  0.00     0.045 H 
ATOM     26  H   UNL     1     -44.572  28.916  23.522  1.00  0.00     0.045 H 
ATOM     27  H   UNL     1     -44.527  27.619  22.287  1.00  0.00     0.045 H 
ENDBRANCH  22  24
ENDBRANCH   8  22
ENDBRANCH   4   7
ENDBRANCH   1   4
BRANCH   1  28
ATOM     28  C   UNL     1     -46.730  36.508  28.384  1.00  0.00    -0.027 A 
ATOM     29  C   UNL     1     -46.551  36.312  29.743  1.00  0.00     0.030 A 
ATOM     30  C   UNL     1     -46.202  37.679  27.823  1.00  0.00    -0.032 A 
ATOM     31  N   UNL     1     -45.900  37.180  30.544  1.00  0.00    -0.262 NA
ATOM     32  H   UNL     1     -46.928  35.425  30.244  1.00  0.00     0.084 H 
ATOM     33  C   UNL     1     -45.490  38.593  28.610  1.00  0.00     0.066 A 
ATOM     34  H   UNL     1     -46.352  37.837  26.760  1.00  0.00     0.065 H 
ATOM     35  C   UNL     1     -45.383  38.296  29.963  1.00  0.00     0.051 A 
ATOM     36  H   UNL     1     -44.850  38.919  30.671  1.00  0.00     0.086 H 
BRANCH  33  37
ATOM     37  N   UNL     1     -44.880  39.749  28.025  1.00  0.00    -0.299 N 
ATOM     38  C   UNL     1     -45.353  40.407  26.902  1.00  0.00     0.021 A 
ATOM     39  C   UNL     1     -43.724  40.415  28.433  1.00  0.00     0.150 A 
ATOM     40  C   UNL     1     -44.519  41.461  26.591  1.00  0.00     0.033 A 
ATOM     41  H   UNL     1     -46.245  40.083  26.388  1.00  0.00     0.083 H 
ATOM     42  C   UNL     1     -43.463  41.460  27.545  1.00  0.00     0.071 A 
ATOM     43  N   UNL     1     -42.978  40.113  29.515  1.00  0.00    -0.218 NA
ATOM     44  C   UNL     1     -42.298  42.213  27.790  1.00  0.00     0.137 A 
ATOM     45  C   UNL     1     -41.922  40.922  29.662  1.00  0.00     0.120 A 
ATOM     46  N   UNL     1     -41.549  41.938  28.873  1.00  0.00    -0.219 NA
ATOM     47  H   UNL     1     -41.288  40.730  30.522  1.00  0.00     0.106 H 
BRANCH  40  48
ATOM     48  C   UNL     1     -44.715  42.405  25.484  1.00  0.00     0.095 A 
ATOM     49  C   UNL     1     -43.989  42.372  24.270  1.00  0.00    -0.016 A 
ATOM     50  N   UNL     1     -45.630  43.385  25.484  1.00  0.00    -0.173 NA
ATOM     51  C   UNL     1     -44.498  43.407  23.520  1.00  0.00     0.025 A 
ATOM     52  H   UNL     1     -43.203  41.693  23.973  1.00  0.00     0.066 H 
ATOM     53  N   UNL     1     -45.467  43.980  24.287  1.00  0.00    -0.275 N 
ATOM     54  H   UNL     1     -44.252  43.765  22.530  1.00  0.00     0.084 H 
BRANCH  53  55
ATOM     55  C   UNL     1     -46.294  45.109  23.937  1.00  0.00     0.030 C 
ATOM     56  H   UNL     1     -46.636  45.607  24.848  1.00  0.00     0.048 H 
ATOM     57  H   UNL     1     -47.151  44.744  23.366  1.00  0.00     0.048 H 
ATOM     58  H   UNL     1     -45.696  45.800  23.336  1.00  0.00     0.048 H 
ENDBRANCH  53  55
ENDBRANCH  40  48
BRANCH  44  59
ATOM     59  N   UNL     1     -41.853  43.246  26.980  1.00  0.00    -0.383 N 
ATOM     60  H   UNL     1     -41.412  43.979  27.515  1.00  0.00     0.158 HD
ATOM     61  H   UNL     1     -42.551  43.532  26.286  1.00  0.00     0.158 HD
ENDBRANCH  44  59
ENDBRANCH  33  37
ENDBRANCH   1  28
TORSDOF 9
ENDMDL
MODEL 3
REMARK VINA RESULT:      -9.9      2.132      3.507
REMARK SMILES CNc1ccc2ccc(CCc3cncc(-n4cc(-c5ccn(C)n5)c5c(N)ncnc54)c3)cc2n1
REMARK SMILES IDX 11 1 10 4 9 7 3 8 4 9 36 10 5 11 35 13 6 14 34 16 7 17 8 19
REMARK SMILES IDX 2 22 1 24 12 28 13 29 33 30 14 31 16 33 15 35 17 37 18 38
REMARK SMILES IDX 32 39 19 40 26 42 31 43 27 44 30 45 29 46 20 48 21 49 25 50
REMARK SMILES IDX 22 51 23 53 24 55 28 59
REMARK H PARENT 11 2 11 3 10 5 10 6 4 12 5 15 34 18 7 20 8 21 2 23 1 25 1 26
REMARK H PARENT 1 27 13 32 33 34 15 36 18 41 30 47 21 52 22 54 24 56 24 57
REMARK H PARENT 24 58 28 60 28 61
REMARK Flexibility Score: inf
ROOT
ATOM      1  C   UNL     1     -47.064  36.563  27.910  1.00  0.00    -0.022 C 
ATOM      2  H   UNL     1     -46.393  36.454  28.772  1.00  0.00     0.032 H 
ATOM      3  H   UNL     1     -47.984  36.032  28.185  1.00  0.00     0.032 H 
ENDROOT
BRANCH   1   4
ATOM      4  C   UNL     1     -46.412  35.905  26.682  1.00  0.00    -0.024 C 
ATOM      5  H   UNL     1     -45.381  35.624  26.927  1.00  0.00     0.032 H 
ATOM      6  H   UNL     1     -46.340  36.637  25.867  1.00  0.00     0.032 H 
BRANCH   4   7
ATOM      7  C   UNL     1     -47.138  34.671  26.194  1.00  0.00    -0.046 A 
ATOM      8  C   UNL     1     -46.979  30.470  23.938  1.00  0.00     0.126 A 
ATOM      9  C   UNL     1     -48.288  30.174  24.298  1.00  0.00    -0.019 A 
ATOM     10  N   UNL     1     -46.386  31.623  24.308  1.00  0.00    -0.231 NA
ATOM     11  C   UNL     1     -49.015  31.095  25.045  1.00  0.00    -0.049 A 
ATOM     12  H   UNL     1     -48.737  29.227  24.020  1.00  0.00     0.066 H 
ATOM     13  C   UNL     1     -47.087  32.523  25.023  1.00  0.00     0.073 A 
ATOM     14  C   UNL     1     -48.416  32.298  25.424  1.00  0.00     0.000 A 
ATOM     15  H   UNL     1     -50.036  30.863  25.335  1.00  0.00     0.063 H 
ATOM     16  C   UNL     1     -46.478  33.713  25.405  1.00  0.00    -0.032 A 
ATOM     17  C   UNL     1     -49.099  33.256  26.189  1.00  0.00    -0.053 A 
ATOM     18  H   UNL     1     -45.448  33.880  25.098  1.00  0.00     0.065 H 
ATOM     19  C   UNL     1     -48.462  34.434  26.574  1.00  0.00    -0.058 A 
ATOM     20  H   UNL     1     -50.125  33.082  26.506  1.00  0.00     0.063 H 
ATOM     21  H   UNL     1     -48.997  35.150  27.194  1.00  0.00     0.063 H 
BRANCH   8  22
ATOM     22  N   UNL     1     -46.259  29.493  23.224  1.00  0.00    -0.373 N 
ATOM     23  H   UNL     1     -46.887  28.727  22.999  1.00  0.00     0.161 HD
BRANCH  22  24
ATOM     24  C   UNL     1     -45.579  29.999  22.043  1.00  0.00     0.005 C 
ATOM     25  H   UNL     1     -44.504  29.822  22.149  1.00  0.00     0.045 H 
ATOM     26  H   UNL     1     -45.911  29.484  21.135  1.00  0.00     0.045 H 
ATOM     27  H   UNL     1     -45.721  31.079  21.928  1.00  0.00     0.045 H 
ENDBRANCH  22  24
ENDBRANCH   8  22
ENDBRANCH   4   7
ENDBRANCH   1   4
BRANCH   1  28
ATOM     28  C   UNL     1     -47.374  38.025  27.709  1.00  0.00    -0.027 A 
ATOM     29  C   UNL     1     -48.581  38.577  28.105  1.00  0.00     0.030 A 
ATOM     30  C   UNL     1     -46.412  38.890  27.168  1.00  0.00    -0.032 A 
ATOM     31  N   UNL     1     -48.873  39.889  28.000  1.00  0.00    -0.262 NA
ATOM     32  H   UNL     1     -49.370  37.968  28.538  1.00  0.00     0.084 H 
ATOM     33  C   UNL     1     -46.659  40.266  27.070  1.00  0.00     0.066 A 
ATOM     34  H   UNL     1     -45.471  38.456  26.848  1.00  0.00     0.065 H 
ATOM     35  C   UNL     1     -47.910  40.703  27.490  1.00  0.00     0.051 A 
ATOM     36  H   UNL     1     -48.216  41.742  27.473  1.00  0.00     0.086 H 
BRANCH  33  37
ATOM     37  N   UNL     1     -45.650  41.163  26.594  1.00  0.00    -0.299 N 
ATOM     38  C   UNL     1     -45.795  42.008  25.507  1.00  0.00     0.021 A 
ATOM     39  C   UNL     1     -44.360  41.352  27.091  1.00  0.00     0.150 A 
ATOM     40  C   UNL     1     -44.628  42.715  25.304  1.00  0.00     0.033 A 
ATOM     41  H   UNL     1     -46.712  42.050  24.939  1.00  0.00     0.083 H 
ATOM     42  C   UNL     1     -43.697  42.286  26.292  1.00  0.00     0.071 A 
ATOM     43  N   UNL     1     -43.832  40.745  28.173  1.00  0.00    -0.218 NA
ATOM     44  C   UNL     1     -42.359  42.563  26.633  1.00  0.00     0.137 A 
ATOM     45  C   UNL     1     -42.570  41.118  28.416  1.00  0.00     0.120 A 
ATOM     46  N   UNL     1     -41.819  41.980  27.718  1.00  0.00    -0.219 NA
ATOM     47  H   UNL     1     -42.095  40.666  29.281  1.00  0.00     0.106 H 
BRANCH  40  48
ATOM     48  C   UNL     1     -44.415  43.728  24.264  1.00  0.00     0.095 A 
ATOM     49  C   UNL     1     -45.192  44.901  24.122  1.00  0.00    -0.016 A 
ATOM     50  N   UNL     1     -43.435  43.673  23.350  1.00  0.00    -0.173 NA
ATOM     51  C   UNL     1     -44.645  45.566  23.049  1.00  0.00     0.025 A 
ATOM     52  H   UNL     1     -46.035  45.227  24.714  1.00  0.00     0.066 H 
ATOM     53  N   UNL     1     -43.607  44.794  22.624  1.00  0.00    -0.275 N 
ATOM     54  H   UNL     1     -44.907  46.501  22.574  1.00  0.00     0.084 H 
BRANCH  53  55
ATOM     55  C   UNL     1     -42.719  45.067  21.519  1.00  0.00     0.030 C 
ATOM     56  H   UNL     1     -43.259  45.613  20.743  1.00  0.00     0.048 H 
ATOM     57  H   UNL     1     -42.358  44.114  21.125  1.00  0.00     0.048 H 
ATOM     58  H   UNL     1     -41.886  45.671  21.890  1.00  0.00     0.048 H 
ENDBRANCH  53  55
ENDBRANCH  40  48
BRANCH  44  59
ATOM     59  N   UNL     1     -41.533  43.416  25.917  1.00  0.00    -0.383 N 
ATOM     60  H   UNL     1     -41.875  44.366  25.928  1.00  0.00     0.158 HD
ATOM     61  H   UNL     1     -41.260  43.030  25.008  1.00  0.00     0.158 HD
ENDBRANCH  44  59
ENDBRANCH  33  37
ENDBRANCH   1  28
TORSDOF 9
ENDMDL
MODEL 4
REMARK VINA RESULT:      -9.9      1.552      2.016
REMARK SMILES CNc1ccc2ccc(CCc3cncc(-n4cc(-c5ccn(C)n5)c5c(N)ncnc54)c3)cc2n1
REMARK SMILES IDX 11 1 10 4 9 7 3 8 4 9 36 10 5 11 35 13 6 14 34 16 7 17 8 19
REMARK SMILES IDX 2 22 1 24 12 28 13 29 33 30 14 31 16 33 15 35 17 37 18 38
REMARK SMILES IDX 32 39 19 40 26 42 31 43 27 44 30 45 29 46 20 48 21 49 25 50
REMARK SMILES IDX 22 51 23 53 24 55 28 59
REMARK H PARENT 11 2 11 3 10 5 10 6 4 12 5 15 34 18 7 20 8 21 2 23 1 25 1 26
REMARK H PARENT 1 27 13 32 33 34 15 36 18 41 30 47 21 52 22 54 24 56 24 57
REMARK H PARENT 24 58 28 60 28 61
REMARK Flexibility Score: inf
ROOT
ATOM      1  C   UNL     1     -45.955  34.594  27.288  1.00  0.00    -0.022 C 
ATOM      2  H   UNL     1     -45.135  34.686  26.564  1.00  0.00     0.032 H 
ATOM      3  H   UNL     1     -45.716  33.709  27.891  1.00  0.00     0.032 H 
ENDROOT
BRANCH   1   4
ATOM      4  C   UNL     1     -47.275  34.382  26.525  1.00  0.00    -0.024 C 
ATOM      5  H   UNL     1     -47.467  35.253  25.887  1.00  0.00     0.032 H 
ATOM      6  H   UNL     1     -48.109  34.339  27.237  1.00  0.00     0.032 H 
BRANCH   4   7
ATOM      7  C   UNL     1     -47.284  33.144  25.656  1.00  0.00    -0.046 A 
ATOM      8  C   UNL     1     -49.583  29.254  24.125  1.00  0.00     0.126 A 
ATOM      9  C   UNL     1     -48.606  28.995  23.170  1.00  0.00    -0.019 A 
ATOM     10  N   UNL     1     -49.501  30.315  24.952  1.00  0.00    -0.231 NA
ATOM     11  C   UNL     1     -47.505  29.840  23.075  1.00  0.00    -0.049 A 
ATOM     12  H   UNL     1     -48.707  28.156  22.491  1.00  0.00     0.066 H 
ATOM     13  C   UNL     1     -48.434  31.131  24.871  1.00  0.00     0.073 A 
ATOM     14  C   UNL     1     -47.403  30.935  23.934  1.00  0.00     0.000 A 
ATOM     15  H   UNL     1     -46.744  29.644  22.324  1.00  0.00     0.063 H 
ATOM     16  C   UNL     1     -48.347  32.226  25.724  1.00  0.00    -0.032 A 
ATOM     17  C   UNL     1     -46.321  31.827  23.871  1.00  0.00    -0.053 A 
ATOM     18  H   UNL     1     -49.149  32.378  26.442  1.00  0.00     0.065 H 
ATOM     19  C   UNL     1     -46.265  32.927  24.725  1.00  0.00    -0.058 A 
ATOM     20  H   UNL     1     -45.525  31.681  23.144  1.00  0.00     0.063 H 
ATOM     21  H   UNL     1     -45.434  33.624  24.639  1.00  0.00     0.063 H 
BRANCH   8  22
ATOM     22  N   UNL     1     -50.706  28.406  24.160  1.00  0.00    -0.373 N 
ATOM     23  H   UNL     1     -51.467  28.852  23.655  1.00  0.00     0.161 HD
BRANCH  22  24
ATOM     24  C   UNL     1     -50.451  27.060  23.671  1.00  0.00     0.005 C 
ATOM     25  H   UNL     1     -49.443  26.758  23.973  1.00  0.00     0.045 H 
ATOM     26  H   UNL     1     -51.154  26.336  24.097  1.00  0.00     0.045 H 
ATOM     27  H   UNL     1     -50.490  27.014  22.577  1.00  0.00     0.045 H 
ENDBRANCH  22  24
ENDBRANCH   8  22
ENDBRANCH   4   7
ENDBRANCH   1   4
BRANCH   1  28
ATOM     28  C   UNL     1     -45.969  35.813  28.175  1.00  0.00    -0.027 A 
ATOM     29  C   UNL     1     -46.339  35.742  29.508  1.00  0.00     0.030 A 
ATOM     30  C   UNL     1     -45.541  37.055  27.687  1.00  0.00    -0.032 A 
ATOM     31  N   UNL     1     -46.306  36.795  30.350  1.00  0.00    -0.262 NA
ATOM     32  H   UNL     1     -46.675  34.811  29.956  1.00  0.00     0.084 H 
ATOM     33  C   UNL     1     -45.459  38.169  28.533  1.00  0.00     0.066 A 
ATOM     34  H   UNL     1     -45.262  37.113  26.640  1.00  0.00     0.065 H 
ATOM     35  C   UNL     1     -45.865  37.980  29.848  1.00  0.00     0.051 A 
ATOM     36  H   UNL     1     -45.840  38.761  30.599  1.00  0.00     0.086 H 
BRANCH  33  37
ATOM     37  N   UNL     1     -44.945  39.418  28.058  1.00  0.00    -0.299 N 
ATOM     38  C   UNL     1     -45.458  40.124  26.982  1.00  0.00     0.021 A 
ATOM     39  C   UNL     1     -43.857  40.144  28.543  1.00  0.00     0.150 A 
ATOM     40  C   UNL     1     -44.716  41.268  26.776  1.00  0.00     0.033 A 
ATOM     41  H   UNL     1     -46.311  39.768  26.424  1.00  0.00     0.083 H 
ATOM     42  C   UNL     1     -43.677  41.279  27.749  1.00  0.00     0.071 A 
ATOM     43  N   UNL     1     -43.103  39.820  29.612  1.00  0.00    -0.218 NA
ATOM     44  C   UNL     1     -42.586  42.107  28.079  1.00  0.00     0.137 A 
ATOM     45  C   UNL     1     -42.124  40.701  29.847  1.00  0.00     0.120 A 
ATOM     46  N   UNL     1     -41.831  41.808  29.152  1.00  0.00    -0.219 NA
ATOM     47  H   UNL     1     -41.487  40.494  30.701  1.00  0.00     0.106 H 
BRANCH  40  48
ATOM     48  C   UNL     1     -44.979  42.281  25.746  1.00  0.00     0.095 A 
ATOM     49  C   UNL     1     -46.080  43.167  25.761  1.00  0.00    -0.016 A 
ATOM     50  N   UNL     1     -44.182  42.503  24.691  1.00  0.00    -0.173 NA
ATOM     51  C   UNL     1     -45.930  43.945  24.637  1.00  0.00     0.025 A 
ATOM     52  H   UNL     1     -46.879  43.238  26.486  1.00  0.00     0.066 H 
ATOM     53  N   UNL     1     -44.790  43.509  24.033  1.00  0.00    -0.275 N 
ATOM     54  H   UNL     1     -46.529  44.752  24.237  1.00  0.00     0.084 H 
BRANCH  53  55
ATOM     55  C   UNL     1     -44.208  44.014  22.813  1.00  0.00     0.030 C 
ATOM     56  H   UNL     1     -43.869  45.041  22.969  1.00  0.00     0.048 H 
ATOM     57  H   UNL     1     -44.970  43.986  22.031  1.00  0.00     0.048 H 
ATOM     58  H   UNL     1     -43.360  43.377  22.548  1.00  0.00     0.048 H 
ENDBRANCH  53  55
ENDBRANCH  40  48
BRANCH  44  59
ATOM     59  N   UNL     1     -42.222  43.239  27.366  1.00  0.00    -0.383 N 
ATOM     60  H   UNL     1     -41.222  43.302  27.248  1.00  0.00     0.158 HD
ATOM     61  H   UNL     1     -42.707  44.082  27.689  1.00  0.00     0.158 HD
ENDBRANCH  44  59
ENDBRANCH  33  37
ENDBRANCH   1  28
TORSDOF 9
ENDMDL
MODEL 5
REMARK VINA RESULT:      -9.9      2.261     12.214
REMARK SMILES CNc1ccc2ccc(CCc3cncc(-n4cc(-c5ccn(C)n5)c5c(N)ncnc54)c3)cc2n1
REMARK SMILES IDX 11 1 10 4 9 7 3 8 4 9 36 10 5 11 35 13 6 14 34 16 7 17 8 19
REMARK SMILES IDX 2 22 1 24 12 28 13 29 33 30 14 31 16 33 15 35 17 37 18 38
REMARK SMILES IDX 32 39 19 40 26 42 31 43 27 44 30 45 29 46 20 48 21 49 25 50
REMARK SMILES IDX 22 51 23 53 24 55 28 59
REMARK H PARENT 11 2 11 3 10 5 10 6 4 12 5 15 34 18 7 20 8 21 2 23 1 25 1 26
REMARK H PARENT 1 27 13 32 33 34 15 36 18 41 30 47 21 52 22 54 24 56 24 57
REMARK H PARENT 24 58 28 60 28 61
REMARK Flexibility Score: inf
ROOT
ATOM      1  C   UNL     1     -48.819  35.662  27.307  1.00  0.00    -0.022 C 
ATOM      2  H   UNL     1     -49.139  36.491  26.663  1.00  0.00     0.032 H 
ATOM      3  H   UNL     1     -49.745  35.199  27.671  1.00  0.00     0.032 H 
ENDROOT
BRANCH   1   4
ATOM      4  C   UNL     1     -48.004  36.229  28.483  1.00  0.00    -0.024 C 
ATOM      5  H   UNL     1     -47.328  35.453  28.861  1.00  0.00     0.032 H 
ATOM      6  H   UNL     1     -48.679  36.472  29.314  1.00  0.00     0.032 H 
BRANCH   4   7
ATOM      7  C   UNL     1     -47.181  37.445  28.124  1.00  0.00    -0.046 A 
ATOM      8  C   UNL     1     -43.372  40.189  28.978  1.00  0.00     0.126 A 
ATOM      9  C   UNL     1     -43.596  40.938  27.829  1.00  0.00    -0.019 A 
ATOM     10  N   UNL     1     -44.180  39.167  29.325  1.00  0.00    -0.231 NA
ATOM     11  C   UNL     1     -44.691  40.642  27.023  1.00  0.00    -0.049 A 
ATOM     12  H   UNL     1     -42.916  41.735  27.548  1.00  0.00     0.066 H 
ATOM     13  C   UNL     1     -45.245  38.880  28.555  1.00  0.00     0.073 A 
ATOM     14  C   UNL     1     -45.541  39.593  27.379  1.00  0.00     0.000 A 
ATOM     15  H   UNL     1     -44.863  41.221  26.120  1.00  0.00     0.063 H 
ATOM     16  C   UNL     1     -46.081  37.827  28.911  1.00  0.00    -0.032 A 
ATOM     17  C   UNL     1     -46.651  39.242  26.595  1.00  0.00    -0.053 A 
ATOM     18  H   UNL     1     -45.845  37.274  29.818  1.00  0.00     0.065 H 
ATOM     19  C   UNL     1     -47.463  38.172  26.964  1.00  0.00    -0.058 A 
ATOM     20  H   UNL     1     -46.879  39.788  25.682  1.00  0.00     0.063 H 
ATOM     21  H   UNL     1     -48.300  37.895  26.327  1.00  0.00     0.063 H 
BRANCH   8  22
ATOM     22  N   UNL     1     -42.228  40.487  29.741  1.00  0.00    -0.373 N 
ATOM     23  H   UNL     1     -41.587  39.701  29.687  1.00  0.00     0.161 HD
BRANCH  22  24
ATOM     24  C   UNL     1     -41.580  41.737  29.380  1.00  0.00     0.005 C 
ATOM     25  H   UNL     1     -42.246  42.306  28.723  1.00  0.00     0.045 H 
ATOM     26  H   UNL     1     -41.377  42.356  30.260  1.00  0.00     0.045 H 
ATOM     27  H   UNL     1     -40.649  41.564  28.828  1.00  0.00     0.045 H 
ENDBRANCH  22  24
ENDBRANCH   8  22
ENDBRANCH   4   7
ENDBRANCH   1   4
BRANCH   1  28
ATOM     28  C   UNL     1     -48.054  34.662  26.479  1.00  0.00    -0.027 A 
ATOM     29  C   UNL     1     -46.725  34.859  26.140  1.00  0.00     0.030 A 
ATOM     30  C   UNL     1     -48.653  33.459  26.078  1.00  0.00    -0.032 A 
ATOM     31  N   UNL     1     -45.987  33.962  25.454  1.00  0.00    -0.262 NA
ATOM     32  H   UNL     1     -46.195  35.764  26.423  1.00  0.00     0.084 H 
ATOM     33  C   UNL     1     -47.916  32.485  25.393  1.00  0.00     0.066 A 
ATOM     34  H   UNL     1     -49.696  33.310  26.335  1.00  0.00     0.065 H 
ATOM     35  C   UNL     1     -46.595  32.798  25.099  1.00  0.00     0.051 A 
ATOM     36  H   UNL     1     -45.921  32.124  24.583  1.00  0.00     0.086 H 
BRANCH  33  37
ATOM     37  N   UNL     1     -48.502  31.223  25.054  1.00  0.00    -0.299 N 
ATOM     38  C   UNL     1     -48.287  30.042  25.745  1.00  0.00     0.021 A 
ATOM     39  C   UNL     1     -49.357  30.926  23.993  1.00  0.00     0.150 A 
ATOM     40  C   UNL     1     -48.978  29.013  25.141  1.00  0.00     0.033 A 
ATOM     41  H   UNL     1     -47.651  30.002  26.616  1.00  0.00     0.083 H 
ATOM     42  C   UNL     1     -49.643  29.559  24.007  1.00  0.00     0.071 A 
ATOM     43  N   UNL     1     -49.845  31.809  23.099  1.00  0.00    -0.218 NA
ATOM     44  C   UNL     1     -50.468  29.081  22.970  1.00  0.00     0.137 A 
ATOM     45  C   UNL     1     -50.644  31.242  22.187  1.00  0.00     0.120 A 
ATOM     46  N   UNL     1     -50.977  29.949  22.078  1.00  0.00    -0.219 NA
ATOM     47  H   UNL     1     -51.072  31.908  21.445  1.00  0.00     0.106 H 
BRANCH  40  48
ATOM     48  C   UNL     1     -49.017  27.622  25.609  1.00  0.00     0.095 A 
ATOM     49  C   UNL     1     -50.205  26.898  25.861  1.00  0.00    -0.016 A 
ATOM     50  N   UNL     1     -47.928  26.868  25.815  1.00  0.00    -0.173 NA
ATOM     51  C   UNL     1     -49.787  25.649  26.257  1.00  0.00     0.025 A 
ATOM     52  H   UNL     1     -51.229  27.231  25.770  1.00  0.00     0.066 H 
ATOM     53  N   UNL     1     -48.426  25.683  26.217  1.00  0.00    -0.275 N 
ATOM     54  H   UNL     1     -50.338  24.767  26.552  1.00  0.00     0.084 H 
BRANCH  53  55
ATOM     55  C   UNL     1     -47.522  24.607  26.546  1.00  0.00     0.030 C 
ATOM     56  H   UNL     1     -46.519  25.010  26.704  1.00  0.00     0.048 H 
ATOM     57  H   UNL     1     -47.514  23.898  25.716  1.00  0.00     0.048 H 
ATOM     58  H   UNL     1     -47.880  24.126  27.461  1.00  0.00     0.048 H 
ENDBRANCH  53  55
ENDBRANCH  40  48
BRANCH  44  59
ATOM     59  N   UNL     1     -50.806  27.748  22.794  1.00  0.00    -0.383 N 
ATOM     60  H   UNL     1     -50.201  27.292  22.128  1.00  0.00     0.158 HD
ATOM     61  H   UNL     1     -51.815  27.609  22.678  1.00  0.00     0.158 HD
ENDBRANCH  44  59
ENDBRANCH  33  37
ENDBRANCH   1  28
TORSDOF 9
ENDMDL
MODEL 6
REMARK VINA RESULT:      -9.7      2.422      3.959
REMARK SMILES CNc1ccc2ccc(CCc3cncc(-n4cc(-c5ccn(C)n5)c5c(N)ncnc54)c3)cc2n1
REMARK SMILES IDX 11 1 10 4 9 7 3 8 4 9 36 10 5 11 35 13 6 14 34 16 7 17 8 19
REMARK SMILES IDX 2 22 1 24 12 28 13 29 33 30 14 31 16 33 15 35 17 37 18 38
REMARK SMILES IDX 32 39 19 40 26 42 31 43 27 44 30 45 29 46 20 48 21 49 25 50
REMARK SMILES IDX 22 51 23 53 24 55 28 59
REMARK H PARENT 11 2 11 3 10 5 10 6 4 12 5 15 34 18 7 20 8 21 2 23 1 25 1 26
REMARK H PARENT 1 27 13 32 33 34 15 36 18 41 30 47 21 52 22 54 24 56 24 57
REMARK H PARENT 24 58 28 60 28 61
REMARK Flexibility Score: inf
ROOT
ATOM      1  C   UNL     1     -47.432  35.252  27.096  1.00  0.00    -0.022 C 
ATOM      2  H   UNL     1     -48.363  35.080  27.653  1.00  0.00     0.032 H 
ATOM      3  H   UNL     1     -47.745  35.542  26.085  1.00  0.00     0.032 H 
ENDROOT
BRANCH   1   4
ATOM      4  C   UNL     1     -46.626  33.941  27.053  1.00  0.00    -0.024 C 
ATOM      5  H   UNL     1     -46.688  33.447  28.031  1.00  0.00     0.032 H 
ATOM      6  H   UNL     1     -45.564  34.168  26.896  1.00  0.00     0.032 H 
BRANCH   4   7
ATOM      7  C   UNL     1     -47.100  32.968  25.997  1.00  0.00    -0.046 A 
ATOM      8  C   UNL     1     -46.482  30.998  21.696  1.00  0.00     0.126 A 
ATOM      9  C   UNL     1     -47.493  30.071  21.924  1.00  0.00    -0.019 A 
ATOM     10  N   UNL     1     -46.144  31.918  22.622  1.00  0.00    -0.231 NA
ATOM     11  C   UNL     1     -48.187  30.101  23.129  1.00  0.00    -0.049 A 
ATOM     12  H   UNL     1     -47.728  29.317  21.181  1.00  0.00     0.066 H 
ATOM     13  C   UNL     1     -46.817  31.958  23.786  1.00  0.00     0.073 A 
ATOM     14  C   UNL     1     -47.853  31.056  24.090  1.00  0.00     0.000 A 
ATOM     15  H   UNL     1     -48.972  29.372  23.312  1.00  0.00     0.063 H 
ATOM     16  C   UNL     1     -46.470  32.906  24.742  1.00  0.00    -0.032 A 
ATOM     17  C   UNL     1     -48.511  31.122  25.328  1.00  0.00    -0.053 A 
ATOM     18  H   UNL     1     -45.664  33.597  24.506  1.00  0.00     0.065 H 
ATOM     19  C   UNL     1     -48.134  32.070  26.277  1.00  0.00    -0.058 A 
ATOM     20  H   UNL     1     -49.309  30.422  25.568  1.00  0.00     0.063 H 
ATOM     21  H   UNL     1     -48.635  32.084  27.243  1.00  0.00     0.063 H 
BRANCH   8  22
ATOM     22  N   UNL     1     -45.769  30.906  20.485  1.00  0.00    -0.373 N 
ATOM     23  H   UNL     1     -45.831  29.951  20.143  1.00  0.00     0.161 HD
BRANCH  22  24
ATOM     24  C   UNL     1     -46.183  31.868  19.477  1.00  0.00     0.005 C 
ATOM     25  H   UNL     1     -45.588  31.711  18.571  1.00  0.00     0.045 H 
ATOM     26  H   UNL     1     -47.236  31.740  19.205  1.00  0.00     0.045 H 
ATOM     27  H   UNL     1     -46.008  32.898  19.807  1.00  0.00     0.045 H 
ENDBRANCH  22  24
ENDBRANCH   8  22
ENDBRANCH   4   7
ENDBRANCH   1   4
BRANCH   1  28
ATOM     28  C   UNL     1     -46.681  36.393  27.732  1.00  0.00    -0.027 A 
ATOM     29  C   UNL     1     -45.955  36.228  28.900  1.00  0.00     0.030 A 
ATOM     30  C   UNL     1     -46.642  37.653  27.118  1.00  0.00    -0.032 A 
ATOM     31  N   UNL     1     -45.220  37.206  29.468  1.00  0.00    -0.262 NA
ATOM     32  H   UNL     1     -45.934  35.278  29.427  1.00  0.00     0.084 H 
ATOM     33  C   UNL     1     -45.866  38.688  27.654  1.00  0.00     0.066 A 
ATOM     34  H   UNL     1     -47.220  37.784  26.209  1.00  0.00     0.065 H 
ATOM     35  C   UNL     1     -45.188  38.409  28.834  1.00  0.00     0.051 A 
ATOM     36  H   UNL     1     -44.549  39.123  29.340  1.00  0.00     0.086 H 
BRANCH  33  37
ATOM     37  N   UNL     1     -45.760  39.950  26.985  1.00  0.00    -0.299 N 
ATOM     38  C   UNL     1     -44.591  40.460  26.444  1.00  0.00     0.021 A 
ATOM     39  C   UNL     1     -46.760  40.897  26.765  1.00  0.00     0.150 A 
ATOM     40  C   UNL     1     -44.831  41.704  25.899  1.00  0.00     0.033 A 
ATOM     41  H   UNL     1     -43.661  39.915  26.487  1.00  0.00     0.083 H 
ATOM     42  C   UNL     1     -46.205  42.004  26.121  1.00  0.00     0.071 A 
ATOM     43  N   UNL     1     -48.059  40.769  27.105  1.00  0.00    -0.218 NA
ATOM     44  C   UNL     1     -47.078  43.079  25.859  1.00  0.00     0.137 A 
ATOM     45  C   UNL     1     -48.793  41.837  26.772  1.00  0.00     0.120 A 
ATOM     46  N   UNL     1     -48.380  42.964  26.176  1.00  0.00    -0.219 NA
ATOM     47  H   UNL     1     -49.849  41.788  27.016  1.00  0.00     0.106 H 
BRANCH  40  48
ATOM     48  C   UNL     1     -43.840  42.538  25.209  1.00  0.00     0.095 A 
ATOM     49  C   UNL     1     -42.606  42.940  25.770  1.00  0.00    -0.016 A 
ATOM     50  N   UNL     1     -43.978  42.985  23.952  1.00  0.00    -0.173 NA
ATOM     51  C   UNL     1     -41.991  43.683  24.790  1.00  0.00     0.025 A 
ATOM     52  H   UNL     1     -42.211  42.725  26.753  1.00  0.00     0.066 H 
ATOM     53  N   UNL     1     -42.848  43.682  23.731  1.00  0.00    -0.275 N 
ATOM     54  H   UNL     1     -41.037  44.192  24.766  1.00  0.00     0.084 H 
BRANCH  53  55
ATOM     55  C   UNL     1     -42.651  44.330  22.457  1.00  0.00     0.030 C 
ATOM     56  H   UNL     1     -43.002  43.675  21.657  1.00  0.00     0.048 H 
ATOM     57  H   UNL     1     -41.584  44.532  22.335  1.00  0.00     0.048 H 
ATOM     58  H   UNL     1     -43.222  45.263  22.454  1.00  0.00     0.048 H 
ENDBRANCH  53  55
ENDBRANCH  40  48
BRANCH  44  59
ATOM     59  N   UNL     1     -46.688  44.277  25.282  1.00  0.00    -0.383 N 
ATOM     60  H   UNL     1     -46.074  44.803  25.887  1.00  0.00     0.158 HD
ATOM     61  H   UNL     1     -47.472  44.785  24.860  1.00  0.00     0.158 HD
ENDBRANCH  44  59
ENDBRANCH  33  37
ENDBRANCH   1  28
TORSDOF 9
ENDMDL
MODEL 7
REMARK VINA RESULT:      -9.5      2.326      4.683
REMARK SMILES CNc1ccc2ccc(CCc3cncc(-n4cc(-c5ccn(C)n5)c5c(N)ncnc54)c3)cc2n1
REMARK SMILES IDX 11 1 10 4 9 7 3 8 4 9 36 10 5 11 35 13 6 14 34 16 7 17 8 19
REMARK SMILES IDX 2 22 1 24 12 28 13 29 33 30 14 31 16 33 15 35 17 37 18 38
REMARK SMILES IDX 32 39 19 40 26 42 31 43 27 44 30 45 29 46 20 48 21 49 25 50
REMARK SMILES IDX 22 51 23 53 24 55 28 59
REMARK H PARENT 11 2 11 3 10 5 10 6 4 12 5 15 34 18 7 20 8 21 2 23 1 25 1 26
REMARK H PARENT 1 27 13 32 33 34 15 36 18 41 30 47 21 52 22 54 24 56 24 57
REMARK H PARENT 24 58 28 60 28 61
REMARK Flexibility Score: inf
ROOT
ATOM      1  C   UNL     1     -45.970  36.978  28.420  1.00  0.00    -0.022 C 
ATOM      2  H   UNL     1     -45.314  36.105  28.305  1.00  0.00     0.032 H 
ATOM      3  H   UNL     1     -46.581  36.771  29.308  1.00  0.00     0.032 H 
ENDROOT
BRANCH   1   4
ATOM      4  C   UNL     1     -46.863  37.101  27.172  1.00  0.00    -0.024 C 
ATOM      5  H   UNL     1     -46.294  37.583  26.367  1.00  0.00     0.032 H 
ATOM      6  H   UNL     1     -47.706  37.770  27.388  1.00  0.00     0.032 H 
BRANCH   4   7
ATOM      7  C   UNL     1     -47.382  35.776  26.661  1.00  0.00    -0.046 A 
ATOM      8  C   UNL     1     -46.548  31.687  24.349  1.00  0.00     0.126 A 
ATOM      9  C   UNL     1     -47.796  31.182  24.694  1.00  0.00    -0.019 A 
ATOM     10  N   UNL     1     -46.147  32.914  24.740  1.00  0.00    -0.231 NA
ATOM     11  C   UNL     1     -48.664  31.966  25.448  1.00  0.00    -0.049 A 
ATOM     12  H   UNL     1     -48.088  30.180  24.399  1.00  0.00     0.066 H 
ATOM     13  C   UNL     1     -46.985  33.680  25.461  1.00  0.00     0.073 A 
ATOM     14  C   UNL     1     -48.265  33.243  25.848  1.00  0.00     0.000 A 
ATOM     15  H   UNL     1     -49.637  31.571  25.726  1.00  0.00     0.063 H 
ATOM     16  C   UNL     1     -46.574  34.946  25.865  1.00  0.00    -0.032 A 
ATOM     17  C   UNL     1     -49.095  34.069  26.621  1.00  0.00    -0.053 A 
ATOM     18  H   UNL     1     -45.581  35.278  25.569  1.00  0.00     0.065 H 
ATOM     19  C   UNL     1     -48.654  35.327  27.028  1.00  0.00    -0.058 A 
ATOM     20  H   UNL     1     -50.083  33.731  26.927  1.00  0.00     0.063 H 
ATOM     21  H   UNL     1     -49.299  35.940  27.653  1.00  0.00     0.063 H 
BRANCH   8  22
ATOM     22  N   UNL     1     -45.679  30.847  23.628  1.00  0.00    -0.373 N 
ATOM     23  H   UNL     1     -44.982  30.474  24.267  1.00  0.00     0.161 HD
BRANCH  22  24
ATOM     24  C   UNL     1     -46.350  29.792  22.886  1.00  0.00     0.005 C 
ATOM     25  H   UNL     1     -45.622  29.011  22.641  1.00  0.00     0.045 H 
ATOM     26  H   UNL     1     -47.146  29.327  23.477  1.00  0.00     0.045 H 
ATOM     27  H   UNL     1     -46.759  30.162  21.940  1.00  0.00     0.045 H 
ENDBRANCH  22  24
ENDBRANCH   8  22
ENDBRANCH   4   7
ENDBRANCH   1   4
BRANCH   1  28
ATOM     28  C   UNL     1     -45.124  38.200  28.670  1.00  0.00    -0.027 A 
ATOM     29  C   UNL     1     -44.276  38.289  29.762  1.00  0.00     0.030 A 
ATOM     30  C   UNL     1     -45.123  39.266  27.760  1.00  0.00    -0.032 A 
ATOM     31  N   UNL     1     -43.457  39.337  29.989  1.00  0.00    -0.262 NA
ATOM     32  H   UNL     1     -44.219  37.498  30.504  1.00  0.00     0.084 H 
ATOM     33  C   UNL     1     -44.265  40.360  27.938  1.00  0.00     0.066 A 
ATOM     34  H   UNL     1     -45.795  39.201  26.911  1.00  0.00     0.065 H 
ATOM     35  C   UNL     1     -43.467  40.344  29.075  1.00  0.00     0.051 A 
ATOM     36  H   UNL     1     -42.757  41.126  29.317  1.00  0.00     0.086 H 
BRANCH  33  37
ATOM     37  N   UNL     1     -44.203  41.411  26.968  1.00  0.00    -0.299 N 
ATOM     38  C   UNL     1     -45.306  42.026  26.398  1.00  0.00     0.021 A 
ATOM     39  C   UNL     1     -43.071  41.999  26.403  1.00  0.00     0.150 A 
ATOM     40  C   UNL     1     -44.895  42.975  25.487  1.00  0.00     0.033 A 
ATOM     41  H   UNL     1     -46.313  41.745  26.667  1.00  0.00     0.083 H 
ATOM     42  C   UNL     1     -43.472  42.949  25.462  1.00  0.00     0.071 A 
ATOM     43  N   UNL     1     -41.791  41.711  26.716  1.00  0.00    -0.218 NA
ATOM     44  C   UNL     1     -42.444  43.611  24.763  1.00  0.00     0.137 A 
ATOM     45  C   UNL     1     -40.908  42.431  26.014  1.00  0.00     0.120 A 
ATOM     46  N   UNL     1     -41.161  43.350  25.073  1.00  0.00    -0.219 NA
ATOM     47  H   UNL     1     -39.860  42.247  26.229  1.00  0.00     0.106 H 
BRANCH  40  48
ATOM     48  C   UNL     1     -45.781  43.850  24.709  1.00  0.00     0.095 A 
ATOM     49  C   UNL     1     -46.984  44.408  25.200  1.00  0.00    -0.016 A 
ATOM     50  N   UNL     1     -45.531  44.247  23.453  1.00  0.00    -0.173 NA
ATOM     51  C   UNL     1     -47.478  45.165  24.164  1.00  0.00     0.025 A 
ATOM     52  H   UNL     1     -47.437  44.282  26.173  1.00  0.00     0.066 H 
ATOM     53  N   UNL     1     -46.580  45.034  23.148  1.00  0.00    -0.275 N 
ATOM     54  H   UNL     1     -48.370  45.769  24.077  1.00  0.00     0.084 H 
BRANCH  53  55
ATOM     55  C   UNL     1     -46.655  45.642  21.841  1.00  0.00     0.030 C 
ATOM     56  H   UNL     1     -47.106  44.938  21.137  1.00  0.00     0.048 H 
ATOM     57  H   UNL     1     -45.642  45.895  21.520  1.00  0.00     0.048 H 
ATOM     58  H   UNL     1     -47.272  46.541  21.915  1.00  0.00     0.048 H 
ENDBRANCH  53  55
ENDBRANCH  40  48
BRANCH  44  59
ATOM     59  N   UNL     1     -42.657  44.539  23.756  1.00  0.00    -0.383 N 
ATOM     60  H   UNL     1     -42.422  44.167  22.848  1.00  0.00     0.158 HD
ATOM     61  H   UNL     1     -42.289  45.466  23.989  1.00  0.00     0.158 HD
ENDBRANCH  44  59
ENDBRANCH  33  37
ENDBRANCH   1  28
TORSDOF 9
ENDMDL
