MODEL 1
REMARK VINA RESULT:      -9.2      0.000      0.000
REMARK SMILES CCc1cc(NCCN(C)C)c2ccc(CCc3cncc(-n4cc([C@H]5CCCO5)c5c(N)ncnc54)c3)cc2n1
REMARK SMILES IDX 3 1 4 2 5 3 12 4 13 5 14 6 15 7 39 8 40 9 41 10 2 15 1 18
REMARK SMILES IDX 6 22 7 24 8 27 9 30 10 31 11 35 16 39 17 42 18 45 19 46
REMARK SMILES IDX 38 47 20 48 22 50 21 52 23 54 24 55 37 56 25 57 31 59 36 60
REMARK SMILES IDX 32 61 35 62 34 63 26 65 27 66 30 67 28 69 29 72 33 77
REMARK H PARENT 4 11 13 12 14 13 39 14 2 16 2 17 1 19 1 20 1 21 6 23 7 25 7 26
REMARK H PARENT 8 28 8 29 10 32 10 33 10 34 11 36 11 37 11 38 16 40 16 41
REMARK H PARENT 17 43 17 44 19 49 38 51 21 53 24 58 35 64 26 68 27 70 27 71
REMARK H PARENT 28 73 28 74 29 75 29 76 33 78 33 79
REMARK Flexibility Score: inf
ROOT
ATOM      1  C   UNL     1     -46.320  30.859  23.171  1.00  0.00     0.043 A 
ATOM      2  C   UNL     1     -47.443  30.156  23.573  1.00  0.00    -0.017 A 
ATOM      3  C   UNL     1     -48.300  30.711  24.527  1.00  0.00     0.045 A 
ATOM      4  C   UNL     1     -47.993  31.990  25.064  1.00  0.00     0.023 A 
ATOM      5  C   UNL     1     -48.770  32.669  26.036  1.00  0.00    -0.050 A 
ATOM      6  C   UNL     1     -48.412  33.933  26.506  1.00  0.00    -0.058 A 
ATOM      7  C   UNL     1     -47.271  34.559  26.015  1.00  0.00    -0.045 A 
ATOM      8  C   UNL     1     -46.492  33.884  25.065  1.00  0.00    -0.032 A 
ATOM      9  C   UNL     1     -46.825  32.622  24.586  1.00  0.00     0.073 A 
ATOM     10  N   UNL     1     -46.007  32.072  23.674  1.00  0.00    -0.253 NA
ATOM     11  H   UNL     1     -47.672  29.192  23.130  1.00  0.00     0.066 H 
ATOM     12  H   UNL     1     -49.677  32.226  26.437  1.00  0.00     0.063 H 
ATOM     13  H   UNL     1     -49.049  34.428  27.236  1.00  0.00     0.063 H 
ATOM     14  H   UNL     1     -45.596  34.357  24.668  1.00  0.00     0.065 H 
ENDROOT
BRANCH   1  15
ATOM     15  C   UNL     1     -45.375  30.278  22.153  1.00  0.00    -0.013 C 
ATOM     16  H   UNL     1     -45.842  30.286  21.162  1.00  0.00     0.033 H 
ATOM     17  H   UNL     1     -44.484  30.914  22.084  1.00  0.00     0.033 H 
BRANCH  15  18
ATOM     18  C   UNL     1     -44.957  28.863  22.523  1.00  0.00    -0.060 C 
ATOM     19  H   UNL     1     -43.868  28.784  22.622  1.00  0.00     0.023 H 
ATOM     20  H   UNL     1     -45.402  28.552  23.474  1.00  0.00     0.023 H 
ATOM     21  H   UNL     1     -45.280  28.158  21.751  1.00  0.00     0.023 H 
ENDBRANCH  15  18
ENDBRANCH   1  15
BRANCH   3  22
ATOM     22  N   UNL     1     -49.452  29.976  24.898  1.00  0.00    -0.383 N 
ATOM     23  H   UNL     1     -49.758  30.196  25.847  1.00  0.00     0.160 HD
BRANCH  22  24
ATOM     24  C   UNL     1     -49.305  28.512  24.809  1.00  0.00     0.027 C 
ATOM     25  H   UNL     1     -48.701  28.199  23.949  1.00  0.00     0.050 H 
ATOM     26  H   UNL     1     -50.302  28.087  24.652  1.00  0.00     0.050 H 
BRANCH  24  27
ATOM     27  C   UNL     1     -48.695  27.941  26.112  1.00  0.00     0.015 C 
ATOM     28  H   UNL     1     -48.778  28.726  26.875  1.00  0.00     0.045 H 
ATOM     29  H   UNL     1     -47.624  27.756  25.962  1.00  0.00     0.045 H 
BRANCH  27  30
ATOM     30  N   UNL     1     -49.378  26.723  26.613  1.00  0.00    -0.308 NA
BRANCH  30  31
ATOM     31  C   UNL     1     -50.570  26.406  25.822  1.00  0.00    -0.014 C 
ATOM     32  H   UNL     1     -50.814  25.339  25.852  1.00  0.00     0.039 H 
ATOM     33  H   UNL     1     -51.437  26.966  26.195  1.00  0.00     0.039 H 
ATOM     34  H   UNL     1     -50.444  26.706  24.777  1.00  0.00     0.039 H 
ENDBRANCH  30  31
BRANCH  30  35
ATOM     35  C   UNL     1     -48.451  25.589  26.590  1.00  0.00    -0.014 C 
ATOM     36  H   UNL     1     -47.585  25.777  25.945  1.00  0.00     0.039 H 
ATOM     37  H   UNL     1     -48.089  25.366  27.599  1.00  0.00     0.039 H 
ATOM     38  H   UNL     1     -48.957  24.684  26.234  1.00  0.00     0.039 H 
ENDBRANCH  30  35
ENDBRANCH  27  30
ENDBRANCH  24  27
ENDBRANCH  22  24
ENDBRANCH   3  22
BRANCH   7  39
ATOM     39  C   UNL     1     -46.899  35.954  26.454  1.00  0.00    -0.024 C 
ATOM     40  H   UNL     1     -45.873  35.965  26.841  1.00  0.00     0.032 H 
ATOM     41  H   UNL     1     -46.890  36.598  25.565  1.00  0.00     0.032 H 
BRANCH  39  42
ATOM     42  C   UNL     1     -47.875  36.544  27.484  1.00  0.00    -0.022 C 
ATOM     43  H   UNL     1     -47.698  36.123  28.482  1.00  0.00     0.032 H 
ATOM     44  H   UNL     1     -48.894  36.240  27.213  1.00  0.00     0.032 H 
BRANCH  42  45
ATOM     45  C   UNL     1     -47.834  38.049  27.558  1.00  0.00    -0.027 A 
ATOM     46  C   UNL     1     -48.913  38.769  28.055  1.00  0.00     0.030 A 
ATOM     47  C   UNL     1     -46.720  38.773  27.110  1.00  0.00    -0.032 A 
ATOM     48  N   UNL     1     -48.944  40.116  28.140  1.00  0.00    -0.262 NA
ATOM     49  H   UNL     1     -49.809  38.271  28.412  1.00  0.00     0.084 H 
ATOM     50  C   UNL     1     -46.715  40.170  27.168  1.00  0.00     0.066 A 
ATOM     51  H   UNL     1     -45.866  38.216  26.735  1.00  0.00     0.065 H 
ATOM     52  C   UNL     1     -47.850  40.781  27.697  1.00  0.00     0.051 A 
ATOM     53  H   UNL     1     -47.960  41.858  27.769  1.00  0.00     0.086 H 
BRANCH  50  54
ATOM     54  N   UNL     1     -45.609  40.951  26.709  1.00  0.00    -0.299 N 
ATOM     55  C   UNL     1     -45.603  41.716  25.550  1.00  0.00     0.018 A 
ATOM     56  C   UNL     1     -44.354  41.085  27.298  1.00  0.00     0.150 A 
ATOM     57  C   UNL     1     -44.390  42.367  25.410  1.00  0.00     0.012 A 
ATOM     58  H   UNL     1     -46.478  41.776  24.920  1.00  0.00     0.083 H 
ATOM     59  C   UNL     1     -43.589  41.948  26.519  1.00  0.00     0.067 A 
ATOM     60  N   UNL     1     -43.920  40.463  28.412  1.00  0.00    -0.218 NA
ATOM     61  C   UNL     1     -42.275  42.199  26.955  1.00  0.00     0.136 A 
ATOM     62  C   UNL     1     -42.652  40.768  28.722  1.00  0.00     0.120 A 
ATOM     63  N   UNL     1     -41.823  41.600  28.070  1.00  0.00    -0.219 NA
ATOM     64  H   UNL     1     -42.246  40.290  29.607  1.00  0.00     0.106 H 
BRANCH  57  65
ATOM     65  C   UNL     1     -43.959  43.289  24.308  1.00  0.00     0.085 C 
ATOM     66  C   UNL     1     -45.041  43.657  23.298  1.00  0.00    -0.020 C 
ATOM     67  O   UNL     1     -43.470  44.550  24.828  1.00  0.00    -0.373 OA
ATOM     68  H   UNL     1     -43.116  42.826  23.780  1.00  0.00     0.066 H 
ATOM     69  C   UNL     1     -44.537  44.974  22.763  1.00  0.00    -0.027 C 
ATOM     70  H   UNL     1     -46.011  43.819  23.785  1.00  0.00     0.030 H 
ATOM     71  H   UNL     1     -45.174  42.897  22.522  1.00  0.00     0.030 H 
ATOM     72  C   UNL     1     -43.983  45.615  24.014  1.00  0.00     0.048 C 
ATOM     73  H   UNL     1     -45.309  45.578  22.280  1.00  0.00     0.029 H 
ATOM     74  H   UNL     1     -43.731  44.798  22.040  1.00  0.00     0.029 H 
ATOM     75  H   UNL     1     -43.185  46.333  23.802  1.00  0.00     0.057 H 
ATOM     76  H   UNL     1     -44.768  46.121  24.583  1.00  0.00     0.057 H 
ENDBRANCH  57  65
BRANCH  61  77
ATOM     77  N   UNL     1     -41.396  43.054  26.298  1.00  0.00    -0.383 N 
ATOM     78  H   UNL     1     -40.645  42.519  25.882  1.00  0.00     0.158 HD
ATOM     79  H   UNL     1     -41.105  43.834  26.889  1.00  0.00     0.158 HD
ENDBRANCH  61  77
ENDBRANCH  50  54
ENDBRANCH  42  45
ENDBRANCH  39  42
ENDBRANCH   7  39
TORSDOF 14
ENDMDL
MODEL 2
REMARK VINA RESULT:      -9.2      3.642     13.055
REMARK SMILES CCc1cc(NCCN(C)C)c2ccc(CCc3cncc(-n4cc([C@H]5CCCO5)c5c(N)ncnc54)c3)cc2n1
REMARK SMILES IDX 3 1 4 2 5 3 12 4 13 5 14 6 15 7 39 8 40 9 41 10 2 15 1 18
REMARK SMILES IDX 6 22 7 24 8 27 9 30 10 31 11 35 16 39 17 42 18 45 19 46
REMARK SMILES IDX 38 47 20 48 22 50 21 52 23 54 24 55 37 56 25 57 31 59 36 60
REMARK SMILES IDX 32 61 35 62 34 63 26 65 27 66 30 67 28 69 29 72 33 77
REMARK H PARENT 4 11 13 12 14 13 39 14 2 16 2 17 1 19 1 20 1 21 6 23 7 25 7 26
REMARK H PARENT 8 28 8 29 10 32 10 33 10 34 11 36 11 37 11 38 16 40 16 41
REMARK H PARENT 17 43 17 44 19 49 38 51 21 53 24 58 35 64 26 68 27 70 27 71
REMARK H PARENT 28 73 28 74 29 75 29 76 33 78 33 79
REMARK Flexibility Score: inf
ROOT
ATOM      1  C   UNL     1     -43.356  40.506  28.714  1.00  0.00     0.043 A 
ATOM      2  C   UNL     1     -43.869  41.251  27.666  1.00  0.00    -0.017 A 
ATOM      3  C   UNL     1     -44.880  40.711  26.865  1.00  0.00     0.045 A 
ATOM      4  C   UNL     1     -45.355  39.403  27.149  1.00  0.00     0.023 A 
ATOM      5  C   UNL     1     -46.371  38.734  26.421  1.00  0.00    -0.050 A 
ATOM      6  C   UNL     1     -46.797  37.452  26.769  1.00  0.00    -0.058 A 
ATOM      7  C   UNL     1     -46.226  36.802  27.858  1.00  0.00    -0.045 A 
ATOM      8  C   UNL     1     -45.211  37.455  28.572  1.00  0.00    -0.032 A 
ATOM      9  C   UNL     1     -44.765  38.729  28.240  1.00  0.00     0.073 A 
ATOM     10  N   UNL     1     -43.789  39.258  28.995  1.00  0.00    -0.253 NA
ATOM     11  H   UNL     1     -43.508  42.258  27.484  1.00  0.00     0.066 H 
ATOM     12  H   UNL     1     -46.856  39.208  25.573  1.00  0.00     0.063 H 
ATOM     13  H   UNL     1     -47.595  36.984  26.197  1.00  0.00     0.063 H 
ATOM     14  H   UNL     1     -44.751  36.964  29.427  1.00  0.00     0.065 H 
ENDROOT
BRANCH   1  15
ATOM     15  C   UNL     1     -42.259  41.059  29.584  1.00  0.00    -0.013 C 
ATOM     16  H   UNL     1     -42.555  41.006  30.638  1.00  0.00     0.033 H 
ATOM     17  H   UNL     1     -41.365  40.433  29.479  1.00  0.00     0.033 H 
BRANCH  15  18
ATOM     18  C   UNL     1     -41.917  42.493  29.208  1.00  0.00    -0.060 C 
ATOM     19  H   UNL     1     -40.920  42.557  28.757  1.00  0.00     0.023 H 
ATOM     20  H   UNL     1     -42.636  42.898  28.488  1.00  0.00     0.023 H 
ATOM     21  H   UNL     1     -41.930  43.132  30.096  1.00  0.00     0.023 H 
ENDBRANCH  15  18
ENDBRANCH   1  15
BRANCH   3  22
ATOM     22  N   UNL     1     -45.398  41.510  25.818  1.00  0.00    -0.383 N 
ATOM     23  H   UNL     1     -46.117  41.020  25.283  1.00  0.00     0.160 HD
BRANCH  22  24
ATOM     24  C   UNL     1     -44.392  42.000  24.860  1.00  0.00     0.027 C 
ATOM     25  H   UNL     1     -44.344  41.394  23.947  1.00  0.00     0.050 H 
ATOM     26  H   UNL     1     -43.409  41.913  25.336  1.00  0.00     0.050 H 
BRANCH  24  27
ATOM     27  C   UNL     1     -44.659  43.480  24.490  1.00  0.00     0.015 C 
ATOM     28  H   UNL     1     -45.323  43.887  25.264  1.00  0.00     0.045 H 
ATOM     29  H   UNL     1     -45.212  43.524  23.543  1.00  0.00     0.045 H 
BRANCH  27  30
ATOM     30  N   UNL     1     -43.436  44.316  24.429  1.00  0.00    -0.308 NA
BRANCH  30  31
ATOM     31  C   UNL     1     -42.340  43.730  25.204  1.00  0.00    -0.014 C 
ATOM     32  H   UNL     1     -41.820  44.477  25.814  1.00  0.00     0.039 H 
ATOM     33  H   UNL     1     -42.719  42.947  25.872  1.00  0.00     0.039 H 
ATOM     34  H   UNL     1     -41.609  43.242  24.552  1.00  0.00     0.039 H 
ENDBRANCH  30  31
BRANCH  30  35
ATOM     35  C   UNL     1     -43.021  44.488  23.034  1.00  0.00    -0.014 C 
ATOM     36  H   UNL     1     -42.945  43.531  22.505  1.00  0.00     0.039 H 
ATOM     37  H   UNL     1     -43.731  45.125  22.496  1.00  0.00     0.039 H 
ATOM     38  H   UNL     1     -42.049  44.991  22.981  1.00  0.00     0.039 H 
ENDBRANCH  30  35
ENDBRANCH  27  30
ENDBRANCH  24  27
ENDBRANCH  22  24
ENDBRANCH   3  22
BRANCH   7  39
ATOM     39  C   UNL     1     -46.716  35.445  28.298  1.00  0.00    -0.024 C 
ATOM     40  H   UNL     1     -46.288  35.190  29.276  1.00  0.00     0.032 H 
ATOM     41  H   UNL     1     -47.801  35.510  28.455  1.00  0.00     0.032 H 
BRANCH  39  42
ATOM     42  C   UNL     1     -46.429  34.337  27.274  1.00  0.00    -0.022 C 
ATOM     43  H   UNL     1     -45.811  33.543  27.713  1.00  0.00     0.032 H 
ATOM     44  H   UNL     1     -45.828  34.761  26.460  1.00  0.00     0.032 H 
BRANCH  42  45
ATOM     45  C   UNL     1     -47.675  33.733  26.676  1.00  0.00    -0.027 A 
ATOM     46  C   UNL     1     -48.896  34.389  26.757  1.00  0.00     0.030 A 
ATOM     47  C   UNL     1     -47.648  32.484  26.038  1.00  0.00    -0.032 A 
ATOM     48  N   UNL     1     -50.048  33.901  26.252  1.00  0.00    -0.262 NA
ATOM     49  H   UNL     1     -48.988  35.356  27.243  1.00  0.00     0.084 H 
ATOM     50  C   UNL     1     -48.821  31.936  25.511  1.00  0.00     0.066 A 
ATOM     51  H   UNL     1     -46.693  31.973  25.956  1.00  0.00     0.065 H 
ATOM     52  C   UNL     1     -49.983  32.691  25.643  1.00  0.00     0.051 A 
ATOM     53  H   UNL     1     -50.951  32.352  25.289  1.00  0.00     0.086 H 
BRANCH  50  54
ATOM     54  N   UNL     1     -48.846  30.660  24.866  1.00  0.00    -0.299 N 
ATOM     55  C   UNL     1     -48.555  29.451  25.485  1.00  0.00     0.018 A 
ATOM     56  C   UNL     1     -49.139  30.380  23.534  1.00  0.00     0.150 A 
ATOM     57  C   UNL     1     -48.698  28.406  24.589  1.00  0.00     0.012 A 
ATOM     58  H   UNL     1     -48.302  29.411  26.534  1.00  0.00     0.083 H 
ATOM     59  C   UNL     1     -49.054  29.004  23.340  1.00  0.00     0.067 A 
ATOM     60  N   UNL     1     -49.421  31.278  22.569  1.00  0.00    -0.218 NA
ATOM     61  C   UNL     1     -49.308  28.530  22.040  1.00  0.00     0.136 A 
ATOM     62  C   UNL     1     -49.633  30.712  21.373  1.00  0.00     0.120 A 
ATOM     63  N   UNL     1     -49.604  29.405  21.064  1.00  0.00    -0.219 NA
ATOM     64  H   UNL     1     -49.857  31.388  20.555  1.00  0.00     0.106 H 
BRANCH  57  65
ATOM     65  C   UNL     1     -48.482  26.942  24.838  1.00  0.00     0.085 C 
ATOM     66  C   UNL     1     -47.054  26.538  25.189  1.00  0.00    -0.020 C 
ATOM     67  O   UNL     1     -49.301  26.460  25.932  1.00  0.00    -0.373 OA
ATOM     68  H   UNL     1     -48.803  26.389  23.946  1.00  0.00     0.066 H 
ATOM     69  C   UNL     1     -47.269  25.255  25.953  1.00  0.00    -0.027 C 
ATOM     70  H   UNL     1     -46.578  27.271  25.853  1.00  0.00     0.030 H 
ATOM     71  H   UNL     1     -46.417  26.415  24.307  1.00  0.00     0.030 H 
ATOM     72  C   UNL     1     -48.512  25.582  26.747  1.00  0.00     0.048 C 
ATOM     73  H   UNL     1     -46.423  24.970  26.582  1.00  0.00     0.029 H 
ATOM     74  H   UNL     1     -47.473  24.436  25.253  1.00  0.00     0.029 H 
ATOM     75  H   UNL     1     -49.095  24.693  27.002  1.00  0.00     0.057 H 
ATOM     76  H   UNL     1     -48.265  26.116  27.670  1.00  0.00     0.057 H 
ENDBRANCH  57  65
BRANCH  61  77
ATOM     77  N   UNL     1     -49.284  27.183  21.694  1.00  0.00    -0.383 N 
ATOM     78  H   UNL     1     -50.229  26.827  21.639  1.00  0.00     0.158 HD
ATOM     79  H   UNL     1     -48.644  26.647  22.283  1.00  0.00     0.158 HD
ENDBRANCH  61  77
ENDBRANCH  50  54
ENDBRANCH  42  45
ENDBRANCH  39  42
ENDBRANCH   7  39
TORSDOF 14
ENDMDL
MODEL 3
REMARK VINA RESULT:      -9.0      1.704      2.797
REMARK SMILES CCc1cc(NCCN(C)C)c2ccc(CCc3cncc(-n4cc([C@H]5CCCO5)c5c(N)ncnc54)c3)cc2n1
REMARK SMILES IDX 3 1 4 2 5 3 12 4 13 5 14 6 15 7 39 8 40 9 41 10 2 15 1 18
REMARK SMILES IDX 6 22 7 24 8 27 9 30 10 31 11 35 16 39 17 42 18 45 19 46
REMARK SMILES IDX 38 47 20 48 22 50 21 52 23 54 24 55 37 56 25 57 31 59 36 60
REMARK SMILES IDX 32 61 35 62 34 63 26 65 27 66 30 67 28 69 29 72 33 77
REMARK H PARENT 4 11 13 12 14 13 39 14 2 16 2 17 1 19 1 20 1 21 6 23 7 25 7 26
REMARK H PARENT 8 28 8 29 10 32 10 33 10 34 11 36 11 37 11 38 16 40 16 41
REMARK H PARENT 17 43 17 44 19 49 38 51 21 53 24 58 35 64 26 68 27 70 27 71
REMARK H PARENT 28 73 28 74 29 75 29 76 33 78 33 79
REMARK Flexibility Score: inf
ROOT
ATOM      1  C   UNL     1     -46.332  30.132  23.039  1.00  0.00     0.043 A 
ATOM      2  C   UNL     1     -47.460  29.436  23.441  1.00  0.00    -0.017 A 
ATOM      3  C   UNL     1     -48.334  30.013  24.366  1.00  0.00     0.045 A 
ATOM      4  C   UNL     1     -48.039  31.307  24.874  1.00  0.00     0.023 A 
ATOM      5  C   UNL     1     -48.835  32.008  25.815  1.00  0.00    -0.050 A 
ATOM      6  C   UNL     1     -48.488  33.285  26.257  1.00  0.00    -0.058 A 
ATOM      7  C   UNL     1     -47.340  33.902  25.769  1.00  0.00    -0.045 A 
ATOM      8  C   UNL     1     -46.544  33.205  24.850  1.00  0.00    -0.032 A 
ATOM      9  C   UNL     1     -46.865  31.930  24.399  1.00  0.00     0.073 A 
ATOM     10  N   UNL     1     -46.031  31.359  23.516  1.00  0.00    -0.253 NA
ATOM     11  H   UNL     1     -47.678  28.460  23.019  1.00  0.00     0.066 H 
ATOM     12  H   UNL     1     -49.747  31.574  26.211  1.00  0.00     0.063 H 
ATOM     13  H   UNL     1     -49.139  33.798  26.963  1.00  0.00     0.063 H 
ATOM     14  H   UNL     1     -45.643  33.670  24.456  1.00  0.00     0.065 H 
ENDROOT
BRANCH   1  15
ATOM     15  C   UNL     1     -45.368  29.527  22.053  1.00  0.00    -0.013 C 
ATOM     16  H   UNL     1     -45.908  29.188  21.162  1.00  0.00     0.033 H 
ATOM     17  H   UNL     1     -44.665  30.299  21.717  1.00  0.00     0.033 H 
BRANCH  15  18
ATOM     18  C   UNL     1     -44.592  28.372  22.667  1.00  0.00    -0.060 C 
ATOM     19  H   UNL     1     -44.489  28.496  23.751  1.00  0.00     0.023 H 
ATOM     20  H   UNL     1     -45.093  27.415  22.486  1.00  0.00     0.023 H 
ATOM     21  H   UNL     1     -43.588  28.317  22.234  1.00  0.00     0.023 H 
ENDBRANCH  15  18
ENDBRANCH   1  15
BRANCH   3  22
ATOM     22  N   UNL     1     -49.490  29.284  24.736  1.00  0.00    -0.383 N 
ATOM     23  H   UNL     1     -49.498  29.059  25.732  1.00  0.00     0.160 HD
BRANCH  22  24
ATOM     24  C   UNL     1     -49.688  28.025  23.997  1.00  0.00     0.027 C 
ATOM     25  H   UNL     1     -48.792  27.393  23.988  1.00  0.00     0.050 H 
ATOM     26  H   UNL     1     -49.890  28.282  22.951  1.00  0.00     0.050 H 
BRANCH  24  27
ATOM     27  C   UNL     1     -50.883  27.229  24.576  1.00  0.00     0.015 C 
ATOM     28  H   UNL     1     -51.079  26.399  23.884  1.00  0.00     0.045 H 
ATOM     29  H   UNL     1     -51.778  27.863  24.571  1.00  0.00     0.045 H 
BRANCH  27  30
ATOM     30  N   UNL     1     -50.636  26.670  25.927  1.00  0.00    -0.308 NA
BRANCH  30  31
ATOM     31  C   UNL     1     -51.840  26.048  26.484  1.00  0.00    -0.014 C 
ATOM     32  H   UNL     1     -52.734  26.660  26.323  1.00  0.00     0.039 H 
ATOM     33  H   UNL     1     -52.010  25.066  26.026  1.00  0.00     0.039 H 
ATOM     34  H   UNL     1     -51.732  25.866  27.557  1.00  0.00     0.039 H 
ENDBRANCH  30  31
BRANCH  30  35
ATOM     35  C   UNL     1     -49.551  25.687  25.867  1.00  0.00    -0.014 C 
ATOM     36  H   UNL     1     -48.729  26.018  25.222  1.00  0.00     0.039 H 
ATOM     37  H   UNL     1     -49.150  25.493  26.867  1.00  0.00     0.039 H 
ATOM     38  H   UNL     1     -49.922  24.727  25.490  1.00  0.00     0.039 H 
ENDBRANCH  30  35
ENDBRANCH  27  30
ENDBRANCH  24  27
ENDBRANCH  22  24
ENDBRANCH   3  22
BRANCH   7  39
ATOM     39  C   UNL     1     -46.980  35.309  26.178  1.00  0.00    -0.024 C 
ATOM     40  H   UNL     1     -46.013  35.590  25.744  1.00  0.00     0.032 H 
ATOM     41  H   UNL     1     -47.717  35.991  25.732  1.00  0.00     0.032 H 
BRANCH  39  42
ATOM     42  C   UNL     1     -46.974  35.514  27.700  1.00  0.00    -0.022 C 
ATOM     43  H   UNL     1     -46.574  34.632  28.216  1.00  0.00     0.032 H 
ATOM     44  H   UNL     1     -48.012  35.609  28.044  1.00  0.00     0.032 H 
BRANCH  42  45
ATOM     45  C   UNL     1     -46.216  36.741  28.140  1.00  0.00    -0.027 A 
ATOM     46  C   UNL     1     -45.422  36.721  29.279  1.00  0.00     0.030 A 
ATOM     47  C   UNL     1     -46.303  37.947  27.428  1.00  0.00    -0.032 A 
ATOM     48  N   UNL     1     -44.726  37.785  29.731  1.00  0.00    -0.262 NA
ATOM     49  H   UNL     1     -45.317  35.822  29.879  1.00  0.00     0.084 H 
ATOM     50  C   UNL     1     -45.608  39.077  27.869  1.00  0.00     0.066 A 
ATOM     51  H   UNL     1     -46.909  37.966  26.527  1.00  0.00     0.065 H 
ATOM     52  C   UNL     1     -44.835  38.933  29.018  1.00  0.00     0.051 A 
ATOM     53  H   UNL     1     -44.273  39.750  29.458  1.00  0.00     0.086 H 
BRANCH  50  54
ATOM     54  N   UNL     1     -45.678  40.332  27.186  1.00  0.00    -0.299 N 
ATOM     55  C   UNL     1     -44.586  41.029  26.689  1.00  0.00     0.018 A 
ATOM     56  C   UNL     1     -46.813  41.089  26.903  1.00  0.00     0.150 A 
ATOM     57  C   UNL     1     -45.000  42.191  26.061  1.00  0.00     0.012 A 
ATOM     58  H   UNL     1     -43.585  40.633  26.783  1.00  0.00     0.083 H 
ATOM     59  C   UNL     1     -46.422  42.234  26.215  1.00  0.00     0.067 A 
ATOM     60  N   UNL     1     -48.080  40.801  27.262  1.00  0.00    -0.218 NA
ATOM     61  C   UNL     1     -47.440  43.134  25.852  1.00  0.00     0.136 A 
ATOM     62  C   UNL     1     -48.959  41.734  26.874  1.00  0.00     0.120 A 
ATOM     63  N   UNL     1     -48.713  42.862  26.188  1.00  0.00    -0.219 NA
ATOM     64  H   UNL     1     -49.996  41.558  27.142  1.00  0.00     0.106 H 
BRANCH  57  65
ATOM     65  C   UNL     1     -44.152  43.232  25.392  1.00  0.00     0.085 C 
ATOM     66  C   UNL     1     -42.645  43.031  25.515  1.00  0.00    -0.020 C 
ATOM     67  O   UNL     1     -44.418  43.303  23.969  1.00  0.00    -0.373 OA
ATOM     68  H   UNL     1     -44.420  44.213  25.804  1.00  0.00     0.066 H 
ATOM     69  C   UNL     1     -42.130  43.778  24.310  1.00  0.00    -0.027 C 
ATOM     70  H   UNL     1     -42.369  41.973  25.423  1.00  0.00     0.030 H 
ATOM     71  H   UNL     1     -42.243  43.405  26.461  1.00  0.00     0.030 H 
ATOM     72  C   UNL     1     -43.171  43.430  23.272  1.00  0.00     0.048 C 
ATOM     73  H   UNL     1     -41.118  43.490  24.014  1.00  0.00     0.029 H 
ATOM     74  H   UNL     1     -42.139  44.856  24.509  1.00  0.00     0.029 H 
ATOM     75  H   UNL     1     -43.261  44.194  22.494  1.00  0.00     0.057 H 
ATOM     76  H   UNL     1     -42.954  42.469  22.797  1.00  0.00     0.057 H 
ENDBRANCH  57  65
BRANCH  61  77
ATOM     77  N   UNL     1     -47.212  44.309  25.144  1.00  0.00    -0.383 N 
ATOM     78  H   UNL     1     -46.638  44.115  24.334  1.00  0.00     0.158 HD
ATOM     79  H   UNL     1     -46.881  45.063  25.748  1.00  0.00     0.158 HD
ENDBRANCH  61  77
ENDBRANCH  50  54
ENDBRANCH  42  45
ENDBRANCH  39  42
ENDBRANCH   7  39
TORSDOF 14
ENDMDL
MODEL 4
REMARK VINA RESULT:      -8.8      1.796      2.818
REMARK SMILES CCc1cc(NCCN(C)C)c2ccc(CCc3cncc(-n4cc([C@H]5CCCO5)c5c(N)ncnc54)c3)cc2n1
REMARK SMILES IDX 3 1 4 2 5 3 12 4 13 5 14 6 15 7 39 8 40 9 41 10 2 15 1 18
REMARK SMILES IDX 6 22 7 24 8 27 9 30 10 31 11 35 16 39 17 42 18 45 19 46
REMARK SMILES IDX 38 47 20 48 22 50 21 52 23 54 24 55 37 56 25 57 31 59 36 60
REMARK SMILES IDX 32 61 35 62 34 63 26 65 27 66 30 67 28 69 29 72 33 77
REMARK H PARENT 4 11 13 12 14 13 39 14 2 16 2 17 1 19 1 20 1 21 6 23 7 25 7 26
REMARK H PARENT 8 28 8 29 10 32 10 33 10 34 11 36 11 37 11 38 16 40 16 41
REMARK H PARENT 17 43 17 44 19 49 38 51 21 53 24 58 35 64 26 68 27 70 27 71
REMARK H PARENT 28 73 28 74 29 75 29 76 33 78 33 79
REMARK Flexibility Score: inf
ROOT
ATOM      1  C   UNL     1     -50.869  29.866  22.898  1.00  0.00     0.043 A 
ATOM      2  C   UNL     1     -49.758  29.096  22.596  1.00  0.00    -0.017 A 
ATOM      3  C   UNL     1     -48.507  29.462  23.100  1.00  0.00     0.045 A 
ATOM      4  C   UNL     1     -48.407  30.623  23.914  1.00  0.00     0.023 A 
ATOM      5  C   UNL     1     -47.206  31.108  24.488  1.00  0.00    -0.050 A 
ATOM      6  C   UNL     1     -47.189  32.249  25.291  1.00  0.00    -0.058 A 
ATOM      7  C   UNL     1     -48.371  32.937  25.548  1.00  0.00    -0.045 A 
ATOM      8  C   UNL     1     -49.558  32.466  24.969  1.00  0.00    -0.032 A 
ATOM      9  C   UNL     1     -49.600  31.336  24.162  1.00  0.00     0.073 A 
ATOM     10  N   UNL     1     -50.793  30.976  23.663  1.00  0.00    -0.253 NA
ATOM     11  H   UNL     1     -49.863  28.199  21.994  1.00  0.00     0.066 H 
ATOM     12  H   UNL     1     -46.262  30.597  24.328  1.00  0.00     0.063 H 
ATOM     13  H   UNL     1     -46.248  32.575  25.730  1.00  0.00     0.063 H 
ATOM     14  H   UNL     1     -50.494  32.989  25.158  1.00  0.00     0.065 H 
ENDROOT
BRANCH   1  15
ATOM     15  C   UNL     1     -52.226  29.501  22.357  1.00  0.00    -0.013 C 
ATOM     16  H   UNL     1     -52.773  28.902  23.094  1.00  0.00     0.033 H 
ATOM     17  H   UNL     1     -52.811  30.416  22.203  1.00  0.00     0.033 H 
BRANCH  15  18
ATOM     18  C   UNL     1     -52.118  28.744  21.043  1.00  0.00    -0.060 C 
ATOM     19  H   UNL     1     -52.901  27.982  20.959  1.00  0.00     0.023 H 
ATOM     20  H   UNL     1     -52.215  29.418  20.186  1.00  0.00     0.023 H 
ATOM     21  H   UNL     1     -51.147  28.243  20.972  1.00  0.00     0.023 H 
ENDBRANCH  15  18
ENDBRANCH   1  15
BRANCH   3  22
ATOM     22  N   UNL     1     -47.397  28.639  22.792  1.00  0.00    -0.383 N 
ATOM     23  H   UNL     1     -47.560  28.075  21.956  1.00  0.00     0.160 HD
BRANCH  22  24
ATOM     24  C   UNL     1     -46.990  27.722  23.871  1.00  0.00     0.027 C 
ATOM     25  H   UNL     1     -46.117  28.084  24.428  1.00  0.00     0.050 H 
ATOM     26  H   UNL     1     -46.686  26.777  23.407  1.00  0.00     0.050 H 
BRANCH  24  27
ATOM     27  C   UNL     1     -48.163  27.466  24.848  1.00  0.00     0.015 C 
ATOM     28  H   UNL     1     -49.089  27.682  24.298  1.00  0.00     0.045 H 
ATOM     29  H   UNL     1     -48.111  28.185  25.675  1.00  0.00     0.045 H 
BRANCH  27  30
ATOM     30  N   UNL     1     -48.230  26.075  25.357  1.00  0.00    -0.308 NA
BRANCH  30  31
ATOM     31  C   UNL     1     -47.113  25.772  26.254  1.00  0.00    -0.014 C 
ATOM     32  H   UNL     1     -46.579  24.863  25.957  1.00  0.00     0.039 H 
ATOM     33  H   UNL     1     -46.395  26.601  26.265  1.00  0.00     0.039 H 
ATOM     34  H   UNL     1     -47.453  25.654  27.287  1.00  0.00     0.039 H 
ENDBRANCH  30  31
BRANCH  30  35
ATOM     35  C   UNL     1     -49.501  25.863  26.058  1.00  0.00    -0.014 C 
ATOM     36  H   UNL     1     -50.124  26.766  26.064  1.00  0.00     0.039 H 
ATOM     37  H   UNL     1     -50.068  25.053  25.590  1.00  0.00     0.039 H 
ATOM     38  H   UNL     1     -49.322  25.560  27.095  1.00  0.00     0.039 H 
ENDBRANCH  30  35
ENDBRANCH  27  30
ENDBRANCH  24  27
ENDBRANCH  22  24
ENDBRANCH   3  22
BRANCH   7  39
ATOM     39  C   UNL     1     -48.392  34.132  26.468  1.00  0.00    -0.024 C 
ATOM     40  H   UNL     1     -49.275  34.748  26.263  1.00  0.00     0.032 H 
ATOM     41  H   UNL     1     -48.515  33.766  27.496  1.00  0.00     0.032 H 
BRANCH  39  42
ATOM     42  C   UNL     1     -47.110  34.976  26.392  1.00  0.00    -0.022 C 
ATOM     43  H   UNL     1     -46.743  35.044  25.360  1.00  0.00     0.032 H 
ATOM     44  H   UNL     1     -46.319  34.460  26.952  1.00  0.00     0.032 H 
BRANCH  42  45
ATOM     45  C   UNL     1     -47.267  36.362  26.964  1.00  0.00    -0.027 A 
ATOM     46  C   UNL     1     -48.477  36.778  27.505  1.00  0.00     0.030 A 
ATOM     47  C   UNL     1     -46.209  37.282  26.951  1.00  0.00    -0.032 A 
ATOM     48  N   UNL     1     -48.687  38.006  28.024  1.00  0.00    -0.262 NA
ATOM     49  H   UNL     1     -49.338  36.118  27.540  1.00  0.00     0.084 H 
ATOM     50  C   UNL     1     -46.387  38.569  27.468  1.00  0.00     0.066 A 
ATOM     51  H   UNL     1     -45.255  36.958  26.544  1.00  0.00     0.065 H 
ATOM     52  C   UNL     1     -47.641  38.868  27.993  1.00  0.00     0.051 A 
ATOM     53  H   UNL     1     -47.893  39.842  28.400  1.00  0.00     0.086 H 
BRANCH  50  54
ATOM     54  N   UNL     1     -45.343  39.546  27.462  1.00  0.00    -0.299 N 
ATOM     55  C   UNL     1     -45.139  40.486  26.461  1.00  0.00     0.018 A 
ATOM     56  C   UNL     1     -44.344  39.736  28.414  1.00  0.00     0.150 A 
ATOM     57  C   UNL     1     -44.062  41.297  26.773  1.00  0.00     0.012 A 
ATOM     58  H   UNL     1     -45.800  40.541  25.608  1.00  0.00     0.083 H 
ATOM     59  C   UNL     1     -43.546  40.804  28.013  1.00  0.00     0.067 A 
ATOM     60  N   UNL     1     -44.142  38.998  29.523  1.00  0.00    -0.218 NA
ATOM     61  C   UNL     1     -42.468  41.140  28.852  1.00  0.00     0.136 A 
ATOM     62  C   UNL     1     -43.082  39.402  30.235  1.00  0.00     0.120 A 
ATOM     63  N   UNL     1     -42.254  40.426  29.970  1.00  0.00    -0.219 NA
ATOM     64  H   UNL     1     -42.866  38.838  31.137  1.00  0.00     0.106 H 
BRANCH  57  65
ATOM     65  C   UNL     1     -43.500  42.434  25.972  1.00  0.00     0.085 C 
ATOM     66  C   UNL     1     -44.203  42.718  24.649  1.00  0.00    -0.020 C 
ATOM     67  O   UNL     1     -43.546  43.681  26.710  1.00  0.00    -0.373 OA
ATOM     68  H   UNL     1     -42.439  42.229  25.779  1.00  0.00     0.066 H 
ATOM     69  C   UNL     1     -43.872  44.172  24.422  1.00  0.00    -0.027 C 
ATOM     70  H   UNL     1     -45.292  42.611  24.739  1.00  0.00     0.030 H 
ATOM     71  H   UNL     1     -43.864  42.065  23.839  1.00  0.00     0.030 H 
ATOM     72  C   UNL     1     -43.973  44.725  25.825  1.00  0.00     0.048 C 
ATOM     73  H   UNL     1     -44.541  44.671  23.717  1.00  0.00     0.029 H 
ATOM     74  H   UNL     1     -42.845  44.265  24.052  1.00  0.00     0.029 H 
ATOM     75  H   UNL     1     -43.349  45.611  25.973  1.00  0.00     0.057 H 
ATOM     76  H   UNL     1     -45.006  44.978  26.080  1.00  0.00     0.057 H 
ENDBRANCH  57  65
BRANCH  61  77
ATOM     77  N   UNL     1     -41.596  42.193  28.599  1.00  0.00    -0.383 N 
ATOM     78  H   UNL     1     -42.064  43.074  28.769  1.00  0.00     0.158 HD
ATOM     79  H   UNL     1     -41.141  42.105  27.689  1.00  0.00     0.158 HD
ENDBRANCH  61  77
ENDBRANCH  50  54
ENDBRANCH  42  45
ENDBRANCH  39  42
ENDBRANCH   7  39
TORSDOF 14
ENDMDL
MODEL 5
REMARK VINA RESULT:      -8.6      2.186      3.496
REMARK SMILES CCc1cc(NCCN(C)C)c2ccc(CCc3cncc(-n4cc([C@H]5CCCO5)c5c(N)ncnc54)c3)cc2n1
REMARK SMILES IDX 3 1 4 2 5 3 12 4 13 5 14 6 15 7 39 8 40 9 41 10 2 15 1 18
REMARK SMILES IDX 6 22 7 24 8 27 9 30 10 31 11 35 16 39 17 42 18 45 19 46
REMARK SMILES IDX 38 47 20 48 22 50 21 52 23 54 24 55 37 56 25 57 31 59 36 60
REMARK SMILES IDX 32 61 35 62 34 63 26 65 27 66 30 67 28 69 29 72 33 77
REMARK H PARENT 4 11 13 12 14 13 39 14 2 16 2 17 1 19 1 20 1 21 6 23 7 25 7 26
REMARK H PARENT 8 28 8 29 10 32 10 33 10 34 11 36 11 37 11 38 16 40 16 41
REMARK H PARENT 17 43 17 44 19 49 38 51 21 53 24 58 35 64 26 68 27 70 27 71
REMARK H PARENT 28 73 28 74 29 75 29 76 33 78 33 79
REMARK Flexibility Score: inf
ROOT
ATOM      1  C   UNL     1     -46.483  30.684  22.183  1.00  0.00     0.043 A 
ATOM      2  C   UNL     1     -47.326  29.629  22.490  1.00  0.00    -0.017 A 
ATOM      3  C   UNL     1     -48.087  29.672  23.662  1.00  0.00     0.045 A 
ATOM      4  C   UNL     1     -47.970  30.803  24.514  1.00  0.00     0.023 A 
ATOM      5  C   UNL     1     -48.678  30.977  25.730  1.00  0.00    -0.050 A 
ATOM      6  C   UNL     1     -48.523  32.125  26.508  1.00  0.00    -0.058 A 
ATOM      7  C   UNL     1     -47.661  33.135  26.093  1.00  0.00    -0.045 A 
ATOM      8  C   UNL     1     -46.950  32.959  24.898  1.00  0.00    -0.032 A 
ATOM      9  C   UNL     1     -47.082  31.823  24.109  1.00  0.00     0.073 A 
ATOM     10  N   UNL     1     -46.353  31.763  22.983  1.00  0.00    -0.253 NA
ATOM     11  H   UNL     1     -47.418  28.788  21.810  1.00  0.00     0.066 H 
ATOM     12  H   UNL     1     -49.372  30.223  26.087  1.00  0.00     0.063 H 
ATOM     13  H   UNL     1     -49.102  32.228  27.423  1.00  0.00     0.063 H 
ATOM     14  H   UNL     1     -46.271  33.738  24.555  1.00  0.00     0.065 H 
ENDROOT
BRANCH   1  15
ATOM     15  C   UNL     1     -45.644  30.657  20.932  1.00  0.00    -0.013 C 
ATOM     16  H   UNL     1     -44.582  30.721  21.194  1.00  0.00     0.033 H 
ATOM     17  H   UNL     1     -45.783  29.694  20.426  1.00  0.00     0.033 H 
BRANCH  15  18
ATOM     18  C   UNL     1     -46.020  31.784  19.983  1.00  0.00    -0.060 C 
ATOM     19  H   UNL     1     -45.131  32.321  19.634  1.00  0.00     0.023 H 
ATOM     20  H   UNL     1     -46.548  31.404  19.103  1.00  0.00     0.023 H 
ATOM     21  H   UNL     1     -46.674  32.502  20.487  1.00  0.00     0.023 H 
ENDBRANCH  15  18
ENDBRANCH   1  15
BRANCH   3  22
ATOM     22  N   UNL     1     -48.957  28.589  23.932  1.00  0.00    -0.383 N 
ATOM     23  H   UNL     1     -49.631  28.813  24.666  1.00  0.00     0.160 HD
BRANCH  22  24
ATOM     24  C   UNL     1     -48.282  27.337  24.320  1.00  0.00     0.027 C 
ATOM     25  H   UNL     1     -47.328  27.192  23.800  1.00  0.00     0.050 H 
ATOM     26  H   UNL     1     -48.926  26.505  24.015  1.00  0.00     0.050 H 
BRANCH  24  27
ATOM     27  C   UNL     1     -48.057  27.285  25.851  1.00  0.00     0.015 C 
ATOM     28  H   UNL     1     -48.549  28.170  26.276  1.00  0.00     0.045 H 
ATOM     29  H   UNL     1     -46.985  27.386  26.064  1.00  0.00     0.045 H 
BRANCH  27  30
ATOM     30  N   UNL     1     -48.615  26.075  26.501  1.00  0.00    -0.308 NA
BRANCH  30  31
ATOM     31  C   UNL     1     -49.793  25.573  25.791  1.00  0.00    -0.014 C 
ATOM     32  H   UNL     1     -49.524  25.013  24.889  1.00  0.00     0.039 H 
ATOM     33  H   UNL     1     -50.380  24.913  26.441  1.00  0.00     0.039 H 
ATOM     34  H   UNL     1     -50.464  26.390  25.506  1.00  0.00     0.039 H 
ENDBRANCH  30  31
BRANCH  30  35
ATOM     35  C   UNL     1     -47.591  25.029  26.566  1.00  0.00    -0.014 C 
ATOM     36  H   UNL     1     -47.614  24.488  27.519  1.00  0.00     0.039 H 
ATOM     37  H   UNL     1     -47.725  24.307  25.754  1.00  0.00     0.039 H 
ATOM     38  H   UNL     1     -46.592  25.461  26.438  1.00  0.00     0.039 H 
ENDBRANCH  30  35
ENDBRANCH  27  30
ENDBRANCH  24  27
ENDBRANCH  22  24
ENDBRANCH   3  22
BRANCH   7  39
ATOM     39  C   UNL     1     -47.528  34.416  26.879  1.00  0.00    -0.024 C 
ATOM     40  H   UNL     1     -48.521  34.796  27.149  1.00  0.00     0.032 H 
ATOM     41  H   UNL     1     -47.030  34.180  27.829  1.00  0.00     0.032 H 
BRANCH  39  42
ATOM     42  C   UNL     1     -46.713  35.493  26.147  1.00  0.00    -0.022 C 
ATOM     43  H   UNL     1     -47.210  35.800  25.218  1.00  0.00     0.032 H 
ATOM     44  H   UNL     1     -45.755  35.056  25.838  1.00  0.00     0.032 H 
BRANCH  42  45
ATOM     45  C   UNL     1     -46.428  36.709  26.991  1.00  0.00    -0.027 A 
ATOM     46  C   UNL     1     -45.803  36.590  28.226  1.00  0.00     0.030 A 
ATOM     47  C   UNL     1     -46.800  37.994  26.571  1.00  0.00    -0.032 A 
ATOM     48  N   UNL     1     -45.526  37.636  29.033  1.00  0.00    -0.262 NA
ATOM     49  H   UNL     1     -45.494  35.624  28.613  1.00  0.00     0.084 H 
ATOM     50  C   UNL     1     -46.543  39.104  27.383  1.00  0.00     0.066 A 
ATOM     51  H   UNL     1     -47.274  38.097  25.599  1.00  0.00     0.065 H 
ATOM     52  C   UNL     1     -45.902  38.862  28.594  1.00  0.00     0.051 A 
ATOM     53  H   UNL     1     -45.674  39.647  29.308  1.00  0.00     0.086 H 
BRANCH  50  54
ATOM     54  N   UNL     1     -46.919  40.430  27.004  1.00  0.00    -0.299 N 
ATOM     55  C   UNL     1     -48.156  41.009  27.253  1.00  0.00     0.018 A 
ATOM     56  C   UNL     1     -46.154  41.373  26.320  1.00  0.00     0.150 A 
ATOM     57  C   UNL     1     -48.184  42.309  26.782  1.00  0.00     0.012 A 
ATOM     58  H   UNL     1     -48.925  40.467  27.785  1.00  0.00     0.083 H 
ATOM     59  C   UNL     1     -46.910  42.532  26.170  1.00  0.00     0.067 A 
ATOM     60  N   UNL     1     -44.908  41.198  25.838  1.00  0.00    -0.218 NA
ATOM     61  C   UNL     1     -46.302  43.601  25.486  1.00  0.00     0.136 A 
ATOM     62  C   UNL     1     -44.439  42.277  25.196  1.00  0.00     0.120 A 
ATOM     63  N   UNL     1     -45.055  43.455  25.008  1.00  0.00    -0.219 NA
ATOM     64  H   UNL     1     -43.440  42.191  24.780  1.00  0.00     0.106 H 
BRANCH  57  65
ATOM     65  C   UNL     1     -49.318  43.289  26.842  1.00  0.00     0.085 C 
ATOM     66  C   UNL     1     -50.611  42.762  27.456  1.00  0.00    -0.020 C 
ATOM     67  O   UNL     1     -48.971  44.461  27.620  1.00  0.00    -0.373 OA
ATOM     68  H   UNL     1     -49.522  43.644  25.824  1.00  0.00     0.066 H 
ATOM     69  C   UNL     1     -51.272  44.030  27.935  1.00  0.00    -0.027 C 
ATOM     70  H   UNL     1     -50.414  42.115  28.320  1.00  0.00     0.030 H 
ATOM     71  H   UNL     1     -51.221  42.198  26.743  1.00  0.00     0.030 H 
ATOM     72  C   UNL     1     -50.085  44.810  28.452  1.00  0.00     0.048 C 
ATOM     73  H   UNL     1     -52.039  43.866  28.695  1.00  0.00     0.029 H 
ATOM     74  H   UNL     1     -51.729  44.554  27.088  1.00  0.00     0.029 H 
ATOM     75  H   UNL     1     -50.246  45.891  28.418  1.00  0.00     0.057 H 
ATOM     76  H   UNL     1     -49.838  44.525  29.479  1.00  0.00     0.057 H 
ENDBRANCH  57  65
BRANCH  61  77
ATOM     77  N   UNL     1     -46.918  44.831  25.277  1.00  0.00    -0.383 N 
ATOM     78  H   UNL     1     -47.478  44.794  24.435  1.00  0.00     0.158 HD
ATOM     79  H   UNL     1     -46.256  45.606  25.332  1.00  0.00     0.158 HD
ENDBRANCH  61  77
ENDBRANCH  50  54
ENDBRANCH  42  45
ENDBRANCH  39  42
ENDBRANCH   7  39
TORSDOF 14
ENDMDL
MODEL 6
REMARK VINA RESULT:      -8.5      3.461     12.904
REMARK SMILES CCc1cc(NCCN(C)C)c2ccc(CCc3cncc(-n4cc([C@H]5CCCO5)c5c(N)ncnc54)c3)cc2n1
REMARK SMILES IDX 3 1 4 2 5 3 12 4 13 5 14 6 15 7 39 8 40 9 41 10 2 15 1 18
REMARK SMILES IDX 6 22 7 24 8 27 9 30 10 31 11 35 16 39 17 42 18 45 19 46
REMARK SMILES IDX 38 47 20 48 22 50 21 52 23 54 24 55 37 56 25 57 31 59 36 60
REMARK SMILES IDX 32 61 35 62 34 63 26 65 27 66 30 67 28 69 29 72 33 77
REMARK H PARENT 4 11 13 12 14 13 39 14 2 16 2 17 1 19 1 20 1 21 6 23 7 25 7 26
REMARK H PARENT 8 28 8 29 10 32 10 33 10 34 11 36 11 37 11 38 16 40 16 41
REMARK H PARENT 17 43 17 44 19 49 38 51 21 53 24 58 35 64 26 68 27 70 27 71
REMARK H PARENT 28 73 28 74 29 75 29 76 33 78 33 79
REMARK Flexibility Score: inf
ROOT
ATOM      1  C   UNL     1     -47.849  42.022  26.546  1.00  0.00     0.043 A 
ATOM      2  C   UNL     1     -46.508  42.200  26.250  1.00  0.00    -0.017 A 
ATOM      3  C   UNL     1     -45.612  41.144  26.441  1.00  0.00     0.045 A 
ATOM      4  C   UNL     1     -46.105  39.908  26.939  1.00  0.00     0.023 A 
ATOM      5  C   UNL     1     -45.312  38.758  27.182  1.00  0.00    -0.050 A 
ATOM      6  C   UNL     1     -45.872  37.572  27.659  1.00  0.00    -0.058 A 
ATOM      7  C   UNL     1     -47.239  37.497  27.903  1.00  0.00    -0.045 A 
ATOM      8  C   UNL     1     -48.023  38.638  27.678  1.00  0.00    -0.032 A 
ATOM      9  C   UNL     1     -47.489  39.831  27.209  1.00  0.00     0.073 A 
ATOM     10  N   UNL     1     -48.335  40.858  27.027  1.00  0.00    -0.253 NA
ATOM     11  H   UNL     1     -46.159  43.145  25.845  1.00  0.00     0.066 H 
ATOM     12  H   UNL     1     -44.244  38.765  26.991  1.00  0.00     0.063 H 
ATOM     13  H   UNL     1     -45.230  36.706  27.810  1.00  0.00     0.063 H 
ATOM     14  H   UNL     1     -49.095  38.599  27.862  1.00  0.00     0.065 H 
ENDROOT
BRANCH   1  15
ATOM     15  C   UNL     1     -48.832  43.147  26.360  1.00  0.00    -0.013 C 
ATOM     16  H   UNL     1     -49.748  42.770  25.893  1.00  0.00     0.033 H 
ATOM     17  H   UNL     1     -49.121  43.539  27.343  1.00  0.00     0.033 H 
BRANCH  15  18
ATOM     18  C   UNL     1     -48.241  44.272  25.523  1.00  0.00    -0.060 C 
ATOM     19  H   UNL     1     -47.697  44.987  26.149  1.00  0.00     0.023 H 
ATOM     20  H   UNL     1     -47.545  43.885  24.772  1.00  0.00     0.023 H 
ATOM     21  H   UNL     1     -49.037  44.813  25.001  1.00  0.00     0.023 H 
ENDBRANCH  15  18
ENDBRANCH   1  15
BRANCH   3  22
ATOM     22  N   UNL     1     -44.253  41.352  26.105  1.00  0.00    -0.383 N 
ATOM     23  H   UNL     1     -43.621  40.896  26.764  1.00  0.00     0.160 HD
BRANCH  22  24
ATOM     24  C   UNL     1     -43.850  42.767  26.014  1.00  0.00     0.027 C 
ATOM     25  H   UNL     1     -44.517  43.434  26.574  1.00  0.00     0.050 H 
ATOM     26  H   UNL     1     -43.928  43.069  24.964  1.00  0.00     0.050 H 
BRANCH  24  27
ATOM     27  C   UNL     1     -42.393  42.956  26.502  1.00  0.00     0.015 C 
ATOM     28  H   UNL     1     -42.379  43.863  27.122  1.00  0.00     0.045 H 
ATOM     29  H   UNL     1     -41.744  43.152  25.639  1.00  0.00     0.045 H 
BRANCH  27  30
ATOM     30  N   UNL     1     -41.876  41.825  27.309  1.00  0.00    -0.308 NA
BRANCH  30  31
ATOM     31  C   UNL     1     -40.474  41.536  27.001  1.00  0.00    -0.014 C 
ATOM     32  H   UNL     1     -39.946  41.093  27.853  1.00  0.00     0.039 H 
ATOM     33  H   UNL     1     -40.403  40.840  26.156  1.00  0.00     0.039 H 
ATOM     34  H   UNL     1     -39.941  42.440  26.693  1.00  0.00     0.039 H 
ENDBRANCH  30  31
BRANCH  30  35
ATOM     35  C   UNL     1     -42.019  42.127  28.736  1.00  0.00    -0.014 C 
ATOM     36  H   UNL     1     -42.530  43.082  28.907  1.00  0.00     0.039 H 
ATOM     37  H   UNL     1     -42.583  41.336  29.243  1.00  0.00     0.039 H 
ATOM     38  H   UNL     1     -41.038  42.168  29.221  1.00  0.00     0.039 H 
ENDBRANCH  30  35
ENDBRANCH  27  30
ENDBRANCH  24  27
ENDBRANCH  22  24
ENDBRANCH   3  22
BRANCH   7  39
ATOM     39  C   UNL     1     -47.879  36.207  28.353  1.00  0.00    -0.024 C 
ATOM     40  H   UNL     1     -47.107  35.493  28.664  1.00  0.00     0.032 H 
ATOM     41  H   UNL     1     -48.471  36.419  29.254  1.00  0.00     0.032 H 
BRANCH  39  42
ATOM     42  C   UNL     1     -48.799  35.586  27.291  1.00  0.00    -0.022 C 
ATOM     43  H   UNL     1     -49.224  36.357  26.637  1.00  0.00     0.032 H 
ATOM     44  H   UNL     1     -49.656  35.125  27.798  1.00  0.00     0.032 H 
BRANCH  42  45
ATOM     45  C   UNL     1     -48.123  34.531  26.452  1.00  0.00    -0.027 A 
ATOM     46  C   UNL     1     -46.876  34.761  25.884  1.00  0.00     0.030 A 
ATOM     47  C   UNL     1     -48.735  33.295  26.200  1.00  0.00    -0.032 A 
ATOM     48  N   UNL     1     -46.221  33.864  25.117  1.00  0.00    -0.262 NA
ATOM     49  H   UNL     1     -46.350  35.699  26.035  1.00  0.00     0.084 H 
ATOM     50  C   UNL     1     -48.097  32.341  25.400  1.00  0.00     0.066 A 
ATOM     51  H   UNL     1     -49.703  33.102  26.654  1.00  0.00     0.065 H 
ATOM     52  C   UNL     1     -46.845  32.681  24.895  1.00  0.00     0.051 A 
ATOM     53  H   UNL     1     -46.272  32.025  24.248  1.00  0.00     0.086 H 
BRANCH  50  54
ATOM     54  N   UNL     1     -48.689  31.074  25.103  1.00  0.00    -0.299 N 
ATOM     55  C   UNL     1     -48.151  29.843  25.454  1.00  0.00     0.018 A 
ATOM     56  C   UNL     1     -49.872  30.825  24.412  1.00  0.00     0.150 A 
ATOM     57  C   UNL     1     -48.985  28.819  25.041  1.00  0.00     0.012 A 
ATOM     58  H   UNL     1     -47.227  29.779  26.009  1.00  0.00     0.083 H 
ATOM     59  C   UNL     1     -50.074  29.448  24.360  1.00  0.00     0.067 A 
ATOM     60  N   UNL     1     -50.680  31.743  23.846  1.00  0.00    -0.218 NA
ATOM     61  C   UNL     1     -51.224  29.001  23.685  1.00  0.00     0.136 A 
ATOM     62  C   UNL     1     -51.734  31.200  23.222  1.00  0.00     0.120 A 
ATOM     63  N   UNL     1     -52.051  29.899  23.124  1.00  0.00    -0.219 NA
ATOM     64  H   UNL     1     -52.416  31.894  22.741  1.00  0.00     0.106 H 
BRANCH  57  65
ATOM     65  C   UNL     1     -48.787  27.342  25.214  1.00  0.00     0.085 C 
ATOM     66  C   UNL     1     -47.381  26.827  24.923  1.00  0.00    -0.020 C 
ATOM     67  O   UNL     1     -49.081  26.919  26.568  1.00  0.00    -0.373 OA
ATOM     68  H   UNL     1     -49.502  26.819  24.566  1.00  0.00     0.066 H 
ATOM     69  C   UNL     1     -47.333  25.562  25.742  1.00  0.00    -0.027 C 
ATOM     70  H   UNL     1     -46.613  27.519  25.293  1.00  0.00     0.030 H 
ATOM     71  H   UNL     1     -47.201  26.661  23.857  1.00  0.00     0.030 H 
ATOM     72  C   UNL     1     -48.081  25.980  26.986  1.00  0.00     0.048 C 
ATOM     73  H   UNL     1     -46.320  25.210  25.950  1.00  0.00     0.029 H 
ATOM     74  H   UNL     1     -47.879  24.764  25.224  1.00  0.00     0.029 H 
ATOM     75  H   UNL     1     -48.557  25.137  27.495  1.00  0.00     0.057 H 
ATOM     76  H   UNL     1     -47.421  26.489  27.695  1.00  0.00     0.057 H 
ENDBRANCH  57  65
BRANCH  61  77
ATOM     77  N   UNL     1     -51.575  27.660  23.567  1.00  0.00    -0.383 N 
ATOM     78  H   UNL     1     -51.378  27.336  22.630  1.00  0.00     0.158 HD
ATOM     79  H   UNL     1     -52.522  27.480  23.905  1.00  0.00     0.158 HD
ENDBRANCH  61  77
ENDBRANCH  50  54
ENDBRANCH  42  45
ENDBRANCH  39  42
ENDBRANCH   7  39
TORSDOF 14
ENDMDL
MODEL 7
REMARK VINA RESULT:      -8.5      3.358     13.001
REMARK SMILES CCc1cc(NCCN(C)C)c2ccc(CCc3cncc(-n4cc([C@H]5CCCO5)c5c(N)ncnc54)c3)cc2n1
REMARK SMILES IDX 3 1 4 2 5 3 12 4 13 5 14 6 15 7 39 8 40 9 41 10 2 15 1 18
REMARK SMILES IDX 6 22 7 24 8 27 9 30 10 31 11 35 16 39 17 42 18 45 19 46
REMARK SMILES IDX 38 47 20 48 22 50 21 52 23 54 24 55 37 56 25 57 31 59 36 60
REMARK SMILES IDX 32 61 35 62 34 63 26 65 27 66 30 67 28 69 29 72 33 77
REMARK H PARENT 4 11 13 12 14 13 39 14 2 16 2 17 1 19 1 20 1 21 6 23 7 25 7 26
REMARK H PARENT 8 28 8 29 10 32 10 33 10 34 11 36 11 37 11 38 16 40 16 41
REMARK H PARENT 17 43 17 44 19 49 38 51 21 53 24 58 35 64 26 68 27 70 27 71
REMARK H PARENT 28 73 28 74 29 75 29 76 33 78 33 79
REMARK Flexibility Score: inf
ROOT
ATOM      1  C   UNL     1     -42.824  41.449  28.382  1.00  0.00     0.043 A 
ATOM      2  C   UNL     1     -43.174  42.352  27.393  1.00  0.00    -0.017 A 
ATOM      3  C   UNL     1     -44.286  42.095  26.585  1.00  0.00     0.045 A 
ATOM      4  C   UNL     1     -45.030  40.903  26.801  1.00  0.00     0.023 A 
ATOM      5  C   UNL     1     -46.173  40.517  26.058  1.00  0.00    -0.050 A 
ATOM      6  C   UNL     1     -46.862  39.336  26.339  1.00  0.00    -0.058 A 
ATOM      7  C   UNL     1     -46.434  38.510  27.373  1.00  0.00    -0.045 A 
ATOM      8  C   UNL     1     -45.294  38.884  28.100  1.00  0.00    -0.032 A 
ATOM      9  C   UNL     1     -44.588  40.050  27.836  1.00  0.00     0.073 A 
ATOM     10  N   UNL     1     -43.513  40.308  28.598  1.00  0.00    -0.253 NA
ATOM     11  H   UNL     1     -42.607  43.268  27.264  1.00  0.00     0.066 H 
ATOM     12  H   UNL     1     -46.553  41.136  25.253  1.00  0.00     0.063 H 
ATOM     13  H   UNL     1     -47.748  39.088  25.759  1.00  0.00     0.063 H 
ATOM     14  H   UNL     1     -44.943  38.251  28.914  1.00  0.00     0.065 H 
ENDROOT
BRANCH   1  15
ATOM     15  C   UNL     1     -41.624  41.697  29.258  1.00  0.00    -0.013 C 
ATOM     16  H   UNL     1     -40.724  41.791  28.640  1.00  0.00     0.033 H 
ATOM     17  H   UNL     1     -41.748  42.655  29.776  1.00  0.00     0.033 H 
BRANCH  15  18
ATOM     18  C   UNL     1     -41.442  40.589  30.284  1.00  0.00    -0.060 C 
ATOM     19  H   UNL     1     -42.020  39.699  30.012  1.00  0.00     0.023 H 
ATOM     20  H   UNL     1     -40.391  40.292  30.367  1.00  0.00     0.023 H 
ATOM     21  H   UNL     1     -41.778  40.926  31.269  1.00  0.00     0.023 H 
ENDBRANCH  15  18
ENDBRANCH   1  15
BRANCH   3  22
ATOM     22  N   UNL     1     -44.630  43.051  25.600  1.00  0.00    -0.383 N 
ATOM     23  H   UNL     1     -44.318  42.771  24.670  1.00  0.00     0.160 HD
BRANCH  22  24
ATOM     24  C   UNL     1     -44.114  44.408  25.851  1.00  0.00     0.027 C 
ATOM     25  H   UNL     1     -43.116  44.404  26.305  1.00  0.00     0.050 H 
ATOM     26  H   UNL     1     -44.778  44.888  26.577  1.00  0.00     0.050 H 
BRANCH  24  27
ATOM     27  C   UNL     1     -44.089  45.237  24.544  1.00  0.00     0.015 C 
ATOM     28  H   UNL     1     -45.045  45.059  24.034  1.00  0.00     0.045 H 
ATOM     29  H   UNL     1     -43.301  44.852  23.884  1.00  0.00     0.045 H 
BRANCH  27  30
ATOM     30  N   UNL     1     -43.934  46.696  24.758  1.00  0.00    -0.308 NA
BRANCH  30  31
ATOM     31  C   UNL     1     -44.876  47.467  23.944  1.00  0.00    -0.014 C 
ATOM     32  H   UNL     1     -45.681  47.903  24.545  1.00  0.00     0.039 H 
ATOM     33  H   UNL     1     -44.356  48.282  23.426  1.00  0.00     0.039 H 
ATOM     34  H   UNL     1     -45.322  46.848  23.160  1.00  0.00     0.039 H 
ENDBRANCH  30  31
BRANCH  30  35
ATOM     35  C   UNL     1     -44.128  47.013  26.176  1.00  0.00    -0.014 C 
ATOM     36  H   UNL     1     -44.667  47.957  26.318  1.00  0.00     0.039 H 
ATOM     37  H   UNL     1     -44.688  46.215  26.676  1.00  0.00     0.039 H 
ATOM     38  H   UNL     1     -43.163  47.085  26.690  1.00  0.00     0.039 H 
ENDBRANCH  30  35
ENDBRANCH  27  30
ENDBRANCH  24  27
ENDBRANCH  22  24
ENDBRANCH   3  22
BRANCH   7  39
ATOM     39  C   UNL     1     -47.201  37.265  27.742  1.00  0.00    -0.024 C 
ATOM     40  H   UNL     1     -47.207  37.137  28.832  1.00  0.00     0.032 H 
ATOM     41  H   UNL     1     -48.250  37.414  27.453  1.00  0.00     0.032 H 
BRANCH  39  42
ATOM     42  C   UNL     1     -46.671  36.000  27.049  1.00  0.00    -0.022 C 
ATOM     43  H   UNL     1     -45.899  35.511  27.657  1.00  0.00     0.032 H 
ATOM     44  H   UNL     1     -46.169  36.296  26.119  1.00  0.00     0.032 H 
BRANCH  42  45
ATOM     45  C   UNL     1     -47.750  35.004  26.707  1.00  0.00    -0.027 A 
ATOM     46  C   UNL     1     -49.078  35.253  27.026  1.00  0.00     0.030 A 
ATOM     47  C   UNL     1     -47.449  33.788  26.076  1.00  0.00    -0.032 A 
ATOM     48  N   UNL     1     -50.090  34.401  26.757  1.00  0.00    -0.262 NA
ATOM     49  H   UNL     1     -49.379  36.172  27.521  1.00  0.00     0.084 H 
ATOM     50  C   UNL     1     -48.465  32.872  25.789  1.00  0.00     0.066 A 
ATOM     51  H   UNL     1     -46.414  33.594  25.809  1.00  0.00     0.065 H 
ATOM     52  C   UNL     1     -49.760  33.236  26.147  1.00  0.00     0.051 A 
ATOM     53  H   UNL     1     -50.619  32.592  25.990  1.00  0.00     0.086 H 
BRANCH  50  54
ATOM     54  N   UNL     1     -48.204  31.614  25.162  1.00  0.00    -0.299 N 
ATOM     55  C   UNL     1     -48.805  30.411  25.511  1.00  0.00     0.018 A 
ATOM     56  C   UNL     1     -47.316  31.344  24.124  1.00  0.00     0.150 A 
ATOM     57  C   UNL     1     -48.352  29.392  24.693  1.00  0.00     0.012 A 
ATOM     58  H   UNL     1     -49.545  30.368  26.297  1.00  0.00     0.083 H 
ATOM     59  C   UNL     1     -47.389  29.987  23.819  1.00  0.00     0.067 A 
ATOM     60  N   UNL     1     -46.488  32.224  23.527  1.00  0.00    -0.218 NA
ATOM     61  C   UNL     1     -46.547  29.522  22.793  1.00  0.00     0.136 A 
ATOM     62  C   UNL     1     -45.728  31.665  22.576  1.00  0.00     0.120 A 
ATOM     63  N   UNL     1     -45.722  30.384  22.174  1.00  0.00    -0.219 NA
ATOM     64  H   UNL     1     -45.035  32.326  22.065  1.00  0.00     0.106 H 
BRANCH  57  65
ATOM     65  C   UNL     1     -48.739  27.942  24.725  1.00  0.00     0.085 C 
ATOM     66  C   UNL     1     -47.924  27.065  25.669  1.00  0.00    -0.020 C 
ATOM     67  O   UNL     1     -50.119  27.767  25.128  1.00  0.00    -0.373 OA
ATOM     68  H   UNL     1     -48.663  27.542  23.706  1.00  0.00     0.066 H 
ATOM     69  C   UNL     1     -48.878  25.931  25.948  1.00  0.00    -0.027 C 
ATOM     70  H   UNL     1     -47.701  27.582  26.611  1.00  0.00     0.030 H 
ATOM     71  H   UNL     1     -46.976  26.736  25.232  1.00  0.00     0.030 H 
ATOM     72  C   UNL     1     -50.196  26.664  26.042  1.00  0.00     0.048 C 
ATOM     73  H   UNL     1     -48.638  25.365  26.851  1.00  0.00     0.029 H 
ATOM     74  H   UNL     1     -48.891  25.239  25.097  1.00  0.00     0.029 H 
ATOM     75  H   UNL     1     -51.050  26.031  25.784  1.00  0.00     0.057 H 
ATOM     76  H   UNL     1     -50.353  27.072  27.046  1.00  0.00     0.057 H 
ENDBRANCH  57  65
BRANCH  61  77
ATOM     77  N   UNL     1     -46.520  28.201  22.359  1.00  0.00    -0.383 N 
ATOM     78  H   UNL     1     -47.451  27.807  22.404  1.00  0.00     0.158 HD
ATOM     79  H   UNL     1     -45.790  27.659  22.824  1.00  0.00     0.158 HD
ENDBRANCH  61  77
ENDBRANCH  50  54
ENDBRANCH  42  45
ENDBRANCH  39  42
ENDBRANCH   7  39
TORSDOF 14
ENDMDL
