MODEL 1
REMARK VINA RESULT:     -10.3      0.000      0.000
REMARK SMILES CCc1cc(N2CCOCC2)c2ccc(OCc3cncc(-n4cc([C@H]5CCCO5)c5c(N)ncnc54)c3)cc2n1
REMARK SMILES IDX 17 1 16 4 15 5 3 6 4 7 41 8 5 9 40 11 12 12 39 13 13 14
REMARK SMILES IDX 14 16 2 19 1 22 6 26 7 27 11 28 8 29 10 32 9 35 18 40 19 41
REMARK SMILES IDX 38 42 20 43 22 45 21 47 23 49 24 50 37 51 25 52 31 54 36 55
REMARK SMILES IDX 32 56 35 57 34 58 26 60 27 61 30 62 28 64 29 67 33 72
REMARK H PARENT 17 2 17 3 4 10 39 15 13 17 14 18 2 20 2 21 1 23 1 24 1 25 7 30
REMARK H PARENT 7 31 11 33 11 34 8 36 8 37 10 38 10 39 19 44 38 46 21 48 24 53
REMARK H PARENT 35 59 26 63 27 65 27 66 28 68 28 69 29 70 29 71 33 73 33 74
REMARK Flexibility Score: inf
ROOT
ATOM      1  C   UNL     1     -47.072  33.825  26.008  1.00  0.00     0.115 C 
ATOM      2  H   UNL     1     -47.437  33.873  24.975  1.00  0.00     0.076 H 
ATOM      3  H   UNL     1     -45.987  33.671  25.943  1.00  0.00     0.076 H 
ENDROOT
BRANCH   1   4
ATOM      4  O   UNL     1     -47.697  32.672  26.581  1.00  0.00    -0.489 OA
BRANCH   4   5
ATOM      5  C   UNL     1     -48.393  31.820  25.767  1.00  0.00     0.122 A 
ATOM      6  C   UNL     1     -49.303  27.207  25.089  1.00  0.00     0.043 A 
ATOM      7  C   UNL     1     -49.872  27.424  23.841  1.00  0.00    -0.016 A 
ATOM      8  N   UNL     1     -48.796  28.206  25.841  1.00  0.00    -0.253 NA
ATOM      9  C   UNL     1     -49.943  28.719  23.322  1.00  0.00     0.048 A 
ATOM     10  H   UNL     1     -50.222  26.569  23.279  1.00  0.00     0.066 H 
ATOM     11  C   UNL     1     -48.896  29.464  25.387  1.00  0.00     0.076 A 
ATOM     12  C   UNL     1     -49.483  29.785  24.147  1.00  0.00     0.024 A 
ATOM     13  C   UNL     1     -48.362  30.482  26.166  1.00  0.00     0.007 A 
ATOM     14  C   UNL     1     -49.587  31.152  23.794  1.00  0.00    -0.047 A 
ATOM     15  H   UNL     1     -47.868  30.217  27.097  1.00  0.00     0.069 H 
ATOM     16  C   UNL     1     -49.048  32.161  24.592  1.00  0.00    -0.019 A 
ATOM     17  H   UNL     1     -50.087  31.432  22.868  1.00  0.00     0.063 H 
ATOM     18  H   UNL     1     -49.130  33.185  24.247  1.00  0.00     0.066 H 
BRANCH   6  19
ATOM     19  C   UNL     1     -49.166  25.810  25.635  1.00  0.00    -0.013 C 
ATOM     20  H   UNL     1     -50.115  25.510  26.097  1.00  0.00     0.033 H 
ATOM     21  H   UNL     1     -48.982  25.105  24.816  1.00  0.00     0.033 H 
BRANCH  19  22
ATOM     22  C   UNL     1     -48.051  25.721  26.665  1.00  0.00    -0.060 C 
ATOM     23  H   UNL     1     -47.364  24.908  26.411  1.00  0.00     0.023 H 
ATOM     24  H   UNL     1     -48.452  25.529  27.666  1.00  0.00     0.023 H 
ATOM     25  H   UNL     1     -47.475  26.653  26.709  1.00  0.00     0.023 H 
ENDBRANCH  19  22
ENDBRANCH   6  19
BRANCH   9  26
ATOM     26  N   UNL     1     -50.412  28.975  22.022  1.00  0.00    -0.366 N 
ATOM     27  C   UNL     1     -49.528  28.468  20.938  1.00  0.00     0.041 C 
ATOM     28  C   UNL     1     -51.846  28.842  21.695  1.00  0.00     0.041 C 
ATOM     29  C   UNL     1     -49.971  27.077  20.464  1.00  0.00     0.064 C 
ATOM     30  H   UNL     1     -49.610  29.171  20.099  1.00  0.00     0.052 H 
ATOM     31  H   UNL     1     -48.473  28.435  21.230  1.00  0.00     0.052 H 
ATOM     32  C   UNL     1     -52.200  27.463  21.113  1.00  0.00     0.064 C 
ATOM     33  H   UNL     1     -52.481  29.079  22.557  1.00  0.00     0.052 H 
ATOM     34  H   UNL     1     -52.065  29.599  20.932  1.00  0.00     0.052 H 
ATOM     35  O   UNL     1     -51.339  27.095  20.026  1.00  0.00    -0.378 OA
ATOM     36  H   UNL     1     -49.357  26.762  19.614  1.00  0.00     0.059 H 
ATOM     37  H   UNL     1     -49.854  26.326  21.256  1.00  0.00     0.059 H 
ATOM     38  H   UNL     1     -52.159  26.673  21.869  1.00  0.00     0.059 H 
ATOM     39  H   UNL     1     -53.225  27.484  20.727  1.00  0.00     0.059 H 
ENDBRANCH   9  26
ENDBRANCH   4   5
ENDBRANCH   1   4
BRANCH   1  40
ATOM     40  C   UNL     1     -47.393  35.154  26.656  1.00  0.00     0.010 A 
ATOM     41  C   UNL     1     -48.705  35.429  27.023  1.00  0.00     0.034 A 
ATOM     42  C   UNL     1     -46.442  36.153  26.905  1.00  0.00    -0.028 A 
ATOM     43  N   UNL     1     -49.111  36.592  27.577  1.00  0.00    -0.262 NA
ATOM     44  H   UNL     1     -49.498  34.699  26.875  1.00  0.00     0.084 H 
ATOM     45  C   UNL     1     -46.824  37.393  27.427  1.00  0.00     0.066 A 
ATOM     46  H   UNL     1     -45.401  35.943  26.684  1.00  0.00     0.065 H 
ATOM     47  C   UNL     1     -48.166  37.547  27.756  1.00  0.00     0.051 A 
ATOM     48  H   UNL     1     -48.576  38.468  28.157  1.00  0.00     0.086 H 
BRANCH  45  49
ATOM     49  N   UNL     1     -45.898  38.472  27.582  1.00  0.00    -0.299 N 
ATOM     50  C   UNL     1     -45.710  39.500  26.669  1.00  0.00     0.018 A 
ATOM     51  C   UNL     1     -44.994  38.678  28.623  1.00  0.00     0.150 A 
ATOM     52  C   UNL     1     -44.718  40.359  27.106  1.00  0.00     0.012 A 
ATOM     53  H   UNL     1     -46.314  39.565  25.775  1.00  0.00     0.083 H 
ATOM     54  C   UNL     1     -44.248  39.820  28.346  1.00  0.00     0.067 A 
ATOM     55  N   UNL     1     -44.821  37.892  29.705  1.00  0.00    -0.218 NA
ATOM     56  C   UNL     1     -43.252  40.167  29.278  1.00  0.00     0.136 A 
ATOM     57  C   UNL     1     -43.860  38.329  30.526  1.00  0.00     0.120 A 
ATOM     58  N   UNL     1     -43.073  39.404  30.370  1.00  0.00    -0.219 NA
ATOM     59  H   UNL     1     -43.695  37.744  31.426  1.00  0.00     0.106 H 
BRANCH  52  60
ATOM     60  C   UNL     1     -44.192  41.585  26.418  1.00  0.00     0.085 C 
ATOM     61  C   UNL     1     -44.915  41.978  25.134  1.00  0.00    -0.020 C 
ATOM     62  O   UNL     1     -44.262  42.752  27.274  1.00  0.00    -0.373 OA
ATOM     63  H   UNL     1     -43.128  41.428  26.199  1.00  0.00     0.066 H 
ATOM     64  C   UNL     1     -44.627  43.455  25.050  1.00  0.00    -0.027 C 
ATOM     65  H   UNL     1     -44.566  41.418  24.262  1.00  0.00     0.030 H 
ATOM     66  H   UNL     1     -45.999  41.831  25.220  1.00  0.00     0.030 H 
ATOM     67  C   UNL     1     -44.728  43.865  26.500  1.00  0.00     0.048 C 
ATOM     68  H   UNL     1     -43.606  43.615  24.682  1.00  0.00     0.029 H 
ATOM     69  H   UNL     1     -45.316  44.002  24.401  1.00  0.00     0.029 H 
ATOM     70  H   UNL     1     -44.129  44.751  26.730  1.00  0.00     0.057 H 
ATOM     71  H   UNL     1     -45.766  44.061  26.787  1.00  0.00     0.057 H 
ENDBRANCH  52  60
BRANCH  56  72
ATOM     72  N   UNL     1     -42.428  41.278  29.145  1.00  0.00    -0.383 N 
ATOM     73  H   UNL     1     -41.785  41.142  28.374  1.00  0.00     0.158 HD
ATOM     74  H   UNL     1     -41.994  41.542  30.031  1.00  0.00     0.158 HD
ENDBRANCH  56  72
ENDBRANCH  45  49
ENDBRANCH   1  40
TORSDOF 9
ENDMDL
MODEL 2
REMARK VINA RESULT:     -10.1      2.048     12.931
REMARK SMILES CCc1cc(N2CCOCC2)c2ccc(OCc3cncc(-n4cc([C@H]5CCCO5)c5c(N)ncnc54)c3)cc2n1
REMARK SMILES IDX 17 1 16 4 15 5 3 6 4 7 41 8 5 9 40 11 12 12 39 13 13 14
REMARK SMILES IDX 14 16 2 19 1 22 6 26 7 27 11 28 8 29 10 32 9 35 18 40 19 41
REMARK SMILES IDX 38 42 20 43 22 45 21 47 23 49 24 50 37 51 25 52 31 54 36 55
REMARK SMILES IDX 32 56 35 57 34 58 26 60 27 61 30 62 28 64 29 67 33 72
REMARK H PARENT 17 2 17 3 4 10 39 15 13 17 14 18 2 20 2 21 1 23 1 24 1 25 7 30
REMARK H PARENT 7 31 11 33 11 34 8 36 8 37 10 38 10 39 19 44 38 46 21 48 24 53
REMARK H PARENT 35 59 26 63 27 65 27 66 28 68 28 69 29 70 29 71 33 73 33 74
REMARK Flexibility Score: inf
ROOT
ATOM      1  C   UNL     1     -48.529  35.580  27.265  1.00  0.00     0.115 C 
ATOM      2  H   UNL     1     -48.881  36.345  26.562  1.00  0.00     0.076 H 
ATOM      3  H   UNL     1     -49.407  35.276  27.851  1.00  0.00     0.076 H 
ENDROOT
BRANCH   1   4
ATOM      4  O   UNL     1     -47.583  36.244  28.110  1.00  0.00    -0.489 OA
BRANCH   4   5
ATOM      5  C   UNL     1     -46.890  37.316  27.617  1.00  0.00     0.122 A 
ATOM      6  C   UNL     1     -43.406  40.347  28.730  1.00  0.00     0.043 A 
ATOM      7  C   UNL     1     -43.700  41.194  27.669  1.00  0.00    -0.016 A 
ATOM      8  N   UNL     1     -44.111  39.225  28.982  1.00  0.00    -0.253 NA
ATOM      9  C   UNL     1     -44.758  40.893  26.808  1.00  0.00     0.048 A 
ATOM     10  H   UNL     1     -43.115  42.097  27.554  1.00  0.00     0.066 H 
ATOM     11  C   UNL     1     -45.100  38.887  28.142  1.00  0.00     0.076 A 
ATOM     12  C   UNL     1     -45.453  39.668  27.022  1.00  0.00     0.024 A 
ATOM     13  C   UNL     1     -45.825  37.735  28.417  1.00  0.00     0.007 A 
ATOM     14  C   UNL     1     -46.475  39.186  26.170  1.00  0.00    -0.047 A 
ATOM     15  H   UNL     1     -45.577  37.168  29.310  1.00  0.00     0.069 H 
ATOM     16  C   UNL     1     -47.188  38.023  26.462  1.00  0.00    -0.019 A 
ATOM     17  H   UNL     1     -46.728  39.739  25.267  1.00  0.00     0.063 H 
ATOM     18  H   UNL     1     -47.983  37.729  25.786  1.00  0.00     0.066 H 
BRANCH   6  19
ATOM     19  C   UNL     1     -42.308  40.690  29.701  1.00  0.00    -0.013 C 
ATOM     20  H   UNL     1     -42.743  40.847  30.696  1.00  0.00     0.033 H 
ATOM     21  H   UNL     1     -41.613  39.848  29.794  1.00  0.00     0.033 H 
BRANCH  19  22
ATOM     22  C   UNL     1     -41.558  41.943  29.274  1.00  0.00    -0.060 C 
ATOM     23  H   UNL     1     -42.152  42.835  29.497  1.00  0.00     0.023 H 
ATOM     24  H   UNL     1     -41.349  41.933  28.199  1.00  0.00     0.023 H 
ATOM     25  H   UNL     1     -40.601  42.032  29.801  1.00  0.00     0.023 H 
ENDBRANCH  19  22
ENDBRANCH   6  19
BRANCH   9  26
ATOM     26  N   UNL     1     -45.159  41.771  25.787  1.00  0.00    -0.366 N 
ATOM     27  C   UNL     1     -46.011  42.900  26.247  1.00  0.00     0.041 C 
ATOM     28  C   UNL     1     -44.222  42.165  24.716  1.00  0.00     0.041 C 
ATOM     29  C   UNL     1     -45.170  44.151  26.534  1.00  0.00     0.064 C 
ATOM     30  H   UNL     1     -46.715  43.125  25.436  1.00  0.00     0.052 H 
ATOM     31  H   UNL     1     -46.607  42.650  27.132  1.00  0.00     0.052 H 
ATOM     32  C   UNL     1     -43.499  43.491  25.014  1.00  0.00     0.064 C 
ATOM     33  H   UNL     1     -43.502  41.368  24.494  1.00  0.00     0.052 H 
ATOM     34  H   UNL     1     -44.822  42.303  23.808  1.00  0.00     0.052 H 
ATOM     35  O   UNL     1     -44.411  44.536  25.377  1.00  0.00    -0.378 OA
ATOM     36  H   UNL     1     -45.826  44.988  26.791  1.00  0.00     0.059 H 
ATOM     37  H   UNL     1     -44.487  43.991  27.378  1.00  0.00     0.059 H 
ATOM     38  H   UNL     1     -42.758  43.386  25.812  1.00  0.00     0.059 H 
ATOM     39  H   UNL     1     -42.961  43.820  24.118  1.00  0.00     0.059 H 
ENDBRANCH   9  26
ENDBRANCH   4   5
ENDBRANCH   1   4
BRANCH   1  40
ATOM     40  C   UNL     1     -48.001  34.426  26.442  1.00  0.00     0.010 A 
ATOM     41  C   UNL     1     -46.722  34.507  25.905  1.00  0.00     0.034 A 
ATOM     42  C   UNL     1     -48.733  33.263  26.166  1.00  0.00    -0.028 A 
ATOM     43  N   UNL     1     -46.163  33.555  25.129  1.00  0.00    -0.262 NA
ATOM     44  H   UNL     1     -46.088  35.372  26.085  1.00  0.00     0.084 H 
ATOM     45  C   UNL     1     -48.216  32.274  25.324  1.00  0.00     0.066 A 
ATOM     46  H   UNL     1     -49.711  33.146  26.621  1.00  0.00     0.065 H 
ATOM     47  C   UNL     1     -46.923  32.468  24.849  1.00  0.00     0.051 A 
ATOM     48  H   UNL     1     -46.426  31.773  24.182  1.00  0.00     0.086 H 
BRANCH  45  49
ATOM     49  N   UNL     1     -48.983  31.132  24.929  1.00  0.00    -0.299 N 
ATOM     50  C   UNL     1     -48.685  29.817  25.257  1.00  0.00     0.018 A 
ATOM     51  C   UNL     1     -50.120  31.107  24.122  1.00  0.00     0.150 A 
ATOM     52  C   UNL     1     -49.607  28.957  24.689  1.00  0.00     0.012 A 
ATOM     53  H   UNL     1     -47.846  29.582  25.896  1.00  0.00     0.083 H 
ATOM     54  C   UNL     1     -50.511  29.782  23.947  1.00  0.00     0.067 A 
ATOM     55  N   UNL     1     -50.728  32.168  23.557  1.00  0.00    -0.218 NA
ATOM     56  C   UNL     1     -51.630  29.557  23.124  1.00  0.00     0.136 A 
ATOM     57  C   UNL     1     -51.787  31.833  22.811  1.00  0.00     0.120 A 
ATOM     58  N   UNL     1     -52.260  30.603  22.562  1.00  0.00    -0.219 NA
ATOM     59  H   UNL     1     -52.329  32.654  22.350  1.00  0.00     0.106 H 
BRANCH  52  60
ATOM     60  C   UNL     1     -49.646  27.459  24.778  1.00  0.00     0.085 C 
ATOM     61  C   UNL     1     -48.578  26.826  25.665  1.00  0.00    -0.020 C 
ATOM     62  O   UNL     1     -50.912  26.987  25.300  1.00  0.00    -0.373 OA
ATOM     63  H   UNL     1     -49.561  27.051  23.762  1.00  0.00     0.066 H 
ATOM     64  C   UNL     1     -49.220  25.517  26.045  1.00  0.00    -0.027 C 
ATOM     65  H   UNL     1     -47.619  26.706  25.153  1.00  0.00     0.030 H 
ATOM     66  H   UNL     1     -48.407  27.417  26.574  1.00  0.00     0.030 H 
ATOM     67  C   UNL     1     -50.659  25.933  26.239  1.00  0.00     0.048 C 
ATOM     68  H   UNL     1     -49.141  24.807  25.213  1.00  0.00     0.029 H 
ATOM     69  H   UNL     1     -48.785  25.055  26.935  1.00  0.00     0.029 H 
ATOM     70  H   UNL     1     -51.362  25.111  26.069  1.00  0.00     0.057 H 
ATOM     71  H   UNL     1     -50.827  26.333  27.245  1.00  0.00     0.057 H 
ENDBRANCH  52  60
BRANCH  56  72
ATOM     72  N   UNL     1     -52.145  28.294  22.855  1.00  0.00    -0.383 N 
ATOM     73  H   UNL     1     -51.478  27.756  22.315  1.00  0.00     0.158 HD
ATOM     74  H   UNL     1     -53.087  28.340  22.462  1.00  0.00     0.158 HD
ENDBRANCH  56  72
ENDBRANCH  45  49
ENDBRANCH   1  40
TORSDOF 9
ENDMDL
MODEL 3
REMARK VINA RESULT:     -10.1      2.062      3.153
REMARK SMILES CCc1cc(N2CCOCC2)c2ccc(OCc3cncc(-n4cc([C@H]5CCCO5)c5c(N)ncnc54)c3)cc2n1
REMARK SMILES IDX 17 1 16 4 15 5 3 6 4 7 41 8 5 9 40 11 12 12 39 13 13 14
REMARK SMILES IDX 14 16 2 19 1 22 6 26 7 27 11 28 8 29 10 32 9 35 18 40 19 41
REMARK SMILES IDX 38 42 20 43 22 45 21 47 23 49 24 50 37 51 25 52 31 54 36 55
REMARK SMILES IDX 32 56 35 57 34 58 26 60 27 61 30 62 28 64 29 67 33 72
REMARK H PARENT 17 2 17 3 4 10 39 15 13 17 14 18 2 20 2 21 1 23 1 24 1 25 7 30
REMARK H PARENT 7 31 11 33 11 34 8 36 8 37 10 38 10 39 19 44 38 46 21 48 24 53
REMARK H PARENT 35 59 26 63 27 65 27 66 28 68 28 69 29 70 29 71 33 73 33 74
REMARK Flexibility Score: inf
ROOT
ATOM      1  C   UNL     1     -47.930  35.688  27.122  1.00  0.00     0.115 C 
ATOM      2  H   UNL     1     -48.221  34.884  27.810  1.00  0.00     0.076 H 
ATOM      3  H   UNL     1     -48.860  36.198  26.838  1.00  0.00     0.076 H 
ENDROOT
BRANCH   1   4
ATOM      4  O   UNL     1     -47.365  35.030  25.983  1.00  0.00    -0.489 OA
BRANCH   4   5
ATOM      5  C   UNL     1     -47.625  33.701  25.786  1.00  0.00     0.122 A 
ATOM      6  C   UNL     1     -46.325  29.994  23.116  1.00  0.00     0.043 A 
ATOM      7  C   UNL     1     -47.399  29.219  23.533  1.00  0.00    -0.016 A 
ATOM      8  N   UNL     1     -46.132  31.259  23.541  1.00  0.00    -0.253 NA
ATOM      9  C   UNL     1     -48.328  29.742  24.435  1.00  0.00     0.048 A 
ATOM     10  H   UNL     1     -47.510  28.226  23.118  1.00  0.00     0.066 H 
ATOM     11  C   UNL     1     -46.982  31.768  24.445  1.00  0.00     0.076 A 
ATOM     12  C   UNL     1     -48.084  31.048  24.950  1.00  0.00     0.024 A 
ATOM     13  C   UNL     1     -46.779  33.075  24.868  1.00  0.00     0.007 A 
ATOM     14  C   UNL     1     -48.882  31.662  25.944  1.00  0.00    -0.047 A 
ATOM     15  H   UNL     1     -45.955  33.638  24.436  1.00  0.00     0.069 H 
ATOM     16  C   UNL     1     -48.658  32.975  26.359  1.00  0.00    -0.019 A 
ATOM     17  H   UNL     1     -49.704  31.107  26.393  1.00  0.00     0.063 H 
ATOM     18  H   UNL     1     -49.328  33.398  27.099  1.00  0.00     0.066 H 
BRANCH   6  19
ATOM     19  C   UNL     1     -45.350  29.465  22.098  1.00  0.00    -0.013 C 
ATOM     20  H   UNL     1     -45.898  29.160  21.198  1.00  0.00     0.033 H 
ATOM     21  H   UNL     1     -44.662  30.260  21.789  1.00  0.00     0.033 H 
BRANCH  19  22
ATOM     22  C   UNL     1     -44.569  28.277  22.639  1.00  0.00    -0.060 C 
ATOM     23  H   UNL     1     -44.209  27.652  21.815  1.00  0.00     0.023 H 
ATOM     24  H   UNL     1     -45.194  27.656  23.290  1.00  0.00     0.023 H 
ATOM     25  H   UNL     1     -43.701  28.604  23.222  1.00  0.00     0.023 H 
ENDBRANCH  19  22
ENDBRANCH   6  19
BRANCH   9  26
ATOM     26  N   UNL     1     -49.486  29.036  24.805  1.00  0.00    -0.366 N 
ATOM     27  C   UNL     1     -50.481  28.871  23.712  1.00  0.00     0.041 C 
ATOM     28  C   UNL     1     -49.401  27.850  25.681  1.00  0.00     0.041 C 
ATOM     29  C   UNL     1     -50.296  27.529  22.989  1.00  0.00     0.064 C 
ATOM     30  H   UNL     1     -51.475  28.891  24.174  1.00  0.00     0.052 H 
ATOM     31  H   UNL     1     -50.448  29.686  22.980  1.00  0.00     0.052 H 
ATOM     32  C   UNL     1     -49.340  26.529  24.893  1.00  0.00     0.064 C 
ATOM     33  H   UNL     1     -48.565  27.925  26.385  1.00  0.00     0.052 H 
ATOM     34  H   UNL     1     -50.317  27.841  26.286  1.00  0.00     0.052 H 
ATOM     35  O   UNL     1     -50.383  26.433  23.913  1.00  0.00    -0.378 OA
ATOM     36  H   UNL     1     -51.088  27.397  22.246  1.00  0.00     0.059 H 
ATOM     37  H   UNL     1     -49.334  27.484  22.463  1.00  0.00     0.059 H 
ATOM     38  H   UNL     1     -48.378  26.395  24.389  1.00  0.00     0.059 H 
ATOM     39  H   UNL     1     -49.459  25.688  25.584  1.00  0.00     0.059 H 
ENDBRANCH   9  26
ENDBRANCH   4   5
ENDBRANCH   1   4
BRANCH   1  40
ATOM     40  C   UNL     1     -47.013  36.617  27.885  1.00  0.00     0.010 A 
ATOM     41  C   UNL     1     -46.782  36.384  29.235  1.00  0.00     0.034 A 
ATOM     42  C   UNL     1     -46.376  37.729  27.315  1.00  0.00    -0.028 A 
ATOM     43  N   UNL     1     -46.011  37.166  30.020  1.00  0.00    -0.262 NA
ATOM     44  H   UNL     1     -47.230  35.534  29.746  1.00  0.00     0.084 H 
ATOM     45  C   UNL     1     -45.611  38.597  28.100  1.00  0.00     0.066 A 
ATOM     46  H   UNL     1     -46.490  37.901  26.250  1.00  0.00     0.065 H 
ATOM     47  C   UNL     1     -45.452  38.256  29.439  1.00  0.00     0.051 A 
ATOM     48  H   UNL     1     -44.890  38.860  30.142  1.00  0.00     0.086 H 
BRANCH  45  49
ATOM     49  N   UNL     1     -45.046  39.802  27.574  1.00  0.00    -0.299 N 
ATOM     50  C   UNL     1     -45.489  40.460  26.436  1.00  0.00     0.018 A 
ATOM     51  C   UNL     1     -43.946  40.509  28.057  1.00  0.00     0.150 A 
ATOM     52  C   UNL     1     -44.705  41.573  26.186  1.00  0.00     0.012 A 
ATOM     53  H   UNL     1     -46.351  40.105  25.889  1.00  0.00     0.083 H 
ATOM     54  C   UNL     1     -43.707  41.590  27.212  1.00  0.00     0.067 A 
ATOM     55  N   UNL     1     -43.195  40.194  29.130  1.00  0.00    -0.218 NA
ATOM     56  C   UNL     1     -42.602  42.405  27.524  1.00  0.00     0.136 A 
ATOM     57  C   UNL     1     -42.185  41.046  29.337  1.00  0.00     0.120 A 
ATOM     58  N   UNL     1     -41.849  42.115  28.599  1.00  0.00    -0.219 NA
ATOM     59  H   UNL     1     -41.561  40.851  30.204  1.00  0.00     0.106 H 
BRANCH  52  60
ATOM     60  C   UNL     1     -44.827  42.550  25.053  1.00  0.00     0.085 C 
ATOM     61  C   UNL     1     -45.205  43.973  25.451  1.00  0.00    -0.020 C 
ATOM     62  O   UNL     1     -43.586  42.671  24.315  1.00  0.00    -0.373 OA
ATOM     63  H   UNL     1     -45.570  42.164  24.344  1.00  0.00     0.066 H 
ATOM     64  C   UNL     1     -44.652  44.778  24.304  1.00  0.00    -0.027 C 
ATOM     65  H   UNL     1     -46.282  44.102  25.592  1.00  0.00     0.030 H 
ATOM     66  H   UNL     1     -44.702  44.280  26.377  1.00  0.00     0.030 H 
ATOM     67  C   UNL     1     -43.355  44.056  24.026  1.00  0.00     0.048 C 
ATOM     68  H   UNL     1     -45.320  44.700  23.437  1.00  0.00     0.029 H 
ATOM     69  H   UNL     1     -44.512  45.837  24.536  1.00  0.00     0.029 H 
ATOM     70  H   UNL     1     -43.024  44.167  22.990  1.00  0.00     0.057 H 
ATOM     71  H   UNL     1     -42.554  44.407  24.687  1.00  0.00     0.057 H 
ENDBRANCH  52  60
BRANCH  56  72
ATOM     72  N   UNL     1     -42.236  43.521  26.781  1.00  0.00    -0.383 N 
ATOM     73  H   UNL     1     -43.007  44.176  26.737  1.00  0.00     0.158 HD
ATOM     74  H   UNL     1     -41.830  43.265  25.879  1.00  0.00     0.158 HD
ENDBRANCH  56  72
ENDBRANCH  45  49
ENDBRANCH   1  40
TORSDOF 9
ENDMDL
MODEL 4
REMARK VINA RESULT:      -9.9      2.429     12.789
REMARK SMILES CCc1cc(N2CCOCC2)c2ccc(OCc3cncc(-n4cc([C@H]5CCCO5)c5c(N)ncnc54)c3)cc2n1
REMARK SMILES IDX 17 1 16 4 15 5 3 6 4 7 41 8 5 9 40 11 12 12 39 13 13 14
REMARK SMILES IDX 14 16 2 19 1 22 6 26 7 27 11 28 8 29 10 32 9 35 18 40 19 41
REMARK SMILES IDX 38 42 20 43 22 45 21 47 23 49 24 50 37 51 25 52 31 54 36 55
REMARK SMILES IDX 32 56 35 57 34 58 26 60 27 61 30 62 28 64 29 67 33 72
REMARK H PARENT 17 2 17 3 4 10 39 15 13 17 14 18 2 20 2 21 1 23 1 24 1 25 7 30
REMARK H PARENT 7 31 11 33 11 34 8 36 8 37 10 38 10 39 19 44 38 46 21 48 24 53
REMARK H PARENT 35 59 26 63 27 65 27 66 28 68 28 69 29 70 29 71 33 73 33 74
REMARK Flexibility Score: inf
ROOT
ATOM      1  C   UNL     1     -46.249  35.419  27.535  1.00  0.00     0.115 C 
ATOM      2  H   UNL     1     -45.819  34.830  28.355  1.00  0.00     0.076 H 
ATOM      3  H   UNL     1     -45.438  35.574  26.812  1.00  0.00     0.076 H 
ENDROOT
BRANCH   1   4
ATOM      4  O   UNL     1     -46.628  36.669  28.121  1.00  0.00    -0.489 OA
BRANCH   4   5
ATOM      5  C   UNL     1     -46.153  37.830  27.575  1.00  0.00     0.122 A 
ATOM      6  C   UNL     1     -43.010  41.309  28.341  1.00  0.00     0.043 A 
ATOM      7  C   UNL     1     -43.543  42.115  27.342  1.00  0.00    -0.016 A 
ATOM      8  N   UNL     1     -43.519  40.099  28.648  1.00  0.00    -0.253 NA
ATOM      9  C   UNL     1     -44.645  41.675  26.605  1.00  0.00     0.048 A 
ATOM     10  H   UNL     1     -43.106  43.091  27.180  1.00  0.00     0.066 H 
ATOM     11  C   UNL     1     -44.546  39.632  27.922  1.00  0.00     0.076 A 
ATOM     12  C   UNL     1     -45.134  40.364  26.871  1.00  0.00     0.024 A 
ATOM     13  C   UNL     1     -45.068  38.389  28.254  1.00  0.00     0.007 A 
ATOM     14  C   UNL     1     -46.175  39.751  26.134  1.00  0.00    -0.047 A 
ATOM     15  H   UNL     1     -44.638  37.855  29.098  1.00  0.00     0.069 H 
ATOM     16  C   UNL     1     -46.683  38.498  26.480  1.00  0.00    -0.019 A 
ATOM     17  H   UNL     1     -46.609  40.269  25.281  1.00  0.00     0.063 H 
ATOM     18  H   UNL     1     -47.505  38.100  25.897  1.00  0.00     0.066 H 
BRANCH   6  19
ATOM     19  C   UNL     1     -41.861  41.795  29.183  1.00  0.00    -0.013 C 
ATOM     20  H   UNL     1     -40.970  41.899  28.552  1.00  0.00     0.033 H 
ATOM     21  H   UNL     1     -42.081  42.795  29.577  1.00  0.00     0.033 H 
BRANCH  19  22
ATOM     22  C   UNL     1     -41.561  40.836  30.325  1.00  0.00    -0.060 C 
ATOM     23  H   UNL     1     -41.569  39.802  29.964  1.00  0.00     0.023 H 
ATOM     24  H   UNL     1     -42.307  40.924  31.122  1.00  0.00     0.023 H 
ATOM     25  H   UNL     1     -40.577  41.035  30.764  1.00  0.00     0.023 H 
ENDBRANCH  19  22
ENDBRANCH   6  19
BRANCH   9  26
ATOM     26  N   UNL     1     -45.283  42.496  25.660  1.00  0.00    -0.366 N 
ATOM     27  C   UNL     1     -46.266  43.451  26.238  1.00  0.00     0.041 C 
ATOM     28  C   UNL     1     -44.530  43.071  24.526  1.00  0.00     0.041 C 
ATOM     29  C   UNL     1     -45.624  44.820  26.499  1.00  0.00     0.064 C 
ATOM     30  H   UNL     1     -47.071  43.571  25.502  1.00  0.00     0.052 H 
ATOM     31  H   UNL     1     -46.726  43.081  27.161  1.00  0.00     0.052 H 
ATOM     32  C   UNL     1     -44.017  44.493  24.812  1.00  0.00     0.064 C 
ATOM     33  H   UNL     1     -43.711  42.415  24.210  1.00  0.00     0.052 H 
ATOM     34  H   UNL     1     -45.228  43.126  23.682  1.00  0.00     0.052 H 
ATOM     35  O   UNL     1     -45.054  45.358  25.295  1.00  0.00    -0.378 OA
ATOM     36  H   UNL     1     -46.385  45.526  26.847  1.00  0.00     0.059 H 
ATOM     37  H   UNL     1     -44.848  44.759  27.272  1.00  0.00     0.059 H 
ATOM     38  H   UNL     1     -43.197  44.498  25.536  1.00  0.00     0.059 H 
ATOM     39  H   UNL     1     -43.629  44.931  23.886  1.00  0.00     0.059 H 
ENDBRANCH   9  26
ENDBRANCH   4   5
ENDBRANCH   1   4
BRANCH   1  40
ATOM     40  C   UNL     1     -47.364  34.596  26.931  1.00  0.00     0.010 A 
ATOM     41  C   UNL     1     -48.676  35.031  27.065  1.00  0.00     0.034 A 
ATOM     42  C   UNL     1     -47.162  33.391  26.241  1.00  0.00    -0.028 A 
ATOM     43  N   UNL     1     -49.751  34.361  26.596  1.00  0.00    -0.262 NA
ATOM     44  H   UNL     1     -48.914  35.962  27.575  1.00  0.00     0.084 H 
ATOM     45  C   UNL     1     -48.247  32.637  25.785  1.00  0.00     0.066 A 
ATOM     46  H   UNL     1     -46.144  33.058  26.069  1.00  0.00     0.065 H 
ATOM     47  C   UNL     1     -49.513  33.178  25.978  1.00  0.00     0.051 A 
ATOM     48  H   UNL     1     -50.425  32.676  25.674  1.00  0.00     0.086 H 
BRANCH  45  49
ATOM     49  N   UNL     1     -48.079  31.349  25.184  1.00  0.00    -0.299 N 
ATOM     50  C   UNL     1     -48.728  30.190  25.586  1.00  0.00     0.018 A 
ATOM     51  C   UNL     1     -47.225  31.001  24.138  1.00  0.00     0.150 A 
ATOM     52  C   UNL     1     -48.316  29.115  24.818  1.00  0.00     0.012 A 
ATOM     53  H   UNL     1     -49.460  30.211  26.380  1.00  0.00     0.083 H 
ATOM     54  C   UNL     1     -47.340  29.633  23.907  1.00  0.00     0.067 A 
ATOM     55  N   UNL     1     -46.386  31.823  23.478  1.00  0.00    -0.218 NA
ATOM     56  C   UNL     1     -46.519  29.089  22.902  1.00  0.00     0.136 A 
ATOM     57  C   UNL     1     -45.669  31.199  22.536  1.00  0.00     0.120 A 
ATOM     58  N   UNL     1     -45.685  29.895  22.222  1.00  0.00    -0.219 NA
ATOM     59  H   UNL     1     -44.992  31.820  21.957  1.00  0.00     0.106 H 
BRANCH  52  60
ATOM     60  C   UNL     1     -48.752  27.683  24.929  1.00  0.00     0.085 C 
ATOM     61  C   UNL     1     -48.049  26.865  26.007  1.00  0.00    -0.020 C 
ATOM     62  O   UNL     1     -50.166  27.575  25.222  1.00  0.00    -0.373 OA
ATOM     63  H   UNL     1     -48.601  27.201  23.954  1.00  0.00     0.066 H 
ATOM     64  C   UNL     1     -49.060  25.784  26.292  1.00  0.00    -0.027 C 
ATOM     65  H   UNL     1     -47.080  26.477  25.681  1.00  0.00     0.030 H 
ATOM     66  H   UNL     1     -47.889  27.453  26.920  1.00  0.00     0.030 H 
ATOM     67  C   UNL     1     -50.356  26.556  26.212  1.00  0.00     0.048 C 
ATOM     68  H   UNL     1     -49.025  25.024  25.502  1.00  0.00     0.029 H 
ATOM     69  H   UNL     1     -48.916  25.288  27.255  1.00  0.00     0.029 H 
ATOM     70  H   UNL     1     -51.205  25.926  25.934  1.00  0.00     0.057 H 
ATOM     71  H   UNL     1     -50.584  27.051  27.162  1.00  0.00     0.057 H 
ENDBRANCH  52  60
BRANCH  56  72
ATOM     72  N   UNL     1     -46.520  27.744  22.551  1.00  0.00    -0.383 N 
ATOM     73  H   UNL     1     -45.646  27.314  22.828  1.00  0.00     0.158 HD
ATOM     74  H   UNL     1     -46.784  27.603  21.574  1.00  0.00     0.158 HD
ENDBRANCH  56  72
ENDBRANCH  45  49
ENDBRANCH   1  40
TORSDOF 9
ENDMDL
MODEL 5
REMARK VINA RESULT:      -9.6      1.925     12.528
REMARK SMILES CCc1cc(N2CCOCC2)c2ccc(OCc3cncc(-n4cc([C@H]5CCCO5)c5c(N)ncnc54)c3)cc2n1
REMARK SMILES IDX 17 1 16 4 15 5 3 6 4 7 41 8 5 9 40 11 12 12 39 13 13 14
REMARK SMILES IDX 14 16 2 19 1 22 6 26 7 27 11 28 8 29 10 32 9 35 18 40 19 41
REMARK SMILES IDX 38 42 20 43 22 45 21 47 23 49 24 50 37 51 25 52 31 54 36 55
REMARK SMILES IDX 32 56 35 57 34 58 26 60 27 61 30 62 28 64 29 67 33 72
REMARK H PARENT 17 2 17 3 4 10 39 15 13 17 14 18 2 20 2 21 1 23 1 24 1 25 7 30
REMARK H PARENT 7 31 11 33 11 34 8 36 8 37 10 38 10 39 19 44 38 46 21 48 24 53
REMARK H PARENT 35 59 26 63 27 65 27 66 28 68 28 69 29 70 29 71 33 73 33 74
REMARK Flexibility Score: inf
ROOT
ATOM      1  C   UNL     1     -48.359  35.364  27.398  1.00  0.00     0.115 C 
ATOM      2  H   UNL     1     -48.782  36.130  26.737  1.00  0.00     0.076 H 
ATOM      3  H   UNL     1     -49.185  35.017  28.033  1.00  0.00     0.076 H 
ENDROOT
BRANCH   1   4
ATOM      4  O   UNL     1     -47.382  36.042  28.194  1.00  0.00    -0.489 OA
BRANCH   4   5
ATOM      5  C   UNL     1     -46.742  37.134  27.672  1.00  0.00     0.122 A 
ATOM      6  C   UNL     1     -43.440  40.385  28.719  1.00  0.00     0.043 A 
ATOM      7  C   UNL     1     -43.767  41.180  27.628  1.00  0.00    -0.016 A 
ATOM      8  N   UNL     1     -44.087  39.235  29.001  1.00  0.00    -0.253 NA
ATOM      9  C   UNL     1     -44.797  40.794  26.767  1.00  0.00     0.048 A 
ATOM     10  H   UNL     1     -43.231  42.109  27.489  1.00  0.00     0.066 H 
ATOM     11  C   UNL     1     -45.047  38.817  28.163  1.00  0.00     0.076 A 
ATOM     12  C   UNL     1     -45.428  39.540  27.014  1.00  0.00     0.024 A 
ATOM     13  C   UNL     1     -45.711  37.636  28.468  1.00  0.00     0.007 A 
ATOM     14  C   UNL     1     -46.413  38.977  26.169  1.00  0.00    -0.047 A 
ATOM     15  H   UNL     1     -45.442  37.112  29.382  1.00  0.00     0.069 H 
ATOM     16  C   UNL     1     -47.066  37.787  26.492  1.00  0.00    -0.019 A 
ATOM     17  H   UNL     1     -46.685  39.485  25.246  1.00  0.00     0.063 H 
ATOM     18  H   UNL     1     -47.836  37.427  25.819  1.00  0.00     0.066 H 
BRANCH   6  19
ATOM     19  C   UNL     1     -42.373  40.818  29.688  1.00  0.00    -0.013 C 
ATOM     20  H   UNL     1     -42.791  41.568  30.372  1.00  0.00     0.033 H 
ATOM     21  H   UNL     1     -42.063  39.969  30.309  1.00  0.00     0.033 H 
BRANCH  19  22
ATOM     22  C   UNL     1     -41.170  41.407  28.967  1.00  0.00    -0.060 C 
ATOM     23  H   UNL     1     -40.325  41.505  29.655  1.00  0.00     0.023 H 
ATOM     24  H   UNL     1     -41.398  42.399  28.563  1.00  0.00     0.023 H 
ATOM     25  H   UNL     1     -40.857  40.770  28.132  1.00  0.00     0.023 H 
ENDBRANCH  19  22
ENDBRANCH   6  19
BRANCH   9  26
ATOM     26  N   UNL     1     -45.235  41.615  25.714  1.00  0.00    -0.366 N 
ATOM     27  C   UNL     1     -46.324  42.559  26.081  1.00  0.00     0.041 C 
ATOM     28  C   UNL     1     -44.270  42.203  24.763  1.00  0.00     0.041 C 
ATOM     29  C   UNL     1     -45.763  43.931  26.476  1.00  0.00     0.064 C 
ATOM     30  H   UNL     1     -46.961  42.677  25.196  1.00  0.00     0.052 H 
ATOM     31  H   UNL     1     -46.961  42.179  26.889  1.00  0.00     0.052 H 
ATOM     32  C   UNL     1     -43.839  43.628  25.154  1.00  0.00     0.064 C 
ATOM     33  H   UNL     1     -43.397  41.556  24.619  1.00  0.00     0.052 H 
ATOM     34  H   UNL     1     -44.779  42.258  23.793  1.00  0.00     0.052 H 
ATOM     35  O   UNL     1     -44.961  44.481  25.418  1.00  0.00    -0.378 OA
ATOM     36  H   UNL     1     -46.585  44.629  26.662  1.00  0.00     0.059 H 
ATOM     37  H   UNL     1     -45.161  43.872  27.392  1.00  0.00     0.059 H 
ATOM     38  H   UNL     1     -43.186  43.634  26.032  1.00  0.00     0.059 H 
ATOM     39  H   UNL     1     -43.272  44.075  24.330  1.00  0.00     0.059 H 
ENDBRANCH   9  26
ENDBRANCH   4   5
ENDBRANCH   1   4
BRANCH   1  40
ATOM     40  C   UNL     1     -47.848  34.246  26.516  1.00  0.00     0.010 A 
ATOM     41  C   UNL     1     -46.496  34.198  26.200  1.00  0.00     0.034 A 
ATOM     42  C   UNL     1     -48.664  33.243  25.973  1.00  0.00    -0.028 A 
ATOM     43  N   UNL     1     -45.937  33.268  25.395  1.00  0.00    -0.262 NA
ATOM     44  H   UNL     1     -45.797  34.933  26.592  1.00  0.00     0.084 H 
ATOM     45  C   UNL     1     -48.139  32.291  25.094  1.00  0.00     0.066 A 
ATOM     46  H   UNL     1     -49.712  33.221  26.251  1.00  0.00     0.065 H 
ATOM     47  C   UNL     1     -46.770  32.345  24.855  1.00  0.00     0.051 A 
ATOM     48  H   UNL     1     -46.258  31.665  24.184  1.00  0.00     0.086 H 
BRANCH  45  49
ATOM     49  N   UNL     1     -48.965  31.329  24.432  1.00  0.00    -0.299 N 
ATOM     50  C   UNL     1     -49.763  31.587  23.326  1.00  0.00     0.018 A 
ATOM     51  C   UNL     1     -49.165  29.993  24.780  1.00  0.00     0.150 A 
ATOM     52  C   UNL     1     -50.458  30.449  22.956  1.00  0.00     0.012 A 
ATOM     53  H   UNL     1     -49.766  32.562  22.860  1.00  0.00     0.083 H 
ATOM     54  C   UNL     1     -50.089  29.438  23.899  1.00  0.00     0.067 A 
ATOM     55  N   UNL     1     -48.605  29.340  25.817  1.00  0.00    -0.218 NA
ATOM     56  C   UNL     1     -50.445  28.094  24.120  1.00  0.00     0.136 A 
ATOM     57  C   UNL     1     -49.005  28.068  25.918  1.00  0.00     0.120 A 
ATOM     58  N   UNL     1     -49.887  27.421  25.141  1.00  0.00    -0.219 NA
ATOM     59  H   UNL     1     -48.566  27.488  26.725  1.00  0.00     0.106 H 
BRANCH  52  60
ATOM     60  C   UNL     1     -51.439  30.294  21.830  1.00  0.00     0.085 C 
ATOM     61  C   UNL     1     -52.034  31.593  21.295  1.00  0.00    -0.020 C 
ATOM     62  O   UNL     1     -50.839  29.643  20.684  1.00  0.00    -0.373 OA
ATOM     63  H   UNL     1     -52.251  29.637  22.168  1.00  0.00     0.066 H 
ATOM     64  C   UNL     1     -52.420  31.208  19.891  1.00  0.00    -0.027 C 
ATOM     65  H   UNL     1     -52.877  31.951  21.894  1.00  0.00     0.030 H 
ATOM     66  H   UNL     1     -51.284  32.393  21.252  1.00  0.00     0.030 H 
ATOM     67  C   UNL     1     -51.264  30.320  19.494  1.00  0.00     0.048 C 
ATOM     68  H   UNL     1     -53.352  30.629  19.906  1.00  0.00     0.029 H 
ATOM     69  H   UNL     1     -52.555  32.060  19.221  1.00  0.00     0.029 H 
ATOM     70  H   UNL     1     -51.539  29.586  18.730  1.00  0.00     0.057 H 
ATOM     71  H   UNL     1     -50.418  30.909  19.123  1.00  0.00     0.057 H 
ENDBRANCH  52  60
BRANCH  56  72
ATOM     72  N   UNL     1     -51.350  27.398  23.327  1.00  0.00    -0.383 N 
ATOM     73  H   UNL     1     -52.118  28.004  23.064  1.00  0.00     0.158 HD
ATOM     74  H   UNL     1     -51.623  26.508  23.748  1.00  0.00     0.158 HD
ENDBRANCH  56  72
ENDBRANCH  45  49
ENDBRANCH   1  40
TORSDOF 9
ENDMDL
MODEL 6
REMARK VINA RESULT:      -9.5      2.574      3.657
REMARK SMILES CCc1cc(N2CCOCC2)c2ccc(OCc3cncc(-n4cc([C@H]5CCCO5)c5c(N)ncnc54)c3)cc2n1
REMARK SMILES IDX 17 1 16 4 15 5 3 6 4 7 41 8 5 9 40 11 12 12 39 13 13 14
REMARK SMILES IDX 14 16 2 19 1 22 6 26 7 27 11 28 8 29 10 32 9 35 18 40 19 41
REMARK SMILES IDX 38 42 20 43 22 45 21 47 23 49 24 50 37 51 25 52 31 54 36 55
REMARK SMILES IDX 32 56 35 57 34 58 26 60 27 61 30 62 28 64 29 67 33 72
REMARK H PARENT 17 2 17 3 4 10 39 15 13 17 14 18 2 20 2 21 1 23 1 24 1 25 7 30
REMARK H PARENT 7 31 11 33 11 34 8 36 8 37 10 38 10 39 19 44 38 46 21 48 24 53
REMARK H PARENT 35 59 26 63 27 65 27 66 28 68 28 69 29 70 29 71 33 73 33 74
REMARK Flexibility Score: inf
ROOT
ATOM      1  C   UNL     1     -47.792  35.367  27.039  1.00  0.00     0.115 C 
ATOM      2  H   UNL     1     -48.702  35.404  27.650  1.00  0.00     0.076 H 
ATOM      3  H   UNL     1     -48.101  35.605  26.013  1.00  0.00     0.076 H 
ENDROOT
BRANCH   1   4
ATOM      4  O   UNL     1     -47.337  34.012  27.112  1.00  0.00    -0.489 OA
BRANCH   4   5
ATOM      5  C   UNL     1     -47.803  33.105  26.199  1.00  0.00     0.122 A 
ATOM      6  C   UNL     1     -46.384  30.395  22.564  1.00  0.00     0.043 A 
ATOM      7  C   UNL     1     -47.685  30.098  22.178  1.00  0.00    -0.016 A 
ATOM      8  N   UNL     1     -46.102  31.201  23.608  1.00  0.00    -0.253 NA
ATOM      9  C   UNL     1     -48.763  30.636  22.885  1.00  0.00     0.048 A 
ATOM     10  H   UNL     1     -47.834  29.476  21.305  1.00  0.00     0.066 H 
ATOM     11  C   UNL     1     -47.118  31.690  24.334  1.00  0.00     0.076 A 
ATOM     12  C   UNL     1     -48.469  31.420  24.037  1.00  0.00     0.024 A 
ATOM     13  C   UNL     1     -46.814  32.525  25.401  1.00  0.00     0.007 A 
ATOM     14  C   UNL     1     -49.458  31.942  24.905  1.00  0.00    -0.047 A 
ATOM     15  H   UNL     1     -45.771  32.766  25.590  1.00  0.00     0.069 H 
ATOM     16  C   UNL     1     -49.132  32.776  25.975  1.00  0.00    -0.019 A 
ATOM     17  H   UNL     1     -50.506  31.702  24.733  1.00  0.00     0.063 H 
ATOM     18  H   UNL     1     -49.940  33.170  26.580  1.00  0.00     0.066 H 
BRANCH   6  19
ATOM     19  C   UNL     1     -45.214  29.871  21.774  1.00  0.00    -0.013 C 
ATOM     20  H   UNL     1     -45.561  29.555  20.783  1.00  0.00     0.033 H 
ATOM     21  H   UNL     1     -44.485  30.673  21.608  1.00  0.00     0.033 H 
BRANCH  19  22
ATOM     22  C   UNL     1     -44.550  28.696  22.475  1.00  0.00    -0.060 C 
ATOM     23  H   UNL     1     -44.175  27.978  21.739  1.00  0.00     0.023 H 
ATOM     24  H   UNL     1     -45.256  28.175  23.130  1.00  0.00     0.023 H 
ATOM     25  H   UNL     1     -43.705  29.026  23.090  1.00  0.00     0.023 H 
ENDBRANCH  19  22
ENDBRANCH   6  19
BRANCH   9  26
ATOM     26  N   UNL     1     -50.093  30.451  22.470  1.00  0.00    -0.366 N 
ATOM     27  C   UNL     1     -50.543  31.393  21.411  1.00  0.00     0.041 C 
ATOM     28  C   UNL     1     -50.650  29.094  22.297  1.00  0.00     0.041 C 
ATOM     29  C   UNL     1     -50.372  30.783  20.013  1.00  0.00     0.064 C 
ATOM     30  H   UNL     1     -51.608  31.589  21.584  1.00  0.00     0.052 H 
ATOM     31  H   UNL     1     -50.025  32.359  21.453  1.00  0.00     0.052 H 
ATOM     32  C   UNL     1     -50.555  28.589  20.846  1.00  0.00     0.064 C 
ATOM     33  H   UNL     1     -50.194  28.378  22.991  1.00  0.00     0.052 H 
ATOM     34  H   UNL     1     -51.712  29.154  22.566  1.00  0.00     0.052 H 
ATOM     35  O   UNL     1     -51.080  29.537  19.907  1.00  0.00    -0.378 OA
ATOM     36  H   UNL     1     -50.785  31.461  19.260  1.00  0.00     0.059 H 
ATOM     37  H   UNL     1     -49.314  30.620  19.772  1.00  0.00     0.059 H 
ATOM     38  H   UNL     1     -49.526  28.352  20.559  1.00  0.00     0.059 H 
ATOM     39  H   UNL     1     -51.137  27.667  20.744  1.00  0.00     0.059 H 
ENDBRANCH   9  26
ENDBRANCH   4   5
ENDBRANCH   1   4
BRANCH   1  40
ATOM     40  C   UNL     1     -46.850  36.420  27.578  1.00  0.00     0.010 A 
ATOM     41  C   UNL     1     -46.138  36.160  28.743  1.00  0.00     0.034 A 
ATOM     42  C   UNL     1     -46.651  37.673  26.979  1.00  0.00    -0.028 A 
ATOM     43  N   UNL     1     -45.298  37.037  29.332  1.00  0.00    -0.262 NA
ATOM     44  H   UNL     1     -46.229  35.206  29.259  1.00  0.00     0.084 H 
ATOM     45  C   UNL     1     -45.831  38.632  27.581  1.00  0.00     0.066 A 
ATOM     46  H   UNL     1     -47.147  37.880  26.038  1.00  0.00     0.065 H 
ATOM     47  C   UNL     1     -45.172  38.253  28.745  1.00  0.00     0.051 A 
ATOM     48  H   UNL     1     -44.520  38.918  29.301  1.00  0.00     0.086 H 
BRANCH  45  49
ATOM     49  N   UNL     1     -45.701  39.958  27.059  1.00  0.00    -0.299 N 
ATOM     50  C   UNL     1     -44.499  40.593  26.784  1.00  0.00     0.018 A 
ATOM     51  C   UNL     1     -46.720  40.866  26.775  1.00  0.00     0.150 A 
ATOM     52  C   UNL     1     -44.726  41.878  26.323  1.00  0.00     0.012 A 
ATOM     53  H   UNL     1     -43.557  40.079  26.912  1.00  0.00     0.083 H 
ATOM     54  C   UNL     1     -46.146  42.057  26.338  1.00  0.00     0.067 A 
ATOM     55  N   UNL     1     -48.044  40.665  26.932  1.00  0.00    -0.218 NA
ATOM     56  C   UNL     1     -47.028  43.111  26.036  1.00  0.00     0.136 A 
ATOM     57  C   UNL     1     -48.782  41.730  26.600  1.00  0.00     0.120 A 
ATOM     58  N   UNL     1     -48.352  42.926  26.173  1.00  0.00    -0.219 NA
ATOM     59  H   UNL     1     -49.859  41.614  26.687  1.00  0.00     0.106 H 
BRANCH  52  60
ATOM     60  C   UNL     1     -43.708  42.908  25.927  1.00  0.00     0.085 C 
ATOM     61  C   UNL     1     -42.251  42.490  26.098  1.00  0.00    -0.020 C 
ATOM     62  O   UNL     1     -43.842  43.286  24.536  1.00  0.00    -0.373 OA
ATOM     63  H   UNL     1     -43.893  43.818  26.513  1.00  0.00     0.066 H 
ATOM     64  C   UNL     1     -41.550  43.376  25.100  1.00  0.00    -0.027 C 
ATOM     65  H   UNL     1     -41.889  42.620  27.122  1.00  0.00     0.030 H 
ATOM     66  H   UNL     1     -42.096  41.441  25.814  1.00  0.00     0.030 H 
ATOM     67  C   UNL     1     -42.534  43.375  23.954  1.00  0.00     0.048 C 
ATOM     68  H   UNL     1     -41.448  44.388  25.508  1.00  0.00     0.029 H 
ATOM     69  H   UNL     1     -40.559  43.017  24.813  1.00  0.00     0.029 H 
ATOM     70  H   UNL     1     -42.465  44.276  23.338  1.00  0.00     0.057 H 
ATOM     71  H   UNL     1     -42.394  42.500  23.309  1.00  0.00     0.057 H 
ENDBRANCH  52  60
BRANCH  56  72
ATOM     72  N   UNL     1     -46.610  44.358  25.585  1.00  0.00    -0.383 N 
ATOM     73  H   UNL     1     -46.747  44.428  24.584  1.00  0.00     0.158 HD
ATOM     74  H   UNL     1     -45.670  44.590  25.914  1.00  0.00     0.158 HD
ENDBRANCH  56  72
ENDBRANCH  45  49
ENDBRANCH   1  40
TORSDOF 9
ENDMDL
MODEL 7
REMARK VINA RESULT:      -9.5      2.362     12.967
REMARK SMILES CCc1cc(N2CCOCC2)c2ccc(OCc3cncc(-n4cc([C@H]5CCCO5)c5c(N)ncnc54)c3)cc2n1
REMARK SMILES IDX 17 1 16 4 15 5 3 6 4 7 41 8 5 9 40 11 12 12 39 13 13 14
REMARK SMILES IDX 14 16 2 19 1 22 6 26 7 27 11 28 8 29 10 32 9 35 18 40 19 41
REMARK SMILES IDX 38 42 20 43 22 45 21 47 23 49 24 50 37 51 25 52 31 54 36 55
REMARK SMILES IDX 32 56 35 57 34 58 26 60 27 61 30 62 28 64 29 67 33 72
REMARK H PARENT 17 2 17 3 4 10 39 15 13 17 14 18 2 20 2 21 1 23 1 24 1 25 7 30
REMARK H PARENT 7 31 11 33 11 34 8 36 8 37 10 38 10 39 19 44 38 46 21 48 24 53
REMARK H PARENT 35 59 26 63 27 65 27 66 28 68 28 69 29 70 29 71 33 73 33 74
REMARK Flexibility Score: inf
ROOT
ATOM      1  C   UNL     1     -48.559  35.522  27.287  1.00  0.00     0.115 C 
ATOM      2  H   UNL     1     -48.818  36.344  26.609  1.00  0.00     0.076 H 
ATOM      3  H   UNL     1     -49.492  35.233  27.789  1.00  0.00     0.076 H 
ENDROOT
BRANCH   1   4
ATOM      4  O   UNL     1     -47.646  36.082  28.237  1.00  0.00    -0.489 OA
BRANCH   4   5
ATOM      5  C   UNL     1     -47.051  37.282  27.957  1.00  0.00     0.122 A 
ATOM      6  C   UNL     1     -48.060  41.760  26.732  1.00  0.00     0.043 A 
ATOM      7  C   UNL     1     -46.737  42.056  26.429  1.00  0.00    -0.016 A 
ATOM      8  N   UNL     1     -48.454  40.540  27.153  1.00  0.00    -0.253 NA
ATOM      9  C   UNL     1     -45.754  41.073  26.564  1.00  0.00     0.048 A 
ATOM     10  H   UNL     1     -46.503  43.045  26.059  1.00  0.00     0.066 H 
ATOM     11  C   UNL     1     -47.523  39.593  27.338  1.00  0.00     0.076 A 
ATOM     12  C   UNL     1     -46.153  39.809  27.086  1.00  0.00     0.024 A 
ATOM     13  C   UNL     1     -47.942  38.340  27.763  1.00  0.00     0.007 A 
ATOM     14  C   UNL     1     -45.250  38.758  27.371  1.00  0.00    -0.047 A 
ATOM     15  H   UNL     1     -49.006  38.171  27.907  1.00  0.00     0.069 H 
ATOM     16  C   UNL     1     -45.691  37.506  27.801  1.00  0.00    -0.019 A 
ATOM     17  H   UNL     1     -44.181  38.916  27.240  1.00  0.00     0.063 H 
ATOM     18  H   UNL     1     -44.950  36.732  27.968  1.00  0.00     0.066 H 
BRANCH   6  19
ATOM     19  C   UNL     1     -49.139  42.791  26.534  1.00  0.00    -0.013 C 
ATOM     20  H   UNL     1     -49.980  42.334  25.997  1.00  0.00     0.033 H 
ATOM     21  H   UNL     1     -49.530  43.116  27.506  1.00  0.00     0.033 H 
BRANCH  19  22
ATOM     22  C   UNL     1     -48.629  43.988  25.748  1.00  0.00    -0.060 C 
ATOM     23  H   UNL     1     -47.891  44.542  26.336  1.00  0.00     0.023 H 
ATOM     24  H   UNL     1     -49.445  44.672  25.494  1.00  0.00     0.023 H 
ATOM     25  H   UNL     1     -48.152  43.675  24.812  1.00  0.00     0.023 H 
ENDBRANCH  19  22
ENDBRANCH   6  19
BRANCH   9  26
ATOM     26  N   UNL     1     -44.423  41.294  26.170  1.00  0.00    -0.366 N 
ATOM     27  C   UNL     1     -44.273  42.148  24.961  1.00  0.00     0.041 C 
ATOM     28  C   UNL     1     -43.367  41.537  27.173  1.00  0.00     0.041 C 
ATOM     29  C   UNL     1     -44.052  43.618  25.343  1.00  0.00     0.064 C 
ATOM     30  H   UNL     1     -43.391  41.787  24.418  1.00  0.00     0.052 H 
ATOM     31  H   UNL     1     -45.127  42.073  24.279  1.00  0.00     0.052 H 
ATOM     32  C   UNL     1     -43.113  43.035  27.421  1.00  0.00     0.064 C 
ATOM     33  H   UNL     1     -43.574  41.014  28.114  1.00  0.00     0.052 H 
ATOM     34  H   UNL     1     -42.445  41.099  26.771  1.00  0.00     0.052 H 
ATOM     35  O   UNL     1     -42.908  43.759  26.200  1.00  0.00    -0.378 OA
ATOM     36  H   UNL     1     -43.864  44.211  24.442  1.00  0.00     0.059 H 
ATOM     37  H   UNL     1     -44.933  44.041  25.843  1.00  0.00     0.059 H 
ATOM     38  H   UNL     1     -43.934  43.506  27.969  1.00  0.00     0.059 H 
ATOM     39  H   UNL     1     -42.210  43.154  28.030  1.00  0.00     0.059 H 
ENDBRANCH   9  26
ENDBRANCH   4   5
ENDBRANCH   1   4
BRANCH   1  40
ATOM     40  C   UNL     1     -48.030  34.390  26.434  1.00  0.00     0.010 A 
ATOM     41  C   UNL     1     -46.771  34.507  25.860  1.00  0.00     0.034 A 
ATOM     42  C   UNL     1     -48.743  33.212  26.167  1.00  0.00    -0.028 A 
ATOM     43  N   UNL     1     -46.213  33.577  25.055  1.00  0.00    -0.262 NA
ATOM     44  H   UNL     1     -46.151  35.385  26.030  1.00  0.00     0.084 H 
ATOM     45  C   UNL     1     -48.230  32.245  25.298  1.00  0.00     0.066 A 
ATOM     46  H   UNL     1     -49.703  33.068  26.651  1.00  0.00     0.065 H 
ATOM     47  C   UNL     1     -46.957  32.476  24.786  1.00  0.00     0.051 A 
ATOM     48  H   UNL     1     -46.465  31.800  24.095  1.00  0.00     0.086 H 
BRANCH  45  49
ATOM     49  N   UNL     1     -48.982  31.091  24.913  1.00  0.00    -0.299 N 
ATOM     50  C   UNL     1     -48.644  29.780  25.218  1.00  0.00     0.018 A 
ATOM     51  C   UNL     1     -50.141  31.048  24.140  1.00  0.00     0.150 A 
ATOM     52  C   UNL     1     -49.563  28.904  24.667  1.00  0.00     0.012 A 
ATOM     53  H   UNL     1     -47.781  29.557  25.829  1.00  0.00     0.083 H 
ATOM     54  C   UNL     1     -50.508  29.716  23.962  1.00  0.00     0.067 A 
ATOM     55  N   UNL     1     -50.791  32.100  23.605  1.00  0.00    -0.218 NA
ATOM     56  C   UNL     1     -51.645  29.474  23.170  1.00  0.00     0.136 A 
ATOM     57  C   UNL     1     -51.863  31.749  22.887  1.00  0.00     0.120 A 
ATOM     58  N   UNL     1     -52.315  30.511  22.639  1.00  0.00    -0.219 NA
ATOM     59  H   UNL     1     -52.437  32.562  22.452  1.00  0.00     0.106 H 
BRANCH  52  60
ATOM     60  C   UNL     1     -49.566  27.405  24.741  1.00  0.00     0.085 C 
ATOM     61  C   UNL     1     -48.447  26.787  25.575  1.00  0.00    -0.020 C 
ATOM     62  O   UNL     1     -50.798  26.899  25.310  1.00  0.00    -0.373 OA
ATOM     63  H   UNL     1     -49.514  27.010  23.718  1.00  0.00     0.066 H 
ATOM     64  C   UNL     1     -49.044  25.460  25.967  1.00  0.00    -0.027 C 
ATOM     65  H   UNL     1     -47.508  26.694  25.022  1.00  0.00     0.030 H 
ATOM     66  H   UNL     1     -48.251  27.372  26.483  1.00  0.00     0.030 H 
ATOM     67  C   UNL     1     -50.482  25.841  26.226  1.00  0.00     0.048 C 
ATOM     68  H   UNL     1     -48.984  24.761  25.124  1.00  0.00     0.029 H 
ATOM     69  H   UNL     1     -48.561  24.999  26.832  1.00  0.00     0.029 H 
ATOM     70  H   UNL     1     -51.173  25.006  26.076  1.00  0.00     0.057 H 
ATOM     71  H   UNL     1     -50.616  26.227  27.242  1.00  0.00     0.057 H 
ENDBRANCH  52  60
BRANCH  56  72
ATOM     72  N   UNL     1     -52.139  28.202  22.902  1.00  0.00    -0.383 N 
ATOM     73  H   UNL     1     -51.947  27.585  23.682  1.00  0.00     0.158 HD
ATOM     74  H   UNL     1     -51.837  27.858  21.989  1.00  0.00     0.158 HD
ENDBRANCH  56  72
ENDBRANCH  45  49
ENDBRANCH   1  40
TORSDOF 9
ENDMDL
