MODEL 1
REMARK VINA RESULT:      -9.8      0.000      0.000
REMARK SMILES Cn1ccc(-c2cn([C@@H]3O[C@H](COc4ccc5ccc(C6CCC6)nc5c4)[C@@H](O)[C@@H]3F)c3ncnc(N)c23)n1
REMARK SMILES IDX 9 1 10 2 11 3 28 4 30 5 31 6 8 11 6 12 7 13 38 14 32 16
REMARK SMILES IDX 36 17 33 18 35 19 34 20 5 22 2 23 3 24 39 25 4 26 1 29 37 33
REMARK SMILES IDX 12 36 13 39 14 40 15 41 27 42 16 43 26 45 17 47 25 49 18 50
REMARK SMILES IDX 20 51 19 52 21 55 22 56 24 57 23 59 29 66
REMARK H PARENT 9 7 11 8 28 9 30 10 7 15 34 21 3 27 4 28 1 30 1 31 1 32 37 34
REMARK H PARENT 37 35 12 37 12 38 15 44 27 46 16 48 18 53 19 54 21 58 22 60
REMARK H PARENT 22 61 24 62 24 63 23 64 23 65 29 67
REMARK Flexibility Score: inf
ROOT
ATOM      1  C   UNL     1     -45.758  38.473  29.038  1.00  0.00     0.169 C 
ATOM      2  O   UNL     1     -45.532  37.238  28.326  1.00  0.00    -0.345 OA
ATOM      3  C   UNL     1     -46.819  36.651  28.042  1.00  0.00     0.123 C 
ATOM      4  C   UNL     1     -47.853  37.772  28.118  1.00  0.00     0.119 C 
ATOM      5  C   UNL     1     -47.261  38.675  29.178  1.00  0.00     0.173 C 
ATOM      6  F   UNL     1     -47.659  39.956  28.994  1.00  0.00    -0.239 F 
ATOM      7  H   UNL     1     -45.316  38.345  30.033  1.00  0.00     0.088 H 
ATOM      8  H   UNL     1     -47.025  35.914  28.828  1.00  0.00     0.067 H 
ATOM      9  H   UNL     1     -47.973  38.296  27.166  1.00  0.00     0.066 H 
ATOM     10  H   UNL     1     -47.597  38.370  30.175  1.00  0.00     0.074 H 
ENDROOT
BRANCH   1  11
ATOM     11  N   UNL     1     -45.025  39.547  28.387  1.00  0.00    -0.302 N 
ATOM     12  C   UNL     1     -44.517  41.142  26.913  1.00  0.00     0.033 A 
ATOM     13  C   UNL     1     -45.466  40.203  27.263  1.00  0.00     0.019 A 
ATOM     14  C   UNL     1     -43.481  41.101  27.891  1.00  0.00     0.071 A 
ATOM     15  H   UNL     1     -46.405  39.950  26.787  1.00  0.00     0.083 H 
ATOM     16  C   UNL     1     -43.816  40.075  28.774  1.00  0.00     0.148 A 
ATOM     17  C   UNL     1     -42.294  41.800  28.176  1.00  0.00     0.137 A 
ATOM     18  N   UNL     1     -43.093  39.670  29.832  1.00  0.00    -0.218 NA
ATOM     19  N   UNL     1     -41.544  41.420  29.229  1.00  0.00    -0.219 NA
ATOM     20  C   UNL     1     -41.972  40.390  29.979  1.00  0.00     0.120 A 
ATOM     21  H   UNL     1     -41.332  40.113  30.812  1.00  0.00     0.106 H 
BRANCH  12  22
ATOM     22  C   UNL     1     -44.593  42.014  25.743  1.00  0.00     0.095 A 
ATOM     23  N   UNL     1     -45.253  43.520  24.419  1.00  0.00    -0.275 N 
ATOM     24  C   UNL     1     -44.245  42.894  23.747  1.00  0.00     0.025 A 
ATOM     25  N   UNL     1     -45.494  42.997  25.635  1.00  0.00    -0.173 NA
ATOM     26  C   UNL     1     -43.801  41.894  24.582  1.00  0.00    -0.016 A 
ATOM     27  H   UNL     1     -43.941  43.193  22.753  1.00  0.00     0.084 H 
ATOM     28  H   UNL     1     -43.020  41.176  24.376  1.00  0.00     0.066 H 
BRANCH  23  29
ATOM     29  C   UNL     1     -46.048  44.630  23.955  1.00  0.00     0.030 C 
ATOM     30  H   UNL     1     -47.070  44.279  23.793  1.00  0.00     0.048 H 
ATOM     31  H   UNL     1     -45.615  44.997  23.021  1.00  0.00     0.048 H 
ATOM     32  H   UNL     1     -46.041  45.423  24.707  1.00  0.00     0.048 H 
ENDBRANCH  23  29
ENDBRANCH  12  22
BRANCH  17  33
ATOM     33  N   UNL     1     -41.838  42.909  27.472  1.00  0.00    -0.383 N 
ATOM     34  H   UNL     1     -42.571  43.609  27.437  1.00  0.00     0.158 HD
ATOM     35  H   UNL     1     -41.425  42.674  26.577  1.00  0.00     0.158 HD
ENDBRANCH  17  33
ENDBRANCH   1  11
BRANCH   3  36
ATOM     36  C   UNL     1     -46.771  35.951  26.681  1.00  0.00     0.117 C 
ATOM     37  H   UNL     1     -46.782  36.710  25.891  1.00  0.00     0.073 H 
ATOM     38  H   UNL     1     -45.823  35.424  26.524  1.00  0.00     0.073 H 
BRANCH  36  39
ATOM     39  O   UNL     1     -47.900  35.110  26.449  1.00  0.00    -0.491 OA
BRANCH  39  40
ATOM     40  C   UNL     1     -47.714  33.919  25.806  1.00  0.00     0.121 A 
ATOM     41  C   UNL     1     -46.435  33.742  25.284  1.00  0.00    -0.019 A 
ATOM     42  C   UNL     1     -48.663  32.908  25.639  1.00  0.00     0.006 A 
ATOM     43  C   UNL     1     -46.108  32.573  24.600  1.00  0.00    -0.049 A 
ATOM     44  H   UNL     1     -45.688  34.524  25.406  1.00  0.00     0.066 H 
ATOM     45  C   UNL     1     -48.365  31.731  24.960  1.00  0.00     0.074 A 
ATOM     46  H   UNL     1     -49.670  33.000  26.032  1.00  0.00     0.069 H 
ATOM     47  C   UNL     1     -47.070  31.566  24.436  1.00  0.00     0.000 A 
ATOM     48  H   UNL     1     -45.105  32.456  24.199  1.00  0.00     0.063 H 
ATOM     49  N   UNL     1     -49.319  30.791  24.825  1.00  0.00    -0.252 NA
ATOM     50  C   UNL     1     -46.787  30.379  23.757  1.00  0.00    -0.051 A 
ATOM     51  C   UNL     1     -49.039  29.638  24.164  1.00  0.00     0.044 A 
ATOM     52  C   UNL     1     -47.776  29.412  23.622  1.00  0.00    -0.040 A 
ATOM     53  H   UNL     1     -45.803  30.200  23.334  1.00  0.00     0.063 H 
ATOM     54  H   UNL     1     -47.564  28.486  23.096  1.00  0.00     0.064 H 
BRANCH  51  55
ATOM     55  C   UNL     1     -50.251  28.641  24.090  1.00  0.00     0.001 C 
ATOM     56  C   UNL     1     -50.431  27.767  22.816  1.00  0.00    -0.045 C 
ATOM     57  C   UNL     1     -51.670  29.201  23.787  1.00  0.00    -0.045 C 
ATOM     58  H   UNL     1     -50.282  28.005  24.991  1.00  0.00     0.037 H 
ATOM     59  C   UNL     1     -51.952  27.886  23.033  1.00  0.00    -0.052 C 
ATOM     60  H   UNL     1     -50.026  26.754  22.877  1.00  0.00     0.027 H 
ATOM     61  H   UNL     1     -50.085  28.230  21.884  1.00  0.00     0.027 H 
ATOM     62  H   UNL     1     -52.301  29.387  24.659  1.00  0.00     0.027 H 
ATOM     63  H   UNL     1     -51.689  30.087  23.141  1.00  0.00     0.027 H 
ATOM     64  H   UNL     1     -52.371  27.096  23.667  1.00  0.00     0.027 H 
ATOM     65  H   UNL     1     -52.557  27.976  22.127  1.00  0.00     0.027 H 
ENDBRANCH  51  55
ENDBRANCH  39  40
ENDBRANCH  36  39
ENDBRANCH   3  36
BRANCH   4  66
ATOM     66  O   UNL     1     -49.138  37.297  28.517  1.00  0.00    -0.387 OA
ATOM     67  H   UNL     1     -49.798  37.855  28.066  1.00  0.00     0.211 HD
ENDBRANCH   4  66
TORSDOF 9
ENDMDL
MODEL 2
REMARK VINA RESULT:      -9.8      3.046      4.856
REMARK SMILES Cn1ccc(-c2cn([C@@H]3O[C@H](COc4ccc5ccc(C6CCC6)nc5c4)[C@@H](O)[C@@H]3F)c3ncnc(N)c23)n1
REMARK SMILES IDX 9 1 10 2 11 3 28 4 30 5 31 6 8 11 6 12 7 13 38 14 32 16
REMARK SMILES IDX 36 17 33 18 35 19 34 20 5 22 2 23 3 24 39 25 4 26 1 29 37 33
REMARK SMILES IDX 12 36 13 39 14 40 15 41 27 42 16 43 26 45 17 47 25 49 18 50
REMARK SMILES IDX 20 51 19 52 21 55 22 56 24 57 23 59 29 66
REMARK H PARENT 9 7 11 8 28 9 30 10 7 15 34 21 3 27 4 28 1 30 1 31 1 32 37 34
REMARK H PARENT 37 35 12 37 12 38 15 44 27 46 16 48 18 53 19 54 21 58 22 60
REMARK H PARENT 22 61 24 62 24 63 23 64 23 65 29 67
REMARK Flexibility Score: inf
ROOT
ATOM      1  C   UNL     1     -46.247  37.421  27.314  1.00  0.00     0.169 C 
ATOM      2  O   UNL     1     -46.778  36.525  26.316  1.00  0.00    -0.345 OA
ATOM      3  C   UNL     1     -46.841  35.206  26.896  1.00  0.00     0.123 C 
ATOM      4  C   UNL     1     -46.840  35.380  28.414  1.00  0.00     0.119 C 
ATOM      5  C   UNL     1     -45.995  36.624  28.586  1.00  0.00     0.173 C 
ATOM      6  F   UNL     1     -46.335  37.281  29.719  1.00  0.00    -0.239 F 
ATOM      7  H   UNL     1     -45.293  37.793  26.924  1.00  0.00     0.088 H 
ATOM      8  H   UNL     1     -45.934  34.669  26.592  1.00  0.00     0.067 H 
ATOM      9  H   UNL     1     -47.844  35.519  28.820  1.00  0.00     0.066 H 
ATOM     10  H   UNL     1     -44.934  36.360  28.669  1.00  0.00     0.074 H 
ENDROOT
BRANCH   1  11
ATOM     11  N   UNL     1     -47.125  38.574  27.444  1.00  0.00    -0.302 N 
ATOM     12  C   UNL     1     -48.916  39.793  27.973  1.00  0.00     0.033 A 
ATOM     13  C   UNL     1     -48.359  38.532  28.045  1.00  0.00     0.019 A 
ATOM     14  C   UNL     1     -47.965  40.655  27.354  1.00  0.00     0.071 A 
ATOM     15  H   UNL     1     -48.758  37.617  28.465  1.00  0.00     0.083 H 
ATOM     16  C   UNL     1     -46.876  39.855  27.010  1.00  0.00     0.148 A 
ATOM     17  C   UNL     1     -47.852  42.022  27.040  1.00  0.00     0.137 A 
ATOM     18  N   UNL     1     -45.764  40.259  26.373  1.00  0.00    -0.218 NA
ATOM     19  N   UNL     1     -46.751  42.461  26.400  1.00  0.00    -0.219 NA
ATOM     20  C   UNL     1     -45.790  41.571  26.100  1.00  0.00     0.120 A 
ATOM     21  H   UNL     1     -44.925  41.967  25.577  1.00  0.00     0.106 H 
BRANCH  12  22
ATOM     22  C   UNL     1     -50.246  40.150  28.460  1.00  0.00     0.095 A 
ATOM     23  N   UNL     1     -51.779  41.098  29.560  1.00  0.00    -0.275 N 
ATOM     24  C   UNL     1     -52.425  40.144  28.829  1.00  0.00     0.025 A 
ATOM     25  N   UNL     1     -50.448  41.116  29.362  1.00  0.00    -0.173 NA
ATOM     26  C   UNL     1     -51.447  39.497  28.108  1.00  0.00    -0.016 A 
ATOM     27  H   UNL     1     -53.494  39.998  28.887  1.00  0.00     0.084 H 
ATOM     28  H   UNL     1     -51.583  38.666  27.431  1.00  0.00     0.066 H 
BRANCH  23  29
ATOM     29  C   UNL     1     -52.371  42.031  30.486  1.00  0.00     0.030 C 
ATOM     30  H   UNL     1     -53.282  42.433  30.035  1.00  0.00     0.048 H 
ATOM     31  H   UNL     1     -51.652  42.831  30.676  1.00  0.00     0.048 H 
ATOM     32  H   UNL     1     -52.613  41.516  31.419  1.00  0.00     0.048 H 
ENDBRANCH  23  29
ENDBRANCH  12  22
BRANCH  17  33
ATOM     33  N   UNL     1     -48.786  42.994  27.382  1.00  0.00    -0.383 N 
ATOM     34  H   UNL     1     -49.697  42.724  27.027  1.00  0.00     0.158 HD
ATOM     35  H   UNL     1     -48.493  43.934  27.145  1.00  0.00     0.158 HD
ENDBRANCH  17  33
ENDBRANCH   1  11
BRANCH   3  36
ATOM     36  C   UNL     1     -48.075  34.473  26.364  1.00  0.00     0.117 C 
ATOM     37  H   UNL     1     -48.970  35.055  26.616  1.00  0.00     0.073 H 
ATOM     38  H   UNL     1     -48.089  34.434  25.269  1.00  0.00     0.073 H 
BRANCH  36  39
ATOM     39  O   UNL     1     -48.253  33.185  26.952  1.00  0.00    -0.491 OA
BRANCH  39  40
ATOM     40  C   UNL     1     -48.603  32.137  26.150  1.00  0.00     0.121 A 
ATOM     41  C   UNL     1     -49.362  32.492  25.037  1.00  0.00    -0.019 A 
ATOM     42  C   UNL     1     -48.273  30.794  26.346  1.00  0.00     0.006 A 
ATOM     43  C   UNL     1     -49.789  31.521  24.135  1.00  0.00    -0.049 A 
ATOM     44  H   UNL     1     -49.626  33.535  24.875  1.00  0.00     0.066 H 
ATOM     45  C   UNL     1     -48.687  29.803  25.463  1.00  0.00     0.074 A 
ATOM     46  H   UNL     1     -47.680  30.470  27.196  1.00  0.00     0.069 H 
ATOM     47  C   UNL     1     -49.454  30.176  24.344  1.00  0.00     0.000 A 
ATOM     48  H   UNL     1     -50.382  31.820  23.275  1.00  0.00     0.063 H 
ATOM     49  N   UNL     1     -48.344  28.523  25.703  1.00  0.00    -0.252 NA
ATOM     50  C   UNL     1     -49.862  29.168  23.467  1.00  0.00    -0.051 A 
ATOM     51  C   UNL     1     -48.742  27.547  24.847  1.00  0.00     0.044 A 
ATOM     52  C   UNL     1     -49.504  27.849  23.720  1.00  0.00    -0.040 A 
ATOM     53  H   UNL     1     -50.456  29.402  22.588  1.00  0.00     0.063 H 
ATOM     54  H   UNL     1     -49.816  27.060  23.043  1.00  0.00     0.064 H 
BRANCH  51  55
ATOM     55  C   UNL     1     -48.264  26.109  25.260  1.00  0.00     0.001 C 
ATOM     56  C   UNL     1     -48.730  25.523  26.624  1.00  0.00    -0.045 C 
ATOM     57  C   UNL     1     -46.812  25.920  25.787  1.00  0.00    -0.045 C 
ATOM     58  H   UNL     1     -48.468  25.388  24.451  1.00  0.00     0.037 H 
ATOM     59  C   UNL     1     -47.364  24.813  26.706  1.00  0.00    -0.052 C 
ATOM     60  H   UNL     1     -49.600  24.863  26.583  1.00  0.00     0.027 H 
ATOM     61  H   UNL     1     -48.885  26.263  27.418  1.00  0.00     0.027 H 
ATOM     62  H   UNL     1     -46.080  25.593  25.045  1.00  0.00     0.027 H 
ATOM     63  H   UNL     1     -46.403  26.777  26.333  1.00  0.00     0.027 H 
ATOM     64  H   UNL     1     -47.356  23.815  26.251  1.00  0.00     0.027 H 
ATOM     65  H   UNL     1     -46.917  24.753  27.702  1.00  0.00     0.027 H 
ENDBRANCH  51  55
ENDBRANCH  39  40
ENDBRANCH  36  39
ENDBRANCH   3  36
BRANCH   4  66
ATOM     66  O   UNL     1     -46.249  34.269  29.086  1.00  0.00    -0.387 OA
ATOM     67  H   UNL     1     -46.572  34.291  30.005  1.00  0.00     0.211 HD
ENDBRANCH   4  66
TORSDOF 9
ENDMDL
MODEL 3
REMARK VINA RESULT:      -9.7      1.352      2.430
REMARK SMILES Cn1ccc(-c2cn([C@@H]3O[C@H](COc4ccc5ccc(C6CCC6)nc5c4)[C@@H](O)[C@@H]3F)c3ncnc(N)c23)n1
REMARK SMILES IDX 9 1 10 2 11 3 28 4 30 5 31 6 8 11 6 12 7 13 38 14 32 16
REMARK SMILES IDX 36 17 33 18 35 19 34 20 5 22 2 23 3 24 39 25 4 26 1 29 37 33
REMARK SMILES IDX 12 36 13 39 14 40 15 41 27 42 16 43 26 45 17 47 25 49 18 50
REMARK SMILES IDX 20 51 19 52 21 55 22 56 24 57 23 59 29 66
REMARK H PARENT 9 7 11 8 28 9 30 10 7 15 34 21 3 27 4 28 1 30 1 31 1 32 37 34
REMARK H PARENT 37 35 12 37 12 38 15 44 27 46 16 48 18 53 19 54 21 58 22 60
REMARK H PARENT 22 61 24 62 24 63 23 64 23 65 29 67
REMARK Flexibility Score: inf
ROOT
ATOM      1  C   UNL     1     -44.914  37.974  29.257  1.00  0.00     0.169 C 
ATOM      2  O   UNL     1     -44.713  36.895  28.321  1.00  0.00    -0.345 OA
ATOM      3  C   UNL     1     -45.938  36.136  28.253  1.00  0.00     0.123 C 
ATOM      4  C   UNL     1     -47.060  37.045  28.750  1.00  0.00     0.119 C 
ATOM      5  C   UNL     1     -46.343  37.897  29.776  1.00  0.00     0.173 C 
ATOM      6  F   UNL     1     -46.945  39.103  29.902  1.00  0.00    -0.239 F 
ATOM      7  H   UNL     1     -44.218  37.801  30.087  1.00  0.00     0.088 H 
ATOM      8  H   UNL     1     -45.834  35.282  28.934  1.00  0.00     0.067 H 
ATOM      9  H   UNL     1     -47.489  37.655  27.952  1.00  0.00     0.066 H 
ATOM     10  H   UNL     1     -46.368  37.416  30.760  1.00  0.00     0.074 H 
ENDROOT
BRANCH   1  11
ATOM     11  N   UNL     1     -44.524  39.231  28.638  1.00  0.00    -0.302 N 
ATOM     12  C   UNL     1     -44.545  40.976  27.249  1.00  0.00     0.033 A 
ATOM     13  C   UNL     1     -45.201  39.811  27.592  1.00  0.00     0.019 A 
ATOM     14  C   UNL     1     -43.458  41.149  28.155  1.00  0.00     0.071 A 
ATOM     15  H   UNL     1     -46.082  39.353  27.159  1.00  0.00     0.083 H 
ATOM     16  C   UNL     1     -43.458  40.027  28.983  1.00  0.00     0.148 A 
ATOM     17  C   UNL     1     -42.464  42.110  28.413  1.00  0.00     0.137 A 
ATOM     18  N   UNL     1     -42.577  39.765  29.964  1.00  0.00    -0.218 NA
ATOM     19  N   UNL     1     -41.563  41.878  29.387  1.00  0.00    -0.219 NA
ATOM     20  C   UNL     1     -41.662  40.737  30.089  1.00  0.00     0.120 A 
ATOM     21  H   UNL     1     -40.910  40.588  30.859  1.00  0.00     0.106 H 
BRANCH  12  22
ATOM     22  C   UNL     1     -44.928  41.859  26.150  1.00  0.00     0.095 A 
ATOM     23  N   UNL     1     -44.812  43.007  24.381  1.00  0.00    -0.275 N 
ATOM     24  C   UNL     1     -46.052  43.278  24.882  1.00  0.00     0.025 A 
ATOM     25  N   UNL     1     -44.101  42.153  25.140  1.00  0.00    -0.173 NA
ATOM     26  C   UNL     1     -46.153  42.552  26.047  1.00  0.00    -0.016 A 
ATOM     27  H   UNL     1     -46.737  43.954  24.392  1.00  0.00     0.084 H 
ATOM     28  H   UNL     1     -46.991  42.533  26.729  1.00  0.00     0.066 H 
BRANCH  23  29
ATOM     29  C   UNL     1     -44.228  43.540  23.175  1.00  0.00     0.030 C 
ATOM     30  H   UNL     1     -44.764  44.453  22.906  1.00  0.00     0.048 H 
ATOM     31  H   UNL     1     -44.324  42.791  22.385  1.00  0.00     0.048 H 
ATOM     32  H   UNL     1     -43.173  43.765  23.350  1.00  0.00     0.048 H 
ENDBRANCH  23  29
ENDBRANCH  12  22
BRANCH  17  33
ATOM     33  N   UNL     1     -42.355  43.333  27.760  1.00  0.00    -0.383 N 
ATOM     34  H   UNL     1     -42.559  44.081  28.413  1.00  0.00     0.158 HD
ATOM     35  H   UNL     1     -42.871  43.370  26.889  1.00  0.00     0.158 HD
ENDBRANCH  17  33
ENDBRANCH   1  11
BRANCH   3  36
ATOM     36  C   UNL     1     -46.146  35.630  26.823  1.00  0.00     0.117 C 
ATOM     37  H   UNL     1     -45.748  36.374  26.122  1.00  0.00     0.073 H 
ATOM     38  H   UNL     1     -45.553  34.732  26.615  1.00  0.00     0.073 H 
BRANCH  36  39
ATOM     39  O   UNL     1     -47.523  35.458  26.490  1.00  0.00    -0.491 OA
BRANCH  39  40
ATOM     40  C   UNL     1     -47.938  34.248  26.011  1.00  0.00     0.121 A 
ATOM     41  C   UNL     1     -49.230  33.892  26.393  1.00  0.00    -0.019 A 
ATOM     42  C   UNL     1     -47.203  33.377  25.203  1.00  0.00     0.006 A 
ATOM     43  C   UNL     1     -49.779  32.681  25.977  1.00  0.00    -0.049 A 
ATOM     44  H   UNL     1     -49.811  34.561  27.023  1.00  0.00     0.066 H 
ATOM     45  C   UNL     1     -47.726  32.162  24.775  1.00  0.00     0.074 A 
ATOM     46  H   UNL     1     -46.195  33.614  24.878  1.00  0.00     0.069 H 
ATOM     47  C   UNL     1     -49.031  31.814  25.169  1.00  0.00     0.000 A 
ATOM     48  H   UNL     1     -50.788  32.422  26.288  1.00  0.00     0.063 H 
ATOM     49  N   UNL     1     -46.972  31.358  24.001  1.00  0.00    -0.252 NA
ATOM     50  C   UNL     1     -49.541  30.590  24.730  1.00  0.00    -0.051 A 
ATOM     51  C   UNL     1     -47.472  30.170  23.576  1.00  0.00     0.044 A 
ATOM     52  C   UNL     1     -48.758  29.765  23.930  1.00  0.00    -0.040 A 
ATOM     53  H   UNL     1     -50.543  30.273  25.005  1.00  0.00     0.063 H 
ATOM     54  H   UNL     1     -49.147  28.813  23.584  1.00  0.00     0.064 H 
BRANCH  51  55
ATOM     55  C   UNL     1     -46.477  29.347  22.682  1.00  0.00     0.001 C 
ATOM     56  C   UNL     1     -45.613  28.234  23.343  1.00  0.00    -0.045 C 
ATOM     57  C   UNL     1     -45.131  30.001  22.255  1.00  0.00    -0.045 C 
ATOM     58  H   UNL     1     -46.996  28.944  21.796  1.00  0.00     0.037 H 
ATOM     59  C   UNL     1     -44.502  28.596  22.337  1.00  0.00    -0.052 C 
ATOM     60  H   UNL     1     -46.008  27.219  23.262  1.00  0.00     0.027 H 
ATOM     61  H   UNL     1     -45.335  28.422  24.387  1.00  0.00     0.027 H 
ATOM     62  H   UNL     1     -45.122  30.462  21.265  1.00  0.00     0.027 H 
ATOM     63  H   UNL     1     -44.711  30.710  22.979  1.00  0.00     0.027 H 
ATOM     64  H   UNL     1     -44.556  28.033  21.398  1.00  0.00     0.027 H 
ATOM     65  H   UNL     1     -43.480  28.553  22.721  1.00  0.00     0.027 H 
ENDBRANCH  51  55
ENDBRANCH  39  40
ENDBRANCH  36  39
ENDBRANCH   3  36
BRANCH   4  66
ATOM     66  O   UNL     1     -48.123  36.311  29.355  1.00  0.00    -0.387 OA
ATOM     67  H   UNL     1     -48.918  36.464  28.812  1.00  0.00     0.211 HD
ENDBRANCH   4  66
TORSDOF 9
ENDMDL
MODEL 4
REMARK VINA RESULT:      -9.6      1.851      2.818
REMARK SMILES Cn1ccc(-c2cn([C@@H]3O[C@H](COc4ccc5ccc(C6CCC6)nc5c4)[C@@H](O)[C@@H]3F)c3ncnc(N)c23)n1
REMARK SMILES IDX 9 1 10 2 11 3 28 4 30 5 31 6 8 11 6 12 7 13 38 14 32 16
REMARK SMILES IDX 36 17 33 18 35 19 34 20 5 22 2 23 3 24 39 25 4 26 1 29 37 33
REMARK SMILES IDX 12 36 13 39 14 40 15 41 27 42 16 43 26 45 17 47 25 49 18 50
REMARK SMILES IDX 20 51 19 52 21 55 22 56 24 57 23 59 29 66
REMARK H PARENT 9 7 11 8 28 9 30 10 7 15 34 21 3 27 4 28 1 30 1 31 1 32 37 34
REMARK H PARENT 37 35 12 37 12 38 15 44 27 46 16 48 18 53 19 54 21 58 22 60
REMARK H PARENT 22 61 24 62 24 63 23 64 23 65 29 67
REMARK Flexibility Score: inf
ROOT
ATOM      1  C   UNL     1     -45.037  37.606  28.040  1.00  0.00     0.169 C 
ATOM      2  O   UNL     1     -45.808  36.579  27.384  1.00  0.00    -0.345 OA
ATOM      3  C   UNL     1     -46.324  35.696  28.401  1.00  0.00     0.123 C 
ATOM      4  C   UNL     1     -46.307  36.468  29.719  1.00  0.00     0.119 C 
ATOM      5  C   UNL     1     -45.101  37.365  29.542  1.00  0.00     0.173 C 
ATOM      6  F   UNL     1     -45.234  38.497  30.272  1.00  0.00    -0.239 F 
ATOM      7  H   UNL     1     -44.002  37.487  27.698  1.00  0.00     0.088 H 
ATOM      8  H   UNL     1     -45.640  34.841  28.472  1.00  0.00     0.067 H 
ATOM      9  H   UNL     1     -47.219  37.049  29.875  1.00  0.00     0.066 H 
ATOM     10  H   UNL     1     -44.192  36.859  29.888  1.00  0.00     0.074 H 
ENDROOT
BRANCH   1  11
ATOM     11  N   UNL     1     -45.483  38.913  27.582  1.00  0.00    -0.302 N 
ATOM     12  C   UNL     1     -45.406  40.964  26.710  1.00  0.00     0.033 A 
ATOM     13  C   UNL     1     -44.656  39.843  27.000  1.00  0.00     0.019 A 
ATOM     14  C   UNL     1     -46.757  40.692  27.075  1.00  0.00     0.071 A 
ATOM     15  H   UNL     1     -43.600  39.652  26.848  1.00  0.00     0.083 H 
ATOM     16  C   UNL     1     -46.759  39.419  27.643  1.00  0.00     0.148 A 
ATOM     17  C   UNL     1     -48.004  41.337  26.996  1.00  0.00     0.137 A 
ATOM     18  N   UNL     1     -47.825  38.781  28.156  1.00  0.00    -0.218 NA
ATOM     19  N   UNL     1     -49.093  40.727  27.502  1.00  0.00    -0.219 NA
ATOM     20  C   UNL     1     -48.945  39.510  28.051  1.00  0.00     0.120 A 
ATOM     21  H   UNL     1     -49.848  39.059  28.453  1.00  0.00     0.106 H 
BRANCH  12  22
ATOM     22  C   UNL     1     -44.880  42.196  26.126  1.00  0.00     0.095 A 
ATOM     23  N   UNL     1     -44.413  44.238  25.864  1.00  0.00    -0.275 N 
ATOM     24  C   UNL     1     -43.981  43.641  24.717  1.00  0.00     0.025 A 
ATOM     25  N   UNL     1     -44.975  43.382  26.737  1.00  0.00    -0.173 NA
ATOM     26  C   UNL     1     -44.284  42.305  24.851  1.00  0.00    -0.016 A 
ATOM     27  H   UNL     1     -43.517  44.198  23.915  1.00  0.00     0.084 H 
ATOM     28  H   UNL     1     -44.106  41.523  24.126  1.00  0.00     0.066 H 
BRANCH  23  29
ATOM     29  C   UNL     1     -44.332  45.639  26.198  1.00  0.00     0.030 C 
ATOM     30  H   UNL     1     -44.446  46.219  25.278  1.00  0.00     0.048 H 
ATOM     31  H   UNL     1     -43.358  45.829  26.654  1.00  0.00     0.048 H 
ATOM     32  H   UNL     1     -45.130  45.893  26.900  1.00  0.00     0.048 H 
ENDBRANCH  23  29
ENDBRANCH  12  22
BRANCH  17  33
ATOM     33  N   UNL     1     -48.223  42.567  26.383  1.00  0.00    -0.383 N 
ATOM     34  H   UNL     1     -48.926  43.080  26.904  1.00  0.00     0.158 HD
ATOM     35  H   UNL     1     -48.393  42.494  25.387  1.00  0.00     0.158 HD
ENDBRANCH  17  33
ENDBRANCH   1  11
BRANCH   3  36
ATOM     36  C   UNL     1     -47.716  35.207  27.994  1.00  0.00     0.117 C 
ATOM     37  H   UNL     1     -47.849  34.178  28.348  1.00  0.00     0.073 H 
ATOM     38  H   UNL     1     -48.512  35.763  28.503  1.00  0.00     0.073 H 
BRANCH  36  39
ATOM     39  O   UNL     1     -47.901  35.174  26.579  1.00  0.00    -0.491 OA
BRANCH  39  40
ATOM     40  C   UNL     1     -47.706  33.994  25.917  1.00  0.00     0.121 A 
ATOM     41  C   UNL     1     -46.502  33.918  25.221  1.00  0.00    -0.019 A 
ATOM     42  C   UNL     1     -48.580  32.905  25.886  1.00  0.00     0.006 A 
ATOM     43  C   UNL     1     -46.176  32.773  24.499  1.00  0.00    -0.049 A 
ATOM     44  H   UNL     1     -45.815  34.761  25.237  1.00  0.00     0.066 H 
ATOM     45  C   UNL     1     -48.281  31.749  25.172  1.00  0.00     0.074 A 
ATOM     46  H   UNL     1     -49.527  32.917  26.416  1.00  0.00     0.069 H 
ATOM     47  C   UNL     1     -47.062  31.687  24.472  1.00  0.00     0.000 A 
ATOM     48  H   UNL     1     -45.233  32.735  23.961  1.00  0.00     0.063 H 
ATOM     49  N   UNL     1     -49.162  30.731  25.172  1.00  0.00    -0.252 NA
ATOM     50  C   UNL     1     -46.778  30.518  23.761  1.00  0.00    -0.051 A 
ATOM     51  C   UNL     1     -48.880  29.597  24.480  1.00  0.00     0.044 A 
ATOM     52  C   UNL     1     -47.691  29.470  23.766  1.00  0.00    -0.040 A 
ATOM     53  H   UNL     1     -45.850  30.418  23.203  1.00  0.00     0.063 H 
ATOM     54  H   UNL     1     -47.476  28.559  23.216  1.00  0.00     0.064 H 
BRANCH  51  55
ATOM     55  C   UNL     1     -50.001  28.501  24.577  1.00  0.00     0.001 C 
ATOM     56  C   UNL     1     -49.795  27.145  23.844  1.00  0.00    -0.045 C 
ATOM     57  C   UNL     1     -51.287  28.659  23.715  1.00  0.00    -0.045 C 
ATOM     58  H   UNL     1     -50.274  28.322  25.631  1.00  0.00     0.037 H 
ATOM     59  C   UNL     1     -51.317  27.122  23.604  1.00  0.00    -0.052 C 
ATOM     60  H   UNL     1     -49.404  26.330  24.458  1.00  0.00     0.027 H 
ATOM     61  H   UNL     1     -49.208  27.203  22.919  1.00  0.00     0.027 H 
ATOM     62  H   UNL     1     -52.143  29.111  24.222  1.00  0.00     0.027 H 
ATOM     63  H   UNL     1     -51.139  29.164  22.754  1.00  0.00     0.027 H 
ATOM     64  H   UNL     1     -51.884  26.633  24.405  1.00  0.00     0.027 H 
ATOM     65  H   UNL     1     -51.642  26.720  22.641  1.00  0.00     0.027 H 
ENDBRANCH  51  55
ENDBRANCH  39  40
ENDBRANCH  36  39
ENDBRANCH   3  36
BRANCH   4  66
ATOM     66  O   UNL     1     -46.140  35.610  30.846  1.00  0.00    -0.387 OA
ATOM     67  H   UNL     1     -45.330  35.091  30.688  1.00  0.00     0.211 HD
ENDBRANCH   4  66
TORSDOF 9
ENDMDL
MODEL 5
REMARK VINA RESULT:      -9.4      2.802     11.512
REMARK SMILES Cn1ccc(-c2cn([C@@H]3O[C@H](COc4ccc5ccc(C6CCC6)nc5c4)[C@@H](O)[C@@H]3F)c3ncnc(N)c23)n1
REMARK SMILES IDX 9 1 10 2 11 3 28 4 30 5 31 6 8 11 6 12 7 13 38 14 32 16
REMARK SMILES IDX 36 17 33 18 35 19 34 20 5 22 2 23 3 24 39 25 4 26 1 29 37 33
REMARK SMILES IDX 12 36 13 39 14 40 15 41 27 42 16 43 26 45 17 47 25 49 18 50
REMARK SMILES IDX 20 51 19 52 21 55 22 56 24 57 23 59 29 66
REMARK H PARENT 9 7 11 8 28 9 30 10 7 15 34 21 3 27 4 28 1 30 1 31 1 32 37 34
REMARK H PARENT 37 35 12 37 12 38 15 44 27 46 16 48 18 53 19 54 21 58 22 60
REMARK H PARENT 22 61 24 62 24 63 23 64 23 65 29 67
REMARK Flexibility Score: inf
ROOT
ATOM      1  C   UNL     1     -47.683  31.527  26.062  1.00  0.00     0.169 C 
ATOM      2  O   UNL     1     -48.644  32.409  26.680  1.00  0.00    -0.345 OA
ATOM      3  C   UNL     1     -48.083  33.738  26.686  1.00  0.00     0.123 C 
ATOM      4  C   UNL     1     -47.002  33.776  25.608  1.00  0.00     0.119 C 
ATOM      5  C   UNL     1     -46.479  32.356  25.638  1.00  0.00     0.173 C 
ATOM      6  F   UNL     1     -45.972  32.006  24.432  1.00  0.00    -0.239 F 
ATOM      7  H   UNL     1     -47.377  30.810  26.832  1.00  0.00     0.088 H 
ATOM      8  H   UNL     1     -47.622  33.896  27.668  1.00  0.00     0.067 H 
ATOM      9  H   UNL     1     -47.400  34.036  24.624  1.00  0.00     0.066 H 
ATOM     10  H   UNL     1     -45.670  32.260  26.371  1.00  0.00     0.074 H 
ENDROOT
BRANCH   1  11
ATOM     11  N   UNL     1     -48.336  30.761  25.012  1.00  0.00    -0.302 N 
ATOM     12  C   UNL     1     -49.282  30.282  23.050  1.00  0.00     0.033 A 
ATOM     13  C   UNL     1     -48.664  31.276  23.780  1.00  0.00     0.019 A 
ATOM     14  C   UNL     1     -49.284  29.096  23.840  1.00  0.00     0.071 A 
ATOM     15  H   UNL     1     -48.450  32.305  23.517  1.00  0.00     0.083 H 
ATOM     16  C   UNL     1     -48.716  29.441  25.066  1.00  0.00     0.148 A 
ATOM     17  C   UNL     1     -49.675  27.752  23.696  1.00  0.00     0.137 A 
ATOM     18  N   UNL     1     -48.553  28.628  26.123  1.00  0.00    -0.218 NA
ATOM     19  N   UNL     1     -49.528  26.909  24.737  1.00  0.00    -0.219 NA
ATOM     20  C   UNL     1     -48.993  27.386  25.873  1.00  0.00     0.120 A 
ATOM     21  H   UNL     1     -48.900  26.674  26.688  1.00  0.00     0.106 H 
BRANCH  12  22
ATOM     22  C   UNL     1     -49.823  30.446  21.703  1.00  0.00     0.095 A 
ATOM     23  N   UNL     1     -51.181  30.831  20.132  1.00  0.00    -0.275 N 
ATOM     24  C   UNL     1     -50.043  30.419  19.504  1.00  0.00     0.025 A 
ATOM     25  N   UNL     1     -51.079  30.847  21.474  1.00  0.00    -0.173 NA
ATOM     26  C   UNL     1     -49.139  30.146  20.505  1.00  0.00    -0.016 A 
ATOM     27  H   UNL     1     -49.972  30.343  18.428  1.00  0.00     0.084 H 
ATOM     28  H   UNL     1     -48.130  29.776  20.386  1.00  0.00     0.066 H 
BRANCH  23  29
ATOM     29  C   UNL     1     -52.423  31.221  19.511  1.00  0.00     0.030 C 
ATOM     30  H   UNL     1     -52.302  32.226  19.100  1.00  0.00     0.048 H 
ATOM     31  H   UNL     1     -53.207  31.209  20.272  1.00  0.00     0.048 H 
ATOM     32  H   UNL     1     -52.667  30.517  18.712  1.00  0.00     0.048 H 
ENDBRANCH  23  29
ENDBRANCH  12  22
BRANCH  17  33
ATOM     33  N   UNL     1     -50.174  27.193  22.525  1.00  0.00    -0.383 N 
ATOM     34  H   UNL     1     -50.473  27.934  21.900  1.00  0.00     0.158 HD
ATOM     35  H   UNL     1     -50.860  26.465  22.688  1.00  0.00     0.158 HD
ENDBRANCH  17  33
ENDBRANCH   1  11
BRANCH   3  36
ATOM     36  C   UNL     1     -49.200  34.763  26.471  1.00  0.00     0.117 C 
ATOM     37  H   UNL     1     -48.995  35.324  25.552  1.00  0.00     0.073 H 
ATOM     38  H   UNL     1     -50.166  34.283  26.275  1.00  0.00     0.073 H 
BRANCH  36  39
ATOM     39  O   UNL     1     -49.279  35.726  27.521  1.00  0.00    -0.491 OA
BRANCH  39  40
ATOM     40  C   UNL     1     -48.168  36.462  27.825  1.00  0.00     0.121 A 
ATOM     41  C   UNL     1     -47.500  36.046  28.975  1.00  0.00    -0.019 A 
ATOM     42  C   UNL     1     -47.670  37.550  27.104  1.00  0.00     0.006 A 
ATOM     43  C   UNL     1     -46.352  36.710  29.402  1.00  0.00    -0.049 A 
ATOM     44  H   UNL     1     -47.880  35.201  29.544  1.00  0.00     0.066 H 
ATOM     45  C   UNL     1     -46.527  38.232  27.509  1.00  0.00     0.074 A 
ATOM     46  H   UNL     1     -48.154  37.907  26.201  1.00  0.00     0.069 H 
ATOM     47  C   UNL     1     -45.863  37.803  28.672  1.00  0.00     0.000 A 
ATOM     48  H   UNL     1     -45.848  36.371  30.303  1.00  0.00     0.063 H 
ATOM     49  N   UNL     1     -46.093  39.277  26.779  1.00  0.00    -0.252 NA
ATOM     50  C   UNL     1     -44.717  38.499  29.065  1.00  0.00    -0.051 A 
ATOM     51  C   UNL     1     -44.979  39.950  27.164  1.00  0.00     0.044 A 
ATOM     52  C   UNL     1     -44.274  39.576  28.306  1.00  0.00    -0.040 A 
ATOM     53  H   UNL     1     -44.167  38.209  29.955  1.00  0.00     0.063 H 
ATOM     54  H   UNL     1     -43.384  40.122  28.603  1.00  0.00     0.064 H 
BRANCH  51  55
ATOM     55  C   UNL     1     -44.598  41.141  26.213  1.00  0.00     0.001 C 
ATOM     56  C   UNL     1     -43.737  42.309  26.774  1.00  0.00    -0.045 C 
ATOM     57  C   UNL     1     -45.672  42.220  25.889  1.00  0.00    -0.045 C 
ATOM     58  H   UNL     1     -44.154  40.761  25.278  1.00  0.00     0.037 H 
ATOM     59  C   UNL     1     -44.524  43.247  25.839  1.00  0.00    -0.052 C 
ATOM     60  H   UNL     1     -42.664  42.242  26.578  1.00  0.00     0.027 H 
ATOM     61  H   UNL     1     -43.888  42.526  27.839  1.00  0.00     0.027 H 
ATOM     62  H   UNL     1     -46.217  42.078  24.953  1.00  0.00     0.027 H 
ATOM     63  H   UNL     1     -46.393  42.409  26.692  1.00  0.00     0.027 H 
ATOM     64  H   UNL     1     -44.075  43.360  24.845  1.00  0.00     0.027 H 
ATOM     65  H   UNL     1     -44.753  44.238  26.240  1.00  0.00     0.027 H 
ENDBRANCH  51  55
ENDBRANCH  39  40
ENDBRANCH  36  39
ENDBRANCH   3  36
BRANCH   4  66
ATOM     66  O   UNL     1     -45.964  34.705  25.915  1.00  0.00    -0.387 OA
ATOM     67  H   UNL     1     -46.387  35.469  26.348  1.00  0.00     0.211 HD
ENDBRANCH   4  66
TORSDOF 9
ENDMDL
MODEL 6
REMARK VINA RESULT:      -9.4      3.183     12.180
REMARK SMILES Cn1ccc(-c2cn([C@@H]3O[C@H](COc4ccc5ccc(C6CCC6)nc5c4)[C@@H](O)[C@@H]3F)c3ncnc(N)c23)n1
REMARK SMILES IDX 9 1 10 2 11 3 28 4 30 5 31 6 8 11 6 12 7 13 38 14 32 16
REMARK SMILES IDX 36 17 33 18 35 19 34 20 5 22 2 23 3 24 39 25 4 26 1 29 37 33
REMARK SMILES IDX 12 36 13 39 14 40 15 41 27 42 16 43 26 45 17 47 25 49 18 50
REMARK SMILES IDX 20 51 19 52 21 55 22 56 24 57 23 59 29 66
REMARK H PARENT 9 7 11 8 28 9 30 10 7 15 34 21 3 27 4 28 1 30 1 31 1 32 37 34
REMARK H PARENT 37 35 12 37 12 38 15 44 27 46 16 48 18 53 19 54 21 58 22 60
REMARK H PARENT 22 61 24 62 24 63 23 64 23 65 29 67
REMARK Flexibility Score: inf
ROOT
ATOM      1  C   UNL     1     -47.878  31.841  24.083  1.00  0.00     0.169 C 
ATOM      2  O   UNL     1     -46.847  32.617  24.728  1.00  0.00    -0.345 OA
ATOM      3  C   UNL     1     -47.481  33.457  25.716  1.00  0.00     0.123 C 
ATOM      4  C   UNL     1     -48.833  32.826  26.043  1.00  0.00     0.119 C 
ATOM      5  C   UNL     1     -49.213  32.196  24.722  1.00  0.00     0.173 C 
ATOM      6  F   UNL     1     -50.027  31.131  24.915  1.00  0.00    -0.239 F 
ATOM      7  H   UNL     1     -47.887  32.147  23.031  1.00  0.00     0.088 H 
ATOM      8  H   UNL     1     -47.640  34.441  25.258  1.00  0.00     0.067 H 
ATOM      9  H   UNL     1     -48.765  32.081  26.839  1.00  0.00     0.066 H 
ATOM     10  H   UNL     1     -49.759  32.912  24.096  1.00  0.00     0.074 H 
ENDROOT
BRANCH   1  11
ATOM     11  N   UNL     1     -47.510  30.433  24.108  1.00  0.00    -0.302 N 
ATOM     12  C   UNL     1     -47.559  28.265  24.629  1.00  0.00     0.033 A 
ATOM     13  C   UNL     1     -48.193  29.476  24.819  1.00  0.00     0.019 A 
ATOM     14  C   UNL     1     -46.480  28.475  23.722  1.00  0.00     0.071 A 
ATOM     15  H   UNL     1     -49.063  29.722  25.416  1.00  0.00     0.083 H 
ATOM     16  C   UNL     1     -46.461  29.842  23.445  1.00  0.00     0.148 A 
ATOM     17  C   UNL     1     -45.506  27.698  23.069  1.00  0.00     0.137 A 
ATOM     18  N   UNL     1     -45.580  30.480  22.657  1.00  0.00    -0.218 NA
ATOM     19  N   UNL     1     -44.605  28.306  22.272  1.00  0.00    -0.219 NA
ATOM     20  C   UNL     1     -44.685  29.638  22.120  1.00  0.00     0.120 A 
ATOM     21  H   UNL     1     -43.934  30.086  21.476  1.00  0.00     0.106 H 
BRANCH  12  22
ATOM     22  C   UNL     1     -47.953  27.006  25.257  1.00  0.00     0.095 A 
ATOM     23  N   UNL     1     -47.832  25.172  26.296  1.00  0.00    -0.275 N 
ATOM     24  C   UNL     1     -49.132  25.247  25.888  1.00  0.00     0.025 A 
ATOM     25  N   UNL     1     -47.088  26.227  25.915  1.00  0.00    -0.173 NA
ATOM     26  C   UNL     1     -49.240  26.430  25.193  1.00  0.00    -0.016 A 
ATOM     27  H   UNL     1     -49.851  24.471  26.107  1.00  0.00     0.084 H 
ATOM     28  H   UNL     1     -50.123  26.817  24.704  1.00  0.00     0.066 H 
BRANCH  23  29
ATOM     29  C   UNL     1     -47.219  24.108  27.052  1.00  0.00     0.030 C 
ATOM     30  H   UNL     1     -46.138  24.157  26.901  1.00  0.00     0.048 H 
ATOM     31  H   UNL     1     -47.614  23.156  26.690  1.00  0.00     0.048 H 
ATOM     32  H   UNL     1     -47.454  24.232  28.112  1.00  0.00     0.048 H 
ENDBRANCH  23  29
ENDBRANCH  12  22
BRANCH  17  33
ATOM     33  N   UNL     1     -45.418  26.312  23.142  1.00  0.00    -0.383 N 
ATOM     34  H   UNL     1     -45.262  26.036  24.105  1.00  0.00     0.158 HD
ATOM     35  H   UNL     1     -44.772  25.915  22.470  1.00  0.00     0.158 HD
ENDBRANCH  17  33
ENDBRANCH   1  11
BRANCH   3  36
ATOM     36  C   UNL     1     -46.559  33.599  26.931  1.00  0.00     0.117 C 
ATOM     37  H   UNL     1     -46.393  32.607  27.368  1.00  0.00     0.073 H 
ATOM     38  H   UNL     1     -45.554  33.932  26.647  1.00  0.00     0.073 H 
BRANCH  36  39
ATOM     39  O   UNL     1     -47.124  34.405  27.964  1.00  0.00    -0.491 OA
BRANCH  39  40
ATOM     40  C   UNL     1     -47.100  35.764  27.826  1.00  0.00     0.121 A 
ATOM     41  C   UNL     1     -48.347  36.375  27.933  1.00  0.00    -0.019 A 
ATOM     42  C   UNL     1     -45.972  36.557  27.597  1.00  0.00     0.006 A 
ATOM     43  C   UNL     1     -48.469  37.757  27.809  1.00  0.00    -0.049 A 
ATOM     44  H   UNL     1     -49.232  35.768  28.109  1.00  0.00     0.066 H 
ATOM     45  C   UNL     1     -46.064  37.938  27.469  1.00  0.00     0.074 A 
ATOM     46  H   UNL     1     -44.980  36.126  27.511  1.00  0.00     0.069 H 
ATOM     47  C   UNL     1     -47.330  38.542  27.577  1.00  0.00     0.000 A 
ATOM     48  H   UNL     1     -49.452  38.213  27.894  1.00  0.00     0.063 H 
ATOM     49  N   UNL     1     -44.945  38.653  27.245  1.00  0.00    -0.252 NA
ATOM     50  C   UNL     1     -47.405  39.931  27.445  1.00  0.00    -0.051 A 
ATOM     51  C   UNL     1     -45.023  40.003  27.118  1.00  0.00     0.044 A 
ATOM     52  C   UNL     1     -46.246  40.663  27.216  1.00  0.00    -0.040 A 
ATOM     53  H   UNL     1     -48.358  40.447  27.521  1.00  0.00     0.063 H 
ATOM     54  H   UNL     1     -46.296  41.743  27.113  1.00  0.00     0.064 H 
BRANCH  51  55
ATOM     55  C   UNL     1     -43.637  40.695  26.862  1.00  0.00     0.001 C 
ATOM     56  C   UNL     1     -42.887  41.347  28.060  1.00  0.00    -0.045 C 
ATOM     57  C   UNL     1     -43.608  42.106  26.205  1.00  0.00    -0.045 C 
ATOM     58  H   UNL     1     -42.960  40.014  26.320  1.00  0.00     0.037 H 
ATOM     59  C   UNL     1     -42.367  42.407  27.068  1.00  0.00    -0.052 C 
ATOM     60  H   UNL     1     -42.119  40.728  28.531  1.00  0.00     0.027 H 
ATOM     61  H   UNL     1     -43.535  41.761  28.842  1.00  0.00     0.027 H 
ATOM     62  H   UNL     1     -43.444  42.120  25.125  1.00  0.00     0.027 H 
ATOM     63  H   UNL     1     -44.469  42.742  26.440  1.00  0.00     0.027 H 
ATOM     64  H   UNL     1     -41.419  42.136  26.588  1.00  0.00     0.027 H 
ATOM     65  H   UNL     1     -42.292  43.426  27.456  1.00  0.00     0.027 H 
ENDBRANCH  51  55
ENDBRANCH  39  40
ENDBRANCH  36  39
ENDBRANCH   3  36
BRANCH   4  66
ATOM     66  O   UNL     1     -49.800  33.797  26.439  1.00  0.00    -0.387 OA
ATOM     67  H   UNL     1     -49.938  33.685  27.398  1.00  0.00     0.211 HD
ENDBRANCH   4  66
TORSDOF 9
ENDMDL
MODEL 7
REMARK VINA RESULT:      -9.3      2.469      3.508
REMARK SMILES Cn1ccc(-c2cn([C@@H]3O[C@H](COc4ccc5ccc(C6CCC6)nc5c4)[C@@H](O)[C@@H]3F)c3ncnc(N)c23)n1
REMARK SMILES IDX 9 1 10 2 11 3 28 4 30 5 31 6 8 11 6 12 7 13 38 14 32 16
REMARK SMILES IDX 36 17 33 18 35 19 34 20 5 22 2 23 3 24 39 25 4 26 1 29 37 33
REMARK SMILES IDX 12 36 13 39 14 40 15 41 27 42 16 43 26 45 17 47 25 49 18 50
REMARK SMILES IDX 20 51 19 52 21 55 22 56 24 57 23 59 29 66
REMARK H PARENT 9 7 11 8 28 9 30 10 7 15 34 21 3 27 4 28 1 30 1 31 1 32 37 34
REMARK H PARENT 37 35 12 37 12 38 15 44 27 46 16 48 18 53 19 54 21 58 22 60
REMARK H PARENT 22 61 24 62 24 63 23 64 23 65 29 67
REMARK Flexibility Score: inf
ROOT
ATOM      1  C   UNL     1     -45.780  37.913  27.392  1.00  0.00     0.169 C 
ATOM      2  O   UNL     1     -46.421  36.890  26.601  1.00  0.00    -0.345 OA
ATOM      3  C   UNL     1     -46.766  35.802  27.483  1.00  0.00     0.123 C 
ATOM      4  C   UNL     1     -46.810  36.367  28.901  1.00  0.00     0.119 C 
ATOM      5  C   UNL     1     -45.751  37.447  28.841  1.00  0.00     0.173 C 
ATOM      6  F   UNL     1     -46.017  38.429  29.735  1.00  0.00    -0.239 F 
ATOM      7  H   UNL     1     -44.753  37.998  27.019  1.00  0.00     0.088 H 
ATOM      8  H   UNL     1     -45.965  35.056  27.414  1.00  0.00     0.067 H 
ATOM      9  H   UNL     1     -47.789  36.779  29.158  1.00  0.00     0.066 H 
ATOM     10  H   UNL     1     -44.767  37.036  29.093  1.00  0.00     0.074 H 
ENDROOT
BRANCH   1  11
ATOM     11  N   UNL     1     -46.425  39.192  27.142  1.00  0.00    -0.302 N 
ATOM     12  C   UNL     1     -48.013  40.756  27.062  1.00  0.00     0.033 A 
ATOM     13  C   UNL     1     -47.736  39.461  27.451  1.00  0.00     0.019 A 
ATOM     14  C   UNL     1     -46.812  41.323  26.546  1.00  0.00     0.071 A 
ATOM     15  H   UNL     1     -48.379  38.718  27.908  1.00  0.00     0.083 H 
ATOM     16  C   UNL     1     -45.854  40.310  26.582  1.00  0.00     0.148 A 
ATOM     17  C   UNL     1     -46.378  42.569  26.058  1.00  0.00     0.137 A 
ATOM     18  N   UNL     1     -44.583  40.404  26.156  1.00  0.00    -0.218 NA
ATOM     19  N   UNL     1     -45.110  42.698  25.620  1.00  0.00    -0.219 NA
ATOM     20  C   UNL     1     -44.301  41.627  25.684  1.00  0.00     0.120 A 
ATOM     21  H   UNL     1     -43.291  41.774  25.314  1.00  0.00     0.106 H 
BRANCH  12  22
ATOM     22  C   UNL     1     -49.317  41.404  27.178  1.00  0.00     0.095 A 
ATOM     23  N   UNL     1     -51.077  42.451  26.661  1.00  0.00    -0.275 N 
ATOM     24  C   UNL     1     -51.165  42.284  28.012  1.00  0.00     0.025 A 
ATOM     25  N   UNL     1     -49.955  41.934  26.128  1.00  0.00    -0.173 NA
ATOM     26  C   UNL     1     -50.022  41.613  28.383  1.00  0.00    -0.016 A 
ATOM     27  H   UNL     1     -52.002  42.654  28.586  1.00  0.00     0.084 H 
ATOM     28  H   UNL     1     -49.735  41.324  29.384  1.00  0.00     0.066 H 
BRANCH  23  29
ATOM     29  C   UNL     1     -52.030  43.112  25.804  1.00  0.00     0.030 C 
ATOM     30  H   UNL     1     -51.926  44.191  25.940  1.00  0.00     0.048 H 
ATOM     31  H   UNL     1     -53.033  42.783  26.087  1.00  0.00     0.048 H 
ATOM     32  H   UNL     1     -51.829  42.846  24.763  1.00  0.00     0.048 H 
ENDBRANCH  23  29
ENDBRANCH  12  22
BRANCH  17  33
ATOM     33  N   UNL     1     -47.153  43.723  26.028  1.00  0.00    -0.383 N 
ATOM     34  H   UNL     1     -46.845  44.315  25.264  1.00  0.00     0.158 HD
ATOM     35  H   UNL     1     -47.223  44.183  26.928  1.00  0.00     0.158 HD
ENDBRANCH  17  33
ENDBRANCH   1  11
BRANCH   3  36
ATOM     36  C   UNL     1     -48.089  35.179  27.030  1.00  0.00     0.117 C 
ATOM     37  H   UNL     1     -48.900  35.575  27.652  1.00  0.00     0.073 H 
ATOM     38  H   UNL     1     -48.362  35.489  26.015  1.00  0.00     0.073 H 
BRANCH  36  39
ATOM     39  O   UNL     1     -48.117  33.761  27.187  1.00  0.00    -0.491 OA
BRANCH  39  40
ATOM     40  C   UNL     1     -47.891  32.972  26.094  1.00  0.00     0.121 A 
ATOM     41  C   UNL     1     -46.628  33.124  25.526  1.00  0.00    -0.019 A 
ATOM     42  C   UNL     1     -48.788  32.064  25.525  1.00  0.00     0.006 A 
ATOM     43  C   UNL     1     -46.265  32.383  24.405  1.00  0.00    -0.049 A 
ATOM     44  H   UNL     1     -45.922  33.829  25.960  1.00  0.00     0.066 H 
ATOM     45  C   UNL     1     -48.453  31.312  24.404  1.00  0.00     0.074 A 
ATOM     46  H   UNL     1     -49.781  31.910  25.934  1.00  0.00     0.069 H 
ATOM     47  C   UNL     1     -47.174  31.477  23.841  1.00  0.00     0.000 A 
ATOM     48  H   UNL     1     -45.275  32.518  23.977  1.00  0.00     0.063 H 
ATOM     49  N   UNL     1     -49.357  30.455  23.894  1.00  0.00    -0.252 NA
ATOM     50  C   UNL     1     -46.854  30.713  22.715  1.00  0.00    -0.051 A 
ATOM     51  C   UNL     1     -49.041  29.715  22.800  1.00  0.00     0.044 A 
ATOM     52  C   UNL     1     -47.792  29.829  22.194  1.00  0.00    -0.040 A 
ATOM     53  H   UNL     1     -45.880  30.801  22.241  1.00  0.00     0.063 H 
ATOM     54  H   UNL     1     -47.550  29.232  21.320  1.00  0.00     0.064 H 
BRANCH  51  55
ATOM     55  C   UNL     1     -50.196  28.762  22.326  1.00  0.00     0.001 C 
ATOM     56  C   UNL     1     -49.827  27.410  21.649  1.00  0.00    -0.045 C 
ATOM     57  C   UNL     1     -50.959  29.098  21.012  1.00  0.00    -0.045 C 
ATOM     58  H   UNL     1     -50.914  28.589  23.145  1.00  0.00     0.037 H 
ATOM     59  C   UNL     1     -51.090  27.580  20.781  1.00  0.00    -0.052 C 
ATOM     60  H   UNL     1     -49.823  26.537  22.307  1.00  0.00     0.027 H 
ATOM     61  H   UNL     1     -48.895  27.420  21.071  1.00  0.00     0.027 H 
ATOM     62  H   UNL     1     -51.901  29.637  21.138  1.00  0.00     0.027 H 
ATOM     63  H   UNL     1     -50.361  29.606  20.247  1.00  0.00     0.027 H 
ATOM     64  H   UNL     1     -51.992  27.142  21.224  1.00  0.00     0.027 H 
ATOM     65  H   UNL     1     -51.003  27.246  19.744  1.00  0.00     0.027 H 
ENDBRANCH  51  55
ENDBRANCH  39  40
ENDBRANCH  36  39
ENDBRANCH   3  36
BRANCH   4  66
ATOM     66  O   UNL     1     -46.479  35.388  29.884  1.00  0.00    -0.387 OA
ATOM     67  H   UNL     1     -45.756  34.849  29.514  1.00  0.00     0.211 HD
ENDBRANCH   4  66
TORSDOF 9
ENDMDL
