MODEL 1
REMARK VINA RESULT:      -9.3      0.000      0.000
REMARK SMILES CCc1cc(N(C)CCOC)c2ccc(CCc3cncc(-n4cc(-c5ccn(C)n5)c5c(N)ncnc54)c3)cc2n1
REMARK SMILES IDX 3 1 4 2 5 3 12 4 13 5 14 6 15 7 40 8 41 9 42 10 2 15 1 18
REMARK SMILES IDX 6 22 7 23 8 27 9 30 10 33 11 34 16 38 17 41 18 44 19 45
REMARK SMILES IDX 39 46 20 47 22 49 21 51 23 53 24 54 38 55 25 56 32 58 37 59
REMARK SMILES IDX 33 60 36 61 35 62 26 64 27 65 31 66 28 67 29 69 30 71 34 75
REMARK H PARENT 4 11 13 12 14 13 40 14 2 16 2 17 1 19 1 20 1 21 7 24 7 25 7 26
REMARK H PARENT 8 28 8 29 9 31 9 32 11 35 11 36 11 37 16 39 16 40 17 42 17 43
REMARK H PARENT 19 48 39 50 21 52 24 57 36 63 27 68 28 70 30 72 30 73 30 74
REMARK H PARENT 34 76 34 77
REMARK Flexibility Score: inf
ROOT
ATOM      1  C   UNL     1     -46.282  30.554  23.035  1.00  0.00     0.043 A 
ATOM      2  C   UNL     1     -47.389  29.844  23.481  1.00  0.00    -0.016 A 
ATOM      3  C   UNL     1     -48.225  30.410  24.448  1.00  0.00     0.048 A 
ATOM      4  C   UNL     1     -47.907  31.702  24.944  1.00  0.00     0.024 A 
ATOM      5  C   UNL     1     -48.684  32.375  25.914  1.00  0.00    -0.050 A 
ATOM      6  C   UNL     1     -48.335  33.645  26.371  1.00  0.00    -0.058 A 
ATOM      7  C   UNL     1     -47.199  34.275  25.866  1.00  0.00    -0.045 A 
ATOM      8  C   UNL     1     -46.435  33.611  24.895  1.00  0.00    -0.032 A 
ATOM      9  C   UNL     1     -46.763  32.345  24.426  1.00  0.00     0.073 A 
ATOM     10  N   UNL     1     -45.973  31.788  23.493  1.00  0.00    -0.253 NA
ATOM     11  H   UNL     1     -47.581  28.853  23.086  1.00  0.00     0.066 H 
ATOM     12  H   UNL     1     -49.575  31.897  26.317  1.00  0.00     0.063 H 
ATOM     13  H   UNL     1     -48.959  34.130  27.119  1.00  0.00     0.063 H 
ATOM     14  H   UNL     1     -45.550  34.091  24.484  1.00  0.00     0.065 H 
ENDROOT
BRANCH   1  15
ATOM     15  C   UNL     1     -45.377  29.975  21.980  1.00  0.00    -0.013 C 
ATOM     16  H   UNL     1     -45.973  29.714  21.097  1.00  0.00     0.033 H 
ATOM     17  H   UNL     1     -44.652  30.731  21.654  1.00  0.00     0.033 H 
BRANCH  15  18
ATOM     18  C   UNL     1     -44.652  28.736  22.483  1.00  0.00    -0.060 C 
ATOM     19  H   UNL     1     -43.619  28.708  22.122  1.00  0.00     0.023 H 
ATOM     20  H   UNL     1     -44.631  28.729  23.578  1.00  0.00     0.023 H 
ATOM     21  H   UNL     1     -45.151  27.820  22.148  1.00  0.00     0.023 H 
ENDBRANCH  15  18
ENDBRANCH   1  15
BRANCH   3  22
ATOM     22  N   UNL     1     -49.355  29.713  24.958  1.00  0.00    -0.372 N 
BRANCH  22  23
ATOM     23  C   UNL     1     -50.489  29.636  24.037  1.00  0.00     0.007 C 
ATOM     24  H   UNL     1     -50.181  29.162  23.101  1.00  0.00     0.046 H 
ATOM     25  H   UNL     1     -50.891  30.625  23.796  1.00  0.00     0.046 H 
ATOM     26  H   UNL     1     -51.293  29.014  24.449  1.00  0.00     0.046 H 
ENDBRANCH  22  23
BRANCH  22  27
ATOM     27  C   UNL     1     -48.938  28.431  25.581  1.00  0.00     0.041 C 
ATOM     28  H   UNL     1     -47.845  28.340  25.530  1.00  0.00     0.052 H 
ATOM     29  H   UNL     1     -49.223  28.410  26.641  1.00  0.00     0.052 H 
BRANCH  27  30
ATOM     30  C   UNL     1     -49.583  27.209  24.904  1.00  0.00     0.064 C 
ATOM     31  H   UNL     1     -50.650  27.371  24.725  1.00  0.00     0.059 H 
ATOM     32  H   UNL     1     -49.093  27.048  23.935  1.00  0.00     0.059 H 
BRANCH  30  33
ATOM     33  O   UNL     1     -49.396  26.035  25.701  1.00  0.00    -0.383 OA
BRANCH  33  34
ATOM     34  C   UNL     1     -48.400  26.226  26.695  1.00  0.00     0.036 C 
ATOM     35  H   UNL     1     -47.500  26.667  26.256  1.00  0.00     0.053 H 
ATOM     36  H   UNL     1     -48.793  26.912  27.450  1.00  0.00     0.053 H 
ATOM     37  H   UNL     1     -48.156  25.276  27.179  1.00  0.00     0.053 H 
ENDBRANCH  33  34
ENDBRANCH  30  33
ENDBRANCH  27  30
ENDBRANCH  22  27
ENDBRANCH   3  22
BRANCH   7  38
ATOM     38  C   UNL     1     -46.816  35.659  26.327  1.00  0.00    -0.024 C 
ATOM     39  H   UNL     1     -46.942  36.365  25.496  1.00  0.00     0.032 H 
ATOM     40  H   UNL     1     -45.746  35.678  26.571  1.00  0.00     0.032 H 
BRANCH  38  41
ATOM     41  C   UNL     1     -47.647  36.097  27.536  1.00  0.00    -0.022 C 
ATOM     42  H   UNL     1     -48.648  35.647  27.499  1.00  0.00     0.032 H 
ATOM     43  H   UNL     1     -47.195  35.729  28.466  1.00  0.00     0.032 H 
BRANCH  41  44
ATOM     44  C   UNL     1     -47.781  37.595  27.605  1.00  0.00    -0.027 A 
ATOM     45  C   UNL     1     -48.921  38.187  28.129  1.00  0.00     0.030 A 
ATOM     46  C   UNL     1     -46.746  38.439  27.178  1.00  0.00    -0.032 A 
ATOM     47  N   UNL     1     -49.087  39.520  28.239  1.00  0.00    -0.262 NA
ATOM     48  H   UNL     1     -49.756  37.592  28.487  1.00  0.00     0.084 H 
ATOM     49  C   UNL     1     -46.878  39.833  27.273  1.00  0.00     0.066 A 
ATOM     50  H   UNL     1     -45.848  37.972  26.788  1.00  0.00     0.065 H 
ATOM     51  C   UNL     1     -48.068  40.310  27.811  1.00  0.00     0.051 A 
ATOM     52  H   UNL     1     -48.295  41.363  27.923  1.00  0.00     0.086 H 
BRANCH  49  53
ATOM     53  N   UNL     1     -45.833  40.709  26.835  1.00  0.00    -0.299 N 
ATOM     54  C   UNL     1     -45.903  41.531  25.726  1.00  0.00     0.021 A 
ATOM     55  C   UNL     1     -44.575  40.910  27.412  1.00  0.00     0.150 A 
ATOM     56  C   UNL     1     -44.737  42.256  25.612  1.00  0.00     0.033 A 
ATOM     57  H   UNL     1     -46.779  41.582  25.097  1.00  0.00     0.083 H 
ATOM     58  C   UNL     1     -43.866  41.842  26.650  1.00  0.00     0.071 A 
ATOM     59  N   UNL     1     -44.095  40.296  28.512  1.00  0.00    -0.218 NA
ATOM     60  C   UNL     1     -42.546  42.114  27.053  1.00  0.00     0.137 A 
ATOM     61  C   UNL     1     -42.846  40.659  28.816  1.00  0.00     0.120 A 
ATOM     62  N   UNL     1     -42.056  41.515  28.152  1.00  0.00    -0.219 NA
ATOM     63  H   UNL     1     -42.414  40.203  29.702  1.00  0.00     0.106 H 
BRANCH  56  64
ATOM     64  C   UNL     1     -44.479  43.260  24.584  1.00  0.00     0.095 A 
ATOM     65  C   UNL     1     -45.357  44.301  24.215  1.00  0.00    -0.016 A 
ATOM     66  N   UNL     1     -43.376  43.244  23.827  1.00  0.00    -0.173 NA
ATOM     67  C   UNL     1     -44.714  44.958  23.191  1.00  0.00     0.025 A 
ATOM     68  H   UNL     1     -46.328  44.537  24.630  1.00  0.00     0.066 H 
ATOM     69  N   UNL     1     -43.541  44.289  22.996  1.00  0.00    -0.275 N 
ATOM     70  H   UNL     1     -44.995  45.815  22.596  1.00  0.00     0.084 H 
BRANCH  69  71
ATOM     71  C   UNL     1     -42.524  44.586  22.019  1.00  0.00     0.030 C 
ATOM     72  H   UNL     1     -43.015  44.913  21.098  1.00  0.00     0.048 H 
ATOM     73  H   UNL     1     -41.940  43.680  21.842  1.00  0.00     0.048 H 
ATOM     74  H   UNL     1     -41.875  45.380  22.397  1.00  0.00     0.048 H 
ENDBRANCH  69  71
ENDBRANCH  56  64
BRANCH  60  75
ATOM     75  N   UNL     1     -41.665  42.942  26.369  1.00  0.00    -0.383 N 
ATOM     76  H   UNL     1     -42.096  43.465  25.618  1.00  0.00     0.158 HD
ATOM     77  H   UNL     1     -40.840  42.412  26.103  1.00  0.00     0.158 HD
ENDBRANCH  60  75
ENDBRANCH  49  53
ENDBRANCH  41  44
ENDBRANCH  38  41
ENDBRANCH   7  38
TORSDOF 15
ENDMDL
MODEL 2
REMARK VINA RESULT:      -8.9      1.695      2.753
REMARK SMILES CCc1cc(N(C)CCOC)c2ccc(CCc3cncc(-n4cc(-c5ccn(C)n5)c5c(N)ncnc54)c3)cc2n1
REMARK SMILES IDX 3 1 4 2 5 3 12 4 13 5 14 6 15 7 40 8 41 9 42 10 2 15 1 18
REMARK SMILES IDX 6 22 7 23 8 27 9 30 10 33 11 34 16 38 17 41 18 44 19 45
REMARK SMILES IDX 39 46 20 47 22 49 21 51 23 53 24 54 38 55 25 56 32 58 37 59
REMARK SMILES IDX 33 60 36 61 35 62 26 64 27 65 31 66 28 67 29 69 30 71 34 75
REMARK H PARENT 4 11 13 12 14 13 40 14 2 16 2 17 1 19 1 20 1 21 7 24 7 25 7 26
REMARK H PARENT 8 28 8 29 9 31 9 32 11 35 11 36 11 37 16 39 16 40 17 42 17 43
REMARK H PARENT 19 48 39 50 21 52 24 57 36 63 27 68 28 70 30 72 30 73 30 74
REMARK H PARENT 34 76 34 77
REMARK Flexibility Score: inf
ROOT
ATOM      1  C   UNL     1     -46.444  30.978  21.717  1.00  0.00     0.043 A 
ATOM      2  C   UNL     1     -47.415  30.003  21.906  1.00  0.00    -0.016 A 
ATOM      3  C   UNL     1     -48.097  29.940  23.125  1.00  0.00     0.048 A 
ATOM      4  C   UNL     1     -47.766  30.883  24.134  1.00  0.00     0.024 A 
ATOM      5  C   UNL     1     -48.395  30.920  25.399  1.00  0.00    -0.050 A 
ATOM      6  C   UNL     1     -48.041  31.866  26.360  1.00  0.00    -0.058 A 
ATOM      7  C   UNL     1     -47.048  32.802  26.077  1.00  0.00    -0.045 A 
ATOM      8  C   UNL     1     -46.433  32.772  24.816  1.00  0.00    -0.032 A 
ATOM      9  C   UNL     1     -46.768  31.837  23.845  1.00  0.00     0.073 A 
ATOM     10  N   UNL     1     -46.127  31.886  22.666  1.00  0.00    -0.253 NA
ATOM     11  H   UNL     1     -47.619  29.294  21.113  1.00  0.00     0.066 H 
ATOM     12  H   UNL     1     -49.175  30.197  25.635  1.00  0.00     0.063 H 
ATOM     13  H   UNL     1     -48.548  31.862  27.322  1.00  0.00     0.063 H 
ATOM     14  H   UNL     1     -45.660  33.500  24.576  1.00  0.00     0.065 H 
ENDROOT
BRANCH   1  15
ATOM     15  C   UNL     1     -45.709  31.080  20.406  1.00  0.00    -0.013 C 
ATOM     16  H   UNL     1     -44.671  31.381  20.598  1.00  0.00     0.033 H 
ATOM     17  H   UNL     1     -45.663  30.095  19.926  1.00  0.00     0.033 H 
BRANCH  15  18
ATOM     18  C   UNL     1     -46.364  32.088  19.475  1.00  0.00    -0.060 C 
ATOM     19  H   UNL     1     -46.489  31.675  18.469  1.00  0.00     0.023 H 
ATOM     20  H   UNL     1     -47.352  32.368  19.855  1.00  0.00     0.023 H 
ATOM     21  H   UNL     1     -45.762  33.000  19.391  1.00  0.00     0.023 H 
ENDBRANCH  15  18
ENDBRANCH   1  15
BRANCH   3  22
ATOM     22  N   UNL     1     -49.079  28.944  23.380  1.00  0.00    -0.372 N 
BRANCH  22  23
ATOM     23  C   UNL     1     -50.134  28.858  22.370  1.00  0.00     0.007 C 
ATOM     24  H   UNL     1     -49.810  29.344  21.446  1.00  0.00     0.046 H 
ATOM     25  H   UNL     1     -51.059  29.344  22.699  1.00  0.00     0.046 H 
ATOM     26  H   UNL     1     -50.352  27.815  22.112  1.00  0.00     0.046 H 
ENDBRANCH  22  23
BRANCH  22  27
ATOM     27  C   UNL     1     -48.434  27.659  23.753  1.00  0.00     0.041 C 
ATOM     28  H   UNL     1     -48.333  27.030  22.860  1.00  0.00     0.052 H 
ATOM     29  H   UNL     1     -47.426  27.839  24.149  1.00  0.00     0.052 H 
BRANCH  27  30
ATOM     30  C   UNL     1     -49.224  26.893  24.828  1.00  0.00     0.064 C 
ATOM     31  H   UNL     1     -50.292  27.126  24.778  1.00  0.00     0.059 H 
ATOM     32  H   UNL     1     -49.100  25.817  24.653  1.00  0.00     0.059 H 
BRANCH  30  33
ATOM     33  O   UNL     1     -48.722  27.195  26.133  1.00  0.00    -0.383 OA
BRANCH  33  34
ATOM     34  C   UNL     1     -48.083  26.074  26.726  1.00  0.00     0.036 C 
ATOM     35  H   UNL     1     -47.890  26.260  27.787  1.00  0.00     0.053 H 
ATOM     36  H   UNL     1     -48.751  25.212  26.639  1.00  0.00     0.053 H 
ATOM     37  H   UNL     1     -47.149  25.847  26.206  1.00  0.00     0.053 H 
ENDBRANCH  33  34
ENDBRANCH  30  33
ENDBRANCH  27  30
ENDBRANCH  22  27
ENDBRANCH   3  22
BRANCH   7  38
ATOM     38  C   UNL     1     -46.665  33.850  27.091  1.00  0.00    -0.024 C 
ATOM     39  H   UNL     1     -45.572  33.940  27.124  1.00  0.00     0.032 H 
ATOM     40  H   UNL     1     -46.965  33.515  28.092  1.00  0.00     0.032 H 
BRANCH  38  41
ATOM     41  C   UNL     1     -47.305  35.203  26.767  1.00  0.00    -0.022 C 
ATOM     42  H   UNL     1     -47.322  35.371  25.682  1.00  0.00     0.032 H 
ATOM     43  H   UNL     1     -48.357  35.215  27.082  1.00  0.00     0.032 H 
BRANCH  41  44
ATOM     44  C   UNL     1     -46.573  36.338  27.432  1.00  0.00    -0.027 A 
ATOM     45  C   UNL     1     -45.869  36.140  28.611  1.00  0.00     0.030 A 
ATOM     46  C   UNL     1     -46.548  37.620  26.865  1.00  0.00    -0.032 A 
ATOM     47  N   UNL     1     -45.175  37.110  29.239  1.00  0.00    -0.262 NA
ATOM     48  H   UNL     1     -45.838  35.170  29.099  1.00  0.00     0.084 H 
ATOM     49  C   UNL     1     -45.839  38.660  27.487  1.00  0.00     0.066 A 
ATOM     50  H   UNL     1     -47.083  37.766  25.933  1.00  0.00     0.065 H 
ATOM     51  C   UNL     1     -45.175  38.343  28.667  1.00  0.00     0.051 A 
ATOM     52  H   UNL     1     -44.607  39.061  29.246  1.00  0.00     0.086 H 
BRANCH  49  53
ATOM     53  N   UNL     1     -45.808  39.977  26.923  1.00  0.00    -0.299 N 
ATOM     54  C   UNL     1     -44.675  40.603  26.439  1.00  0.00     0.021 A 
ATOM     55  C   UNL     1     -46.872  40.868  26.750  1.00  0.00     0.150 A 
ATOM     56  C   UNL     1     -45.007  41.846  25.947  1.00  0.00     0.033 A 
ATOM     57  H   UNL     1     -43.705  40.130  26.441  1.00  0.00     0.083 H 
ATOM     58  C   UNL     1     -46.391  42.047  26.176  1.00  0.00     0.071 A 
ATOM     59  N   UNL     1     -48.157  40.652  27.098  1.00  0.00    -0.218 NA
ATOM     60  C   UNL     1     -47.323  43.085  25.993  1.00  0.00     0.137 A 
ATOM     61  C   UNL     1     -48.952  41.696  26.844  1.00  0.00     0.120 A 
ATOM     62  N   UNL     1     -48.609  42.883  26.327  1.00  0.00    -0.219 NA
ATOM     63  H   UNL     1     -50.002  41.571  27.094  1.00  0.00     0.106 H 
BRANCH  56  64
ATOM     64  C   UNL     1     -44.069  42.769  25.314  1.00  0.00     0.095 A 
ATOM     65  C   UNL     1     -43.349  43.787  25.975  1.00  0.00    -0.016 A 
ATOM     66  N   UNL     1     -43.849  42.775  23.995  1.00  0.00    -0.173 NA
ATOM     67  C   UNL     1     -42.636  44.416  24.980  1.00  0.00     0.025 A 
ATOM     68  H   UNL     1     -43.353  44.035  27.028  1.00  0.00     0.066 H 
ATOM     69  N   UNL     1     -42.970  43.779  23.821  1.00  0.00    -0.275 N 
ATOM     70  H   UNL     1     -41.948  45.248  25.003  1.00  0.00     0.084 H 
BRANCH  69  71
ATOM     71  C   UNL     1     -42.494  44.084  22.495  1.00  0.00     0.030 C 
ATOM     72  H   UNL     1     -43.206  43.679  21.771  1.00  0.00     0.048 H 
ATOM     73  H   UNL     1     -41.511  43.622  22.366  1.00  0.00     0.048 H 
ATOM     74  H   UNL     1     -42.415  45.167  22.375  1.00  0.00     0.048 H 
ENDBRANCH  69  71
ENDBRANCH  56  64
BRANCH  60  75
ATOM     75  N   UNL     1     -47.011  44.354  25.520  1.00  0.00    -0.383 N 
ATOM     76  H   UNL     1     -46.409  44.349  24.706  1.00  0.00     0.158 HD
ATOM     77  H   UNL     1     -46.686  44.931  26.290  1.00  0.00     0.158 HD
ENDBRANCH  60  75
ENDBRANCH  49  53
ENDBRANCH  41  44
ENDBRANCH  38  41
ENDBRANCH   7  38
TORSDOF 15
ENDMDL
MODEL 3
REMARK VINA RESULT:      -8.5      1.621      2.152
REMARK SMILES CCc1cc(N(C)CCOC)c2ccc(CCc3cncc(-n4cc(-c5ccn(C)n5)c5c(N)ncnc54)c3)cc2n1
REMARK SMILES IDX 3 1 4 2 5 3 12 4 13 5 14 6 15 7 40 8 41 9 42 10 2 15 1 18
REMARK SMILES IDX 6 22 7 23 8 27 9 30 10 33 11 34 16 38 17 41 18 44 19 45
REMARK SMILES IDX 39 46 20 47 22 49 21 51 23 53 24 54 38 55 25 56 32 58 37 59
REMARK SMILES IDX 33 60 36 61 35 62 26 64 27 65 31 66 28 67 29 69 30 71 34 75
REMARK H PARENT 4 11 13 12 14 13 40 14 2 16 2 17 1 19 1 20 1 21 7 24 7 25 7 26
REMARK H PARENT 8 28 8 29 9 31 9 32 11 35 11 36 11 37 16 39 16 40 17 42 17 43
REMARK H PARENT 19 48 39 50 21 52 24 57 36 63 27 68 28 70 30 72 30 73 30 74
REMARK H PARENT 34 76 34 77
REMARK Flexibility Score: inf
ROOT
ATOM      1  C   UNL     1     -48.672  29.942  21.742  1.00  0.00     0.043 A 
ATOM      2  C   UNL     1     -49.295  29.059  22.615  1.00  0.00    -0.016 A 
ATOM      3  C   UNL     1     -49.219  29.286  23.992  1.00  0.00     0.048 A 
ATOM      4  C   UNL     1     -48.498  30.420  24.451  1.00  0.00     0.024 A 
ATOM      5  C   UNL     1     -48.362  30.753  25.818  1.00  0.00    -0.050 A 
ATOM      6  C   UNL     1     -47.648  31.879  26.225  1.00  0.00    -0.058 A 
ATOM      7  C   UNL     1     -47.052  32.702  25.272  1.00  0.00    -0.045 A 
ATOM      8  C   UNL     1     -47.197  32.377  23.915  1.00  0.00    -0.032 A 
ATOM      9  C   UNL     1     -47.903  31.260  23.487  1.00  0.00     0.073 A 
ATOM     10  N   UNL     1     -47.990  31.029  22.167  1.00  0.00    -0.253 NA
ATOM     11  H   UNL     1     -49.818  28.198  22.217  1.00  0.00     0.066 H 
ATOM     12  H   UNL     1     -48.825  30.121  26.575  1.00  0.00     0.063 H 
ATOM     13  H   UNL     1     -47.566  32.101  27.286  1.00  0.00     0.063 H 
ATOM     14  H   UNL     1     -46.744  33.013  23.156  1.00  0.00     0.065 H 
ENDROOT
BRANCH   1  15
ATOM     15  C   UNL     1     -48.755  29.731  20.253  1.00  0.00    -0.013 C 
ATOM     16  H   UNL     1     -48.067  28.928  19.964  1.00  0.00     0.033 H 
ATOM     17  H   UNL     1     -49.762  29.394  19.980  1.00  0.00     0.033 H 
BRANCH  15  18
ATOM     18  C   UNL     1     -48.401  30.998  19.489  1.00  0.00    -0.060 C 
ATOM     19  H   UNL     1     -48.702  31.892  20.044  1.00  0.00     0.023 H 
ATOM     20  H   UNL     1     -47.321  31.049  19.321  1.00  0.00     0.023 H 
ATOM     21  H   UNL     1     -48.898  31.025  18.513  1.00  0.00     0.023 H 
ENDBRANCH  15  18
ENDBRANCH   1  15
BRANCH   3  22
ATOM     22  N   UNL     1     -49.815  28.397  24.929  1.00  0.00    -0.372 N 
BRANCH  22  23
ATOM     23  C   UNL     1     -50.836  27.515  24.364  1.00  0.00     0.007 C 
ATOM     24  H   UNL     1     -51.834  27.895  24.602  1.00  0.00     0.046 H 
ATOM     25  H   UNL     1     -50.762  26.495  24.758  1.00  0.00     0.046 H 
ATOM     26  H   UNL     1     -50.770  27.481  23.270  1.00  0.00     0.046 H 
ENDBRANCH  22  23
BRANCH  22  27
ATOM     27  C   UNL     1     -48.773  27.737  25.756  1.00  0.00     0.041 C 
ATOM     28  H   UNL     1     -48.226  28.498  26.327  1.00  0.00     0.052 H 
ATOM     29  H   UNL     1     -49.236  27.050  26.477  1.00  0.00     0.052 H 
BRANCH  27  30
ATOM     30  C   UNL     1     -47.779  26.921  24.912  1.00  0.00     0.064 C 
ATOM     31  H   UNL     1     -48.152  26.770  23.894  1.00  0.00     0.059 H 
ATOM     32  H   UNL     1     -46.834  27.476  24.851  1.00  0.00     0.059 H 
BRANCH  30  33
ATOM     33  O   UNL     1     -47.517  25.656  25.526  1.00  0.00    -0.383 OA
BRANCH  33  34
ATOM     34  C   UNL     1     -48.087  25.571  26.824  1.00  0.00     0.036 C 
ATOM     35  H   UNL     1     -47.770  26.420  27.437  1.00  0.00     0.053 H 
ATOM     36  H   UNL     1     -49.175  25.600  26.725  1.00  0.00     0.053 H 
ATOM     37  H   UNL     1     -47.803  24.631  27.306  1.00  0.00     0.053 H 
ENDBRANCH  33  34
ENDBRANCH  30  33
ENDBRANCH  27  30
ENDBRANCH  22  27
ENDBRANCH   3  22
BRANCH   7  38
ATOM     38  C   UNL     1     -46.295  33.939  25.686  1.00  0.00    -0.024 C 
ATOM     39  H   UNL     1     -46.618  34.785  25.067  1.00  0.00     0.032 H 
ATOM     40  H   UNL     1     -45.228  33.803  25.467  1.00  0.00     0.032 H 
BRANCH  38  41
ATOM     41  C   UNL     1     -46.500  34.250  27.171  1.00  0.00    -0.022 C 
ATOM     42  H   UNL     1     -47.233  33.561  27.611  1.00  0.00     0.032 H 
ATOM     43  H   UNL     1     -45.570  34.083  27.730  1.00  0.00     0.032 H 
BRANCH  41  44
ATOM     44  C   UNL     1     -46.961  35.667  27.384  1.00  0.00    -0.027 A 
ATOM     45  C   UNL     1     -48.291  35.951  27.656  1.00  0.00     0.030 A 
ATOM     46  C   UNL     1     -46.060  36.740  27.350  1.00  0.00    -0.032 A 
ATOM     47  N   UNL     1     -48.759  37.196  27.879  1.00  0.00    -0.262 NA
ATOM     48  H   UNL     1     -49.041  35.167  27.707  1.00  0.00     0.084 H 
ATOM     49  C   UNL     1     -46.504  38.052  27.575  1.00  0.00     0.066 A 
ATOM     50  H   UNL     1     -45.017  36.512  27.157  1.00  0.00     0.065 H 
ATOM     51  C   UNL     1     -47.861  38.214  27.833  1.00  0.00     0.051 A 
ATOM     52  H   UNL     1     -48.327  39.176  28.009  1.00  0.00     0.086 H 
BRANCH  49  53
ATOM     53  N   UNL     1     -45.596  39.159  27.538  1.00  0.00    -0.299 N 
ATOM     54  C   UNL     1     -45.605  40.157  26.581  1.00  0.00     0.021 A 
ATOM     55  C   UNL     1     -44.555  39.454  28.423  1.00  0.00     0.150 A 
ATOM     56  C   UNL     1     -44.618  41.077  26.860  1.00  0.00     0.033 A 
ATOM     57  H   UNL     1     -46.323  40.181  25.775  1.00  0.00     0.083 H 
ATOM     58  C   UNL     1     -43.914  40.622  28.003  1.00  0.00     0.071 A 
ATOM     59  N   UNL     1     -44.196  38.728  29.501  1.00  0.00    -0.218 NA
ATOM     60  C   UNL     1     -42.791  41.029  28.747  1.00  0.00     0.137 A 
ATOM     61  C   UNL     1     -43.140  39.231  30.147  1.00  0.00     0.120 A 
ATOM     62  N   UNL     1     -42.426  40.320  29.828  1.00  0.00    -0.219 NA
ATOM     63  H   UNL     1     -42.815  38.691  31.031  1.00  0.00     0.106 H 
BRANCH  56  64
ATOM     64  C   UNL     1     -44.368  42.289  26.087  1.00  0.00     0.095 A 
ATOM     65  C   UNL     1     -44.216  43.587  26.622  1.00  0.00    -0.016 A 
ATOM     66  N   UNL     1     -44.322  42.291  24.750  1.00  0.00    -0.173 NA
ATOM     67  C   UNL     1     -44.041  44.401  25.528  1.00  0.00     0.025 A 
ATOM     68  H   UNL     1     -44.238  43.889  27.661  1.00  0.00     0.066 H 
ATOM     69  N   UNL     1     -44.116  43.584  24.438  1.00  0.00    -0.275 N 
ATOM     70  H   UNL     1     -43.887  45.467  25.439  1.00  0.00     0.084 H 
BRANCH  69  71
ATOM     71  C   UNL     1     -44.009  43.970  23.053  1.00  0.00     0.030 C 
ATOM     72  H   UNL     1     -44.751  43.409  22.479  1.00  0.00     0.048 H 
ATOM     73  H   UNL     1     -42.999  43.737  22.707  1.00  0.00     0.048 H 
ATOM     74  H   UNL     1     -44.197  45.043  22.958  1.00  0.00     0.048 H 
ENDBRANCH  69  71
ENDBRANCH  56  64
BRANCH  60  75
ATOM     75  N   UNL     1     -41.980  42.110  28.427  1.00  0.00    -0.383 N 
ATOM     76  H   UNL     1     -42.179  42.943  28.967  1.00  0.00     0.158 HD
ATOM     77  H   UNL     1     -41.974  42.243  27.420  1.00  0.00     0.158 HD
ENDBRANCH  60  75
ENDBRANCH  49  53
ENDBRANCH  41  44
ENDBRANCH  38  41
ENDBRANCH   7  38
TORSDOF 15
ENDMDL
MODEL 4
REMARK VINA RESULT:      -8.5      1.791      2.314
REMARK SMILES CCc1cc(N(C)CCOC)c2ccc(CCc3cncc(-n4cc(-c5ccn(C)n5)c5c(N)ncnc54)c3)cc2n1
REMARK SMILES IDX 3 1 4 2 5 3 12 4 13 5 14 6 15 7 40 8 41 9 42 10 2 15 1 18
REMARK SMILES IDX 6 22 7 23 8 27 9 30 10 33 11 34 16 38 17 41 18 44 19 45
REMARK SMILES IDX 39 46 20 47 22 49 21 51 23 53 24 54 38 55 25 56 32 58 37 59
REMARK SMILES IDX 33 60 36 61 35 62 26 64 27 65 31 66 28 67 29 69 30 71 34 75
REMARK H PARENT 4 11 13 12 14 13 40 14 2 16 2 17 1 19 1 20 1 21 7 24 7 25 7 26
REMARK H PARENT 8 28 8 29 9 31 9 32 11 35 11 36 11 37 16 39 16 40 17 42 17 43
REMARK H PARENT 19 48 39 50 21 52 24 57 36 63 27 68 28 70 30 72 30 73 30 74
REMARK H PARENT 34 76 34 77
REMARK Flexibility Score: inf
ROOT
ATOM      1  C   UNL     1     -46.428  31.020  22.057  1.00  0.00     0.043 A 
ATOM      2  C   UNL     1     -47.413  30.072  22.304  1.00  0.00    -0.016 A 
ATOM      3  C   UNL     1     -48.110  30.106  23.515  1.00  0.00     0.048 A 
ATOM      4  C   UNL     1     -47.781  31.116  24.457  1.00  0.00     0.024 A 
ATOM      5  C   UNL     1     -48.424  31.252  25.708  1.00  0.00    -0.050 A 
ATOM      6  C   UNL     1     -48.070  32.261  26.602  1.00  0.00    -0.058 A 
ATOM      7  C   UNL     1     -47.063  33.163  26.264  1.00  0.00    -0.045 A 
ATOM      8  C   UNL     1     -46.433  33.034  25.018  1.00  0.00    -0.032 A 
ATOM      9  C   UNL     1     -46.768  32.035  24.112  1.00  0.00     0.073 A 
ATOM     10  N   UNL     1     -46.111  31.991  22.941  1.00  0.00    -0.253 NA
ATOM     11  H   UNL     1     -47.616  29.309  21.562  1.00  0.00     0.066 H 
ATOM     12  H   UNL     1     -49.215  30.556  25.985  1.00  0.00     0.063 H 
ATOM     13  H   UNL     1     -48.589  32.332  27.555  1.00  0.00     0.063 H 
ATOM     14  H   UNL     1     -45.649  33.734  24.735  1.00  0.00     0.065 H 
ENDROOT
BRANCH   1  15
ATOM     15  C   UNL     1     -45.676  31.018  20.752  1.00  0.00    -0.013 C 
ATOM     16  H   UNL     1     -44.608  31.174  20.951  1.00  0.00     0.033 H 
ATOM     17  H   UNL     1     -45.762  30.036  20.272  1.00  0.00     0.033 H 
BRANCH  15  18
ATOM     18  C   UNL     1     -46.179  32.106  19.815  1.00  0.00    -0.060 C 
ATOM     19  H   UNL     1     -47.067  31.776  19.267  1.00  0.00     0.023 H 
ATOM     20  H   UNL     1     -46.443  33.003  20.385  1.00  0.00     0.023 H 
ATOM     21  H   UNL     1     -45.414  32.383  19.081  1.00  0.00     0.023 H 
ENDBRANCH  15  18
ENDBRANCH   1  15
BRANCH   3  22
ATOM     22  N   UNL     1     -49.107  29.141  23.829  1.00  0.00    -0.372 N 
BRANCH  22  23
ATOM     23  C   UNL     1     -50.073  28.895  22.758  1.00  0.00     0.007 C 
ATOM     24  H   UNL     1     -50.358  27.839  22.744  1.00  0.00     0.046 H 
ATOM     25  H   UNL     1     -49.667  29.146  21.772  1.00  0.00     0.046 H 
ATOM     26  H   UNL     1     -50.997  29.463  22.919  1.00  0.00     0.046 H 
ENDBRANCH  22  23
BRANCH  22  27
ATOM     27  C   UNL     1     -48.492  27.934  24.436  1.00  0.00     0.041 C 
ATOM     28  H   UNL     1     -48.161  27.255  23.640  1.00  0.00     0.052 H 
ATOM     29  H   UNL     1     -47.607  28.211  25.025  1.00  0.00     0.052 H 
BRANCH  27  30
ATOM     30  C   UNL     1     -49.458  27.187  25.373  1.00  0.00     0.064 C 
ATOM     31  H   UNL     1     -49.476  27.642  26.368  1.00  0.00     0.059 H 
ATOM     32  H   UNL     1     -50.469  27.245  24.950  1.00  0.00     0.059 H 
BRANCH  30  33
ATOM     33  O   UNL     1     -49.093  25.808  25.475  1.00  0.00    -0.383 OA
BRANCH  33  34
ATOM     34  C   UNL     1     -48.089  25.598  26.457  1.00  0.00     0.036 C 
ATOM     35  H   UNL     1     -47.542  26.527  26.649  1.00  0.00     0.053 H 
ATOM     36  H   UNL     1     -48.575  25.281  27.384  1.00  0.00     0.053 H 
ATOM     37  H   UNL     1     -47.399  24.813  26.137  1.00  0.00     0.053 H 
ENDBRANCH  33  34
ENDBRANCH  30  33
ENDBRANCH  27  30
ENDBRANCH  22  27
ENDBRANCH   3  22
BRANCH   7  38
ATOM     38  C   UNL     1     -46.680  34.278  27.204  1.00  0.00    -0.024 C 
ATOM     39  H   UNL     1     -45.630  34.158  27.500  1.00  0.00     0.032 H 
ATOM     40  H   UNL     1     -47.260  34.188  28.132  1.00  0.00     0.032 H 
BRANCH  38  41
ATOM     41  C   UNL     1     -46.905  35.652  26.566  1.00  0.00    -0.022 C 
ATOM     42  H   UNL     1     -46.522  35.665  25.537  1.00  0.00     0.032 H 
ATOM     43  H   UNL     1     -47.979  35.864  26.481  1.00  0.00     0.032 H 
BRANCH  41  44
ATOM     44  C   UNL     1     -46.241  36.747  27.356  1.00  0.00    -0.027 A 
ATOM     45  C   UNL     1     -45.676  36.491  28.597  1.00  0.00     0.030 A 
ATOM     46  C   UNL     1     -46.140  38.051  26.850  1.00  0.00    -0.032 A 
ATOM     47  N   UNL     1     -45.047  37.425  29.338  1.00  0.00    -0.262 NA
ATOM     48  H   UNL     1     -45.709  35.502  29.043  1.00  0.00     0.084 H 
ATOM     49  C   UNL     1     -45.494  39.054  27.590  1.00  0.00     0.066 A 
ATOM     50  H   UNL     1     -46.565  38.243  25.871  1.00  0.00     0.065 H 
ATOM     51  C   UNL     1     -44.971  38.680  28.823  1.00  0.00     0.051 A 
ATOM     52  H   UNL     1     -44.464  39.365  29.491  1.00  0.00     0.086 H 
BRANCH  49  53
ATOM     53  N   UNL     1     -45.388  40.392  27.090  1.00  0.00    -0.299 N 
ATOM     54  C   UNL     1     -46.443  41.139  26.599  1.00  0.00     0.021 A 
ATOM     55  C   UNL     1     -44.245  41.192  26.997  1.00  0.00     0.150 A 
ATOM     56  C   UNL     1     -45.994  42.388  26.229  1.00  0.00     0.033 A 
ATOM     57  H   UNL     1     -47.454  40.762  26.565  1.00  0.00     0.083 H 
ATOM     58  C   UNL     1     -44.592  42.423  26.435  1.00  0.00     0.071 A 
ATOM     59  N   UNL     1     -42.995  40.842  27.363  1.00  0.00    -0.218 NA
ATOM     60  C   UNL     1     -43.543  43.331  26.206  1.00  0.00     0.137 A 
ATOM     61  C   UNL     1     -42.091  41.798  27.128  1.00  0.00     0.120 A 
ATOM     62  N   UNL     1     -42.293  43.000  26.572  1.00  0.00    -0.219 NA
ATOM     63  H   UNL     1     -41.068  41.572  27.416  1.00  0.00     0.106 H 
BRANCH  56  64
ATOM     64  C   UNL     1     -46.843  43.458  25.712  1.00  0.00     0.095 A 
ATOM     65  C   UNL     1     -48.099  43.834  26.235  1.00  0.00    -0.016 A 
ATOM     66  N   UNL     1     -46.525  44.160  24.619  1.00  0.00    -0.173 NA
ATOM     67  C   UNL     1     -48.536  44.844  25.409  1.00  0.00     0.025 A 
ATOM     68  H   UNL     1     -48.618  43.422  27.090  1.00  0.00     0.066 H 
ATOM     69  N   UNL     1     -47.566  44.998  24.462  1.00  0.00    -0.275 N 
ATOM     70  H   UNL     1     -49.437  45.439  25.413  1.00  0.00     0.084 H 
BRANCH  69  71
ATOM     71  C   UNL     1     -47.569  45.927  23.360  1.00  0.00     0.030 C 
ATOM     72  H   UNL     1     -47.818  45.380  22.447  1.00  0.00     0.048 H 
ATOM     73  H   UNL     1     -46.573  46.372  23.281  1.00  0.00     0.048 H 
ATOM     74  H   UNL     1     -48.312  46.708  23.542  1.00  0.00     0.048 H 
ENDBRANCH  69  71
ENDBRANCH  56  64
BRANCH  60  75
ATOM     75  N   UNL     1     -43.685  44.562  25.577  1.00  0.00    -0.383 N 
ATOM     76  H   UNL     1     -42.839  45.119  25.575  1.00  0.00     0.158 HD
ATOM     77  H   UNL     1     -44.508  45.034  25.940  1.00  0.00     0.158 HD
ENDBRANCH  60  75
ENDBRANCH  49  53
ENDBRANCH  41  44
ENDBRANCH  38  41
ENDBRANCH   7  38
TORSDOF 15
ENDMDL
MODEL 5
REMARK VINA RESULT:      -8.2      2.085      2.793
REMARK SMILES CCc1cc(N(C)CCOC)c2ccc(CCc3cncc(-n4cc(-c5ccn(C)n5)c5c(N)ncnc54)c3)cc2n1
REMARK SMILES IDX 3 1 4 2 5 3 12 4 13 5 14 6 15 7 40 8 41 9 42 10 2 15 1 18
REMARK SMILES IDX 6 22 7 23 8 27 9 30 10 33 11 34 16 38 17 41 18 44 19 45
REMARK SMILES IDX 39 46 20 47 22 49 21 51 23 53 24 54 38 55 25 56 32 58 37 59
REMARK SMILES IDX 33 60 36 61 35 62 26 64 27 65 31 66 28 67 29 69 30 71 34 75
REMARK H PARENT 4 11 13 12 14 13 40 14 2 16 2 17 1 19 1 20 1 21 7 24 7 25 7 26
REMARK H PARENT 8 28 8 29 9 31 9 32 11 35 11 36 11 37 16 39 16 40 17 42 17 43
REMARK H PARENT 19 48 39 50 21 52 24 57 36 63 27 68 28 70 30 72 30 73 30 74
REMARK H PARENT 34 76 34 77
REMARK Flexibility Score: inf
ROOT
ATOM      1  C   UNL     1     -46.507  30.188  22.582  1.00  0.00     0.043 A 
ATOM      2  C   UNL     1     -47.865  29.942  22.419  1.00  0.00    -0.016 A 
ATOM      3  C   UNL     1     -48.782  30.560  23.274  1.00  0.00     0.048 A 
ATOM      4  C   UNL     1     -48.286  31.423  24.287  1.00  0.00     0.024 A 
ATOM      5  C   UNL     1     -49.120  32.107  25.202  1.00  0.00    -0.050 A 
ATOM      6  C   UNL     1     -48.590  32.947  26.180  1.00  0.00    -0.058 A 
ATOM      7  C   UNL     1     -47.211  33.125  26.267  1.00  0.00    -0.045 A 
ATOM      8  C   UNL     1     -46.385  32.455  25.352  1.00  0.00    -0.032 A 
ATOM      9  C   UNL     1     -46.891  31.612  24.370  1.00  0.00     0.073 A 
ATOM     10  N   UNL     1     -46.024  31.013  23.537  1.00  0.00    -0.253 NA
ATOM     11  H   UNL     1     -48.193  29.262  21.643  1.00  0.00     0.066 H 
ATOM     12  H   UNL     1     -50.200  31.980  25.145  1.00  0.00     0.063 H 
ATOM     13  H   UNL     1     -49.265  33.455  26.865  1.00  0.00     0.063 H 
ATOM     14  H   UNL     1     -45.306  32.588  25.400  1.00  0.00     0.065 H 
ENDROOT
BRANCH   1  15
ATOM     15  C   UNL     1     -45.499  29.551  21.661  1.00  0.00    -0.013 C 
ATOM     16  H   UNL     1     -46.027  28.944  20.915  1.00  0.00     0.033 H 
ATOM     17  H   UNL     1     -44.958  30.326  21.106  1.00  0.00     0.033 H 
BRANCH  15  18
ATOM     18  C   UNL     1     -44.521  28.673  22.426  1.00  0.00    -0.060 C 
ATOM     19  H   UNL     1     -43.819  28.178  21.747  1.00  0.00     0.023 H 
ATOM     20  H   UNL     1     -43.943  29.277  23.133  1.00  0.00     0.023 H 
ATOM     21  H   UNL     1     -45.044  27.895  22.994  1.00  0.00     0.023 H 
ENDBRANCH  15  18
ENDBRANCH   1  15
BRANCH   3  22
ATOM     22  N   UNL     1     -50.180  30.320  23.168  1.00  0.00    -0.372 N 
BRANCH  22  23
ATOM     23  C   UNL     1     -50.729  29.458  24.215  1.00  0.00     0.007 C 
ATOM     24  H   UNL     1     -49.923  29.076  24.849  1.00  0.00     0.046 H 
ATOM     25  H   UNL     1     -51.267  28.599  23.801  1.00  0.00     0.046 H 
ATOM     26  H   UNL     1     -51.403  30.017  24.875  1.00  0.00     0.046 H 
ENDBRANCH  22  23
BRANCH  22  27
ATOM     27  C   UNL     1     -50.910  31.590  22.925  1.00  0.00     0.041 C 
ATOM     28  H   UNL     1     -51.950  31.480  23.258  1.00  0.00     0.052 H 
ATOM     29  H   UNL     1     -50.460  32.407  23.504  1.00  0.00     0.052 H 
BRANCH  27  30
ATOM     30  C   UNL     1     -50.892  32.006  21.443  1.00  0.00     0.064 C 
ATOM     31  H   UNL     1     -51.597  32.820  21.251  1.00  0.00     0.059 H 
ATOM     32  H   UNL     1     -49.884  32.359  21.192  1.00  0.00     0.059 H 
BRANCH  30  33
ATOM     33  O   UNL     1     -51.198  30.888  20.604  1.00  0.00    -0.383 OA
BRANCH  33  34
ATOM     34  C   UNL     1     -50.283  30.774  19.524  1.00  0.00     0.036 C 
ATOM     35  H   UNL     1     -50.291  29.756  19.122  1.00  0.00     0.053 H 
ATOM     36  H   UNL     1     -50.594  31.463  18.734  1.00  0.00     0.053 H 
ATOM     37  H   UNL     1     -49.274  31.044  19.847  1.00  0.00     0.053 H 
ENDBRANCH  33  34
ENDBRANCH  30  33
ENDBRANCH  27  30
ENDBRANCH  22  27
ENDBRANCH   3  22
BRANCH   7  38
ATOM     38  C   UNL     1     -46.616  34.048  27.300  1.00  0.00    -0.024 C 
ATOM     39  H   UNL     1     -45.563  34.235  27.056  1.00  0.00     0.032 H 
ATOM     40  H   UNL     1     -46.607  33.545  28.276  1.00  0.00     0.032 H 
BRANCH  38  41
ATOM     41  C   UNL     1     -47.390  35.366  27.387  1.00  0.00    -0.022 C 
ATOM     42  H   UNL     1     -47.527  35.798  26.386  1.00  0.00     0.032 H 
ATOM     43  H   UNL     1     -48.404  35.191  27.770  1.00  0.00     0.032 H 
BRANCH  41  44
ATOM     44  C   UNL     1     -46.689  36.366  28.266  1.00  0.00    -0.027 A 
ATOM     45  C   UNL     1     -46.561  36.151  29.631  1.00  0.00     0.030 A 
ATOM     46  C   UNL     1     -46.113  37.527  27.733  1.00  0.00    -0.032 A 
ATOM     47  N   UNL     1     -45.924  36.997  30.464  1.00  0.00    -0.262 NA
ATOM     48  H   UNL     1     -46.975  35.268  30.108  1.00  0.00     0.084 H 
ATOM     49  C   UNL     1     -45.441  38.436  28.565  1.00  0.00     0.066 A 
ATOM     50  H   UNL     1     -46.197  37.683  26.662  1.00  0.00     0.065 H 
ATOM     51  C   UNL     1     -45.380  38.116  29.917  1.00  0.00     0.051 A 
ATOM     52  H   UNL     1     -44.903  38.743  30.660  1.00  0.00     0.086 H 
BRANCH  49  53
ATOM     53  N   UNL     1     -44.851  39.630  28.036  1.00  0.00    -0.299 N 
ATOM     54  C   UNL     1     -45.309  40.312  26.924  1.00  0.00     0.021 A 
ATOM     55  C   UNL     1     -43.738  40.329  28.513  1.00  0.00     0.150 A 
ATOM     56  C   UNL     1     -44.529  41.428  26.711  1.00  0.00     0.033 A 
ATOM     57  H   UNL     1     -46.173  39.991  26.362  1.00  0.00     0.083 H 
ATOM     58  C   UNL     1     -43.500  41.429  27.685  1.00  0.00     0.071 A 
ATOM     59  N   UNL     1     -42.986  39.997  29.582  1.00  0.00    -0.218 NA
ATOM     60  C   UNL     1     -42.369  42.210  27.983  1.00  0.00     0.137 A 
ATOM     61  C   UNL     1     -41.961  40.831  29.784  1.00  0.00     0.120 A 
ATOM     62  N   UNL     1     -41.614  41.897  29.050  1.00  0.00    -0.219 NA
ATOM     63  H   UNL     1     -41.330  40.616  30.641  1.00  0.00     0.106 H 
BRANCH  56  64
ATOM     64  C   UNL     1     -44.751  42.408  25.652  1.00  0.00     0.095 A 
ATOM     65  C   UNL     1     -44.239  42.327  24.339  1.00  0.00    -0.016 A 
ATOM     66  N   UNL     1     -45.427  43.544  25.856  1.00  0.00    -0.173 NA
ATOM     67  C   UNL     1     -44.668  43.479  23.722  1.00  0.00     0.025 A 
ATOM     68  H   UNL     1     -43.635  41.542  23.904  1.00  0.00     0.066 H 
ATOM     69  N   UNL     1     -45.368  44.171  24.667  1.00  0.00    -0.275 N 
ATOM     70  H   UNL     1     -44.525  43.856  22.720  1.00  0.00     0.084 H 
BRANCH  69  71
ATOM     71  C   UNL     1     -46.006  45.454  24.509  1.00  0.00     0.030 C 
ATOM     72  H   UNL     1     -45.957  45.984  25.464  1.00  0.00     0.048 H 
ATOM     73  H   UNL     1     -47.045  45.289  24.214  1.00  0.00     0.048 H 
ATOM     74  H   UNL     1     -45.486  46.027  23.737  1.00  0.00     0.048 H 
ENDBRANCH  69  71
ENDBRANCH  56  64
BRANCH  60  75
ATOM     75  N   UNL     1     -41.927  43.286  27.222  1.00  0.00    -0.383 N 
ATOM     76  H   UNL     1     -42.448  43.420  26.365  1.00  0.00     0.158 HD
ATOM     77  H   UNL     1     -40.920  43.227  27.107  1.00  0.00     0.158 HD
ENDBRANCH  60  75
ENDBRANCH  49  53
ENDBRANCH  41  44
ENDBRANCH  38  41
ENDBRANCH   7  38
TORSDOF 15
ENDMDL
MODEL 6
REMARK VINA RESULT:      -7.9      3.840     12.937
REMARK SMILES CCc1cc(N(C)CCOC)c2ccc(CCc3cncc(-n4cc(-c5ccn(C)n5)c5c(N)ncnc54)c3)cc2n1
REMARK SMILES IDX 3 1 4 2 5 3 12 4 13 5 14 6 15 7 40 8 41 9 42 10 2 15 1 18
REMARK SMILES IDX 6 22 7 23 8 27 9 30 10 33 11 34 16 38 17 41 18 44 19 45
REMARK SMILES IDX 39 46 20 47 22 49 21 51 23 53 24 54 38 55 25 56 32 58 37 59
REMARK SMILES IDX 33 60 36 61 35 62 26 64 27 65 31 66 28 67 29 69 30 71 34 75
REMARK H PARENT 4 11 13 12 14 13 40 14 2 16 2 17 1 19 1 20 1 21 7 24 7 25 7 26
REMARK H PARENT 8 28 8 29 9 31 9 32 11 35 11 36 11 37 16 39 16 40 17 42 17 43
REMARK H PARENT 19 48 39 50 21 52 24 57 36 63 27 68 28 70 30 72 30 73 30 74
REMARK H PARENT 34 76 34 77
REMARK Flexibility Score: inf
ROOT
ATOM      1  C   UNL     1     -46.006  41.744  26.090  1.00  0.00     0.043 A 
ATOM      2  C   UNL     1     -47.096  42.581  26.289  1.00  0.00    -0.016 A 
ATOM      3  C   UNL     1     -48.265  42.065  26.855  1.00  0.00     0.048 A 
ATOM      4  C   UNL     1     -48.295  40.690  27.208  1.00  0.00     0.024 A 
ATOM      5  C   UNL     1     -49.418  40.062  27.794  1.00  0.00    -0.050 A 
ATOM      6  C   UNL     1     -49.403  38.709  28.127  1.00  0.00    -0.058 A 
ATOM      7  C   UNL     1     -48.261  37.949  27.883  1.00  0.00    -0.045 A 
ATOM      8  C   UNL     1     -47.143  38.575  27.311  1.00  0.00    -0.032 A 
ATOM      9  C   UNL     1     -47.136  39.922  26.970  1.00  0.00     0.073 A 
ATOM     10  N   UNL     1     -46.019  40.436  26.429  1.00  0.00    -0.253 NA
ATOM     11  H   UNL     1     -47.031  43.620  25.987  1.00  0.00     0.066 H 
ATOM     12  H   UNL     1     -50.317  40.644  27.993  1.00  0.00     0.063 H 
ATOM     13  H   UNL     1     -50.287  38.263  28.576  1.00  0.00     0.063 H 
ATOM     14  H   UNL     1     -46.240  37.998  27.121  1.00  0.00     0.065 H 
ENDROOT
BRANCH   1  15
ATOM     15  C   UNL     1     -44.728  42.279  25.500  1.00  0.00    -0.013 C 
ATOM     16  H   UNL     1     -44.698  42.042  24.430  1.00  0.00     0.033 H 
ATOM     17  H   UNL     1     -44.710  43.373  25.578  1.00  0.00     0.033 H 
BRANCH  15  18
ATOM     18  C   UNL     1     -43.505  41.685  26.183  1.00  0.00    -0.060 C 
ATOM     19  H   UNL     1     -43.171  40.775  25.674  1.00  0.00     0.023 H 
ATOM     20  H   UNL     1     -42.679  42.404  26.173  1.00  0.00     0.023 H 
ATOM     21  H   UNL     1     -43.718  41.428  27.226  1.00  0.00     0.023 H 
ENDBRANCH  15  18
ENDBRANCH   1  15
BRANCH   3  22
ATOM     22  N   UNL     1     -49.418  42.874  27.053  1.00  0.00    -0.372 N 
BRANCH  22  23
ATOM     23  C   UNL     1     -49.327  43.797  28.183  1.00  0.00     0.007 C 
ATOM     24  H   UNL     1     -50.326  44.023  28.566  1.00  0.00     0.046 H 
ATOM     25  H   UNL     1     -48.852  44.744  27.904  1.00  0.00     0.046 H 
ATOM     26  H   UNL     1     -48.770  43.350  29.016  1.00  0.00     0.046 H 
ENDBRANCH  22  23
BRANCH  22  27
ATOM     27  C   UNL     1     -49.866  43.467  25.767  1.00  0.00     0.041 C 
ATOM     28  H   UNL     1     -48.998  43.607  25.109  1.00  0.00     0.052 H 
ATOM     29  H   UNL     1     -50.563  42.790  25.255  1.00  0.00     0.052 H 
BRANCH  27  30
ATOM     30  C   UNL     1     -50.583  44.815  25.957  1.00  0.00     0.064 C 
ATOM     31  H   UNL     1     -50.446  45.197  26.973  1.00  0.00     0.059 H 
ATOM     32  H   UNL     1     -50.152  45.541  25.256  1.00  0.00     0.059 H 
BRANCH  30  33
ATOM     33  O   UNL     1     -51.978  44.687  25.668  1.00  0.00    -0.383 OA
BRANCH  33  34
ATOM     34  C   UNL     1     -52.258  43.510  24.925  1.00  0.00     0.036 C 
ATOM     35  H   UNL     1     -52.992  42.891  25.450  1.00  0.00     0.053 H 
ATOM     36  H   UNL     1     -52.677  43.804  23.959  1.00  0.00     0.053 H 
ATOM     37  H   UNL     1     -51.340  42.941  24.750  1.00  0.00     0.053 H 
ENDBRANCH  33  34
ENDBRANCH  30  33
ENDBRANCH  27  30
ENDBRANCH  22  27
ENDBRANCH   3  22
BRANCH   7  38
ATOM     38  C   UNL     1     -48.212  36.489  28.257  1.00  0.00    -0.024 C 
ATOM     39  H   UNL     1     -48.533  36.371  29.300  1.00  0.00     0.032 H 
ATOM     40  H   UNL     1     -47.171  36.140  28.229  1.00  0.00     0.032 H 
BRANCH  38  41
ATOM     41  C   UNL     1     -49.085  35.642  27.327  1.00  0.00    -0.022 C 
ATOM     42  H   UNL     1     -49.847  35.100  27.904  1.00  0.00     0.032 H 
ATOM     43  H   UNL     1     -49.644  36.284  26.635  1.00  0.00     0.032 H 
BRANCH  41  44
ATOM     44  C   UNL     1     -48.265  34.655  26.541  1.00  0.00    -0.027 A 
ATOM     45  C   UNL     1     -46.947  34.927  26.206  1.00  0.00     0.030 A 
ATOM     46  C   UNL     1     -48.793  33.416  26.152  1.00  0.00    -0.032 A 
ATOM     47  N   UNL     1     -46.156  34.074  25.525  1.00  0.00    -0.262 NA
ATOM     48  H   UNL     1     -46.472  35.864  26.484  1.00  0.00     0.084 H 
ATOM     49  C   UNL     1     -48.005  32.497  25.441  1.00  0.00     0.066 A 
ATOM     50  H   UNL     1     -49.818  33.197  26.433  1.00  0.00     0.065 H 
ATOM     51  C   UNL     1     -46.700  32.884  25.158  1.00  0.00     0.051 A 
ATOM     52  H   UNL     1     -45.999  32.270  24.604  1.00  0.00     0.086 H 
BRANCH  49  53
ATOM     53  N   UNL     1     -48.531  31.229  25.031  1.00  0.00    -0.299 N 
ATOM     54  C   UNL     1     -48.327  30.036  25.697  1.00  0.00     0.021 A 
ATOM     55  C   UNL     1     -49.330  30.943  23.920  1.00  0.00     0.150 A 
ATOM     56  C   UNL     1     -48.996  29.021  25.049  1.00  0.00     0.033 A 
ATOM     57  H   UNL     1     -47.746  29.971  26.606  1.00  0.00     0.083 H 
ATOM     58  C   UNL     1     -49.602  29.573  23.893  1.00  0.00     0.071 A 
ATOM     59  N   UNL     1     -49.759  31.828  22.997  1.00  0.00    -0.218 NA
ATOM     60  C   UNL     1     -50.344  29.098  22.796  1.00  0.00     0.137 A 
ATOM     61  C   UNL     1     -50.481  31.265  22.024  1.00  0.00     0.120 A 
ATOM     62  N   UNL     1     -50.785  29.968  21.872  1.00  0.00    -0.219 NA
ATOM     63  H   UNL     1     -50.862  31.936  21.259  1.00  0.00     0.106 H 
BRANCH  56  64
ATOM     64  C   UNL     1     -49.041  27.633  25.498  1.00  0.00     0.095 A 
ATOM     65  C   UNL     1     -50.212  26.910  25.811  1.00  0.00    -0.016 A 
ATOM     66  N   UNL     1     -47.935  26.916  25.725  1.00  0.00    -0.173 NA
ATOM     67  C   UNL     1     -49.765  25.675  26.222  1.00  0.00     0.025 A 
ATOM     68  H   UNL     1     -51.240  27.243  25.753  1.00  0.00     0.066 H 
ATOM     69  N   UNL     1     -48.403  25.730  26.156  1.00  0.00    -0.275 N 
ATOM     70  H   UNL     1     -50.290  24.793  26.558  1.00  0.00     0.084 H 
BRANCH  69  71
ATOM     71  C   UNL     1     -47.474  24.684  26.502  1.00  0.00     0.030 C 
ATOM     72  H   UNL     1     -47.081  24.251  25.577  1.00  0.00     0.048 H 
ATOM     73  H   UNL     1     -48.006  23.928  27.084  1.00  0.00     0.048 H 
ATOM     74  H   UNL     1     -46.656  25.103  27.094  1.00  0.00     0.048 H 
ENDBRANCH  69  71
ENDBRANCH  56  64
BRANCH  60  75
ATOM     75  N   UNL     1     -50.634  27.760  22.556  1.00  0.00    -0.383 N 
ATOM     76  H   UNL     1     -51.249  27.611  21.766  1.00  0.00     0.158 HD
ATOM     77  H   UNL     1     -50.931  27.318  23.421  1.00  0.00     0.158 HD
ENDBRANCH  60  75
ENDBRANCH  49  53
ENDBRANCH  41  44
ENDBRANCH  38  41
ENDBRANCH   7  38
TORSDOF 15
ENDMDL
MODEL 7
REMARK VINA RESULT:      -7.9      1.430      2.675
REMARK SMILES CCc1cc(N(C)CCOC)c2ccc(CCc3cncc(-n4cc(-c5ccn(C)n5)c5c(N)ncnc54)c3)cc2n1
REMARK SMILES IDX 3 1 4 2 5 3 12 4 13 5 14 6 15 7 40 8 41 9 42 10 2 15 1 18
REMARK SMILES IDX 6 22 7 23 8 27 9 30 10 33 11 34 16 38 17 41 18 44 19 45
REMARK SMILES IDX 39 46 20 47 22 49 21 51 23 53 24 54 38 55 25 56 32 58 37 59
REMARK SMILES IDX 33 60 36 61 35 62 26 64 27 65 31 66 28 67 29 69 30 71 34 75
REMARK H PARENT 4 11 13 12 14 13 40 14 2 16 2 17 1 19 1 20 1 21 7 24 7 25 7 26
REMARK H PARENT 8 28 8 29 9 31 9 32 11 35 11 36 11 37 16 39 16 40 17 42 17 43
REMARK H PARENT 19 48 39 50 21 52 24 57 36 63 27 68 28 70 30 72 30 73 30 74
REMARK H PARENT 34 76 34 77
REMARK Flexibility Score: inf
ROOT
ATOM      1  C   UNL     1     -46.301  30.348  22.990  1.00  0.00     0.043 A 
ATOM      2  C   UNL     1     -47.471  29.675  23.318  1.00  0.00    -0.016 A 
ATOM      3  C   UNL     1     -48.360  30.250  24.231  1.00  0.00     0.048 A 
ATOM      4  C   UNL     1     -48.029  31.510  24.795  1.00  0.00     0.024 A 
ATOM      5  C   UNL     1     -48.855  32.188  25.721  1.00  0.00    -0.050 A 
ATOM      6  C   UNL     1     -48.492  33.426  26.249  1.00  0.00    -0.058 A 
ATOM      7  C   UNL     1     -47.292  34.018  25.861  1.00  0.00    -0.045 A 
ATOM      8  C   UNL     1     -46.478  33.350  24.934  1.00  0.00    -0.032 A 
ATOM      9  C   UNL     1     -46.819  32.115  24.396  1.00  0.00     0.073 A 
ATOM     10  N   UNL     1     -45.979  31.551  23.514  1.00  0.00    -0.253 NA
ATOM     11  H   UNL     1     -47.671  28.708  22.874  1.00  0.00     0.066 H 
ATOM     12  H   UNL     1     -49.798  31.739  26.032  1.00  0.00     0.063 H 
ATOM     13  H   UNL     1     -49.155  33.915  26.958  1.00  0.00     0.063 H 
ATOM     14  H   UNL     1     -45.541  33.802  24.615  1.00  0.00     0.065 H 
ENDROOT
BRANCH   1  15
ATOM     15  C   UNL     1     -45.335  29.761  21.994  1.00  0.00    -0.013 C 
ATOM     16  H   UNL     1     -45.884  29.466  21.091  1.00  0.00     0.033 H 
ATOM     17  H   UNL     1     -44.610  30.522  21.683  1.00  0.00     0.033 H 
BRANCH  15  18
ATOM     18  C   UNL     1     -44.613  28.549  22.563  1.00  0.00    -0.060 C 
ATOM     19  H   UNL     1     -44.769  28.466  23.643  1.00  0.00     0.023 H 
ATOM     20  H   UNL     1     -44.985  27.632  22.093  1.00  0.00     0.023 H 
ATOM     21  H   UNL     1     -43.534  28.609  22.383  1.00  0.00     0.023 H 
ENDBRANCH  15  18
ENDBRANCH   1  15
BRANCH   3  22
ATOM     22  N   UNL     1     -49.558  29.589  24.622  1.00  0.00    -0.372 N 
BRANCH  22  23
ATOM     23  C   UNL     1     -50.700  29.831  23.741  1.00  0.00     0.007 C 
ATOM     24  H   UNL     1     -51.001  30.882  23.795  1.00  0.00     0.046 H 
ATOM     25  H   UNL     1     -51.567  29.220  24.014  1.00  0.00     0.046 H 
ATOM     26  H   UNL     1     -50.442  29.636  22.694  1.00  0.00     0.046 H 
ENDBRANCH  22  23
BRANCH  22  27
ATOM     27  C   UNL     1     -49.285  28.168  24.953  1.00  0.00     0.041 C 
ATOM     28  H   UNL     1     -48.226  27.947  24.764  1.00  0.00     0.052 H 
ATOM     29  H   UNL     1     -49.479  27.979  26.017  1.00  0.00     0.052 H 
BRANCH  27  30
ATOM     30  C   UNL     1     -50.159  27.195  24.143  1.00  0.00     0.064 C 
ATOM     31  H   UNL     1     -51.137  27.633  23.918  1.00  0.00     0.059 H 
ATOM     32  H   UNL     1     -49.653  26.979  23.193  1.00  0.00     0.059 H 
BRANCH  30  33
ATOM     33  O   UNL     1     -50.329  25.963  24.851  1.00  0.00    -0.383 OA
BRANCH  33  34
ATOM     34  C   UNL     1     -49.396  25.831  25.912  1.00  0.00     0.036 C 
ATOM     35  H   UNL     1     -48.575  25.170  25.620  1.00  0.00     0.053 H 
ATOM     36  H   UNL     1     -48.986  26.820  26.136  1.00  0.00     0.053 H 
ATOM     37  H   UNL     1     -49.889  25.446  26.810  1.00  0.00     0.053 H 
ENDBRANCH  33  34
ENDBRANCH  30  33
ENDBRANCH  27  30
ENDBRANCH  22  27
ENDBRANCH   3  22
BRANCH   7  38
ATOM     38  C   UNL     1     -46.890  35.368  26.399  1.00  0.00    -0.024 C 
ATOM     39  H   UNL     1     -47.084  36.134  25.637  1.00  0.00     0.032 H 
ATOM     40  H   UNL     1     -45.805  35.386  26.565  1.00  0.00     0.032 H 
BRANCH  38  41
ATOM     41  C   UNL     1     -47.634  35.700  27.696  1.00  0.00    -0.022 C 
ATOM     42  H   UNL     1     -48.491  35.027  27.830  1.00  0.00     0.032 H 
ATOM     43  H   UNL     1     -46.986  35.525  28.565  1.00  0.00     0.032 H 
BRANCH  41  44
ATOM     44  C   UNL     1     -48.116  37.125  27.711  1.00  0.00    -0.027 A 
ATOM     45  C   UNL     1     -49.389  37.444  28.162  1.00  0.00     0.030 A 
ATOM     46  C   UNL     1     -47.286  38.179  27.306  1.00  0.00    -0.032 A 
ATOM     47  N   UNL     1     -49.867  38.703  28.222  1.00  0.00    -0.262 NA
ATOM     48  H   UNL     1     -50.080  36.677  28.499  1.00  0.00     0.084 H 
ATOM     49  C   UNL     1     -47.744  39.505  27.352  1.00  0.00     0.066 A 
ATOM     50  H   UNL     1     -46.284  37.929  26.974  1.00  0.00     0.065 H 
ATOM     51  C   UNL     1     -49.039  39.701  27.817  1.00  0.00     0.051 A 
ATOM     52  H   UNL     1     -49.511  40.674  27.886  1.00  0.00     0.086 H 
BRANCH  49  53
ATOM     53  N   UNL     1     -46.910  40.593  26.936  1.00  0.00    -0.299 N 
ATOM     54  C   UNL     1     -45.527  40.582  26.956  1.00  0.00     0.021 A 
ATOM     55  C   UNL     1     -47.299  41.842  26.442  1.00  0.00     0.150 A 
ATOM     56  C   UNL     1     -45.047  41.776  26.464  1.00  0.00     0.033 A 
ATOM     57  H   UNL     1     -44.959  39.725  27.286  1.00  0.00     0.083 H 
ATOM     58  C   UNL     1     -46.159  42.604  26.175  1.00  0.00     0.071 A 
ATOM     59  N   UNL     1     -48.566  42.270  26.269  1.00  0.00    -0.218 NA
ATOM     60  C   UNL     1     -46.371  43.922  25.731  1.00  0.00     0.137 A 
ATOM     61  C   UNL     1     -48.639  43.524  25.812  1.00  0.00     0.120 A 
ATOM     62  N   UNL     1     -47.627  44.361  25.546  1.00  0.00    -0.219 NA
ATOM     63  H   UNL     1     -49.638  43.915  25.642  1.00  0.00     0.106 H 
BRANCH  56  64
ATOM     64  C   UNL     1     -43.633  42.097  26.295  1.00  0.00     0.095 A 
ATOM     65  C   UNL     1     -43.106  43.018  25.363  1.00  0.00    -0.016 A 
ATOM     66  N   UNL     1     -42.669  41.480  26.987  1.00  0.00    -0.173 NA
ATOM     67  C   UNL     1     -41.743  42.957  25.540  1.00  0.00     0.025 A 
ATOM     68  H   UNL     1     -43.644  43.634  24.656  1.00  0.00     0.066 H 
ATOM     69  N   UNL     1     -41.533  42.025  26.514  1.00  0.00    -0.275 N 
ATOM     70  H   UNL     1     -40.930  43.477  25.055  1.00  0.00     0.084 H 
BRANCH  69  71
ATOM     71  C   UNL     1     -40.264  41.593  27.043  1.00  0.00     0.030 C 
ATOM     72  H   UNL     1     -40.346  41.533  28.132  1.00  0.00     0.048 H 
ATOM     73  H   UNL     1     -39.503  42.322  26.754  1.00  0.00     0.048 H 
ATOM     74  H   UNL     1     -40.014  40.610  26.634  1.00  0.00     0.048 H 
ENDBRANCH  69  71
ENDBRANCH  56  64
BRANCH  60  75
ATOM     75  N   UNL     1     -45.363  44.851  25.501  1.00  0.00    -0.383 N 
ATOM     76  H   UNL     1     -45.666  45.813  25.595  1.00  0.00     0.158 HD
ATOM     77  H   UNL     1     -44.896  44.633  24.626  1.00  0.00     0.158 HD
ENDBRANCH  60  75
ENDBRANCH  49  53
ENDBRANCH  41  44
ENDBRANCH  38  41
ENDBRANCH   7  38
TORSDOF 15
ENDMDL
