MODEL 1
REMARK VINA RESULT:     -10.9      0.000      0.000
REMARK SMILES O=C(NCc1ccc2cc(CNCC3CCC3)[nH]c2c1)c1cc(=O)n2ccccc2n1
REMARK SMILES IDX 5 1 6 2 7 3 8 4 9 5 10 6 18 7 19 8 20 9 4 15 3 18 1 19 2 20
REMARK SMILES IDX 21 22 22 23 31 24 23 25 30 27 24 28 25 29 29 30 26 31 28 32
REMARK SMILES IDX 27 34 11 38 12 41 13 43 14 46 15 47 17 48 16 50
REMARK H PARENT 6 10 7 11 9 12 18 13 20 14 4 16 4 17 3 21 22 26 29 33 26 35
REMARK H PARENT 28 36 27 37 11 39 11 40 12 42 13 44 13 45 14 49 15 51 15 52
REMARK H PARENT 17 53 17 54 16 55 16 56
REMARK Flexibility Score: inf
ROOT
ATOM      1  C   UNL     1     -47.921  34.733  26.441  1.00  0.00    -0.027 A 
ATOM      2  C   UNL     1     -46.687  34.718  25.776  1.00  0.00    -0.057 A 
ATOM      3  C   UNL     1     -46.270  33.599  25.045  1.00  0.00    -0.052 A 
ATOM      4  C   UNL     1     -47.104  32.468  24.983  1.00  0.00    -0.000 A 
ATOM      5  C   UNL     1     -47.003  31.197  24.348  1.00  0.00    -0.032 A 
ATOM      6  C   UNL     1     -48.146  30.482  24.640  1.00  0.00     0.030 A 
ATOM      7  N   UNL     1     -48.928  31.281  25.441  1.00  0.00    -0.357 N 
ATOM      8  C   UNL     1     -48.322  32.494  25.659  1.00  0.00     0.046 A 
ATOM      9  C   UNL     1     -48.757  33.604  26.395  1.00  0.00    -0.033 A 
ATOM     10  H   UNL     1     -46.034  35.588  25.828  1.00  0.00     0.063 H 
ATOM     11  H   UNL     1     -45.313  33.608  24.534  1.00  0.00     0.063 H 
ATOM     12  H   UNL     1     -46.178  30.851  23.740  1.00  0.00     0.065 H 
ATOM     13  H   UNL     1     -49.842  31.006  25.775  1.00  0.00     0.166 HD
ATOM     14  H   UNL     1     -49.712  33.588  26.912  1.00  0.00     0.065 H 
ENDROOT
BRANCH   1  15
ATOM     15  C   UNL     1     -48.330  35.947  27.238  1.00  0.00     0.043 C 
ATOM     16  H   UNL     1     -49.242  36.386  26.817  1.00  0.00     0.054 H 
ATOM     17  H   UNL     1     -48.552  35.669  28.273  1.00  0.00     0.054 H 
BRANCH  15  18
ATOM     18  N   UNL     1     -47.265  36.916  27.274  1.00  0.00    -0.347 N 
ATOM     19  O   UNL     1     -46.746  36.682  29.504  1.00  0.00    -0.268 OA
ATOM     20  C   UNL     1     -46.607  37.256  28.431  1.00  0.00     0.270 C 
ATOM     21  H   UNL     1     -47.142  37.548  26.490  1.00  0.00     0.164 HD
BRANCH  20  22
ATOM     22  C   UNL     1     -45.689  38.441  28.242  1.00  0.00     0.136 A 
ATOM     23  C   UNL     1     -45.938  39.223  27.190  1.00  0.00     0.035 A 
ATOM     24  N   UNL     1     -44.667  38.638  29.144  1.00  0.00    -0.225 NA
ATOM     25  C   UNL     1     -45.067  40.382  26.964  1.00  0.00     0.258 A 
ATOM     26  H   UNL     1     -46.743  39.055  26.486  1.00  0.00     0.071 H 
ATOM     27  C   UNL     1     -43.897  39.661  28.937  1.00  0.00     0.140 A 
ATOM     28  O   UNL     1     -45.292  41.112  25.999  1.00  0.00    -0.269 OA
ATOM     29  N   UNL     1     -44.043  40.556  27.883  1.00  0.00    -0.268 N 
ATOM     30  C   UNL     1     -42.774  39.912  29.885  1.00  0.00    -0.019 A 
ATOM     31  C   UNL     1     -43.173  41.631  27.733  1.00  0.00     0.014 A 
ATOM     32  C   UNL     1     -41.963  40.961  29.698  1.00  0.00    -0.057 A 
ATOM     33  H   UNL     1     -42.651  39.219  30.709  1.00  0.00     0.066 H 
ATOM     34  C   UNL     1     -42.168  41.851  28.588  1.00  0.00    -0.045 A 
ATOM     35  H   UNL     1     -43.346  42.291  26.885  1.00  0.00     0.082 H 
ATOM     36  H   UNL     1     -41.140  41.159  30.378  1.00  0.00     0.062 H 
ATOM     37  H   UNL     1     -41.495  42.693  28.460  1.00  0.00     0.064 H 
ENDBRANCH  20  22
ENDBRANCH  15  18
ENDBRANCH   1  15
BRANCH   6  38
ATOM     38  C   UNL     1     -48.574  29.112  24.251  1.00  0.00     0.036 C 
ATOM     39  H   UNL     1     -48.288  28.955  23.204  1.00  0.00     0.049 H 
ATOM     40  H   UNL     1     -49.665  29.009  24.296  1.00  0.00     0.049 H 
BRANCH  38  41
ATOM     41  N   UNL     1     -47.913  28.086  25.063  1.00  0.00    -0.311 NA
ATOM     42  H   UNL     1     -47.856  27.235  24.504  1.00  0.00     0.123 HD
BRANCH  41  43
ATOM     43  C   UNL     1     -48.684  27.781  26.278  1.00  0.00    -0.002 C 
ATOM     44  H   UNL     1     -49.714  27.519  26.006  1.00  0.00     0.043 H 
ATOM     45  H   UNL     1     -48.728  28.651  26.941  1.00  0.00     0.043 H 
BRANCH  43  46
ATOM     46  C   UNL     1     -48.040  26.598  27.008  1.00  0.00    -0.029 C 
ATOM     47  C   UNL     1     -48.274  25.186  26.403  1.00  0.00    -0.049 C 
ATOM     48  C   UNL     1     -46.532  26.385  26.714  1.00  0.00    -0.049 C 
ATOM     49  H   UNL     1     -48.252  26.648  28.084  1.00  0.00     0.032 H 
ATOM     50  C   UNL     1     -46.939  25.345  25.652  1.00  0.00    -0.053 C 
ATOM     51  H   UNL     1     -48.261  24.386  27.152  1.00  0.00     0.027 H 
ATOM     52  H   UNL     1     -49.157  25.060  25.771  1.00  0.00     0.027 H 
ATOM     53  H   UNL     1     -45.980  27.250  26.340  1.00  0.00     0.027 H 
ATOM     54  H   UNL     1     -45.981  25.952  27.558  1.00  0.00     0.027 H 
ATOM     55  H   UNL     1     -46.314  24.450  25.601  1.00  0.00     0.027 H 
ATOM     56  H   UNL     1     -47.046  25.761  24.644  1.00  0.00     0.027 H 
ENDBRANCH  43  46
ENDBRANCH  41  43
ENDBRANCH  38  41
ENDBRANCH   6  38
TORSDOF 7
ENDMDL
MODEL 2
REMARK VINA RESULT:     -10.2      1.510      2.183
REMARK SMILES O=C(NCc1ccc2cc(CNCC3CCC3)[nH]c2c1)c1cc(=O)n2ccccc2n1
REMARK SMILES IDX 5 1 6 2 7 3 8 4 9 5 10 6 18 7 19 8 20 9 4 15 3 18 1 19 2 20
REMARK SMILES IDX 21 22 22 23 31 24 23 25 30 27 24 28 25 29 29 30 26 31 28 32
REMARK SMILES IDX 27 34 11 38 12 41 13 43 14 46 15 47 17 48 16 50
REMARK H PARENT 6 10 7 11 9 12 18 13 20 14 4 16 4 17 3 21 22 26 29 33 26 35
REMARK H PARENT 28 36 27 37 11 39 11 40 12 42 13 44 13 45 14 49 15 51 15 52
REMARK H PARENT 17 53 17 54 16 55 16 56
REMARK Flexibility Score: inf
ROOT
ATOM      1  C   UNL     1     -48.005  33.657  25.884  1.00  0.00    -0.027 A 
ATOM      2  C   UNL     1     -46.652  33.686  25.523  1.00  0.00    -0.057 A 
ATOM      3  C   UNL     1     -46.101  32.701  24.693  1.00  0.00    -0.052 A 
ATOM      4  C   UNL     1     -46.923  31.662  24.220  1.00  0.00    -0.000 A 
ATOM      5  C   UNL     1     -46.706  30.532  23.381  1.00  0.00    -0.032 A 
ATOM      6  C   UNL     1     -47.901  29.854  23.259  1.00  0.00     0.030 A 
ATOM      7  N   UNL     1     -48.830  30.537  24.010  1.00  0.00    -0.357 N 
ATOM      8  C   UNL     1     -48.264  31.642  24.598  1.00  0.00     0.046 A 
ATOM      9  C   UNL     1     -48.833  32.618  25.426  1.00  0.00    -0.033 A 
ATOM     10  H   UNL     1     -46.008  34.484  25.893  1.00  0.00     0.063 H 
ATOM     11  H   UNL     1     -45.052  32.742  24.421  1.00  0.00     0.063 H 
ATOM     12  H   UNL     1     -45.770  30.253  22.915  1.00  0.00     0.065 H 
ATOM     13  H   UNL     1     -49.802  30.267  24.069  1.00  0.00     0.166 HD
ATOM     14  H   UNL     1     -49.882  32.569  25.703  1.00  0.00     0.065 H 
ENDROOT
BRANCH   1  15
ATOM     15  C   UNL     1     -48.561  34.723  26.797  1.00  0.00     0.043 C 
ATOM     16  H   UNL     1     -49.390  35.247  26.307  1.00  0.00     0.054 H 
ATOM     17  H   UNL     1     -48.958  34.273  27.713  1.00  0.00     0.054 H 
BRANCH  15  18
ATOM     18  N   UNL     1     -47.530  35.649  27.188  1.00  0.00    -0.347 N 
ATOM     19  O   UNL     1     -48.479  36.306  29.179  1.00  0.00    -0.268 OA
ATOM     20  C   UNL     1     -47.613  36.422  28.320  1.00  0.00     0.270 C 
ATOM     21  H   UNL     1     -46.831  35.930  26.508  1.00  0.00     0.164 HD
BRANCH  20  22
ATOM     22  C   UNL     1     -46.516  37.457  28.390  1.00  0.00     0.136 A 
ATOM     23  C   UNL     1     -45.770  37.459  29.497  1.00  0.00     0.035 A 
ATOM     24  N   UNL     1     -46.355  38.325  27.333  1.00  0.00    -0.225 NA
ATOM     25  C   UNL     1     -44.696  38.452  29.611  1.00  0.00     0.258 A 
ATOM     26  H   UNL     1     -45.909  36.772  30.322  1.00  0.00     0.071 H 
ATOM     27  C   UNL     1     -45.407  39.205  27.440  1.00  0.00     0.140 A 
ATOM     28  O   UNL     1     -44.000  38.457  30.626  1.00  0.00    -0.269 OA
ATOM     29  N   UNL     1     -44.557  39.317  28.536  1.00  0.00    -0.268 N 
ATOM     30  C   UNL     1     -45.197  40.169  26.323  1.00  0.00    -0.019 A 
ATOM     31  C   UNL     1     -43.562  40.289  28.573  1.00  0.00     0.014 A 
ATOM     32  C   UNL     1     -44.226  41.087  26.405  1.00  0.00    -0.057 A 
ATOM     33  H   UNL     1     -45.855  40.091  25.466  1.00  0.00     0.066 H 
ATOM     34  C   UNL     1     -43.380  41.150  27.565  1.00  0.00    -0.045 A 
ATOM     35  H   UNL     1     -42.935  40.319  29.461  1.00  0.00     0.082 H 
ATOM     36  H   UNL     1     -44.060  41.797  25.601  1.00  0.00     0.062 H 
ATOM     37  H   UNL     1     -42.601  41.905  27.605  1.00  0.00     0.064 H 
ENDBRANCH  20  22
ENDBRANCH  15  18
ENDBRANCH   1  15
BRANCH   6  38
ATOM     38  C   UNL     1     -48.258  28.616  22.517  1.00  0.00     0.036 C 
ATOM     39  H   UNL     1     -47.382  28.311  21.932  1.00  0.00     0.049 H 
ATOM     40  H   UNL     1     -49.066  28.802  21.799  1.00  0.00     0.049 H 
BRANCH  38  41
ATOM     41  N   UNL     1     -48.602  27.519  23.427  1.00  0.00    -0.311 NA
ATOM     42  H   UNL     1     -49.469  27.769  23.903  1.00  0.00     0.123 HD
BRANCH  41  43
ATOM     43  C   UNL     1     -47.564  27.322  24.450  1.00  0.00    -0.002 C 
ATOM     44  H   UNL     1     -47.297  28.287  24.897  1.00  0.00     0.043 H 
ATOM     45  H   UNL     1     -46.656  26.899  24.008  1.00  0.00     0.043 H 
BRANCH  43  46
ATOM     46  C   UNL     1     -48.096  26.392  25.545  1.00  0.00    -0.029 C 
ATOM     47  C   UNL     1     -47.221  25.160  25.907  1.00  0.00    -0.049 C 
ATOM     48  C   UNL     1     -47.862  26.882  26.998  1.00  0.00    -0.049 C 
ATOM     49  H   UNL     1     -49.146  26.134  25.356  1.00  0.00     0.032 H 
ATOM     50  C   UNL     1     -46.599  26.001  27.038  1.00  0.00    -0.053 C 
ATOM     51  H   UNL     1     -47.803  24.305  26.270  1.00  0.00     0.027 H 
ATOM     52  H   UNL     1     -46.522  24.809  25.143  1.00  0.00     0.027 H 
ATOM     53  H   UNL     1     -47.695  27.954  27.130  1.00  0.00     0.027 H 
ATOM     54  H   UNL     1     -48.642  26.557  27.698  1.00  0.00     0.027 H 
ATOM     55  H   UNL     1     -46.419  25.473  27.977  1.00  0.00     0.027 H 
ATOM     56  H   UNL     1     -45.683  26.527  26.745  1.00  0.00     0.027 H 
ENDBRANCH  43  46
ENDBRANCH  41  43
ENDBRANCH  38  41
ENDBRANCH   6  38
TORSDOF 7
ENDMDL
MODEL 3
REMARK VINA RESULT:     -10.1      3.033     11.310
REMARK SMILES O=C(NCc1ccc2cc(CNCC3CCC3)[nH]c2c1)c1cc(=O)n2ccccc2n1
REMARK SMILES IDX 5 1 6 2 7 3 8 4 9 5 10 6 18 7 19 8 20 9 4 15 3 18 1 19 2 20
REMARK SMILES IDX 21 22 22 23 31 24 23 25 30 27 24 28 25 29 29 30 26 31 28 32
REMARK SMILES IDX 27 34 11 38 12 41 13 43 14 46 15 47 17 48 16 50
REMARK H PARENT 6 10 7 11 9 12 18 13 20 14 4 16 4 17 3 21 22 26 29 33 26 35
REMARK H PARENT 28 36 27 37 11 39 11 40 12 42 13 44 13 45 14 49 15 51 15 52
REMARK H PARENT 17 53 17 54 16 55 16 56
REMARK Flexibility Score: inf
ROOT
ATOM      1  C   UNL     1     -46.794  33.434  25.329  1.00  0.00    -0.027 A 
ATOM      2  C   UNL     1     -48.150  33.518  25.671  1.00  0.00    -0.057 A 
ATOM      3  C   UNL     1     -48.589  34.367  26.695  1.00  0.00    -0.052 A 
ATOM      4  C   UNL     1     -47.648  35.144  27.395  1.00  0.00    -0.000 A 
ATOM      5  C   UNL     1     -47.739  36.088  28.457  1.00  0.00    -0.032 A 
ATOM      6  C   UNL     1     -46.465  36.541  28.735  1.00  0.00     0.030 A 
ATOM      7  N   UNL     1     -45.609  35.889  27.879  1.00  0.00    -0.357 N 
ATOM      8  C   UNL     1     -46.303  35.040  27.051  1.00  0.00     0.046 A 
ATOM      9  C   UNL     1     -45.844  34.198  26.029  1.00  0.00    -0.033 A 
ATOM     10  H   UNL     1     -48.882  32.913  25.138  1.00  0.00     0.063 H 
ATOM     11  H   UNL     1     -49.644  34.421  26.943  1.00  0.00     0.063 H 
ATOM     12  H   UNL     1     -48.645  36.402  28.958  1.00  0.00     0.065 H 
ATOM     13  H   UNL     1     -44.614  36.061  27.852  1.00  0.00     0.166 HD
ATOM     14  H   UNL     1     -44.787  34.140  25.790  1.00  0.00     0.065 H 
ENDROOT
BRANCH   1  15
ATOM     15  C   UNL     1     -46.352  32.493  24.235  1.00  0.00     0.043 C 
ATOM     16  H   UNL     1     -46.673  32.872  23.258  1.00  0.00     0.054 H 
ATOM     17  H   UNL     1     -45.260  32.419  24.212  1.00  0.00     0.054 H 
BRANCH  15  18
ATOM     18  N   UNL     1     -46.866  31.167  24.464  1.00  0.00    -0.347 N 
ATOM     19  O   UNL     1     -48.186  31.048  22.582  1.00  0.00    -0.268 OA
ATOM     20  C   UNL     1     -47.804  30.582  23.648  1.00  0.00     0.270 C 
ATOM     21  H   UNL     1     -46.730  30.731  25.370  1.00  0.00     0.164 HD
BRANCH  20  22
ATOM     22  C   UNL     1     -48.333  29.288  24.220  1.00  0.00     0.136 A 
ATOM     23  C   UNL     1     -49.659  29.138  24.223  1.00  0.00     0.035 A 
ATOM     24  N   UNL     1     -47.436  28.359  24.700  1.00  0.00    -0.225 NA
ATOM     25  C   UNL     1     -50.218  27.898  24.775  1.00  0.00     0.258 A 
ATOM     26  H   UNL     1     -50.353  29.877  23.845  1.00  0.00     0.071 H 
ATOM     27  C   UNL     1     -47.935  27.267  25.191  1.00  0.00     0.140 A 
ATOM     28  O   UNL     1     -51.439  27.749  24.777  1.00  0.00    -0.269 OA
ATOM     29  N   UNL     1     -49.294  26.981  25.256  1.00  0.00    -0.268 N 
ATOM     30  C   UNL     1     -47.003  26.234  25.727  1.00  0.00    -0.019 A 
ATOM     31  C   UNL     1     -49.749  25.783  25.798  1.00  0.00     0.014 A 
ATOM     32  C   UNL     1     -47.488  25.097  26.239  1.00  0.00    -0.057 A 
ATOM     33  H   UNL     1     -45.942  26.448  25.683  1.00  0.00     0.066 H 
ATOM     34  C   UNL     1     -48.906  24.861  26.277  1.00  0.00    -0.045 A 
ATOM     35  H   UNL     1     -50.825  25.627  25.817  1.00  0.00     0.082 H 
ATOM     36  H   UNL     1     -46.825  24.334  26.635  1.00  0.00     0.062 H 
ATOM     37  H   UNL     1     -49.272  23.930  26.698  1.00  0.00     0.064 H 
ENDBRANCH  20  22
ENDBRANCH  15  18
ENDBRANCH   1  15
BRANCH   6  38
ATOM     38  C   UNL     1     -45.967  37.520  29.738  1.00  0.00     0.036 C 
ATOM     39  H   UNL     1     -44.897  37.332  29.888  1.00  0.00     0.049 H 
ATOM     40  H   UNL     1     -46.450  37.372  30.711  1.00  0.00     0.049 H 
BRANCH  38  41
ATOM     41  N   UNL     1     -46.127  38.901  29.274  1.00  0.00    -0.311 NA
ATOM     42  H   UNL     1     -46.943  38.931  28.662  1.00  0.00     0.123 HD
BRANCH  41  43
ATOM     43  C   UNL     1     -44.961  39.347  28.496  1.00  0.00    -0.002 C 
ATOM     44  H   UNL     1     -44.118  38.667  28.672  1.00  0.00     0.043 H 
ATOM     45  H   UNL     1     -44.647  40.350  28.804  1.00  0.00     0.043 H 
BRANCH  43  46
ATOM     46  C   UNL     1     -45.309  39.342  27.005  1.00  0.00    -0.029 C 
ATOM     47  C   UNL     1     -46.780  39.665  26.625  1.00  0.00    -0.049 C 
ATOM     48  C   UNL     1     -44.914  40.628  26.232  1.00  0.00    -0.049 C 
ATOM     49  H   UNL     1     -44.927  38.433  26.522  1.00  0.00     0.032 H 
ATOM     50  C   UNL     1     -46.355  41.133  26.438  1.00  0.00    -0.053 C 
ATOM     51  H   UNL     1     -47.105  39.183  25.695  1.00  0.00     0.027 H 
ATOM     52  H   UNL     1     -47.538  39.489  27.393  1.00  0.00     0.027 H 
ATOM     53  H   UNL     1     -44.129  41.244  26.678  1.00  0.00     0.027 H 
ATOM     54  H   UNL     1     -44.663  40.444  25.180  1.00  0.00     0.027 H 
ATOM     55  H   UNL     1     -46.802  41.651  25.587  1.00  0.00     0.027 H 
ATOM     56  H   UNL     1     -46.484  41.748  27.336  1.00  0.00     0.027 H 
ENDBRANCH  43  46
ENDBRANCH  41  43
ENDBRANCH  38  41
ENDBRANCH   6  38
TORSDOF 7
ENDMDL
MODEL 4
REMARK VINA RESULT:     -10.1      2.125      3.401
REMARK SMILES O=C(NCc1ccc2cc(CNCC3CCC3)[nH]c2c1)c1cc(=O)n2ccccc2n1
REMARK SMILES IDX 5 1 6 2 7 3 8 4 9 5 10 6 18 7 19 8 20 9 4 15 3 18 1 19 2 20
REMARK SMILES IDX 21 22 22 23 31 24 23 25 30 27 24 28 25 29 29 30 26 31 28 32
REMARK SMILES IDX 27 34 11 38 12 41 13 43 14 46 15 47 17 48 16 50
REMARK H PARENT 6 10 7 11 9 12 18 13 20 14 4 16 4 17 3 21 22 26 29 33 26 35
REMARK H PARENT 28 36 27 37 11 39 11 40 12 42 13 44 13 45 14 49 15 51 15 52
REMARK H PARENT 17 53 17 54 16 55 16 56
REMARK Flexibility Score: inf
ROOT
ATOM      1  C   UNL     1     -46.490  35.647  28.331  1.00  0.00    -0.027 A 
ATOM      2  C   UNL     1     -47.825  35.838  27.949  1.00  0.00    -0.057 A 
ATOM      3  C   UNL     1     -48.393  35.102  26.901  1.00  0.00    -0.052 A 
ATOM      4  C   UNL     1     -47.605  34.158  26.218  1.00  0.00    -0.000 A 
ATOM      5  C   UNL     1     -47.849  33.260  25.141  1.00  0.00    -0.032 A 
ATOM      6  C   UNL     1     -46.684  32.563  24.893  1.00  0.00     0.030 A 
ATOM      7  N   UNL     1     -45.741  33.025  25.783  1.00  0.00    -0.357 N 
ATOM      8  C   UNL     1     -46.277  33.988  26.602  1.00  0.00     0.046 A 
ATOM      9  C   UNL     1     -45.691  34.714  27.649  1.00  0.00    -0.033 A 
ATOM     10  H   UNL     1     -48.437  36.574  28.469  1.00  0.00     0.063 H 
ATOM     11  H   UNL     1     -49.429  35.262  26.622  1.00  0.00     0.063 H 
ATOM     12  H   UNL     1     -48.783  33.138  24.609  1.00  0.00     0.065 H 
ATOM     13  H   UNL     1     -44.802  32.656  25.836  1.00  0.00     0.166 HD
ATOM     14  H   UNL     1     -44.651  34.557  27.919  1.00  0.00     0.065 H 
ENDROOT
BRANCH   1  15
ATOM     15  C   UNL     1     -45.904  36.471  29.451  1.00  0.00     0.043 C 
ATOM     16  H   UNL     1     -46.700  36.834  30.111  1.00  0.00     0.054 H 
ATOM     17  H   UNL     1     -45.228  35.863  30.061  1.00  0.00     0.054 H 
BRANCH  15  18
ATOM     18  N   UNL     1     -45.134  37.570  28.926  1.00  0.00    -0.347 N 
ATOM     19  O   UNL     1     -44.268  38.292  30.933  1.00  0.00    -0.268 OA
ATOM     20  C   UNL     1     -44.434  38.438  29.728  1.00  0.00     0.270 C 
ATOM     21  H   UNL     1     -45.290  37.874  27.971  1.00  0.00     0.164 HD
BRANCH  20  22
ATOM     22  C   UNL     1     -43.893  39.620  28.958  1.00  0.00     0.136 A 
ATOM     23  C   UNL     1     -42.901  40.301  29.535  1.00  0.00     0.035 A 
ATOM     24  N   UNL     1     -44.447  39.924  27.734  1.00  0.00    -0.225 NA
ATOM     25  C   UNL     1     -42.348  41.461  28.826  1.00  0.00     0.258 A 
ATOM     26  H   UNL     1     -42.476  40.053  30.500  1.00  0.00     0.071 H 
ATOM     27  C   UNL     1     -43.958  40.953  27.113  1.00  0.00     0.140 A 
ATOM     28  O   UNL     1     -41.430  42.091  29.348  1.00  0.00    -0.269 OA
ATOM     29  N   UNL     1     -42.926  41.748  27.598  1.00  0.00    -0.268 N 
ATOM     30  C   UNL     1     -44.529  41.323  25.786  1.00  0.00    -0.019 A 
ATOM     31  C   UNL     1     -42.458  42.836  26.868  1.00  0.00     0.014 A 
ATOM     32  C   UNL     1     -44.045  42.379  25.122  1.00  0.00    -0.057 A 
ATOM     33  H   UNL     1     -45.335  40.711  25.401  1.00  0.00     0.066 H 
ATOM     34  C   UNL     1     -42.974  43.162  25.678  1.00  0.00    -0.045 A 
ATOM     35  H   UNL     1     -41.648  43.414  27.308  1.00  0.00     0.082 H 
ATOM     36  H   UNL     1     -44.449  42.665  24.155  1.00  0.00     0.062 H 
ATOM     37  H   UNL     1     -42.601  44.014  25.117  1.00  0.00     0.064 H 
ENDBRANCH  20  22
ENDBRANCH  15  18
ENDBRANCH   1  15
BRANCH   6  38
ATOM     38  C   UNL     1     -46.360  31.513  23.892  1.00  0.00     0.036 C 
ATOM     39  H   UNL     1     -45.964  30.644  24.432  1.00  0.00     0.049 H 
ATOM     40  H   UNL     1     -45.569  31.845  23.209  1.00  0.00     0.049 H 
BRANCH  38  41
ATOM     41  N   UNL     1     -47.551  31.085  23.151  1.00  0.00    -0.311 NA
ATOM     42  H   UNL     1     -48.344  31.116  23.792  1.00  0.00     0.123 HD
BRANCH  41  43
ATOM     43  C   UNL     1     -47.416  29.703  22.666  1.00  0.00    -0.002 C 
ATOM     44  H   UNL     1     -46.509  29.251  23.085  1.00  0.00     0.043 H 
ATOM     45  H   UNL     1     -47.323  29.680  21.575  1.00  0.00     0.043 H 
BRANCH  43  46
ATOM     46  C   UNL     1     -48.634  28.885  23.105  1.00  0.00    -0.029 C 
ATOM     47  C   UNL     1     -48.374  27.702  24.077  1.00  0.00    -0.049 C 
ATOM     48  C   UNL     1     -49.481  29.522  24.238  1.00  0.00    -0.049 C 
ATOM     49  H   UNL     1     -49.245  28.605  22.237  1.00  0.00     0.032 H 
ATOM     50  C   UNL     1     -48.696  28.656  25.242  1.00  0.00    -0.053 C 
ATOM     51  H   UNL     1     -49.097  26.885  23.970  1.00  0.00     0.027 H 
ATOM     52  H   UNL     1     -47.366  27.278  24.081  1.00  0.00     0.027 H 
ATOM     53  H   UNL     1     -49.386  30.603  24.371  1.00  0.00     0.027 H 
ATOM     54  H   UNL     1     -50.546  29.266  24.182  1.00  0.00     0.027 H 
ATOM     55  H   UNL     1     -49.282  28.227  26.058  1.00  0.00     0.027 H 
ATOM     56  H   UNL     1     -47.815  29.154  25.662  1.00  0.00     0.027 H 
ENDBRANCH  43  46
ENDBRANCH  41  43
ENDBRANCH  38  41
ENDBRANCH   6  38
TORSDOF 7
ENDMDL
MODEL 5
REMARK VINA RESULT:     -10.0      2.703      4.885
REMARK SMILES O=C(NCc1ccc2cc(CNCC3CCC3)[nH]c2c1)c1cc(=O)n2ccccc2n1
REMARK SMILES IDX 5 1 6 2 7 3 8 4 9 5 10 6 18 7 19 8 20 9 4 15 3 18 1 19 2 20
REMARK SMILES IDX 21 22 22 23 31 24 23 25 30 27 24 28 25 29 29 30 26 31 28 32
REMARK SMILES IDX 27 34 11 38 12 41 13 43 14 46 15 47 17 48 16 50
REMARK H PARENT 6 10 7 11 9 12 18 13 20 14 4 16 4 17 3 21 22 26 29 33 26 35
REMARK H PARENT 28 36 27 37 11 39 11 40 12 42 13 44 13 45 14 49 15 51 15 52
REMARK H PARENT 17 53 17 54 16 55 16 56
REMARK Flexibility Score: inf
ROOT
ATOM      1  C   UNL     1     -45.642  37.762  28.356  1.00  0.00    -0.027 A 
ATOM      2  C   UNL     1     -46.913  38.108  27.877  1.00  0.00    -0.057 A 
ATOM      3  C   UNL     1     -47.718  37.173  27.214  1.00  0.00    -0.052 A 
ATOM      4  C   UNL     1     -47.237  35.865  27.021  1.00  0.00    -0.000 A 
ATOM      5  C   UNL     1     -47.771  34.694  26.412  1.00  0.00    -0.032 A 
ATOM      6  C   UNL     1     -46.834  33.688  26.525  1.00  0.00     0.030 A 
ATOM      7  N   UNL     1     -45.746  34.223  27.175  1.00  0.00    -0.357 N 
ATOM      8  C   UNL     1     -45.968  35.540  27.493  1.00  0.00     0.046 A 
ATOM      9  C   UNL     1     -45.148  36.461  28.160  1.00  0.00    -0.033 A 
ATOM     10  H   UNL     1     -47.287  39.121  28.016  1.00  0.00     0.063 H 
ATOM     11  H   UNL     1     -48.700  37.459  26.853  1.00  0.00     0.063 H 
ATOM     12  H   UNL     1     -48.743  34.603  25.945  1.00  0.00     0.065 H 
ATOM     13  H   UNL     1     -44.924  33.685  27.414  1.00  0.00     0.166 HD
ATOM     14  H   UNL     1     -44.162  36.173  28.511  1.00  0.00     0.065 H 
ENDROOT
BRANCH   1  15
ATOM     15  C   UNL     1     -44.792  38.799  29.048  1.00  0.00     0.043 C 
ATOM     16  H   UNL     1     -45.315  39.191  29.927  1.00  0.00     0.054 H 
ATOM     17  H   UNL     1     -43.855  38.354  29.398  1.00  0.00     0.054 H 
BRANCH  15  18
ATOM     18  N   UNL     1     -44.447  39.864  28.141  1.00  0.00    -0.347 N 
ATOM     19  O   UNL     1     -42.602  40.625  29.287  1.00  0.00    -0.268 OA
ATOM     20  C   UNL     1     -43.416  40.739  28.378  1.00  0.00     0.270 C 
ATOM     21  H   UNL     1     -45.112  40.142  27.427  1.00  0.00     0.164 HD
BRANCH  20  22
ATOM     22  C   UNL     1     -43.397  41.884  27.394  1.00  0.00     0.136 A 
ATOM     23  C   UNL     1     -42.256  42.078  26.730  1.00  0.00     0.035 A 
ATOM     24  N   UNL     1     -44.533  42.649  27.245  1.00  0.00    -0.225 NA
ATOM     25  C   UNL     1     -42.191  43.184  25.767  1.00  0.00     0.258 A 
ATOM     26  H   UNL     1     -41.369  41.471  26.857  1.00  0.00     0.071 H 
ATOM     27  C   UNL     1     -44.469  43.629  26.397  1.00  0.00     0.140 A 
ATOM     28  O   UNL     1     -41.144  43.367  25.147  1.00  0.00    -0.269 OA
ATOM     29  N   UNL     1     -43.346  43.942  25.639  1.00  0.00    -0.268 N 
ATOM     30  C   UNL     1     -45.672  44.488  26.206  1.00  0.00    -0.019 A 
ATOM     31  C   UNL     1     -43.359  45.011  24.749  1.00  0.00     0.014 A 
ATOM     32  C   UNL     1     -45.636  45.505  25.336  1.00  0.00    -0.057 A 
ATOM     33  H   UNL     1     -46.552  44.253  26.793  1.00  0.00     0.066 H 
ATOM     34  C   UNL     1     -44.443  45.777  24.582  1.00  0.00    -0.045 A 
ATOM     35  H   UNL     1     -42.445  45.199  24.189  1.00  0.00     0.082 H 
ATOM     36  H   UNL     1     -46.503  46.142  25.185  1.00  0.00     0.062 H 
ATOM     37  H   UNL     1     -44.442  46.609  23.884  1.00  0.00     0.064 H 
ENDBRANCH  20  22
ENDBRANCH  15  18
ENDBRANCH   1  15
BRANCH   6  38
ATOM     38  C   UNL     1     -46.851  32.272  26.070  1.00  0.00     0.036 C 
ATOM     39  H   UNL     1     -47.826  32.081  25.605  1.00  0.00     0.049 H 
ATOM     40  H   UNL     1     -46.768  31.582  26.918  1.00  0.00     0.049 H 
BRANCH  38  41
ATOM     41  N   UNL     1     -45.810  32.011  25.072  1.00  0.00    -0.311 NA
ATOM     42  H   UNL     1     -45.225  32.844  25.007  1.00  0.00     0.123 HD
BRANCH  41  43
ATOM     43  C   UNL     1     -46.389  31.759  23.743  1.00  0.00    -0.002 C 
ATOM     44  H   UNL     1     -45.629  31.322  23.085  1.00  0.00     0.043 H 
ATOM     45  H   UNL     1     -46.729  32.693  23.282  1.00  0.00     0.043 H 
BRANCH  43  46
ATOM     46  C   UNL     1     -47.562  30.783  23.874  1.00  0.00    -0.029 C 
ATOM     47  C   UNL     1     -48.550  30.706  22.677  1.00  0.00    -0.049 C 
ATOM     48  C   UNL     1     -47.220  29.299  23.582  1.00  0.00    -0.049 C 
ATOM     49  H   UNL     1     -48.065  30.912  24.842  1.00  0.00     0.032 H 
ATOM     50  C   UNL     1     -47.728  29.518  22.144  1.00  0.00    -0.053 C 
ATOM     51  H   UNL     1     -49.570  30.433  22.973  1.00  0.00     0.027 H 
ATOM     52  H   UNL     1     -48.598  31.578  22.020  1.00  0.00     0.027 H 
ATOM     53  H   UNL     1     -46.170  29.012  23.674  1.00  0.00     0.027 H 
ATOM     54  H   UNL     1     -47.831  28.590  24.156  1.00  0.00     0.027 H 
ATOM     55  H   UNL     1     -48.305  28.697  21.714  1.00  0.00     0.027 H 
ATOM     56  H   UNL     1     -46.941  29.807  21.437  1.00  0.00     0.027 H 
ENDBRANCH  43  46
ENDBRANCH  41  43
ENDBRANCH  38  41
ENDBRANCH   6  38
TORSDOF 7
ENDMDL
MODEL 6
REMARK VINA RESULT:     -10.0      1.849      2.839
REMARK SMILES O=C(NCc1ccc2cc(CNCC3CCC3)[nH]c2c1)c1cc(=O)n2ccccc2n1
REMARK SMILES IDX 5 1 6 2 7 3 8 4 9 5 10 6 18 7 19 8 20 9 4 15 3 18 1 19 2 20
REMARK SMILES IDX 21 22 22 23 31 24 23 25 30 27 24 28 25 29 29 30 26 31 28 32
REMARK SMILES IDX 27 34 11 38 12 41 13 43 14 46 15 47 17 48 16 50
REMARK H PARENT 6 10 7 11 9 12 18 13 20 14 4 16 4 17 3 21 22 26 29 33 26 35
REMARK H PARENT 28 36 27 37 11 39 11 40 12 42 13 44 13 45 14 49 15 51 15 52
REMARK H PARENT 17 53 17 54 16 55 16 56
REMARK Flexibility Score: inf
ROOT
ATOM      1  C   UNL     1     -46.797  35.443  27.685  1.00  0.00    -0.027 A 
ATOM      2  C   UNL     1     -48.172  35.279  27.472  1.00  0.00    -0.057 A 
ATOM      3  C   UNL     1     -48.657  34.335  26.558  1.00  0.00    -0.052 A 
ATOM      4  C   UNL     1     -47.744  33.542  25.839  1.00  0.00    -0.000 A 
ATOM      5  C   UNL     1     -47.881  32.513  24.863  1.00  0.00    -0.032 A 
ATOM      6  C   UNL     1     -46.617  32.089  24.509  1.00  0.00     0.030 A 
ATOM      7  N   UNL     1     -45.722  32.841  25.235  1.00  0.00    -0.357 N 
ATOM      8  C   UNL     1     -46.381  33.725  26.054  1.00  0.00     0.046 A 
ATOM      9  C   UNL     1     -45.876  34.663  26.964  1.00  0.00    -0.033 A 
ATOM     10  H   UNL     1     -48.883  35.896  28.020  1.00  0.00     0.063 H 
ATOM     11  H   UNL     1     -49.726  34.220  26.409  1.00  0.00     0.063 H 
ATOM     12  H   UNL     1     -48.811  32.125  24.470  1.00  0.00     0.065 H 
ATOM     13  H   UNL     1     -44.721  32.710  25.187  1.00  0.00     0.166 HD
ATOM     14  H   UNL     1     -44.806  34.781  27.105  1.00  0.00     0.065 H 
ENDROOT
BRANCH   1  15
ATOM     15  C   UNL     1     -46.307  36.484  28.662  1.00  0.00     0.043 C 
ATOM     16  H   UNL     1     -47.098  36.732  29.379  1.00  0.00     0.054 H 
ATOM     17  H   UNL     1     -45.457  36.101  29.235  1.00  0.00     0.054 H 
BRANCH  15  18
ATOM     18  N   UNL     1     -45.859  37.664  27.967  1.00  0.00    -0.347 N 
ATOM     19  O   UNL     1     -44.484  38.465  29.630  1.00  0.00    -0.268 OA
ATOM     20  C   UNL     1     -45.035  38.599  28.544  1.00  0.00     0.270 C 
ATOM     21  H   UNL     1     -46.338  37.955  27.121  1.00  0.00     0.164 HD
BRANCH  20  22
ATOM     22  C   UNL     1     -44.887  39.837  27.692  1.00  0.00     0.136 A 
ATOM     23  C   UNL     1     -46.002  40.309  27.132  1.00  0.00     0.035 A 
ATOM     24  N   UNL     1     -43.636  40.393  27.542  1.00  0.00    -0.225 NA
ATOM     25  C   UNL     1     -45.905  41.507  26.290  1.00  0.00     0.258 A 
ATOM     26  H   UNL     1     -46.980  39.861  27.256  1.00  0.00     0.071 H 
ATOM     27  C   UNL     1     -43.554  41.450  26.793  1.00  0.00     0.140 A 
ATOM     28  O   UNL     1     -46.929  41.952  25.773  1.00  0.00    -0.269 OA
ATOM     29  N   UNL     1     -44.634  42.045  26.151  1.00  0.00    -0.268 N 
ATOM     30  C   UNL     1     -42.219  42.084  26.597  1.00  0.00    -0.019 A 
ATOM     31  C   UNL     1     -44.461  43.180  25.364  1.00  0.00     0.014 A 
ATOM     32  C   UNL     1     -42.103  43.175  25.831  1.00  0.00    -0.057 A 
ATOM     33  H   UNL     1     -41.371  41.626  27.092  1.00  0.00     0.066 H 
ATOM     34  C   UNL     1     -43.260  43.744  25.194  1.00  0.00    -0.045 A 
ATOM     35  H   UNL     1     -45.349  43.592  24.891  1.00  0.00     0.082 H 
ATOM     36  H   UNL     1     -41.139  43.650  25.676  1.00  0.00     0.062 H 
ATOM     37  H   UNL     1     -43.137  44.629  24.577  1.00  0.00     0.064 H 
ENDBRANCH  20  22
ENDBRANCH  15  18
ENDBRANCH   1  15
BRANCH   6  38
ATOM     38  C   UNL     1     -46.161  31.054  23.544  1.00  0.00     0.036 C 
ATOM     39  H   UNL     1     -45.065  31.042  23.557  1.00  0.00     0.049 H 
ATOM     40  H   UNL     1     -46.460  31.308  22.519  1.00  0.00     0.049 H 
BRANCH  38  41
ATOM     41  N   UNL     1     -46.637  29.718  23.917  1.00  0.00    -0.311 NA
ATOM     42  H   UNL     1     -45.838  29.085  23.888  1.00  0.00     0.123 HD
BRANCH  41  43
ATOM     43  C   UNL     1     -47.645  29.221  22.968  1.00  0.00    -0.002 C 
ATOM     44  H   UNL     1     -47.275  28.312  22.478  1.00  0.00     0.043 H 
ATOM     45  H   UNL     1     -47.842  29.961  22.185  1.00  0.00     0.043 H 
BRANCH  43  46
ATOM     46  C   UNL     1     -48.939  28.897  23.721  1.00  0.00    -0.029 C 
ATOM     47  C   UNL     1     -49.546  27.484  23.499  1.00  0.00    -0.049 C 
ATOM     48  C   UNL     1     -48.753  28.494  25.207  1.00  0.00    -0.049 C 
ATOM     49  H   UNL     1     -49.670  29.706  23.597  1.00  0.00     0.032 H 
ATOM     50  C   UNL     1     -48.793  27.020  24.759  1.00  0.00    -0.053 C 
ATOM     51  H   UNL     1     -50.637  27.459  23.609  1.00  0.00     0.027 H 
ATOM     52  H   UNL     1     -49.275  26.970  22.573  1.00  0.00     0.027 H 
ATOM     53  H   UNL     1     -47.826  28.817  25.689  1.00  0.00     0.027 H 
ATOM     54  H   UNL     1     -49.599  28.779  25.844  1.00  0.00     0.027 H 
ATOM     55  H   UNL     1     -49.341  26.340  25.416  1.00  0.00     0.027 H 
ATOM     56  H   UNL     1     -47.805  26.594  24.552  1.00  0.00     0.027 H 
ENDBRANCH  43  46
ENDBRANCH  41  43
ENDBRANCH  38  41
ENDBRANCH   6  38
TORSDOF 7
ENDMDL
MODEL 7
REMARK VINA RESULT:      -9.8      2.325      3.018
REMARK SMILES O=C(NCc1ccc2cc(CNCC3CCC3)[nH]c2c1)c1cc(=O)n2ccccc2n1
REMARK SMILES IDX 5 1 6 2 7 3 8 4 9 5 10 6 18 7 19 8 20 9 4 15 3 18 1 19 2 20
REMARK SMILES IDX 21 22 22 23 31 24 23 25 30 27 24 28 25 29 29 30 26 31 28 32
REMARK SMILES IDX 27 34 11 38 12 41 13 43 14 46 15 47 17 48 16 50
REMARK H PARENT 6 10 7 11 9 12 18 13 20 14 4 16 4 17 3 21 22 26 29 33 26 35
REMARK H PARENT 28 36 27 37 11 39 11 40 12 42 13 44 13 45 14 49 15 51 15 52
REMARK H PARENT 17 53 17 54 16 55 16 56
REMARK Flexibility Score: inf
ROOT
ATOM      1  C   UNL     1     -47.876  36.335  27.273  1.00  0.00    -0.027 A 
ATOM      2  C   UNL     1     -46.516  36.033  27.116  1.00  0.00    -0.057 A 
ATOM      3  C   UNL     1     -46.101  34.778  26.652  1.00  0.00    -0.052 A 
ATOM      4  C   UNL     1     -47.068  33.804  26.344  1.00  0.00    -0.000 A 
ATOM      5  C   UNL     1     -47.006  32.466  25.860  1.00  0.00    -0.032 A 
ATOM      6  C   UNL     1     -48.297  31.994  25.742  1.00  0.00     0.030 A 
ATOM      7  N   UNL     1     -49.135  33.005  26.152  1.00  0.00    -0.357 N 
ATOM      8  C   UNL     1     -48.414  34.117  26.515  1.00  0.00     0.046 A 
ATOM      9  C   UNL     1     -48.850  35.366  26.977  1.00  0.00    -0.033 A 
ATOM     10  H   UNL     1     -45.763  36.780  27.361  1.00  0.00     0.063 H 
ATOM     11  H   UNL     1     -45.044  34.563  26.534  1.00  0.00     0.063 H 
ATOM     12  H   UNL     1     -46.107  31.914  25.621  1.00  0.00     0.065 H 
ATOM     13  H   UNL     1     -50.143  32.932  26.135  1.00  0.00     0.166 HD
ATOM     14  H   UNL     1     -49.908  35.574  27.102  1.00  0.00     0.065 H 
ENDROOT
BRANCH   1  15
ATOM     15  C   UNL     1     -48.288  37.690  27.795  1.00  0.00     0.043 C 
ATOM     16  H   UNL     1     -49.062  38.124  27.152  1.00  0.00     0.054 H 
ATOM     17  H   UNL     1     -48.714  37.599  28.799  1.00  0.00     0.054 H 
BRANCH  15  18
ATOM     18  N   UNL     1     -47.150  38.568  27.890  1.00  0.00    -0.347 N 
ATOM     19  O   UNL     1     -47.738  39.980  26.170  1.00  0.00    -0.268 OA
ATOM     20  C   UNL     1     -46.934  39.604  27.015  1.00  0.00     0.270 C 
ATOM     21  H   UNL     1     -46.355  38.291  28.457  1.00  0.00     0.164 HD
BRANCH  20  22
ATOM     22  C   UNL     1     -45.573  40.234  27.196  1.00  0.00     0.136 A 
ATOM     23  C   UNL     1     -45.166  41.057  26.228  1.00  0.00     0.035 A 
ATOM     24  N   UNL     1     -44.844  39.924  28.323  1.00  0.00    -0.225 NA
ATOM     25  C   UNL     1     -43.847  41.686  26.359  1.00  0.00     0.258 A 
ATOM     26  H   UNL     1     -45.748  41.290  25.345  1.00  0.00     0.071 H 
ATOM     27  C   UNL     1     -43.676  40.479  28.432  1.00  0.00     0.140 A 
ATOM     28  O   UNL     1     -43.465  42.450  25.474  1.00  0.00    -0.269 OA
ATOM     29  N   UNL     1     -43.131  41.355  27.500  1.00  0.00    -0.268 N 
ATOM     30  C   UNL     1     -42.849  40.170  29.633  1.00  0.00    -0.019 A 
ATOM     31  C   UNL     1     -41.869  41.909  27.693  1.00  0.00     0.014 A 
ATOM     32  C   UNL     1     -41.641  40.729  29.774  1.00  0.00    -0.057 A 
ATOM     33  H   UNL     1     -43.265  39.487  30.364  1.00  0.00     0.066 H 
ATOM     34  C   UNL     1     -41.132  41.628  28.774  1.00  0.00    -0.045 A 
ATOM     35  H   UNL     1     -41.505  42.586  26.923  1.00  0.00     0.082 H 
ATOM     36  H   UNL     1     -41.024  40.515  30.641  1.00  0.00     0.062 H 
ATOM     37  H   UNL     1     -40.149  42.066  28.914  1.00  0.00     0.064 H 
ENDBRANCH  20  22
ENDBRANCH  15  18
ENDBRANCH   1  15
BRANCH   6  38
ATOM     38  C   UNL     1     -48.826  30.679  25.294  1.00  0.00     0.036 C 
ATOM     39  H   UNL     1     -49.903  30.662  25.500  1.00  0.00     0.049 H 
ATOM     40  H   UNL     1     -48.384  29.856  25.869  1.00  0.00     0.049 H 
BRANCH  38  41
ATOM     41  N   UNL     1     -48.634  30.479  23.854  1.00  0.00    -0.311 NA
ATOM     42  H   UNL     1     -49.524  30.172  23.461  1.00  0.00     0.123 HD
BRANCH  41  43
ATOM     43  C   UNL     1     -47.635  29.435  23.583  1.00  0.00    -0.002 C 
ATOM     44  H   UNL     1     -47.915  28.880  22.680  1.00  0.00     0.043 H 
ATOM     45  H   UNL     1     -47.586  28.718  24.410  1.00  0.00     0.043 H 
BRANCH  43  46
ATOM     46  C   UNL     1     -46.263  30.083  23.371  1.00  0.00    -0.029 C 
ATOM     47  C   UNL     1     -45.416  29.562  22.178  1.00  0.00    -0.049 C 
ATOM     48  C   UNL     1     -46.288  31.455  22.649  1.00  0.00    -0.049 C 
ATOM     49  H   UNL     1     -45.703  30.119  24.315  1.00  0.00     0.032 H 
ATOM     50  C   UNL     1     -45.999  30.710  21.332  1.00  0.00    -0.053 C 
ATOM     51  H   UNL     1     -44.335  29.647  22.342  1.00  0.00     0.027 H 
ATOM     52  H   UNL     1     -45.637  28.554  21.818  1.00  0.00     0.027 H 
ATOM     53  H   UNL     1     -47.230  32.008  22.682  1.00  0.00     0.027 H 
ATOM     54  H   UNL     1     -45.475  32.124  22.958  1.00  0.00     0.027 H 
ATOM     55  H   UNL     1     -45.298  31.201  20.653  1.00  0.00     0.027 H 
ATOM     56  H   UNL     1     -46.900  30.433  20.773  1.00  0.00     0.027 H 
ENDBRANCH  43  46
ENDBRANCH  41  43
ENDBRANCH  38  41
ENDBRANCH   6  38
TORSDOF 7
ENDMDL
