MODEL 1
REMARK VINA RESULT:     -10.3      0.000      0.000
REMARK SMILES CCCc1cn([C@@H]2C[C@H](CCc3ccc4ccc(N)nc4c3)[C@@H](O)[C@H]2O)c2ncnc(N)c12
REMARK SMILES IDX 7 1 8 2 9 3 23 4 25 5 6 12 4 13 5 14 33 15 27 17 31 18 28 19
REMARK SMILES IDX 30 20 29 21 3 23 2 26 1 29 32 33 26 36 10 38 11 41 12 44
REMARK SMILES IDX 13 45 22 46 14 47 21 49 15 51 20 53 16 54 18 55 17 56 19 59
REMARK SMILES IDX 24 62
REMARK H PARENT 7 6 8 7 8 8 9 9 23 10 25 11 5 16 29 22 3 24 3 25 2 27 2 28
REMARK H PARENT 1 30 1 31 1 32 32 34 32 35 26 37 10 39 10 40 11 42 11 43 13 48
REMARK H PARENT 22 50 14 52 16 57 17 58 19 60 19 61 24 63
REMARK Flexibility Score: inf
ROOT
ATOM      1  C   UNL     1     -44.982  37.917  29.048  1.00  0.00     0.064 C 
ATOM      2  C   UNL     1     -44.936  36.704  28.100  1.00  0.00    -0.024 C 
ATOM      3  C   UNL     1     -46.172  35.835  28.431  1.00  0.00    -0.010 C 
ATOM      4  C   UNL     1     -46.696  36.417  29.750  1.00  0.00     0.085 C 
ATOM      5  C   UNL     1     -46.391  37.914  29.653  1.00  0.00     0.101 C 
ATOM      6  H   UNL     1     -44.253  37.752  29.853  1.00  0.00     0.056 H 
ATOM      7  H   UNL     1     -44.889  36.988  27.045  1.00  0.00     0.029 H 
ATOM      8  H   UNL     1     -44.022  36.131  28.300  1.00  0.00     0.029 H 
ATOM      9  H   UNL     1     -45.851  34.797  28.585  1.00  0.00     0.033 H 
ATOM     10  H   UNL     1     -47.755  36.213  29.937  1.00  0.00     0.063 H 
ATOM     11  H   UNL     1     -47.137  38.415  29.027  1.00  0.00     0.065 H 
ENDROOT
BRANCH   1  12
ATOM     12  N   UNL     1     -44.610  39.180  28.430  1.00  0.00    -0.326 N 
ATOM     13  C   UNL     1     -44.618  40.912  27.005  1.00  0.00    -0.017 A 
ATOM     14  C   UNL     1     -45.238  39.717  27.334  1.00  0.00     0.010 A 
ATOM     15  C   UNL     1     -43.559  41.101  27.956  1.00  0.00     0.064 A 
ATOM     16  H   UNL     1     -46.075  39.212  26.868  1.00  0.00     0.082 H 
ATOM     17  C   UNL     1     -43.583  40.004  28.812  1.00  0.00     0.146 A 
ATOM     18  C   UNL     1     -42.558  42.058  28.210  1.00  0.00     0.136 A 
ATOM     19  N   UNL     1     -42.748  39.773  29.840  1.00  0.00    -0.218 NA
ATOM     20  N   UNL     1     -41.704  41.861  29.233  1.00  0.00    -0.219 NA
ATOM     21  C   UNL     1     -41.840  40.750  29.975  1.00  0.00     0.120 A 
ATOM     22  H   UNL     1     -41.126  40.630  30.785  1.00  0.00     0.106 H 
BRANCH  13  23
ATOM     23  C   UNL     1     -45.002  41.786  25.850  1.00  0.00    -0.026 C 
ATOM     24  H   UNL     1     -45.994  41.524  25.472  1.00  0.00     0.032 H 
ATOM     25  H   UNL     1     -45.090  42.815  26.221  1.00  0.00     0.032 H 
BRANCH  23  26
ATOM     26  C   UNL     1     -43.983  41.775  24.707  1.00  0.00    -0.052 C 
ATOM     27  H   UNL     1     -44.247  41.008  23.968  1.00  0.00     0.027 H 
ATOM     28  H   UNL     1     -43.005  41.498  25.115  1.00  0.00     0.027 H 
BRANCH  26  29
ATOM     29  C   UNL     1     -43.846  43.118  24.004  1.00  0.00    -0.065 C 
ATOM     30  H   UNL     1     -43.072  43.738  24.465  1.00  0.00     0.023 H 
ATOM     31  H   UNL     1     -43.601  42.983  22.946  1.00  0.00     0.023 H 
ATOM     32  H   UNL     1     -44.790  43.668  24.060  1.00  0.00     0.023 H 
ENDBRANCH  26  29
ENDBRANCH  23  26
ENDBRANCH  13  23
BRANCH  18  33
ATOM     33  N   UNL     1     -42.387  43.232  27.488  1.00  0.00    -0.383 N 
ATOM     34  H   UNL     1     -42.754  44.013  28.023  1.00  0.00     0.158 HD
ATOM     35  H   UNL     1     -42.706  43.178  26.533  1.00  0.00     0.158 HD
ENDBRANCH  18  33
ENDBRANCH   1  12
BRANCH   5  36
ATOM     36  O   UNL     1     -46.425  38.500  30.956  1.00  0.00    -0.388 OA
ATOM     37  H   UNL     1     -45.645  39.082  31.020  1.00  0.00     0.211 HD
ENDBRANCH   5  36
BRANCH   3  38
ATOM     38  C   UNL     1     -47.256  35.875  27.336  1.00  0.00    -0.044 C 
ATOM     39  H   UNL     1     -47.650  36.893  27.239  1.00  0.00     0.027 H 
ATOM     40  H   UNL     1     -48.102  35.254  27.660  1.00  0.00     0.027 H 
BRANCH  38  41
ATOM     41  C   UNL     1     -46.800  35.407  25.946  1.00  0.00    -0.027 C 
ATOM     42  H   UNL     1     -45.717  35.529  25.831  1.00  0.00     0.032 H 
ATOM     43  H   UNL     1     -47.244  36.069  25.190  1.00  0.00     0.032 H 
BRANCH  41  44
ATOM     44  C   UNL     1     -47.199  33.991  25.620  1.00  0.00    -0.046 A 
ATOM     45  C   UNL     1     -48.313  33.404  26.225  1.00  0.00    -0.058 A 
ATOM     46  C   UNL     1     -46.460  33.241  24.689  1.00  0.00    -0.033 A 
ATOM     47  C   UNL     1     -48.675  32.098  25.902  1.00  0.00    -0.053 A 
ATOM     48  H   UNL     1     -48.907  33.961  26.947  1.00  0.00     0.063 H 
ATOM     49  C   UNL     1     -46.798  31.937  24.350  1.00  0.00     0.073 A 
ATOM     50  H   UNL     1     -45.589  33.682  24.208  1.00  0.00     0.065 H 
ATOM     51  C   UNL     1     -47.925  31.363  24.969  1.00  0.00     0.000 A 
ATOM     52  H   UNL     1     -49.547  31.657  26.379  1.00  0.00     0.063 H 
ATOM     53  N   UNL     1     -46.050  31.271  23.453  1.00  0.00    -0.231 NA
ATOM     54  C   UNL     1     -48.260  30.052  24.619  1.00  0.00    -0.049 A 
ATOM     55  C   UNL     1     -46.388  30.013  23.131  1.00  0.00     0.124 A 
ATOM     56  C   UNL     1     -47.484  29.369  23.689  1.00  0.00    -0.019 A 
ATOM     57  H   UNL     1     -49.121  29.559  25.064  1.00  0.00     0.063 H 
ATOM     58  H   UNL     1     -47.737  28.353  23.410  1.00  0.00     0.066 H 
BRANCH  55  59
ATOM     59  N   UNL     1     -45.592  29.348  22.191  1.00  0.00    -0.384 N 
ATOM     60  H   UNL     1     -45.480  29.932  21.369  1.00  0.00     0.158 HD
ATOM     61  H   UNL     1     -46.045  28.484  21.911  1.00  0.00     0.158 HD
ENDBRANCH  55  59
ENDBRANCH  41  44
ENDBRANCH  38  41
ENDBRANCH   3  38
BRANCH   4  62
ATOM     62  O   UNL     1     -45.951  35.859  30.838  1.00  0.00    -0.390 OA
ATOM     63  H   UNL     1     -45.358  35.199  30.422  1.00  0.00     0.211 HD
ENDBRANCH   4  62
TORSDOF 11
ENDMDL
MODEL 2
REMARK VINA RESULT:      -9.3      4.965     11.900
REMARK SMILES CCCc1cn([C@@H]2C[C@H](CCc3ccc4ccc(N)nc4c3)[C@@H](O)[C@H]2O)c2ncnc(N)c12
REMARK SMILES IDX 7 1 8 2 9 3 23 4 25 5 6 12 4 13 5 14 33 15 27 17 31 18 28 19
REMARK SMILES IDX 30 20 29 21 3 23 2 26 1 29 32 33 26 36 10 38 11 41 12 44
REMARK SMILES IDX 13 45 22 46 14 47 21 49 15 51 20 53 16 54 18 55 17 56 19 59
REMARK SMILES IDX 24 62
REMARK H PARENT 7 6 8 7 8 8 9 9 23 10 25 11 5 16 29 22 3 24 3 25 2 27 2 28
REMARK H PARENT 1 30 1 31 1 32 32 34 32 35 26 37 10 39 10 40 11 42 11 43 13 48
REMARK H PARENT 22 50 14 52 16 57 17 58 19 60 19 61 24 63
REMARK Flexibility Score: inf
ROOT
ATOM      1  C   UNL     1     -48.220  29.080  22.334  1.00  0.00     0.064 C 
ATOM      2  C   UNL     1     -46.715  29.406  22.278  1.00  0.00    -0.024 C 
ATOM      3  C   UNL     1     -46.589  30.815  21.656  1.00  0.00    -0.010 C 
ATOM      4  C   UNL     1     -47.988  31.105  21.098  1.00  0.00     0.085 C 
ATOM      5  C   UNL     1     -48.939  30.410  22.076  1.00  0.00     0.101 C 
ATOM      6  H   UNL     1     -48.453  28.389  21.512  1.00  0.00     0.056 H 
ATOM      7  H   UNL     1     -46.226  29.329  23.253  1.00  0.00     0.029 H 
ATOM      8  H   UNL     1     -46.217  28.673  21.631  1.00  0.00     0.029 H 
ATOM      9  H   UNL     1     -45.862  30.782  20.834  1.00  0.00     0.033 H 
ATOM     10  H   UNL     1     -48.210  32.170  20.979  1.00  0.00     0.063 H 
ATOM     11  H   UNL     1     -49.070  31.019  22.977  1.00  0.00     0.065 H 
ENDROOT
BRANCH   1  12
ATOM     12  N   UNL     1     -48.647  28.406  23.550  1.00  0.00    -0.326 N 
ATOM     13  C   UNL     1     -48.569  27.539  25.617  1.00  0.00    -0.017 A 
ATOM     14  C   UNL     1     -47.851  28.232  24.655  1.00  0.00     0.010 A 
ATOM     15  C   UNL     1     -49.867  27.283  25.057  1.00  0.00     0.064 A 
ATOM     16  H   UNL     1     -46.837  28.609  24.676  1.00  0.00     0.082 H 
ATOM     17  C   UNL     1     -49.869  27.827  23.776  1.00  0.00     0.146 A 
ATOM     18  C   UNL     1     -51.057  26.646  25.457  1.00  0.00     0.136 A 
ATOM     19  N   UNL     1     -50.884  27.797  22.896  1.00  0.00    -0.218 NA
ATOM     20  N   UNL     1     -52.096  26.597  24.602  1.00  0.00    -0.219 NA
ATOM     21  C   UNL     1     -51.955  27.160  23.391  1.00  0.00     0.120 A 
ATOM     22  H   UNL     1     -52.817  27.091  22.733  1.00  0.00     0.106 H 
BRANCH  13  23
ATOM     23  C   UNL     1     -48.035  27.135  26.957  1.00  0.00    -0.026 C 
ATOM     24  H   UNL     1     -47.677  28.005  27.516  1.00  0.00     0.032 H 
ATOM     25  H   UNL     1     -48.870  26.730  27.544  1.00  0.00     0.032 H 
BRANCH  23  26
ATOM     26  C   UNL     1     -46.940  26.068  26.885  1.00  0.00    -0.052 C 
ATOM     27  H   UNL     1     -46.377  26.035  27.827  1.00  0.00     0.027 H 
ATOM     28  H   UNL     1     -46.228  26.351  26.101  1.00  0.00     0.027 H 
BRANCH  26  29
ATOM     29  C   UNL     1     -47.468  24.675  26.572  1.00  0.00    -0.065 C 
ATOM     30  H   UNL     1     -47.421  24.457  25.502  1.00  0.00     0.023 H 
ATOM     31  H   UNL     1     -46.899  23.911  27.109  1.00  0.00     0.023 H 
ATOM     32  H   UNL     1     -48.514  24.594  26.883  1.00  0.00     0.023 H 
ENDBRANCH  26  29
ENDBRANCH  23  26
ENDBRANCH  13  23
BRANCH  18  33
ATOM     33  N   UNL     1     -51.262  26.068  26.703  1.00  0.00    -0.383 N 
ATOM     34  H   UNL     1     -51.082  25.070  26.645  1.00  0.00     0.158 HD
ATOM     35  H   UNL     1     -52.137  26.322  27.135  1.00  0.00     0.158 HD
ENDBRANCH  18  33
ENDBRANCH   1  12
BRANCH   5  36
ATOM     36  O   UNL     1     -50.217  30.228  21.462  1.00  0.00    -0.388 OA
ATOM     37  H   UNL     1     -50.049  30.045  20.518  1.00  0.00     0.211 HD
ENDBRANCH   5  36
BRANCH   3  38
ATOM     38  C   UNL     1     -46.161  31.894  22.669  1.00  0.00    -0.044 C 
ATOM     39  H   UNL     1     -46.722  32.818  22.489  1.00  0.00     0.027 H 
ATOM     40  H   UNL     1     -45.106  32.143  22.489  1.00  0.00     0.027 H 
BRANCH  38  41
ATOM     41  C   UNL     1     -46.336  31.511  24.146  1.00  0.00    -0.027 C 
ATOM     42  H   UNL     1     -45.368  31.285  24.607  1.00  0.00     0.032 H 
ATOM     43  H   UNL     1     -46.904  30.573  24.200  1.00  0.00     0.032 H 
BRANCH  41  44
ATOM     44  C   UNL     1     -47.066  32.548  24.961  1.00  0.00    -0.046 A 
ATOM     45  C   UNL     1     -48.379  32.331  25.384  1.00  0.00    -0.058 A 
ATOM     46  C   UNL     1     -46.429  33.749  25.318  1.00  0.00    -0.033 A 
ATOM     47  C   UNL     1     -49.035  33.294  26.148  1.00  0.00    -0.053 A 
ATOM     48  H   UNL     1     -48.898  31.409  25.127  1.00  0.00     0.063 H 
ATOM     49  C   UNL     1     -47.060  34.727  26.077  1.00  0.00     0.073 A 
ATOM     50  H   UNL     1     -45.406  33.935  24.997  1.00  0.00     0.065 H 
ATOM     51  C   UNL     1     -48.383  34.489  26.496  1.00  0.00     0.000 A 
ATOM     52  H   UNL     1     -50.056  33.108  26.472  1.00  0.00     0.063 H 
ATOM     53  N   UNL     1     -46.397  35.855  26.385  1.00  0.00    -0.231 NA
ATOM     54  C   UNL     1     -49.009  35.476  27.262  1.00  0.00    -0.049 A 
ATOM     55  C   UNL     1     -47.015  36.791  27.121  1.00  0.00     0.124 A 
ATOM     56  C   UNL     1     -48.317  36.640  27.579  1.00  0.00    -0.019 A 
ATOM     57  H   UNL     1     -50.028  35.345  27.615  1.00  0.00     0.063 H 
ATOM     58  H   UNL     1     -48.793  37.411  28.174  1.00  0.00     0.066 H 
BRANCH  55  59
ATOM     59  N   UNL     1     -46.297  37.953  27.429  1.00  0.00    -0.384 N 
ATOM     60  H   UNL     1     -45.876  37.857  28.347  1.00  0.00     0.158 HD
ATOM     61  H   UNL     1     -46.928  38.748  27.447  1.00  0.00     0.158 HD
ENDBRANCH  55  59
ENDBRANCH  41  44
ENDBRANCH  38  41
ENDBRANCH   3  38
BRANCH   4  62
ATOM     62  O   UNL     1     -48.117  30.493  19.810  1.00  0.00    -0.390 OA
ATOM     63  H   UNL     1     -48.960  29.995  19.853  1.00  0.00     0.211 HD
ENDBRANCH   4  62
TORSDOF 11
ENDMDL
MODEL 3
REMARK VINA RESULT:      -9.3      1.617      2.750
REMARK SMILES CCCc1cn([C@@H]2C[C@H](CCc3ccc4ccc(N)nc4c3)[C@@H](O)[C@H]2O)c2ncnc(N)c12
REMARK SMILES IDX 7 1 8 2 9 3 23 4 25 5 6 12 4 13 5 14 33 15 27 17 31 18 28 19
REMARK SMILES IDX 30 20 29 21 3 23 2 26 1 29 32 33 26 36 10 38 11 41 12 44
REMARK SMILES IDX 13 45 22 46 14 47 21 49 15 51 20 53 16 54 18 55 17 56 19 59
REMARK SMILES IDX 24 62
REMARK H PARENT 7 6 8 7 8 8 9 9 23 10 25 11 5 16 29 22 3 24 3 25 2 27 2 28
REMARK H PARENT 1 30 1 31 1 32 32 34 32 35 26 37 10 39 10 40 11 42 11 43 13 48
REMARK H PARENT 22 50 14 52 16 57 17 58 19 60 19 61 24 63
REMARK Flexibility Score: inf
ROOT
ATOM      1  C   UNL     1     -45.073  37.889  28.916  1.00  0.00     0.064 C 
ATOM      2  C   UNL     1     -45.202  36.776  27.858  1.00  0.00    -0.024 C 
ATOM      3  C   UNL     1     -46.461  35.957  28.226  1.00  0.00    -0.010 C 
ATOM      4  C   UNL     1     -46.818  36.435  29.639  1.00  0.00     0.085 C 
ATOM      5  C   UNL     1     -46.417  37.912  29.654  1.00  0.00     0.101 C 
ATOM      6  H   UNL     1     -44.286  37.598  29.627  1.00  0.00     0.056 H 
ATOM      7  H   UNL     1     -45.231  37.162  26.835  1.00  0.00     0.029 H 
ATOM      8  H   UNL     1     -44.316  36.130  27.913  1.00  0.00     0.029 H 
ATOM      9  H   UNL     1     -46.203  34.891  28.249  1.00  0.00     0.033 H 
ATOM     10  H   UNL     1     -47.867  36.280  29.910  1.00  0.00     0.063 H 
ATOM     11  H   UNL     1     -47.179  38.520  29.155  1.00  0.00     0.065 H 
ENDROOT
BRANCH   1  12
ATOM     12  N   UNL     1     -44.669  39.181  28.386  1.00  0.00    -0.326 N 
ATOM     13  C   UNL     1     -43.428  41.013  28.017  1.00  0.00    -0.017 A 
ATOM     14  C   UNL     1     -43.475  39.794  28.675  1.00  0.00     0.010 A 
ATOM     15  C   UNL     1     -44.663  41.138  27.294  1.00  0.00     0.064 A 
ATOM     16  H   UNL     1     -42.750  39.322  29.326  1.00  0.00     0.082 H 
ATOM     17  C   UNL     1     -45.404  39.990  27.558  1.00  0.00     0.146 A 
ATOM     18  C   UNL     1     -45.273  42.083  26.449  1.00  0.00     0.136 A 
ATOM     19  N   UNL     1     -46.632  39.706  27.091  1.00  0.00    -0.218 NA
ATOM     20  N   UNL     1     -46.503  41.833  25.962  1.00  0.00    -0.219 NA
ATOM     21  C   UNL     1     -47.106  40.683  26.305  1.00  0.00     0.120 A 
ATOM     22  H   UNL     1     -48.099  40.526  25.894  1.00  0.00     0.106 H 
BRANCH  13  23
ATOM     23  C   UNL     1     -42.293  41.987  28.101  1.00  0.00    -0.026 C 
ATOM     24  H   UNL     1     -42.655  42.994  28.330  1.00  0.00     0.032 H 
ATOM     25  H   UNL     1     -41.664  41.699  28.953  1.00  0.00     0.032 H 
BRANCH  23  26
ATOM     26  C   UNL     1     -41.415  42.016  26.846  1.00  0.00    -0.052 C 
ATOM     27  H   UNL     1     -41.324  43.042  26.468  1.00  0.00     0.027 H 
ATOM     28  H   UNL     1     -41.910  41.433  26.061  1.00  0.00     0.027 H 
BRANCH  26  29
ATOM     29  C   UNL     1     -40.024  41.440  27.066  1.00  0.00    -0.065 C 
ATOM     30  H   UNL     1     -39.596  41.054  26.136  1.00  0.00     0.023 H 
ATOM     31  H   UNL     1     -39.347  42.196  27.474  1.00  0.00     0.023 H 
ATOM     32  H   UNL     1     -40.071  40.612  27.780  1.00  0.00     0.023 H 
ENDBRANCH  26  29
ENDBRANCH  23  26
ENDBRANCH  13  23
BRANCH  18  33
ATOM     33  N   UNL     1     -44.687  43.276  26.046  1.00  0.00    -0.383 N 
ATOM     34  H   UNL     1     -43.879  43.469  26.629  1.00  0.00     0.158 HD
ATOM     35  H   UNL     1     -45.337  44.040  25.946  1.00  0.00     0.158 HD
ENDBRANCH  18  33
ENDBRANCH   1  12
BRANCH   5  36
ATOM     36  O   UNL     1     -46.288  38.365  31.004  1.00  0.00    -0.388 OA
ATOM     37  H   UNL     1     -45.912  37.622  31.512  1.00  0.00     0.211 HD
ENDBRANCH   5  36
BRANCH   3  38
ATOM     38  C   UNL     1     -47.635  36.175  27.252  1.00  0.00    -0.044 C 
ATOM     39  H   UNL     1     -47.252  36.447  26.262  1.00  0.00     0.027 H 
ATOM     40  H   UNL     1     -48.219  37.039  27.597  1.00  0.00     0.027 H 
BRANCH  38  41
ATOM     41  C   UNL     1     -48.577  34.973  27.084  1.00  0.00    -0.027 C 
ATOM     42  H   UNL     1     -49.561  35.298  26.728  1.00  0.00     0.032 H 
ATOM     43  H   UNL     1     -48.763  34.532  28.073  1.00  0.00     0.032 H 
BRANCH  41  44
ATOM     44  C   UNL     1     -48.032  33.894  26.185  1.00  0.00    -0.046 A 
ATOM     45  C   UNL     1     -46.820  34.068  25.512  1.00  0.00    -0.058 A 
ATOM     46  C   UNL     1     -48.731  32.686  26.020  1.00  0.00    -0.033 A 
ATOM     47  C   UNL     1     -46.324  33.054  24.695  1.00  0.00    -0.053 A 
ATOM     48  H   UNL     1     -46.254  34.990  25.623  1.00  0.00     0.063 H 
ATOM     49  C   UNL     1     -48.260  31.660  25.210  1.00  0.00     0.073 A 
ATOM     50  H   UNL     1     -49.677  32.533  26.537  1.00  0.00     0.065 H 
ATOM     51  C   UNL     1     -47.036  31.853  24.541  1.00  0.00     0.000 A 
ATOM     52  H   UNL     1     -45.377  33.204  24.181  1.00  0.00     0.063 H 
ATOM     53  N   UNL     1     -48.976  30.528  25.092  1.00  0.00    -0.231 NA
ATOM     54  C   UNL     1     -46.568  30.814  23.732  1.00  0.00    -0.049 A 
ATOM     55  C   UNL     1     -48.510  29.543  24.310  1.00  0.00     0.124 A 
ATOM     56  C   UNL     1     -47.312  29.646  23.616  1.00  0.00    -0.019 A 
ATOM     57  H   UNL     1     -45.628  30.907  23.194  1.00  0.00     0.063 H 
ATOM     58  H   UNL     1     -46.956  28.834  22.992  1.00  0.00     0.066 H 
BRANCH  55  59
ATOM     59  N   UNL     1     -49.276  28.376  24.211  1.00  0.00    -0.384 N 
ATOM     60  H   UNL     1     -50.221  28.564  24.529  1.00  0.00     0.158 HD
ATOM     61  H   UNL     1     -48.877  27.655  24.803  1.00  0.00     0.158 HD
ENDBRANCH  55  59
ENDBRANCH  41  44
ENDBRANCH  38  41
ENDBRANCH   3  38
BRANCH   4  62
ATOM     62  O   UNL     1     -46.018  35.726  30.591  1.00  0.00    -0.390 OA
ATOM     63  H   UNL     1     -46.634  35.088  31.009  1.00  0.00     0.211 HD
ENDBRANCH   4  62
TORSDOF 11
ENDMDL
MODEL 4
REMARK VINA RESULT:      -9.1      1.687      2.111
REMARK SMILES CCCc1cn([C@@H]2C[C@H](CCc3ccc4ccc(N)nc4c3)[C@@H](O)[C@H]2O)c2ncnc(N)c12
REMARK SMILES IDX 7 1 8 2 9 3 23 4 25 5 6 12 4 13 5 14 33 15 27 17 31 18 28 19
REMARK SMILES IDX 30 20 29 21 3 23 2 26 1 29 32 33 26 36 10 38 11 41 12 44
REMARK SMILES IDX 13 45 22 46 14 47 21 49 15 51 20 53 16 54 18 55 17 56 19 59
REMARK SMILES IDX 24 62
REMARK H PARENT 7 6 8 7 8 8 9 9 23 10 25 11 5 16 29 22 3 24 3 25 2 27 2 28
REMARK H PARENT 1 30 1 31 1 32 32 34 32 35 26 37 10 39 10 40 11 42 11 43 13 48
REMARK H PARENT 22 50 14 52 16 57 17 58 19 60 19 61 24 63
REMARK Flexibility Score: inf
ROOT
ATOM      1  C   UNL     1     -46.213  39.997  27.665  1.00  0.00     0.064 C 
ATOM      2  C   UNL     1     -45.787  38.562  28.029  1.00  0.00    -0.024 C 
ATOM      3  C   UNL     1     -47.009  37.653  27.758  1.00  0.00    -0.010 C 
ATOM      4  C   UNL     1     -48.168  38.637  27.552  1.00  0.00     0.085 C 
ATOM      5  C   UNL     1     -47.522  39.851  26.879  1.00  0.00     0.101 C 
ATOM      6  H   UNL     1     -46.422  40.540  28.598  1.00  0.00     0.056 H 
ATOM      7  H   UNL     1     -44.890  38.236  27.495  1.00  0.00     0.029 H 
ATOM      8  H   UNL     1     -45.534  38.526  29.096  1.00  0.00     0.029 H 
ATOM      9  H   UNL     1     -47.200  37.034  28.643  1.00  0.00     0.033 H 
ATOM     10  H   UNL     1     -49.002  38.228  26.974  1.00  0.00     0.063 H 
ATOM     11  H   UNL     1     -47.372  39.659  25.812  1.00  0.00     0.065 H 
ENDROOT
BRANCH   1  12
ATOM     12  N   UNL     1     -45.195  40.773  26.975  1.00  0.00    -0.326 N 
ATOM     13  C   UNL     1     -44.177  41.949  25.360  1.00  0.00    -0.017 A 
ATOM     14  C   UNL     1     -45.341  41.283  25.710  1.00  0.00     0.010 A 
ATOM     15  C   UNL     1     -43.284  41.830  26.478  1.00  0.00     0.064 A 
ATOM     16  H   UNL     1     -46.257  41.135  25.151  1.00  0.00     0.082 H 
ATOM     17  C   UNL     1     -43.948  41.088  27.450  1.00  0.00     0.146 A 
ATOM     18  C   UNL     1     -41.979  42.245  26.806  1.00  0.00     0.136 A 
ATOM     19  N   UNL     1     -43.465  40.729  28.652  1.00  0.00    -0.218 NA
ATOM     20  N   UNL     1     -41.462  41.905  28.002  1.00  0.00    -0.219 NA
ATOM     21  C   UNL     1     -42.216  41.177  28.842  1.00  0.00     0.120 A 
ATOM     22  H   UNL     1     -41.756  40.921  29.792  1.00  0.00     0.106 H 
BRANCH  13  23
ATOM     23  C   UNL     1     -43.940  42.624  24.044  1.00  0.00    -0.026 C 
ATOM     24  H   UNL     1     -42.872  42.788  23.873  1.00  0.00     0.032 H 
ATOM     25  H   UNL     1     -44.264  41.938  23.250  1.00  0.00     0.032 H 
BRANCH  23  26
ATOM     26  C   UNL     1     -44.707  43.939  23.881  1.00  0.00    -0.052 C 
ATOM     27  H   UNL     1     -45.783  43.773  24.020  1.00  0.00     0.027 H 
ATOM     28  H   UNL     1     -44.573  44.296  22.853  1.00  0.00     0.027 H 
BRANCH  26  29
ATOM     29  C   UNL     1     -44.245  45.034  24.832  1.00  0.00    -0.065 C 
ATOM     30  H   UNL     1     -43.177  44.952  25.052  1.00  0.00     0.023 H 
ATOM     31  H   UNL     1     -44.439  46.025  24.412  1.00  0.00     0.023 H 
ATOM     32  H   UNL     1     -44.787  44.960  25.779  1.00  0.00     0.023 H 
ENDBRANCH  26  29
ENDBRANCH  23  26
ENDBRANCH  13  23
BRANCH  18  33
ATOM     33  N   UNL     1     -41.166  43.015  25.984  1.00  0.00    -0.383 N 
ATOM     34  H   UNL     1     -41.738  43.494  25.297  1.00  0.00     0.158 HD
ATOM     35  H   UNL     1     -40.372  42.518  25.611  1.00  0.00     0.158 HD
ENDBRANCH  18  33
ENDBRANCH   1  12
BRANCH   5  36
ATOM     36  O   UNL     1     -48.372  40.992  27.020  1.00  0.00    -0.388 OA
ATOM     37  H   UNL     1     -48.589  41.062  27.969  1.00  0.00     0.211 HD
ENDBRANCH   5  36
BRANCH   3  38
ATOM     38  C   UNL     1     -46.830  36.741  26.529  1.00  0.00    -0.044 C 
ATOM     39  H   UNL     1     -46.194  37.237  25.787  1.00  0.00     0.027 H 
ATOM     40  H   UNL     1     -47.807  36.609  26.047  1.00  0.00     0.027 H 
BRANCH  38  41
ATOM     41  C   UNL     1     -46.229  35.358  26.823  1.00  0.00    -0.027 C 
ATOM     42  H   UNL     1     -46.159  35.186  27.902  1.00  0.00     0.032 H 
ATOM     43  H   UNL     1     -45.191  35.343  26.463  1.00  0.00     0.032 H 
BRANCH  41  44
ATOM     44  C   UNL     1     -46.968  34.222  26.165  1.00  0.00    -0.046 A 
ATOM     45  C   UNL     1     -48.274  33.903  26.545  1.00  0.00    -0.058 A 
ATOM     46  C   UNL     1     -46.357  33.471  25.146  1.00  0.00    -0.033 A 
ATOM     47  C   UNL     1     -48.948  32.857  25.917  1.00  0.00    -0.053 A 
ATOM     48  H   UNL     1     -48.776  34.469  27.327  1.00  0.00     0.063 H 
ATOM     49  C   UNL     1     -47.005  32.423  24.505  1.00  0.00     0.073 A 
ATOM     50  H   UNL     1     -45.339  33.705  24.837  1.00  0.00     0.065 H 
ATOM     51  C   UNL     1     -48.322  32.118  24.900  1.00  0.00     0.000 A 
ATOM     52  H   UNL     1     -49.965  32.625  26.222  1.00  0.00     0.063 H 
ATOM     53  N   UNL     1     -46.365  31.742  23.538  1.00  0.00    -0.231 NA
ATOM     54  C   UNL     1     -48.967  31.064  24.247  1.00  0.00    -0.049 A 
ATOM     55  C   UNL     1     -47.002  30.733  22.924  1.00  0.00     0.124 A 
ATOM     56  C   UNL     1     -48.301  30.364  23.247  1.00  0.00    -0.019 A 
ATOM     57  H   UNL     1     -49.984  30.786  24.510  1.00  0.00     0.063 H 
ATOM     58  H   UNL     1     -48.794  29.548  22.734  1.00  0.00     0.066 H 
BRANCH  55  59
ATOM     59  N   UNL     1     -46.311  30.046  21.919  1.00  0.00    -0.384 N 
ATOM     60  H   UNL     1     -45.439  30.525  21.720  1.00  0.00     0.158 HD
ATOM     61  H   UNL     1     -46.869  30.030  21.072  1.00  0.00     0.158 HD
ENDBRANCH  55  59
ENDBRANCH  41  44
ENDBRANCH  38  41
ENDBRANCH   3  38
BRANCH   4  62
ATOM     62  O   UNL     1     -48.682  39.031  28.829  1.00  0.00    -0.390 OA
ATOM     63  H   UNL     1     -48.938  39.971  28.716  1.00  0.00     0.211 HD
ENDBRANCH   4  62
TORSDOF 11
ENDMDL
MODEL 5
REMARK VINA RESULT:      -8.8      4.226      7.068
REMARK SMILES CCCc1cn([C@@H]2C[C@H](CCc3ccc4ccc(N)nc4c3)[C@@H](O)[C@H]2O)c2ncnc(N)c12
REMARK SMILES IDX 7 1 8 2 9 3 23 4 25 5 6 12 4 13 5 14 33 15 27 17 31 18 28 19
REMARK SMILES IDX 30 20 29 21 3 23 2 26 1 29 32 33 26 36 10 38 11 41 12 44
REMARK SMILES IDX 13 45 22 46 14 47 21 49 15 51 20 53 16 54 18 55 17 56 19 59
REMARK SMILES IDX 24 62
REMARK H PARENT 7 6 8 7 8 8 9 9 23 10 25 11 5 16 29 22 3 24 3 25 2 27 2 28
REMARK H PARENT 1 30 1 31 1 32 32 34 32 35 26 37 10 39 10 40 11 42 11 43 13 48
REMARK H PARENT 22 50 14 52 16 57 17 58 19 60 19 61 24 63
REMARK Flexibility Score: inf
ROOT
ATOM      1  C   UNL     1     -45.086  37.902  28.839  1.00  0.00     0.064 C 
ATOM      2  C   UNL     1     -45.722  36.907  27.849  1.00  0.00    -0.024 C 
ATOM      3  C   UNL     1     -46.915  36.252  28.583  1.00  0.00    -0.010 C 
ATOM      4  C   UNL     1     -46.724  36.663  30.049  1.00  0.00     0.085 C 
ATOM      5  C   UNL     1     -46.104  38.061  29.974  1.00  0.00     0.101 C 
ATOM      6  H   UNL     1     -44.173  37.444  29.246  1.00  0.00     0.056 H 
ATOM      7  H   UNL     1     -46.011  37.373  26.903  1.00  0.00     0.029 H 
ATOM      8  H   UNL     1     -44.983  36.138  27.594  1.00  0.00     0.029 H 
ATOM      9  H   UNL     1     -46.840  35.162  28.491  1.00  0.00     0.033 H 
ATOM     10  H   UNL     1     -47.643  36.640  30.642  1.00  0.00     0.063 H 
ATOM     11  H   UNL     1     -46.876  38.809  29.768  1.00  0.00     0.065 H 
ENDROOT
BRANCH   1  12
ATOM     12  N   UNL     1     -44.666  39.160  28.243  1.00  0.00    -0.326 N 
ATOM     13  C   UNL     1     -44.549  40.873  26.800  1.00  0.00    -0.017 A 
ATOM     14  C   UNL     1     -45.187  39.675  27.083  1.00  0.00     0.010 A 
ATOM     15  C   UNL     1     -43.592  41.087  27.850  1.00  0.00     0.064 A 
ATOM     16  H   UNL     1     -45.968  39.155  26.543  1.00  0.00     0.082 H 
ATOM     17  C   UNL     1     -43.690  40.001  28.714  1.00  0.00     0.146 A 
ATOM     18  C   UNL     1     -42.632  42.058  28.189  1.00  0.00     0.136 A 
ATOM     19  N   UNL     1     -42.961  39.793  29.824  1.00  0.00    -0.218 NA
ATOM     20  N   UNL     1     -41.882  41.884  29.294  1.00  0.00    -0.219 NA
ATOM     21  C   UNL     1     -42.080  40.782  30.035  1.00  0.00     0.120 A 
ATOM     22  H   UNL     1     -41.450  40.680  30.913  1.00  0.00     0.106 H 
BRANCH  13  23
ATOM     23  C   UNL     1     -44.825  41.728  25.601  1.00  0.00    -0.026 C 
ATOM     24  H   UNL     1     -43.896  42.007  25.096  1.00  0.00     0.032 H 
ATOM     25  H   UNL     1     -45.384  41.121  24.877  1.00  0.00     0.032 H 
BRANCH  23  26
ATOM     26  C   UNL     1     -45.651  42.978  25.916  1.00  0.00    -0.052 C 
ATOM     27  H   UNL     1     -45.602  43.688  25.080  1.00  0.00     0.027 H 
ATOM     28  H   UNL     1     -45.206  43.481  26.782  1.00  0.00     0.027 H 
BRANCH  26  29
ATOM     29  C   UNL     1     -47.109  42.679  26.231  1.00  0.00    -0.065 C 
ATOM     30  H   UNL     1     -47.211  41.801  26.875  1.00  0.00     0.023 H 
ATOM     31  H   UNL     1     -47.585  43.531  26.726  1.00  0.00     0.023 H 
ATOM     32  H   UNL     1     -47.659  42.480  25.306  1.00  0.00     0.023 H 
ENDBRANCH  26  29
ENDBRANCH  23  26
ENDBRANCH  13  23
BRANCH  18  33
ATOM     33  N   UNL     1     -42.401  43.225  27.471  1.00  0.00    -0.383 N 
ATOM     34  H   UNL     1     -42.682  44.025  28.029  1.00  0.00     0.158 HD
ATOM     35  H   UNL     1     -42.764  43.207  26.531  1.00  0.00     0.158 HD
ENDBRANCH  18  33
ENDBRANCH   1  12
BRANCH   5  36
ATOM     36  O   UNL     1     -45.482  38.381  31.221  1.00  0.00    -0.388 OA
ATOM     37  H   UNL     1     -46.000  39.111  31.612  1.00  0.00     0.211 HD
ENDBRANCH   5  36
BRANCH   3  38
ATOM     38  C   UNL     1     -48.286  36.714  28.052  1.00  0.00    -0.044 C 
ATOM     39  H   UNL     1     -49.024  36.700  28.862  1.00  0.00     0.027 H 
ATOM     40  H   UNL     1     -48.638  35.983  27.312  1.00  0.00     0.027 H 
BRANCH  38  41
ATOM     41  C   UNL     1     -48.304  38.112  27.416  1.00  0.00    -0.027 C 
ATOM     42  H   UNL     1     -48.560  38.053  26.353  1.00  0.00     0.032 H 
ATOM     43  H   UNL     1     -47.286  38.524  27.443  1.00  0.00     0.032 H 
BRANCH  41  44
ATOM     44  C   UNL     1     -49.220  39.085  28.114  1.00  0.00    -0.046 A 
ATOM     45  C   UNL     1     -50.569  38.782  28.312  1.00  0.00    -0.058 A 
ATOM     46  C   UNL     1     -48.725  40.312  28.590  1.00  0.00    -0.033 A 
ATOM     47  C   UNL     1     -51.398  39.687  28.972  1.00  0.00    -0.053 A 
ATOM     48  H   UNL     1     -50.981  37.839  27.960  1.00  0.00     0.063 H 
ATOM     49  C   UNL     1     -49.529  41.233  29.248  1.00  0.00     0.073 A 
ATOM     50  H   UNL     1     -47.676  40.565  28.444  1.00  0.00     0.065 H 
ATOM     51  C   UNL     1     -50.886  40.908  29.440  1.00  0.00     0.000 A 
ATOM     52  H   UNL     1     -52.445  39.434  29.121  1.00  0.00     0.063 H 
ATOM     53  N   UNL     1     -48.996  42.390  29.678  1.00  0.00    -0.231 NA
ATOM     54  C   UNL     1     -51.688  41.839  30.107  1.00  0.00    -0.049 A 
ATOM     55  C   UNL     1     -49.782  43.270  30.316  1.00  0.00     0.124 A 
ATOM     56  C   UNL     1     -51.130  43.033  30.551  1.00  0.00    -0.019 A 
ATOM     57  H   UNL     1     -52.741  41.641  30.285  1.00  0.00     0.063 H 
ATOM     58  H   UNL     1     -51.743  43.760  31.071  1.00  0.00     0.066 H 
BRANCH  55  59
ATOM     59  N   UNL     1     -49.197  44.464  30.754  1.00  0.00    -0.384 N 
ATOM     60  H   UNL     1     -48.252  44.531  30.390  1.00  0.00     0.158 HD
ATOM     61  H   UNL     1     -49.150  44.467  31.768  1.00  0.00     0.158 HD
ENDBRANCH  55  59
ENDBRANCH  41  44
ENDBRANCH  38  41
ENDBRANCH   3  38
BRANCH   4  62
ATOM     62  O   UNL     1     -45.790  35.771  30.668  1.00  0.00    -0.390 OA
ATOM     63  H   UNL     1     -45.462  36.260  31.452  1.00  0.00     0.211 HD
ENDBRANCH   4  62
TORSDOF 11
ENDMDL
MODEL 6
REMARK VINA RESULT:      -8.7      1.889      3.040
REMARK SMILES CCCc1cn([C@@H]2C[C@H](CCc3ccc4ccc(N)nc4c3)[C@@H](O)[C@H]2O)c2ncnc(N)c12
REMARK SMILES IDX 7 1 8 2 9 3 23 4 25 5 6 12 4 13 5 14 33 15 27 17 31 18 28 19
REMARK SMILES IDX 30 20 29 21 3 23 2 26 1 29 32 33 26 36 10 38 11 41 12 44
REMARK SMILES IDX 13 45 22 46 14 47 21 49 15 51 20 53 16 54 18 55 17 56 19 59
REMARK SMILES IDX 24 62
REMARK H PARENT 7 6 8 7 8 8 9 9 23 10 25 11 5 16 29 22 3 24 3 25 2 27 2 28
REMARK H PARENT 1 30 1 31 1 32 32 34 32 35 26 37 10 39 10 40 11 42 11 43 13 48
REMARK H PARENT 22 50 14 52 16 57 17 58 19 60 19 61 24 63
REMARK Flexibility Score: inf
ROOT
ATOM      1  C   UNL     1     -46.303  39.690  27.987  1.00  0.00     0.064 C 
ATOM      2  C   UNL     1     -45.846  38.500  28.853  1.00  0.00    -0.024 C 
ATOM      3  C   UNL     1     -46.750  37.304  28.477  1.00  0.00    -0.010 C 
ATOM      4  C   UNL     1     -47.879  37.933  27.650  1.00  0.00     0.085 C 
ATOM      5  C   UNL     1     -47.204  39.087  26.903  1.00  0.00     0.101 C 
ATOM      6  H   UNL     1     -46.908  40.359  28.615  1.00  0.00     0.056 H 
ATOM      7  H   UNL     1     -44.781  38.277  28.743  1.00  0.00     0.029 H 
ATOM      8  H   UNL     1     -45.994  38.753  29.910  1.00  0.00     0.029 H 
ATOM      9  H   UNL     1     -47.164  36.863  29.393  1.00  0.00     0.033 H 
ATOM     10  H   UNL     1     -48.382  37.232  26.977  1.00  0.00     0.063 H 
ATOM     11  H   UNL     1     -46.653  38.709  26.036  1.00  0.00     0.065 H 
ENDROOT
BRANCH   1  12
ATOM     12  N   UNL     1     -45.220  40.507  27.465  1.00  0.00    -0.326 N 
ATOM     13  C   UNL     1     -43.138  41.217  27.027  1.00  0.00    -0.017 A 
ATOM     14  C   UNL     1     -43.888  40.224  27.638  1.00  0.00     0.010 A 
ATOM     15  C   UNL     1     -44.072  42.146  26.457  1.00  0.00     0.064 A 
ATOM     16  H   UNL     1     -43.571  39.344  28.183  1.00  0.00     0.082 H 
ATOM     17  C   UNL     1     -45.346  41.676  26.759  1.00  0.00     0.146 A 
ATOM     18  C   UNL     1     -44.017  43.347  25.724  1.00  0.00     0.136 A 
ATOM     19  N   UNL     1     -46.513  42.255  26.427  1.00  0.00    -0.218 NA
ATOM     20  N   UNL     1     -45.166  43.956  25.373  1.00  0.00    -0.219 NA
ATOM     21  C   UNL     1     -46.328  43.391  25.739  1.00  0.00     0.120 A 
ATOM     22  H   UNL     1     -47.228  43.920  25.439  1.00  0.00     0.106 H 
BRANCH  13  23
ATOM     23  C   UNL     1     -41.641  41.274  27.017  1.00  0.00    -0.026 C 
ATOM     24  H   UNL     1     -41.218  40.422  26.478  1.00  0.00     0.032 H 
ATOM     25  H   UNL     1     -41.341  42.162  26.446  1.00  0.00     0.032 H 
BRANCH  23  26
ATOM     26  C   UNL     1     -41.021  41.373  28.414  1.00  0.00    -0.052 C 
ATOM     27  H   UNL     1     -40.085  41.944  28.377  1.00  0.00     0.027 H 
ATOM     28  H   UNL     1     -40.761  40.363  28.752  1.00  0.00     0.027 H 
BRANCH  26  29
ATOM     29  C   UNL     1     -41.947  41.999  29.446  1.00  0.00    -0.065 C 
ATOM     30  H   UNL     1     -42.999  41.843  29.192  1.00  0.00     0.023 H 
ATOM     31  H   UNL     1     -41.763  41.584  30.441  1.00  0.00     0.023 H 
ATOM     32  H   UNL     1     -41.774  43.079  29.497  1.00  0.00     0.023 H 
ENDBRANCH  26  29
ENDBRANCH  23  26
ENDBRANCH  13  23
BRANCH  18  33
ATOM     33  N   UNL     1     -42.845  43.962  25.303  1.00  0.00    -0.383 N 
ATOM     34  H   UNL     1     -42.404  43.393  24.587  1.00  0.00     0.158 HD
ATOM     35  H   UNL     1     -42.240  44.251  26.056  1.00  0.00     0.158 HD
ENDBRANCH  18  33
ENDBRANCH   1  12
BRANCH   5  36
ATOM     36  O   UNL     1     -48.195  40.010  26.444  1.00  0.00    -0.388 OA
ATOM     37  H   UNL     1     -47.880  40.901  26.688  1.00  0.00     0.211 HD
ENDBRANCH   5  36
BRANCH   3  38
ATOM     38  C   UNL     1     -46.015  36.212  27.675  1.00  0.00    -0.044 C 
ATOM     39  H   UNL     1     -46.101  35.249  28.191  1.00  0.00     0.027 H 
ATOM     40  H   UNL     1     -44.944  36.452  27.660  1.00  0.00     0.027 H 
BRANCH  38  41
ATOM     41  C   UNL     1     -46.502  36.022  26.230  1.00  0.00    -0.027 C 
ATOM     42  H   UNL     1     -45.688  36.200  25.519  1.00  0.00     0.032 H 
ATOM     43  H   UNL     1     -47.249  36.795  26.007  1.00  0.00     0.032 H 
BRANCH  41  44
ATOM     44  C   UNL     1     -47.130  34.677  25.973  1.00  0.00    -0.046 A 
ATOM     45  C   UNL     1     -48.380  34.357  26.506  1.00  0.00    -0.058 A 
ATOM     46  C   UNL     1     -46.468  33.725  25.178  1.00  0.00    -0.033 A 
ATOM     47  C   UNL     1     -48.952  33.112  26.246  1.00  0.00    -0.053 A 
ATOM     48  H   UNL     1     -48.919  35.074  27.122  1.00  0.00     0.063 H 
ATOM     49  C   UNL     1     -47.014  32.477  24.905  1.00  0.00     0.073 A 
ATOM     50  H   UNL     1     -45.493  33.957  24.754  1.00  0.00     0.065 H 
ATOM     51  C   UNL     1     -48.277  32.173  25.450  1.00  0.00     0.000 A 
ATOM     52  H   UNL     1     -49.928  32.880  26.666  1.00  0.00     0.063 H 
ATOM     53  N   UNL     1     -46.331  31.609  24.138  1.00  0.00    -0.231 NA
ATOM     54  C   UNL     1     -48.820  30.917  25.167  1.00  0.00    -0.049 A 
ATOM     55  C   UNL     1     -46.870  30.408  23.878  1.00  0.00     0.124 A 
ATOM     56  C   UNL     1     -48.110  30.024  24.372  1.00  0.00    -0.019 A 
ATOM     57  H   UNL     1     -49.792  30.629  25.559  1.00  0.00     0.063 H 
ATOM     58  H   UNL     1     -48.524  29.049  24.145  1.00  0.00     0.066 H 
BRANCH  55  59
ATOM     59  N   UNL     1     -46.136  29.528  23.074  1.00  0.00    -0.384 N 
ATOM     60  H   UNL     1     -45.392  30.036  22.609  1.00  0.00     0.158 HD
ATOM     61  H   UNL     1     -46.743  29.129  22.365  1.00  0.00     0.158 HD
ENDBRANCH  55  59
ENDBRANCH  41  44
ENDBRANCH  38  41
ENDBRANCH   3  38
BRANCH   4  62
ATOM     62  O   UNL     1     -48.869  38.467  28.535  1.00  0.00    -0.390 OA
ATOM     63  H   UNL     1     -48.389  39.128  29.077  1.00  0.00     0.211 HD
ENDBRANCH   4  62
TORSDOF 11
ENDMDL
MODEL 7
REMARK VINA RESULT:      -8.7      1.948     10.125
REMARK SMILES CCCc1cn([C@@H]2C[C@H](CCc3ccc4ccc(N)nc4c3)[C@@H](O)[C@H]2O)c2ncnc(N)c12
REMARK SMILES IDX 7 1 8 2 9 3 23 4 25 5 6 12 4 13 5 14 33 15 27 17 31 18 28 19
REMARK SMILES IDX 30 20 29 21 3 23 2 26 1 29 32 33 26 36 10 38 11 41 12 44
REMARK SMILES IDX 13 45 22 46 14 47 21 49 15 51 20 53 16 54 18 55 17 56 19 59
REMARK SMILES IDX 24 62
REMARK H PARENT 7 6 8 7 8 8 9 9 23 10 25 11 5 16 29 22 3 24 3 25 2 27 2 28
REMARK H PARENT 1 30 1 31 1 32 32 34 32 35 26 37 10 39 10 40 11 42 11 43 13 48
REMARK H PARENT 22 50 14 52 16 57 17 58 19 60 19 61 24 63
REMARK Flexibility Score: inf
ROOT
ATOM      1  C   UNL     1     -47.387  33.764  26.999  1.00  0.00     0.064 C 
ATOM      2  C   UNL     1     -48.038  35.152  26.845  1.00  0.00    -0.024 C 
ATOM      3  C   UNL     1     -47.114  36.159  27.567  1.00  0.00    -0.010 C 
ATOM      4  C   UNL     1     -46.147  35.274  28.364  1.00  0.00     0.085 C 
ATOM      5  C   UNL     1     -45.959  34.032  27.489  1.00  0.00     0.101 C 
ATOM      6  H   UNL     1     -47.930  33.215  27.781  1.00  0.00     0.056 H 
ATOM      7  H   UNL     1     -48.225  35.422  25.802  1.00  0.00     0.029 H 
ATOM      8  H   UNL     1     -49.020  35.140  27.335  1.00  0.00     0.029 H 
ATOM      9  H   UNL     1     -47.712  36.768  28.256  1.00  0.00     0.033 H 
ATOM     10  H   UNL     1     -45.199  35.761  28.613  1.00  0.00     0.063 H 
ATOM     11  H   UNL     1     -45.250  34.239  26.680  1.00  0.00     0.065 H 
ENDROOT
BRANCH   1  12
ATOM     12  N   UNL     1     -47.455  32.930  25.809  1.00  0.00    -0.326 N 
ATOM     13  C   UNL     1     -46.786  31.724  24.041  1.00  0.00    -0.017 A 
ATOM     14  C   UNL     1     -46.357  32.471  25.127  1.00  0.00     0.010 A 
ATOM     15  C   UNL     1     -48.222  31.738  24.075  1.00  0.00     0.064 A 
ATOM     16  H   UNL     1     -45.354  32.709  25.459  1.00  0.00     0.082 H 
ATOM     17  C   UNL     1     -48.594  32.502  25.177  1.00  0.00     0.146 A 
ATOM     18  C   UNL     1     -49.278  31.211  23.307  1.00  0.00     0.136 A 
ATOM     19  N   UNL     1     -49.848  32.785  25.568  1.00  0.00    -0.218 NA
ATOM     20  N   UNL     1     -50.548  31.473  23.669  1.00  0.00    -0.219 NA
ATOM     21  C   UNL     1     -50.761  32.233  24.756  1.00  0.00     0.120 A 
ATOM     22  H   UNL     1     -51.800  32.422  25.006  1.00  0.00     0.106 H 
BRANCH  13  23
ATOM     23  C   UNL     1     -45.883  31.072  23.039  1.00  0.00    -0.026 C 
ATOM     24  H   UNL     1     -46.077  31.449  22.031  1.00  0.00     0.032 H 
ATOM     25  H   UNL     1     -44.852  31.369  23.272  1.00  0.00     0.032 H 
BRANCH  23  26
ATOM     26  C   UNL     1     -45.954  29.543  23.052  1.00  0.00    -0.052 C 
ATOM     27  H   UNL     1     -46.885  29.200  22.583  1.00  0.00     0.027 H 
ATOM     28  H   UNL     1     -45.983  29.204  24.094  1.00  0.00     0.027 H 
BRANCH  26  29
ATOM     29  C   UNL     1     -44.774  28.874  22.363  1.00  0.00    -0.065 C 
ATOM     30  H   UNL     1     -44.511  27.927  22.842  1.00  0.00     0.023 H 
ATOM     31  H   UNL     1     -44.994  28.682  21.309  1.00  0.00     0.023 H 
ATOM     32  H   UNL     1     -43.896  29.526  22.408  1.00  0.00     0.023 H 
ENDBRANCH  26  29
ENDBRANCH  23  26
ENDBRANCH  13  23
BRANCH  18  33
ATOM     33  N   UNL     1     -49.114  30.403  22.189  1.00  0.00    -0.383 N 
ATOM     34  H   UNL     1     -49.376  30.922  21.357  1.00  0.00     0.158 HD
ATOM     35  H   UNL     1     -49.535  29.491  22.276  1.00  0.00     0.158 HD
ENDBRANCH  18  33
ENDBRANCH   1  12
BRANCH   5  36
ATOM     36  O   UNL     1     -45.444  32.957  28.279  1.00  0.00    -0.388 OA
ATOM     37  H   UNL     1     -46.208  32.558  28.738  1.00  0.00     0.211 HD
ENDBRANCH   5  36
BRANCH   3  38
ATOM     38  C   UNL     1     -46.350  37.087  26.602  1.00  0.00    -0.044 C 
ATOM     39  H   UNL     1     -46.419  36.698  25.579  1.00  0.00     0.027 H 
ATOM     40  H   UNL     1     -45.284  37.060  26.862  1.00  0.00     0.027 H 
BRANCH  38  41
ATOM     41  C   UNL     1     -46.823  38.548  26.588  1.00  0.00    -0.027 C 
ATOM     42  H   UNL     1     -47.632  38.702  27.311  1.00  0.00     0.032 H 
ATOM     43  H   UNL     1     -47.270  38.763  25.608  1.00  0.00     0.032 H 
BRANCH  41  44
ATOM     44  C   UNL     1     -45.719  39.546  26.828  1.00  0.00    -0.046 A 
ATOM     45  C   UNL     1     -45.509  40.606  25.944  1.00  0.00    -0.058 A 
ATOM     46  C   UNL     1     -44.889  39.431  27.956  1.00  0.00    -0.033 A 
ATOM     47  C   UNL     1     -44.492  41.528  26.188  1.00  0.00    -0.053 A 
ATOM     48  H   UNL     1     -46.137  40.725  25.063  1.00  0.00     0.063 H 
ATOM     49  C   UNL     1     -43.868  40.334  28.223  1.00  0.00     0.073 A 
ATOM     50  H   UNL     1     -45.039  38.610  28.657  1.00  0.00     0.065 H 
ATOM     51  C   UNL     1     -43.673  41.397  27.321  1.00  0.00     0.000 A 
ATOM     52  H   UNL     1     -44.344  42.350  25.491  1.00  0.00     0.063 H 
ATOM     53  N   UNL     1     -43.108  40.168  29.319  1.00  0.00    -0.231 NA
ATOM     54  C   UNL     1     -42.645  42.303  27.599  1.00  0.00    -0.049 A 
ATOM     55  C   UNL     1     -42.126  41.048  29.568  1.00  0.00     0.124 A 
ATOM     56  C   UNL     1     -41.863  42.127  28.735  1.00  0.00    -0.019 A 
ATOM     57  H   UNL     1     -42.450  43.144  26.938  1.00  0.00     0.063 H 
ATOM     58  H   UNL     1     -41.066  42.826  28.960  1.00  0.00     0.066 H 
BRANCH  55  59
ATOM     59  N   UNL     1     -41.354  40.851  30.719  1.00  0.00    -0.384 N 
ATOM     60  H   UNL     1     -40.833  41.697  30.926  1.00  0.00     0.158 HD
ATOM     61  H   UNL     1     -40.693  40.098  30.561  1.00  0.00     0.158 HD
ENDBRANCH  55  59
ENDBRANCH  41  44
ENDBRANCH  38  41
ENDBRANCH   3  38
BRANCH   4  62
ATOM     62  O   UNL     1     -46.769  34.887  29.594  1.00  0.00    -0.390 OA
ATOM     63  H   UNL     1     -47.601  34.445  29.324  1.00  0.00     0.211 HD
ENDBRANCH   4  62
TORSDOF 11
ENDMDL
