MODEL 1
REMARK VINA RESULT:     -11.5      0.000      0.000
REMARK SMILES Nc1ncnc2c1ccn2[C@@H]1O[C@H](CCc2ccc3ccc(N4CCCC4)nc3c2)[C@@H](O)[C@H]1O
REMARK SMILES IDX 14 1 13 4 11 5 12 6 33 7 31 9 10 13 2 14 3 15 7 16 4 17 6 18
REMARK SMILES IDX 8 19 5 20 9 22 1 25 34 28 32 30 15 32 16 35 17 36 30 37
REMARK SMILES IDX 18 38 29 40 19 42 28 44 20 45 22 46 21 47 23 50 24 51 27 52
REMARK SMILES IDX 25 53 26 56
REMARK H PARENT 14 2 14 3 11 8 33 10 13 11 31 12 4 21 8 23 9 24 1 26 1 27
REMARK H PARENT 34 29 32 31 15 33 15 34 17 39 30 41 18 43 20 48 21 49 24 54
REMARK H PARENT 24 55 27 57 27 58 25 59 25 60 26 61 26 62
REMARK Flexibility Score: inf
ROOT
ATOM      1  C   UNL     1     -47.007  36.075  27.039  1.00  0.00    -0.020 C 
ATOM      2  H   UNL     1     -46.359  36.033  26.152  1.00  0.00     0.030 H 
ATOM      3  H   UNL     1     -47.441  37.083  27.022  1.00  0.00     0.030 H 
ENDROOT
BRANCH   1   4
ATOM      4  C   UNL     1     -46.112  35.892  28.273  1.00  0.00     0.089 C 
ATOM      5  C   UNL     1     -44.976  37.833  28.977  1.00  0.00     0.164 C 
ATOM      6  O   UNL     1     -44.941  36.724  28.052  1.00  0.00    -0.349 OA
ATOM      7  C   UNL     1     -46.363  37.832  29.629  1.00  0.00     0.128 C 
ATOM      8  H   UNL     1     -44.169  37.700  29.707  1.00  0.00     0.088 H 
ATOM      9  C   UNL     1     -46.705  36.357  29.602  1.00  0.00     0.111 C 
ATOM     10  H   UNL     1     -47.088  38.402  29.037  1.00  0.00     0.068 H 
ATOM     11  H   UNL     1     -45.757  34.858  28.329  1.00  0.00     0.063 H 
ATOM     12  H   UNL     1     -47.768  36.166  29.738  1.00  0.00     0.066 H 
BRANCH   5  13
ATOM     13  N   UNL     1     -44.691  39.077  28.263  1.00  0.00    -0.303 N 
ATOM     14  C   UNL     1     -42.802  42.058  27.971  1.00  0.00     0.136 A 
ATOM     15  N   UNL     1     -42.006  41.991  29.055  1.00  0.00    -0.219 NA
ATOM     16  C   UNL     1     -43.720  41.024  27.740  1.00  0.00     0.061 A 
ATOM     17  C   UNL     1     -42.121  40.925  29.868  1.00  0.00     0.120 A 
ATOM     18  C   UNL     1     -43.736  39.986  28.661  1.00  0.00     0.147 A 
ATOM     19  C   UNL     1     -44.702  40.722  26.759  1.00  0.00    -0.031 A 
ATOM     20  N   UNL     1     -42.966  39.880  29.761  1.00  0.00    -0.218 NA
ATOM     21  H   UNL     1     -41.449  40.908  30.721  1.00  0.00     0.106 H 
ATOM     22  C   UNL     1     -45.285  39.522  27.106  1.00  0.00     0.009 A 
ATOM     23  H   UNL     1     -44.948  41.312  25.885  1.00  0.00     0.065 H 
ATOM     24  H   UNL     1     -46.059  38.943  26.616  1.00  0.00     0.082 H 
BRANCH  14  25
ATOM     25  N   UNL     1     -42.670  43.168  27.151  1.00  0.00    -0.383 N 
ATOM     26  H   UNL     1     -41.918  43.122  26.479  1.00  0.00     0.158 HD
ATOM     27  H   UNL     1     -43.571  43.476  26.807  1.00  0.00     0.158 HD
ENDBRANCH  14  25
ENDBRANCH   5  13
BRANCH   7  28
ATOM     28  O   UNL     1     -46.387  38.319  30.974  1.00  0.00    -0.386 OA
ATOM     29  H   UNL     1     -45.502  38.713  31.136  1.00  0.00     0.211 HD
ENDBRANCH   7  28
BRANCH   9  30
ATOM     30  O   UNL     1     -46.025  35.703  30.686  1.00  0.00    -0.388 OA
ATOM     31  H   UNL     1     -46.246  36.236  31.478  1.00  0.00     0.211 HD
ENDBRANCH   9  30
ENDBRANCH   1   4
BRANCH   1  32
ATOM     32  C   UNL     1     -48.083  34.999  26.864  1.00  0.00    -0.025 C 
ATOM     33  H   UNL     1     -48.346  34.602  27.854  1.00  0.00     0.032 H 
ATOM     34  H   UNL     1     -49.003  35.457  26.479  1.00  0.00     0.032 H 
BRANCH  32  35
ATOM     35  C   UNL     1     -47.680  33.828  26.008  1.00  0.00    -0.046 A 
ATOM     36  C   UNL     1     -46.578  33.913  25.151  1.00  0.00    -0.058 A 
ATOM     37  C   UNL     1     -48.397  32.621  26.069  1.00  0.00    -0.033 A 
ATOM     38  C   UNL     1     -46.219  32.819  24.365  1.00  0.00    -0.053 A 
ATOM     39  H   UNL     1     -45.987  34.824  25.095  1.00  0.00     0.063 H 
ATOM     40  C   UNL     1     -48.060  31.516  25.295  1.00  0.00     0.073 A 
ATOM     41  H   UNL     1     -49.254  32.529  26.734  1.00  0.00     0.065 H 
ATOM     42  C   UNL     1     -46.956  31.624  24.433  1.00  0.00     0.000 A 
ATOM     43  H   UNL     1     -45.359  32.899  23.705  1.00  0.00     0.063 H 
ATOM     44  N   UNL     1     -48.793  30.394  25.392  1.00  0.00    -0.231 NA
ATOM     45  C   UNL     1     -46.628  30.509  23.664  1.00  0.00    -0.049 A 
ATOM     46  C   UNL     1     -48.487  29.315  24.635  1.00  0.00     0.129 A 
ATOM     47  C   UNL     1     -47.395  29.351  23.772  1.00  0.00    -0.019 A 
ATOM     48  H   UNL     1     -45.779  30.524  22.988  1.00  0.00     0.063 H 
ATOM     49  H   UNL     1     -47.120  28.479  23.189  1.00  0.00     0.066 H 
BRANCH  46  50
ATOM     50  N   UNL     1     -49.254  28.180  24.775  1.00  0.00    -0.357 N 
ATOM     51  C   UNL     1     -49.274  27.503  26.068  1.00  0.00     0.019 C 
ATOM     52  C   UNL     1     -50.506  27.981  24.052  1.00  0.00     0.019 C 
ATOM     53  C   UNL     1     -50.337  26.425  25.871  1.00  0.00    -0.034 C 
ATOM     54  H   UNL     1     -49.583  28.188  26.868  1.00  0.00     0.049 H 
ATOM     55  H   UNL     1     -48.305  27.061  26.320  1.00  0.00     0.049 H 
ATOM     56  C   UNL     1     -51.359  27.130  24.995  1.00  0.00    -0.034 C 
ATOM     57  H   UNL     1     -51.028  28.916  23.821  1.00  0.00     0.049 H 
ATOM     58  H   UNL     1     -50.309  27.442  23.119  1.00  0.00     0.049 H 
ATOM     59  H   UNL     1     -50.757  26.072  26.817  1.00  0.00     0.029 H 
ATOM     60  H   UNL     1     -49.911  25.567  25.337  1.00  0.00     0.029 H 
ATOM     61  H   UNL     1     -52.009  26.434  24.457  1.00  0.00     0.029 H 
ATOM     62  H   UNL     1     -51.993  27.779  25.611  1.00  0.00     0.029 H 
ENDBRANCH  46  50
ENDBRANCH  32  35
ENDBRANCH   1  32
TORSDOF 8
ENDMDL
MODEL 2
REMARK VINA RESULT:     -10.5      3.371     11.728
REMARK SMILES Nc1ncnc2c1ccn2[C@@H]1O[C@H](CCc2ccc3ccc(N4CCCC4)nc3c2)[C@@H](O)[C@H]1O
REMARK SMILES IDX 14 1 13 4 11 5 12 6 33 7 31 9 10 13 2 14 3 15 7 16 4 17 6 18
REMARK SMILES IDX 8 19 5 20 9 22 1 25 34 28 32 30 15 32 16 35 17 36 30 37
REMARK SMILES IDX 18 38 29 40 19 42 28 44 20 45 22 46 21 47 23 50 24 51 27 52
REMARK SMILES IDX 25 53 26 56
REMARK H PARENT 14 2 14 3 11 8 33 10 13 11 31 12 4 21 8 23 9 24 1 26 1 27
REMARK H PARENT 34 29 32 31 15 33 15 34 17 39 30 41 18 43 20 48 21 49 24 54
REMARK H PARENT 24 55 27 57 27 58 25 59 25 60 26 61 26 62
REMARK Flexibility Score: inf
ROOT
ATOM      1  C   UNL     1     -47.297  31.959  24.251  1.00  0.00    -0.020 C 
ATOM      2  H   UNL     1     -48.132  31.435  24.738  1.00  0.00     0.030 H 
ATOM      3  H   UNL     1     -47.773  32.722  23.623  1.00  0.00     0.030 H 
ENDROOT
BRANCH   1   4
ATOM      4  C   UNL     1     -46.553  30.933  23.383  1.00  0.00     0.089 C 
ATOM      5  C   UNL     1     -47.723  28.926  22.988  1.00  0.00     0.164 C 
ATOM      6  O   UNL     1     -46.879  29.626  23.929  1.00  0.00    -0.349 OA
ATOM      7  C   UNL     1     -48.150  29.941  21.924  1.00  0.00     0.128 C 
ATOM      8  H   UNL     1     -47.150  28.091  22.566  1.00  0.00     0.088 H 
ATOM      9  C   UNL     1     -46.962  30.881  21.912  1.00  0.00     0.111 C 
ATOM     10  H   UNL     1     -49.058  30.479  22.219  1.00  0.00     0.068 H 
ATOM     11  H   UNL     1     -45.471  31.059  23.497  1.00  0.00     0.063 H 
ATOM     12  H   UNL     1     -47.185  31.840  21.450  1.00  0.00     0.066 H 
BRANCH   5  13
ATOM     13  N   UNL     1     -48.860  28.336  23.693  1.00  0.00    -0.303 N 
ATOM     14  C   UNL     1     -50.105  26.055  26.099  1.00  0.00     0.136 A 
ATOM     15  N   UNL     1     -48.977  25.451  26.519  1.00  0.00    -0.219 NA
ATOM     16  C   UNL     1     -50.013  27.048  25.115  1.00  0.00     0.061 A 
ATOM     17  C   UNL     1     -47.806  25.835  25.979  1.00  0.00     0.120 A 
ATOM     18  C   UNL     1     -48.743  27.344  24.640  1.00  0.00     0.147 A 
ATOM     19  C   UNL     1     -50.920  27.896  24.422  1.00  0.00    -0.031 A 
ATOM     20  N   UNL     1     -47.590  26.762  25.024  1.00  0.00    -0.218 NA
ATOM     21  H   UNL     1     -46.923  25.328  26.358  1.00  0.00     0.106 H 
ATOM     22  C   UNL     1     -50.186  28.674  23.553  1.00  0.00     0.009 A 
ATOM     23  H   UNL     1     -51.994  27.941  24.554  1.00  0.00     0.065 H 
ATOM     24  H   UNL     1     -50.496  29.449  22.863  1.00  0.00     0.082 H 
BRANCH  14  25
ATOM     25  N   UNL     1     -51.300  25.640  26.666  1.00  0.00    -0.383 N 
ATOM     26  H   UNL     1     -52.134  26.025  26.246  1.00  0.00     0.158 HD
ATOM     27  H   UNL     1     -51.294  24.642  26.838  1.00  0.00     0.158 HD
ENDBRANCH  14  25
ENDBRANCH   5  13
BRANCH   7  28
ATOM     28  O   UNL     1     -48.352  29.386  20.620  1.00  0.00    -0.386 OA
ATOM     29  H   UNL     1     -47.786  29.910  20.012  1.00  0.00     0.211 HD
ENDBRANCH   7  28
BRANCH   9  30
ATOM     30  O   UNL     1     -45.906  30.285  21.141  1.00  0.00    -0.388 OA
ATOM     31  H   UNL     1     -46.190  30.384  20.208  1.00  0.00     0.211 HD
ENDBRANCH   9  30
ENDBRANCH   1   4
BRANCH   1  32
ATOM     32  C   UNL     1     -46.451  32.592  25.359  1.00  0.00    -0.025 C 
ATOM     33  H   UNL     1     -46.307  31.851  26.157  1.00  0.00     0.032 H 
ATOM     34  H   UNL     1     -45.445  32.809  24.976  1.00  0.00     0.032 H 
BRANCH  32  35
ATOM     35  C   UNL     1     -47.048  33.821  25.993  1.00  0.00    -0.046 A 
ATOM     36  C   UNL     1     -48.399  33.856  26.353  1.00  0.00    -0.058 A 
ATOM     37  C   UNL     1     -46.250  34.948  26.250  1.00  0.00    -0.033 A 
ATOM     38  C   UNL     1     -48.935  35.002  26.938  1.00  0.00    -0.053 A 
ATOM     39  H   UNL     1     -49.040  32.993  26.188  1.00  0.00     0.063 H 
ATOM     40  C   UNL     1     -46.760  36.103  26.832  1.00  0.00     0.073 A 
ATOM     41  H   UNL     1     -45.194  34.941  25.984  1.00  0.00     0.065 H 
ATOM     42  C   UNL     1     -48.122  36.124  27.176  1.00  0.00     0.000 A 
ATOM     43  H   UNL     1     -49.987  35.015  27.214  1.00  0.00     0.063 H 
ATOM     44  N   UNL     1     -45.947  37.152  27.041  1.00  0.00    -0.231 NA
ATOM     45  C   UNL     1     -48.621  37.287  27.761  1.00  0.00    -0.049 A 
ATOM     46  C   UNL     1     -46.432  38.288  27.593  1.00  0.00     0.129 A 
ATOM     47  C   UNL     1     -47.768  38.368  27.973  1.00  0.00    -0.019 A 
ATOM     48  H   UNL     1     -49.662  37.362  28.062  1.00  0.00     0.063 H 
ATOM     49  H   UNL     1     -48.157  39.261  28.449  1.00  0.00     0.066 H 
BRANCH  46  50
ATOM     50  N   UNL     1     -45.561  39.335  27.804  1.00  0.00    -0.357 N 
ATOM     51  C   UNL     1     -44.441  39.140  28.719  1.00  0.00     0.019 C 
ATOM     52  C   UNL     1     -45.240  40.313  26.770  1.00  0.00     0.019 C 
ATOM     53  C   UNL     1     -43.642  40.430  28.556  1.00  0.00    -0.034 C 
ATOM     54  H   UNL     1     -43.828  38.282  28.416  1.00  0.00     0.049 H 
ATOM     55  H   UNL     1     -44.768  39.007  29.755  1.00  0.00     0.049 H 
ATOM     56  C   UNL     1     -43.798  40.728  27.075  1.00  0.00    -0.034 C 
ATOM     57  H   UNL     1     -45.303  39.908  25.754  1.00  0.00     0.049 H 
ATOM     58  H   UNL     1     -45.914  41.171  26.855  1.00  0.00     0.049 H 
ATOM     59  H   UNL     1     -42.597  40.318  28.860  1.00  0.00     0.029 H 
ATOM     60  H   UNL     1     -44.093  41.233  29.152  1.00  0.00     0.029 H 
ATOM     61  H   UNL     1     -43.605  41.776  26.828  1.00  0.00     0.029 H 
ATOM     62  H   UNL     1     -43.103  40.109  26.495  1.00  0.00     0.029 H 
ENDBRANCH  46  50
ENDBRANCH  32  35
ENDBRANCH   1  32
TORSDOF 8
ENDMDL
MODEL 3
REMARK VINA RESULT:     -10.4      1.729      2.638
REMARK SMILES Nc1ncnc2c1ccn2[C@@H]1O[C@H](CCc2ccc3ccc(N4CCCC4)nc3c2)[C@@H](O)[C@H]1O
REMARK SMILES IDX 14 1 13 4 11 5 12 6 33 7 31 9 10 13 2 14 3 15 7 16 4 17 6 18
REMARK SMILES IDX 8 19 5 20 9 22 1 25 34 28 32 30 15 32 16 35 17 36 30 37
REMARK SMILES IDX 18 38 29 40 19 42 28 44 20 45 22 46 21 47 23 50 24 51 27 52
REMARK SMILES IDX 25 53 26 56
REMARK H PARENT 14 2 14 3 11 8 33 10 13 11 31 12 4 21 8 23 9 24 1 26 1 27
REMARK H PARENT 34 29 32 31 15 33 15 34 17 39 30 41 18 43 20 48 21 49 24 54
REMARK H PARENT 24 55 27 57 27 58 25 59 25 60 26 61 26 62
REMARK Flexibility Score: inf
ROOT
ATOM      1  C   UNL     1     -45.443  35.866  27.354  1.00  0.00    -0.020 C 
ATOM      2  H   UNL     1     -45.232  34.788  27.404  1.00  0.00     0.030 H 
ATOM      3  H   UNL     1     -44.587  36.295  26.818  1.00  0.00     0.030 H 
ENDROOT
BRANCH   1   4
ATOM      4  C   UNL     1     -45.496  36.393  28.796  1.00  0.00     0.089 C 
ATOM      5  C   UNL     1     -45.140  38.711  29.025  1.00  0.00     0.164 C 
ATOM      6  O   UNL     1     -44.484  37.431  28.887  1.00  0.00    -0.349 OA
ATOM      7  C   UNL     1     -46.630  38.484  28.751  1.00  0.00     0.128 C 
ATOM      8  H   UNL     1     -44.952  39.087  30.038  1.00  0.00     0.088 H 
ATOM      9  C   UNL     1     -46.806  37.054  29.218  1.00  0.00     0.111 C 
ATOM     10  H   UNL     1     -46.862  38.567  27.683  1.00  0.00     0.068 H 
ATOM     11  H   UNL     1     -45.199  35.603  29.495  1.00  0.00     0.063 H 
ATOM     12  H   UNL     1     -47.714  36.592  28.834  1.00  0.00     0.066 H 
BRANCH   5  13
ATOM     13  N   UNL     1     -44.538  39.674  28.104  1.00  0.00    -0.303 N 
ATOM     14  C   UNL     1     -42.019  42.064  27.413  1.00  0.00     0.136 A 
ATOM     15  N   UNL     1     -41.331  42.088  28.571  1.00  0.00    -0.219 NA
ATOM     16  C   UNL     1     -43.126  41.213  27.300  1.00  0.00     0.061 A 
ATOM     17  C   UNL     1     -41.735  41.282  29.570  1.00  0.00     0.120 A 
ATOM     18  C   UNL     1     -43.434  40.438  28.410  1.00  0.00     0.147 A 
ATOM     19  C   UNL     1     -44.083  40.898  26.298  1.00  0.00    -0.031 A 
ATOM     20  N   UNL     1     -42.782  40.433  29.588  1.00  0.00    -0.218 NA
ATOM     21  H   UNL     1     -41.142  41.326  30.479  1.00  0.00     0.106 H 
ATOM     22  C   UNL     1     -44.940  39.953  26.819  1.00  0.00     0.009 A 
ATOM     23  H   UNL     1     -44.133  41.309  25.298  1.00  0.00     0.065 H 
ATOM     24  H   UNL     1     -45.789  39.446  26.376  1.00  0.00     0.082 H 
BRANCH  14  25
ATOM     25  N   UNL     1     -41.589  42.907  26.399  1.00  0.00    -0.383 N 
ATOM     26  H   UNL     1     -42.116  43.762  26.296  1.00  0.00     0.158 HD
ATOM     27  H   UNL     1     -40.580  42.990  26.397  1.00  0.00     0.158 HD
ENDBRANCH  14  25
ENDBRANCH   5  13
BRANCH   7  28
ATOM     28  O   UNL     1     -47.507  39.351  29.477  1.00  0.00    -0.386 OA
ATOM     29  H   UNL     1     -48.334  39.404  28.951  1.00  0.00     0.211 HD
ENDBRANCH   7  28
BRANCH   9  30
ATOM     30  O   UNL     1     -46.910  37.043  30.651  1.00  0.00    -0.388 OA
ATOM     31  H   UNL     1     -47.802  36.679  30.835  1.00  0.00     0.211 HD
ENDBRANCH   9  30
ENDBRANCH   1   4
BRANCH   1  32
ATOM     32  C   UNL     1     -46.743  36.038  26.563  1.00  0.00    -0.025 C 
ATOM     33  H   UNL     1     -47.445  36.629  27.166  1.00  0.00     0.032 H 
ATOM     34  H   UNL     1     -46.551  36.638  25.665  1.00  0.00     0.032 H 
BRANCH  32  35
ATOM     35  C   UNL     1     -47.440  34.754  26.198  1.00  0.00    -0.046 A 
ATOM     36  C   UNL     1     -48.762  34.521  26.589  1.00  0.00    -0.058 A 
ATOM     37  C   UNL     1     -46.776  33.774  25.442  1.00  0.00    -0.033 A 
ATOM     38  C   UNL     1     -49.392  33.327  26.242  1.00  0.00    -0.053 A 
ATOM     39  H   UNL     1     -49.313  35.267  27.156  1.00  0.00     0.063 H 
ATOM     40  C   UNL     1     -47.381  32.574  25.084  1.00  0.00     0.073 A 
ATOM     41  H   UNL     1     -45.748  33.936  25.121  1.00  0.00     0.065 H 
ATOM     42  C   UNL     1     -48.707  32.354  25.495  1.00  0.00     0.000 A 
ATOM     43  H   UNL     1     -50.421  33.159  26.552  1.00  0.00     0.063 H 
ATOM     44  N   UNL     1     -46.689  31.672  24.368  1.00  0.00    -0.231 NA
ATOM     45  C   UNL     1     -49.303  31.148  25.128  1.00  0.00    -0.049 A 
ATOM     46  C   UNL     1     -47.259  30.494  24.025  1.00  0.00     0.129 A 
ATOM     47  C   UNL     1     -48.574  30.220  24.387  1.00  0.00    -0.019 A 
ATOM     48  H   UNL     1     -50.328  30.923  25.404  1.00  0.00     0.063 H 
ATOM     49  H   UNL     1     -49.051  29.295  24.085  1.00  0.00     0.066 H 
BRANCH  46  50
ATOM     50  N   UNL     1     -46.519  29.604  23.279  1.00  0.00    -0.357 N 
ATOM     51  C   UNL     1     -45.262  30.057  22.691  1.00  0.00     0.019 C 
ATOM     52  C   UNL     1     -46.487  28.173  23.564  1.00  0.00     0.019 C 
ATOM     53  C   UNL     1     -44.679  28.774  22.105  1.00  0.00    -0.034 C 
ATOM     54  H   UNL     1     -44.587  30.455  23.459  1.00  0.00     0.049 H 
ATOM     55  H   UNL     1     -45.415  30.812  21.914  1.00  0.00     0.049 H 
ATOM     56  C   UNL     1     -45.087  27.730  23.130  1.00  0.00    -0.034 C 
ATOM     57  H   UNL     1     -46.639  27.937  24.623  1.00  0.00     0.049 H 
ATOM     58  H   UNL     1     -47.253  27.663  22.971  1.00  0.00     0.049 H 
ATOM     59  H   UNL     1     -43.596  28.832  21.962  1.00  0.00     0.029 H 
ATOM     60  H   UNL     1     -45.146  28.553  21.137  1.00  0.00     0.029 H 
ATOM     61  H   UNL     1     -45.077  26.712  22.729  1.00  0.00     0.029 H 
ATOM     62  H   UNL     1     -44.405  27.764  23.988  1.00  0.00     0.029 H 
ENDBRANCH  46  50
ENDBRANCH  32  35
ENDBRANCH   1  32
TORSDOF 8
ENDMDL
MODEL 4
REMARK VINA RESULT:     -10.1      3.208     11.627
REMARK SMILES Nc1ncnc2c1ccn2[C@@H]1O[C@H](CCc2ccc3ccc(N4CCCC4)nc3c2)[C@@H](O)[C@H]1O
REMARK SMILES IDX 14 1 13 4 11 5 12 6 33 7 31 9 10 13 2 14 3 15 7 16 4 17 6 18
REMARK SMILES IDX 8 19 5 20 9 22 1 25 34 28 32 30 15 32 16 35 17 36 30 37
REMARK SMILES IDX 18 38 29 40 19 42 28 44 20 45 22 46 21 47 23 50 24 51 27 52
REMARK SMILES IDX 25 53 26 56
REMARK H PARENT 14 2 14 3 11 8 33 10 13 11 31 12 4 21 8 23 9 24 1 26 1 27
REMARK H PARENT 34 29 32 31 15 33 15 34 17 39 30 41 18 43 20 48 21 49 24 54
REMARK H PARENT 24 55 27 57 27 58 25 59 25 60 26 61 26 62
REMARK Flexibility Score: inf
ROOT
ATOM      1  C   UNL     1     -47.530  31.863  25.604  1.00  0.00    -0.020 C 
ATOM      2  H   UNL     1     -47.203  30.899  26.020  1.00  0.00     0.030 H 
ATOM      3  H   UNL     1     -48.483  32.076  26.104  1.00  0.00     0.030 H 
ENDROOT
BRANCH   1   4
ATOM      4  C   UNL     1     -47.744  31.666  24.096  1.00  0.00     0.089 C 
ATOM      5  C   UNL     1     -47.792  29.421  23.381  1.00  0.00     0.164 C 
ATOM      6  O   UNL     1     -46.925  30.527  23.715  1.00  0.00    -0.349 OA
ATOM      7  C   UNL     1     -49.207  29.809  23.820  1.00  0.00     0.128 C 
ATOM      8  H   UNL     1     -47.722  29.241  22.301  1.00  0.00     0.088 H 
ATOM      9  C   UNL     1     -49.166  31.315  23.664  1.00  0.00     0.111 C 
ATOM     10  H   UNL     1     -49.394  29.540  24.866  1.00  0.00     0.068 H 
ATOM     11  H   UNL     1     -47.356  32.530  23.546  1.00  0.00     0.063 H 
ATOM     12  H   UNL     1     -49.963  31.820  24.207  1.00  0.00     0.066 H 
BRANCH   5  13
ATOM     13  N   UNL     1     -47.312  28.206  24.038  1.00  0.00    -0.303 N 
ATOM     14  C   UNL     1     -47.899  25.501  26.248  1.00  0.00     0.136 A 
ATOM     15  N   UNL     1     -49.145  25.766  26.687  1.00  0.00    -0.219 NA
ATOM     16  C   UNL     1     -47.304  26.379  25.331  1.00  0.00     0.061 A 
ATOM     17  C   UNL     1     -49.769  26.861  26.217  1.00  0.00     0.120 A 
ATOM     18  C   UNL     1     -48.060  27.474  24.933  1.00  0.00     0.147 A 
ATOM     19  C   UNL     1     -46.061  26.465  24.648  1.00  0.00    -0.031 A 
ATOM     20  N   UNL     1     -49.303  27.782  25.350  1.00  0.00    -0.218 NA
ATOM     21  H   UNL     1     -50.777  27.026  26.590  1.00  0.00     0.106 H 
ATOM     22  C   UNL     1     -46.091  27.597  23.864  1.00  0.00     0.009 A 
ATOM     23  H   UNL     1     -45.236  25.767  24.714  1.00  0.00     0.065 H 
ATOM     24  H   UNL     1     -45.353  28.008  23.185  1.00  0.00     0.082 H 
BRANCH  14  25
ATOM     25  N   UNL     1     -47.273  24.371  26.749  1.00  0.00    -0.383 N 
ATOM     26  H   UNL     1     -47.422  24.195  27.732  1.00  0.00     0.158 HD
ATOM     27  H   UNL     1     -47.385  23.584  26.123  1.00  0.00     0.158 HD
ENDBRANCH  14  25
ENDBRANCH   5  13
BRANCH   7  28
ATOM     28  O   UNL     1     -50.252  29.258  23.012  1.00  0.00    -0.386 OA
ATOM     29  H   UNL     1     -50.309  29.830  22.215  1.00  0.00     0.211 HD
ENDBRANCH   7  28
BRANCH   9  30
ATOM     30  O   UNL     1     -49.341  31.643  22.275  1.00  0.00    -0.388 OA
ATOM     31  H   UNL     1     -48.494  32.057  22.007  1.00  0.00     0.211 HD
ENDBRANCH   9  30
ENDBRANCH   1   4
BRANCH   1  32
ATOM     32  C   UNL     1     -46.463  32.899  25.968  1.00  0.00    -0.025 C 
ATOM     33  H   UNL     1     -45.830  32.486  26.765  1.00  0.00     0.032 H 
ATOM     34  H   UNL     1     -45.793  33.054  25.113  1.00  0.00     0.032 H 
BRANCH  32  35
ATOM     35  C   UNL     1     -46.997  34.218  26.463  1.00  0.00    -0.046 A 
ATOM     36  C   UNL     1     -48.366  34.399  26.678  1.00  0.00    -0.058 A 
ATOM     37  C   UNL     1     -46.122  35.283  26.732  1.00  0.00    -0.033 A 
ATOM     38  C   UNL     1     -48.843  35.627  27.136  1.00  0.00    -0.053 A 
ATOM     39  H   UNL     1     -49.069  33.589  26.500  1.00  0.00     0.063 H 
ATOM     40  C   UNL     1     -46.573  36.517  27.189  1.00  0.00     0.073 A 
ATOM     41  H   UNL     1     -45.051  35.163  26.579  1.00  0.00     0.065 H 
ATOM     42  C   UNL     1     -47.954  36.685  27.389  1.00  0.00     0.000 A 
ATOM     43  H   UNL     1     -49.911  35.754  27.300  1.00  0.00     0.063 H 
ATOM     44  N   UNL     1     -45.686  37.501  27.418  1.00  0.00    -0.231 NA
ATOM     45  C   UNL     1     -48.392  37.926  27.849  1.00  0.00    -0.049 A 
ATOM     46  C   UNL     1     -46.110  38.711  27.848  1.00  0.00     0.129 A 
ATOM     47  C   UNL     1     -47.463  38.938  28.082  1.00  0.00    -0.019 A 
ATOM     48  H   UNL     1     -49.445  38.114  28.035  1.00  0.00     0.063 H 
ATOM     49  H   UNL     1     -47.809  39.893  28.462  1.00  0.00     0.066 H 
BRANCH  46  50
ATOM     50  N   UNL     1     -45.168  39.687  28.085  1.00  0.00    -0.357 N 
ATOM     51  C   UNL     1     -44.054  39.383  28.978  1.00  0.00     0.019 C 
ATOM     52  C   UNL     1     -44.790  40.678  27.083  1.00  0.00     0.019 C 
ATOM     53  C   UNL     1     -43.169  40.620  28.852  1.00  0.00    -0.034 C 
ATOM     54  H   UNL     1     -43.505  38.496  28.638  1.00  0.00     0.049 H 
ATOM     55  H   UNL     1     -44.380  39.235  30.013  1.00  0.00     0.049 H 
ATOM     56  C   UNL     1     -43.320  40.981  27.383  1.00  0.00    -0.034 C 
ATOM     57  H   UNL     1     -44.890  40.315  26.054  1.00  0.00     0.049 H 
ATOM     58  H   UNL     1     -45.402  41.577  27.206  1.00  0.00     0.049 H 
ATOM     59  H   UNL     1     -42.132  40.426  29.138  1.00  0.00     0.029 H 
ATOM     60  H   UNL     1     -43.558  41.430  29.480  1.00  0.00     0.029 H 
ATOM     61  H   UNL     1     -43.057  42.022  27.172  1.00  0.00     0.029 H 
ATOM     62  H   UNL     1     -42.675  40.337  26.773  1.00  0.00     0.029 H 
ENDBRANCH  46  50
ENDBRANCH  32  35
ENDBRANCH   1  32
TORSDOF 8
ENDMDL
MODEL 5
REMARK VINA RESULT:     -10.0      1.332      2.148
REMARK SMILES Nc1ncnc2c1ccn2[C@@H]1O[C@H](CCc2ccc3ccc(N4CCCC4)nc3c2)[C@@H](O)[C@H]1O
REMARK SMILES IDX 14 1 13 4 11 5 12 6 33 7 31 9 10 13 2 14 3 15 7 16 4 17 6 18
REMARK SMILES IDX 8 19 5 20 9 22 1 25 34 28 32 30 15 32 16 35 17 36 30 37
REMARK SMILES IDX 18 38 29 40 19 42 28 44 20 45 22 46 21 47 23 50 24 51 27 52
REMARK SMILES IDX 25 53 26 56
REMARK H PARENT 14 2 14 3 11 8 33 10 13 11 31 12 4 21 8 23 9 24 1 26 1 27
REMARK H PARENT 34 29 32 31 15 33 15 34 17 39 30 41 18 43 20 48 21 49 24 54
REMARK H PARENT 24 55 27 57 27 58 25 59 25 60 26 61 26 62
REMARK Flexibility Score: inf
ROOT
ATOM      1  C   UNL     1     -47.313  36.046  27.032  1.00  0.00    -0.020 C 
ATOM      2  H   UNL     1     -46.749  36.086  26.090  1.00  0.00     0.030 H 
ATOM      3  H   UNL     1     -47.837  37.009  27.087  1.00  0.00     0.030 H 
ENDROOT
BRANCH   1   4
ATOM      4  C   UNL     1     -46.295  35.920  28.175  1.00  0.00     0.089 C 
ATOM      5  C   UNL     1     -45.179  37.916  28.742  1.00  0.00     0.164 C 
ATOM      6  O   UNL     1     -45.187  36.795  27.831  1.00  0.00    -0.349 OA
ATOM      7  C   UNL     1     -46.494  37.868  29.526  1.00  0.00     0.128 C 
ATOM      8  H   UNL     1     -44.299  37.827  29.391  1.00  0.00     0.088 H 
ATOM      9  C   UNL     1     -46.774  36.380  29.550  1.00  0.00     0.111 C 
ATOM     10  H   UNL     1     -47.297  38.399  29.003  1.00  0.00     0.068 H 
ATOM     11  H   UNL     1     -45.892  34.901  28.208  1.00  0.00     0.063 H 
ATOM     12  H   UNL     1     -47.809  36.148  29.792  1.00  0.00     0.066 H 
BRANCH   5  13
ATOM     13  N   UNL     1     -45.017  39.159  27.989  1.00  0.00    -0.303 N 
ATOM     14  C   UNL     1     -46.472  41.882  26.254  1.00  0.00     0.136 A 
ATOM     15  N   UNL     1     -47.784  41.583  26.316  1.00  0.00    -0.219 NA
ATOM     16  C   UNL     1     -45.550  41.008  26.847  1.00  0.00     0.061 A 
ATOM     17  C   UNL     1     -48.153  40.458  26.955  1.00  0.00     0.120 A 
ATOM     18  C   UNL     1     -46.068  39.881  27.470  1.00  0.00     0.147 A 
ATOM     19  C   UNL     1     -44.138  40.953  27.000  1.00  0.00    -0.031 A 
ATOM     20  N   UNL     1     -47.368  39.538  27.550  1.00  0.00    -0.218 NA
ATOM     21  H   UNL     1     -49.222  40.266  26.990  1.00  0.00     0.106 H 
ATOM     22  C   UNL     1     -43.838  39.806  27.702  1.00  0.00     0.009 A 
ATOM     23  H   UNL     1     -43.419  41.680  26.646  1.00  0.00     0.065 H 
ATOM     24  H   UNL     1     -42.886  39.408  28.035  1.00  0.00     0.082 H 
BRANCH  14  25
ATOM     25  N   UNL     1     -46.113  43.042  25.586  1.00  0.00    -0.383 N 
ATOM     26  H   UNL     1     -45.124  43.245  25.572  1.00  0.00     0.158 HD
ATOM     27  H   UNL     1     -46.608  43.124  24.706  1.00  0.00     0.158 HD
ENDBRANCH  14  25
ENDBRANCH   5  13
BRANCH   7  28
ATOM     28  O   UNL     1     -46.407  38.375  30.862  1.00  0.00    -0.386 OA
ATOM     29  H   UNL     1     -45.865  39.192  30.808  1.00  0.00     0.211 HD
ENDBRANCH   7  28
BRANCH   9  30
ATOM     30  O   UNL     1     -45.965  35.771  30.570  1.00  0.00    -0.388 OA
ATOM     31  H   UNL     1     -45.244  35.320  30.082  1.00  0.00     0.211 HD
ENDBRANCH   9  30
ENDBRANCH   1   4
BRANCH   1  32
ATOM     32  C   UNL     1     -48.298  34.878  26.921  1.00  0.00    -0.025 C 
ATOM     33  H   UNL     1     -48.476  34.473  27.926  1.00  0.00     0.032 H 
ATOM     34  H   UNL     1     -49.272  35.249  26.578  1.00  0.00     0.032 H 
BRANCH  32  35
ATOM     35  C   UNL     1     -47.835  33.736  26.055  1.00  0.00    -0.046 A 
ATOM     36  C   UNL     1     -46.709  33.868  25.237  1.00  0.00    -0.058 A 
ATOM     37  C   UNL     1     -48.521  32.510  26.069  1.00  0.00    -0.033 A 
ATOM     38  C   UNL     1     -46.296  32.800  24.442  1.00  0.00    -0.053 A 
ATOM     39  H   UNL     1     -46.142  34.796  25.218  1.00  0.00     0.063 H 
ATOM     40  C   UNL     1     -48.130  31.431  25.285  1.00  0.00     0.073 A 
ATOM     41  H   UNL     1     -49.397  32.382  26.703  1.00  0.00     0.065 H 
ATOM     42  C   UNL     1     -47.002  31.585  24.461  1.00  0.00     0.000 A 
ATOM     43  H   UNL     1     -45.417  32.916  23.811  1.00  0.00     0.063 H 
ATOM     44  N   UNL     1     -48.835  30.287  25.335  1.00  0.00    -0.231 NA
ATOM     45  C   UNL     1     -46.619  30.495  23.681  1.00  0.00    -0.049 A 
ATOM     46  C   UNL     1     -48.476  29.233  24.567  1.00  0.00     0.129 A 
ATOM     47  C   UNL     1     -47.358  29.315  23.742  1.00  0.00    -0.019 A 
ATOM     48  H   UNL     1     -45.750  30.547  23.034  1.00  0.00     0.063 H 
ATOM     49  H   UNL     1     -47.041  28.464  23.151  1.00  0.00     0.066 H 
BRANCH  46  50
ATOM     50  N   UNL     1     -49.216  28.075  24.660  1.00  0.00    -0.357 N 
ATOM     51  C   UNL     1     -48.940  27.153  25.756  1.00  0.00     0.019 C 
ATOM     52  C   UNL     1     -50.611  27.996  24.238  1.00  0.00     0.019 C 
ATOM     53  C   UNL     1     -50.047  26.112  25.612  1.00  0.00    -0.034 C 
ATOM     54  H   UNL     1     -49.026  27.655  26.728  1.00  0.00     0.049 H 
ATOM     55  H   UNL     1     -47.951  26.691  25.671  1.00  0.00     0.049 H 
ATOM     56  C   UNL     1     -51.232  26.954  25.171  1.00  0.00    -0.034 C 
ATOM     57  H   UNL     1     -51.148  28.947  24.333  1.00  0.00     0.049 H 
ATOM     58  H   UNL     1     -50.661  27.661  23.197  1.00  0.00     0.049 H 
ATOM     59  H   UNL     1     -50.234  25.567  26.541  1.00  0.00     0.029 H 
ATOM     60  H   UNL     1     -49.787  25.388  24.830  1.00  0.00     0.029 H 
ATOM     61  H   UNL     1     -52.012  26.366  24.678  1.00  0.00     0.029 H 
ATOM     62  H   UNL     1     -51.679  27.452  26.039  1.00  0.00     0.029 H 
ENDBRANCH  46  50
ENDBRANCH  32  35
ENDBRANCH   1  32
TORSDOF 8
ENDMDL
MODEL 6
REMARK VINA RESULT:      -9.0      3.848     11.425
REMARK SMILES Nc1ncnc2c1ccn2[C@@H]1O[C@H](CCc2ccc3ccc(N4CCCC4)nc3c2)[C@@H](O)[C@H]1O
REMARK SMILES IDX 14 1 13 4 11 5 12 6 33 7 31 9 10 13 2 14 3 15 7 16 4 17 6 18
REMARK SMILES IDX 8 19 5 20 9 22 1 25 34 28 32 30 15 32 16 35 17 36 30 37
REMARK SMILES IDX 18 38 29 40 19 42 28 44 20 45 22 46 21 47 23 50 24 51 27 52
REMARK SMILES IDX 25 53 26 56
REMARK H PARENT 14 2 14 3 11 8 33 10 13 11 31 12 4 21 8 23 9 24 1 26 1 27
REMARK H PARENT 34 29 32 31 15 33 15 34 17 39 30 41 18 43 20 48 21 49 24 54
REMARK H PARENT 24 55 27 57 27 58 25 59 25 60 26 61 26 62
REMARK Flexibility Score: inf
ROOT
ATOM      1  C   UNL     1     -48.354  31.839  24.802  1.00  0.00    -0.020 C 
ATOM      2  H   UNL     1     -48.153  30.948  25.414  1.00  0.00     0.030 H 
ATOM      3  H   UNL     1     -49.121  32.393  25.358  1.00  0.00     0.030 H 
ENDROOT
BRANCH   1   4
ATOM      4  C   UNL     1     -48.907  31.357  23.453  1.00  0.00     0.089 C 
ATOM      5  C   UNL     1     -49.751  29.157  23.450  1.00  0.00     0.164 C 
ATOM      6  O   UNL     1     -48.550  29.953  23.346  1.00  0.00    -0.349 OA
ATOM      7  C   UNL     1     -50.875  30.095  23.899  1.00  0.00     0.128 C 
ATOM      8  H   UNL     1     -49.949  28.701  22.472  1.00  0.00     0.088 H 
ATOM      9  C   UNL     1     -50.426  31.410  23.296  1.00  0.00     0.111 C 
ATOM     10  H   UNL     1     -50.925  30.174  24.991  1.00  0.00     0.068 H 
ATOM     11  H   UNL     1     -48.398  31.874  22.632  1.00  0.00     0.063 H 
ATOM     12  H   UNL     1     -50.917  32.272  23.744  1.00  0.00     0.066 H 
BRANCH   5  13
ATOM     13  N   UNL     1     -49.530  28.055  24.385  1.00  0.00    -0.303 N 
ATOM     14  C   UNL     1     -47.331  25.704  25.861  1.00  0.00     0.136 A 
ATOM     15  N   UNL     1     -46.177  25.958  25.214  1.00  0.00    -0.219 NA
ATOM     16  C   UNL     1     -48.468  26.456  25.536  1.00  0.00     0.061 A 
ATOM     17  C   UNL     1     -46.165  26.933  24.287  1.00  0.00     0.120 A 
ATOM     18  C   UNL     1     -48.316  27.429  24.557  1.00  0.00     0.147 A 
ATOM     19  C   UNL     1     -49.823  26.506  25.961  1.00  0.00    -0.031 A 
ATOM     20  N   UNL     1     -47.187  27.712  23.880  1.00  0.00    -0.218 NA
ATOM     21  H   UNL     1     -45.209  27.109  23.801  1.00  0.00     0.106 H 
ATOM     22  C   UNL     1     -50.453  27.494  25.236  1.00  0.00     0.009 A 
ATOM     23  H   UNL     1     -50.286  25.893  26.724  1.00  0.00     0.065 H 
ATOM     24  H   UNL     1     -51.475  27.853  25.269  1.00  0.00     0.082 H 
BRANCH  14  25
ATOM     25  N   UNL     1     -47.321  24.692  26.808  1.00  0.00    -0.383 N 
ATOM     26  H   UNL     1     -46.434  24.533  27.263  1.00  0.00     0.158 HD
ATOM     27  H   UNL     1     -48.137  24.744  27.405  1.00  0.00     0.158 HD
ENDBRANCH  14  25
ENDBRANCH   5  13
BRANCH   7  28
ATOM     28  O   UNL     1     -52.173  29.746  23.406  1.00  0.00    -0.386 OA
ATOM     29  H   UNL     1     -52.024  29.090  22.690  1.00  0.00     0.211 HD
ENDBRANCH   7  28
BRANCH   9  30
ATOM     30  O   UNL     1     -50.764  31.422  21.899  1.00  0.00    -0.388 OA
ATOM     31  H   UNL     1     -51.744  31.387  21.879  1.00  0.00     0.211 HD
ENDBRANCH   9  30
ENDBRANCH   1   4
BRANCH   1  32
ATOM     32  C   UNL     1     -47.047  32.631  24.711  1.00  0.00    -0.025 C 
ATOM     33  H   UNL     1     -46.213  31.922  24.623  1.00  0.00     0.032 H 
ATOM     34  H   UNL     1     -47.034  33.215  23.782  1.00  0.00     0.032 H 
BRANCH  32  35
ATOM     35  C   UNL     1     -46.755  33.518  25.893  1.00  0.00    -0.046 A 
ATOM     36  C   UNL     1     -46.300  32.977  27.099  1.00  0.00    -0.058 A 
ATOM     37  C   UNL     1     -46.921  34.910  25.795  1.00  0.00    -0.033 A 
ATOM     38  C   UNL     1     -46.036  33.813  28.183  1.00  0.00    -0.053 A 
ATOM     39  H   UNL     1     -46.141  31.906  27.202  1.00  0.00     0.063 H 
ATOM     40  C   UNL     1     -46.665  35.765  26.862  1.00  0.00     0.073 A 
ATOM     41  H   UNL     1     -47.267  35.354  24.864  1.00  0.00     0.065 H 
ATOM     42  C   UNL     1     -46.218  35.202  28.069  1.00  0.00     0.000 A 
ATOM     43  H   UNL     1     -45.681  33.379  29.115  1.00  0.00     0.063 H 
ATOM     44  N   UNL     1     -46.853  37.087  26.708  1.00  0.00    -0.231 NA
ATOM     45  C   UNL     1     -45.964  36.070  29.129  1.00  0.00    -0.049 A 
ATOM     46  C   UNL     1     -46.622  37.930  27.740  1.00  0.00     0.129 A 
ATOM     47  C   UNL     1     -46.163  37.438  28.958  1.00  0.00    -0.019 A 
ATOM     48  H   UNL     1     -45.605  35.699  30.084  1.00  0.00     0.063 H 
ATOM     49  H   UNL     1     -45.940  38.110  29.780  1.00  0.00     0.066 H 
BRANCH  46  50
ATOM     50  N   UNL     1     -46.813  39.279  27.537  1.00  0.00    -0.357 N 
ATOM     51  C   UNL     1     -46.064  39.940  26.472  1.00  0.00     0.019 C 
ATOM     52  C   UNL     1     -48.093  39.938  27.774  1.00  0.00     0.019 C 
ATOM     53  C   UNL     1     -46.662  41.344  26.458  1.00  0.00    -0.034 C 
ATOM     54  H   UNL     1     -46.238  39.451  25.505  1.00  0.00     0.049 H 
ATOM     55  H   UNL     1     -44.990  39.970  26.678  1.00  0.00     0.049 H 
ATOM     56  C   UNL     1     -48.128  41.079  26.754  1.00  0.00    -0.034 C 
ATOM     57  H   UNL     1     -48.956  39.279  27.623  1.00  0.00     0.049 H 
ATOM     58  H   UNL     1     -48.120  40.333  28.795  1.00  0.00     0.049 H 
ATOM     59  H   UNL     1     -46.505  41.857  25.504  1.00  0.00     0.029 H 
ATOM     60  H   UNL     1     -46.220  41.952  27.256  1.00  0.00     0.029 H 
ATOM     61  H   UNL     1     -48.652  41.961  27.133  1.00  0.00     0.029 H 
ATOM     62  H   UNL     1     -48.638  40.747  25.842  1.00  0.00     0.029 H 
ENDBRANCH  46  50
ENDBRANCH  32  35
ENDBRANCH   1  32
TORSDOF 8
ENDMDL
MODEL 7
REMARK VINA RESULT:      -9.0      3.779     11.421
REMARK SMILES Nc1ncnc2c1ccn2[C@@H]1O[C@H](CCc2ccc3ccc(N4CCCC4)nc3c2)[C@@H](O)[C@H]1O
REMARK SMILES IDX 14 1 13 4 11 5 12 6 33 7 31 9 10 13 2 14 3 15 7 16 4 17 6 18
REMARK SMILES IDX 8 19 5 20 9 22 1 25 34 28 32 30 15 32 16 35 17 36 30 37
REMARK SMILES IDX 18 38 29 40 19 42 28 44 20 45 22 46 21 47 23 50 24 51 27 52
REMARK SMILES IDX 25 53 26 56
REMARK H PARENT 14 2 14 3 11 8 33 10 13 11 31 12 4 21 8 23 9 24 1 26 1 27
REMARK H PARENT 34 29 32 31 15 33 15 34 17 39 30 41 18 43 20 48 21 49 24 54
REMARK H PARENT 24 55 27 57 27 58 25 59 25 60 26 61 26 62
REMARK Flexibility Score: inf
ROOT
ATOM      1  C   UNL     1     -46.120  31.835  24.328  1.00  0.00    -0.020 C 
ATOM      2  H   UNL     1     -45.178  32.402  24.329  1.00  0.00     0.030 H 
ATOM      3  H   UNL     1     -45.953  31.012  25.035  1.00  0.00     0.030 H 
ENDROOT
BRANCH   1   4
ATOM      4  C   UNL     1     -46.329  31.291  22.907  1.00  0.00     0.089 C 
ATOM      5  C   UNL     1     -47.008  29.037  22.792  1.00  0.00     0.164 C 
ATOM      6  O   UNL     1     -45.868  29.913  22.927  1.00  0.00    -0.349 OA
ATOM      7  C   UNL     1     -48.262  29.903  22.952  1.00  0.00     0.128 C 
ATOM      8  H   UNL     1     -46.956  28.552  21.810  1.00  0.00     0.088 H 
ATOM      9  C   UNL     1     -47.776  31.235  22.420  1.00  0.00     0.111 C 
ATOM     10  H   UNL     1     -48.557  29.998  24.003  1.00  0.00     0.068 H 
ATOM     11  H   UNL     1     -45.686  31.827  22.202  1.00  0.00     0.063 H 
ATOM     12  H   UNL     1     -48.408  32.068  22.721  1.00  0.00     0.066 H 
BRANCH   5  13
ATOM     13  N   UNL     1     -46.930  27.971  23.789  1.00  0.00    -0.303 N 
ATOM     14  C   UNL     1     -48.494  26.027  26.302  1.00  0.00     0.136 A 
ATOM     15  N   UNL     1     -49.724  26.573  26.351  1.00  0.00    -0.219 NA
ATOM     16  C   UNL     1     -47.558  26.549  25.399  1.00  0.00     0.061 A 
ATOM     17  C   UNL     1     -50.004  27.593  25.520  1.00  0.00     0.120 A 
ATOM     18  C   UNL     1     -47.978  27.605  24.602  1.00  0.00     0.147 A 
ATOM     19  C   UNL     1     -46.208  26.277  25.045  1.00  0.00    -0.031 A 
ATOM     20  N   UNL     1     -49.193  28.187  24.622  1.00  0.00    -0.218 NA
ATOM     21  H   UNL     1     -51.013  27.991  25.586  1.00  0.00     0.106 H 
ATOM     22  C   UNL     1     -45.847  27.166  24.057  1.00  0.00     0.009 A 
ATOM     23  H   UNL     1     -45.572  25.505  25.460  1.00  0.00     0.065 H 
ATOM     24  H   UNL     1     -44.917  27.280  23.512  1.00  0.00     0.082 H 
BRANCH  14  25
ATOM     25  N   UNL     1     -48.225  24.981  27.171  1.00  0.00    -0.383 N 
ATOM     26  H   UNL     1     -48.589  24.082  26.890  1.00  0.00     0.158 HD
ATOM     27  H   UNL     1     -47.263  25.006  27.485  1.00  0.00     0.158 HD
ENDBRANCH  14  25
ENDBRANCH   5  13
BRANCH   7  28
ATOM     28  O   UNL     1     -49.394  29.455  22.199  1.00  0.00    -0.386 OA
ATOM     29  H   UNL     1     -49.047  28.808  21.546  1.00  0.00     0.211 HD
ENDBRANCH   7  28
BRANCH   9  30
ATOM     30  O   UNL     1     -47.798  31.198  20.983  1.00  0.00    -0.388 OA
ATOM     31  H   UNL     1     -47.158  31.886  20.705  1.00  0.00     0.211 HD
ENDBRANCH   9  30
ENDBRANCH   1   4
BRANCH   1  32
ATOM     32  C   UNL     1     -47.219  32.781  24.819  1.00  0.00    -0.025 C 
ATOM     33  H   UNL     1     -47.520  33.431  23.986  1.00  0.00     0.032 H 
ATOM     34  H   UNL     1     -48.115  32.203  25.077  1.00  0.00     0.032 H 
BRANCH  32  35
ATOM     35  C   UNL     1     -46.824  33.677  25.964  1.00  0.00    -0.046 A 
ATOM     36  C   UNL     1     -46.287  33.143  27.138  1.00  0.00    -0.058 A 
ATOM     37  C   UNL     1     -46.975  35.070  25.861  1.00  0.00    -0.033 A 
ATOM     38  C   UNL     1     -45.928  33.987  28.188  1.00  0.00    -0.053 A 
ATOM     39  H   UNL     1     -46.137  32.070  27.243  1.00  0.00     0.063 H 
ATOM     40  C   UNL     1     -46.625  35.933  26.893  1.00  0.00     0.073 A 
ATOM     41  H   UNL     1     -47.384  35.509  24.953  1.00  0.00     0.065 H 
ATOM     42  C   UNL     1     -46.096  35.377  28.070  1.00  0.00     0.000 A 
ATOM     43  H   UNL     1     -45.510  33.557  29.096  1.00  0.00     0.063 H 
ATOM     44  N   UNL     1     -46.802  37.256  26.737  1.00  0.00    -0.231 NA
ATOM     45  C   UNL     1     -45.747  36.253  29.097  1.00  0.00    -0.049 A 
ATOM     46  C   UNL     1     -46.480  38.108  27.738  1.00  0.00     0.129 A 
ATOM     47  C   UNL     1     -45.937  37.623  28.924  1.00  0.00    -0.019 A 
ATOM     48  H   UNL     1     -45.322  35.887  30.026  1.00  0.00     0.063 H 
ATOM     49  H   UNL     1     -45.642  38.300  29.717  1.00  0.00     0.066 H 
BRANCH  46  50
ATOM     50  N   UNL     1     -46.665  39.457  27.532  1.00  0.00    -0.357 N 
ATOM     51  C   UNL     1     -46.043  40.079  26.367  1.00  0.00     0.019 C 
ATOM     52  C   UNL     1     -47.889  40.153  27.915  1.00  0.00     0.019 C 
ATOM     53  C   UNL     1     -46.605  41.498  26.399  1.00  0.00    -0.034 C 
ATOM     54  H   UNL     1     -46.349  39.579  25.441  1.00  0.00     0.049 H 
ATOM     55  H   UNL     1     -44.950  40.087  26.435  1.00  0.00     0.049 H 
ATOM     56  C   UNL     1     -48.027  41.275  26.884  1.00  0.00    -0.034 C 
ATOM     57  H   UNL     1     -48.779  39.513  27.889  1.00  0.00     0.049 H 
ATOM     58  H   UNL     1     -47.777  40.566  28.923  1.00  0.00     0.049 H 
ATOM     59  H   UNL     1     -46.559  41.989  25.423  1.00  0.00     0.029 H 
ATOM     60  H   UNL     1     -46.052  42.109  27.123  1.00  0.00     0.029 H 
ATOM     61  H   UNL     1     -48.479  42.177  27.308  1.00  0.00     0.029 H 
ATOM     62  H   UNL     1     -48.657  40.940  26.051  1.00  0.00     0.029 H 
ENDBRANCH  46  50
ENDBRANCH  32  35
ENDBRANCH   1  32
TORSDOF 8
ENDMDL
