MODEL 1
REMARK VINA RESULT:     -10.0      0.000      0.000
REMARK SMILES Cn1ccc(-c2cn(-c3cncc(COC(=O)Nc4cccc(N5CCC5)n4)c3)c3ncnc(N)c23)n1
REMARK SMILES IDX 14 1 13 4 9 5 10 6 29 7 11 8 12 11 8 13 6 14 7 15 36 16
REMARK SMILES IDX 30 18 34 19 31 20 33 21 32 22 5 24 2 25 3 26 37 27 4 28 1 31
REMARK SMILES IDX 35 35 15 38 16 39 17 40 18 41 19 43 20 44 28 45 21 46 23 48
REMARK SMILES IDX 22 49 24 52 25 53 27 54 26 55
REMARK H PARENT 14 2 14 3 10 9 29 10 12 12 7 17 32 23 3 29 4 30 1 32 1 33 1 34
REMARK H PARENT 35 36 35 37 18 42 20 47 21 50 22 51 25 56 25 57 27 58 27 59
REMARK H PARENT 26 60 26 61
REMARK Flexibility Score: inf
ROOT
ATOM      1  C   UNL     1     -46.540  33.895  26.685  1.00  0.00     0.120 C 
ATOM      2  H   UNL     1     -47.169  33.109  27.123  1.00  0.00     0.076 H 
ATOM      3  H   UNL     1     -45.539  33.739  27.105  1.00  0.00     0.076 H 
ENDROOT
BRANCH   1   4
ATOM      4  C   UNL     1     -47.026  35.268  27.048  1.00  0.00     0.010 A 
ATOM      5  C   UNL     1     -46.624  37.637  27.418  1.00  0.00     0.066 A 
ATOM      6  C   UNL     1     -47.988  37.748  27.678  1.00  0.00     0.051 A 
ATOM      7  C   UNL     1     -46.150  36.362  27.093  1.00  0.00    -0.028 A 
ATOM      8  N   UNL     1     -48.866  36.714  27.634  1.00  0.00    -0.262 NA
ATOM      9  H   UNL     1     -48.467  38.681  27.953  1.00  0.00     0.086 H 
ATOM     10  H   UNL     1     -45.110  36.179  26.848  1.00  0.00     0.065 H 
ATOM     11  C   UNL     1     -48.367  35.502  27.313  1.00  0.00     0.034 A 
ATOM     12  H   UNL     1     -49.104  34.702  27.268  1.00  0.00     0.084 H 
BRANCH   5  13
ATOM     13  N   UNL     1     -45.767  38.785  27.481  1.00  0.00    -0.299 N 
ATOM     14  C   UNL     1     -44.831  40.764  26.935  1.00  0.00     0.033 A 
ATOM     15  C   UNL     1     -45.763  39.820  26.564  1.00  0.00     0.021 A 
ATOM     16  C   UNL     1     -44.181  40.295  28.104  1.00  0.00     0.071 A 
ATOM     17  H   UNL     1     -46.410  39.833  25.699  1.00  0.00     0.083 H 
ATOM     18  C   UNL     1     -44.799  39.089  28.444  1.00  0.00     0.150 A 
ATOM     19  C   UNL     1     -43.129  40.722  28.935  1.00  0.00     0.137 A 
ATOM     20  N   UNL     1     -44.498  38.354  29.535  1.00  0.00    -0.218 NA
ATOM     21  N   UNL     1     -42.814  39.999  30.024  1.00  0.00    -0.219 NA
ATOM     22  C   UNL     1     -43.510  38.880  30.267  1.00  0.00     0.120 A 
ATOM     23  H   UNL     1     -43.233  38.332  31.163  1.00  0.00     0.106 H 
BRANCH  14  24
ATOM     24  C   UNL     1     -44.578  42.010  26.219  1.00  0.00     0.095 A 
ATOM     25  N   UNL     1     -44.278  44.067  25.846  1.00  0.00    -0.275 N 
ATOM     26  C   UNL     1     -44.049  43.465  24.644  1.00  0.00     0.025 A 
ATOM     27  N   UNL     1     -44.594  43.202  26.827  1.00  0.00    -0.173 NA
ATOM     28  C   UNL     1     -44.225  42.118  24.858  1.00  0.00    -0.016 A 
ATOM     29  H   UNL     1     -43.776  44.027  23.761  1.00  0.00     0.084 H 
ATOM     30  H   UNL     1     -44.106  41.325  24.132  1.00  0.00     0.066 H 
BRANCH  25  31
ATOM     31  C   UNL     1     -44.202  45.477  26.141  1.00  0.00     0.030 C 
ATOM     32  H   UNL     1     -43.172  45.808  25.983  1.00  0.00     0.048 H 
ATOM     33  H   UNL     1     -44.500  45.627  27.182  1.00  0.00     0.048 H 
ATOM     34  H   UNL     1     -44.876  46.024  25.478  1.00  0.00     0.048 H 
ENDBRANCH  25  31
ENDBRANCH  14  24
BRANCH  19  35
ATOM     35  N   UNL     1     -42.341  41.842  28.702  1.00  0.00    -0.383 N 
ATOM     36  H   UNL     1     -41.367  41.626  28.523  1.00  0.00     0.158 HD
ATOM     37  H   UNL     1     -42.501  42.528  29.432  1.00  0.00     0.158 HD
ENDBRANCH  19  35
ENDBRANCH   5  13
ENDBRANCH   1   4
BRANCH   1  38
ATOM     38  O   UNL     1     -46.427  33.778  25.262  1.00  0.00    -0.444 OA
BRANCH  38  39
ATOM     39  C   UNL     1     -46.784  32.577  24.737  1.00  0.00     0.413 C 
ATOM     40  O   UNL     1     -46.023  31.845  24.122  1.00  0.00    -0.224 OA
ATOM     41  N   UNL     1     -48.097  32.365  25.014  1.00  0.00    -0.275 N 
ATOM     42  H   UNL     1     -48.571  33.083  25.539  1.00  0.00     0.175 HD
BRANCH  41  43
ATOM     43  C   UNL     1     -48.898  31.275  24.690  1.00  0.00     0.137 A 
ATOM     44  C   UNL     1     -49.935  31.321  23.774  1.00  0.00    -0.019 A 
ATOM     45  N   UNL     1     -48.566  30.149  25.360  1.00  0.00    -0.214 NA
ATOM     46  C   UNL     1     -50.657  30.159  23.531  1.00  0.00    -0.055 A 
ATOM     47  H   UNL     1     -50.196  32.224  23.236  1.00  0.00     0.066 H 
ATOM     48  C   UNL     1     -49.274  29.019  25.130  1.00  0.00     0.130 A 
ATOM     49  C   UNL     1     -50.322  28.995  24.214  1.00  0.00    -0.019 A 
ATOM     50  H   UNL     1     -51.471  30.160  22.812  1.00  0.00     0.063 H 
ATOM     51  H   UNL     1     -50.870  28.080  24.022  1.00  0.00     0.066 H 
BRANCH  48  52
ATOM     52  N   UNL     1     -48.915  27.845  25.819  1.00  0.00    -0.356 N 
ATOM     53  C   UNL     1     -49.834  26.805  26.182  1.00  0.00     0.021 C 
ATOM     54  C   UNL     1     -47.900  26.908  25.438  1.00  0.00     0.021 C 
ATOM     55  C   UNL     1     -48.608  25.903  26.354  1.00  0.00    -0.018 C 
ATOM     56  H   UNL     1     -50.506  26.519  25.365  1.00  0.00     0.049 H 
ATOM     57  H   UNL     1     -50.400  27.021  27.091  1.00  0.00     0.049 H 
ATOM     58  H   UNL     1     -46.894  27.202  25.746  1.00  0.00     0.049 H 
ATOM     59  H   UNL     1     -47.924  26.659  24.372  1.00  0.00     0.049 H 
ATOM     60  H   UNL     1     -48.704  24.888  25.964  1.00  0.00     0.030 H 
ATOM     61  H   UNL     1     -48.213  25.868  27.376  1.00  0.00     0.030 H 
ENDBRANCH  48  52
ENDBRANCH  41  43
ENDBRANCH  38  39
ENDBRANCH   1  38
TORSDOF 9
ENDMDL
MODEL 2
REMARK VINA RESULT:     -10.0      1.653      2.120
REMARK SMILES Cn1ccc(-c2cn(-c3cncc(COC(=O)Nc4cccc(N5CCC5)n4)c3)c3ncnc(N)c23)n1
REMARK SMILES IDX 14 1 13 4 9 5 10 6 29 7 11 8 12 11 8 13 6 14 7 15 36 16
REMARK SMILES IDX 30 18 34 19 31 20 33 21 32 22 5 24 2 25 3 26 37 27 4 28 1 31
REMARK SMILES IDX 35 35 15 38 16 39 17 40 18 41 19 43 20 44 28 45 21 46 23 48
REMARK SMILES IDX 22 49 24 52 25 53 27 54 26 55
REMARK H PARENT 14 2 14 3 10 9 29 10 12 12 7 17 32 23 3 29 4 30 1 32 1 33 1 34
REMARK H PARENT 35 36 35 37 18 42 20 47 21 50 22 51 25 56 25 57 27 58 27 59
REMARK H PARENT 26 60 26 61
REMARK Flexibility Score: inf
ROOT
ATOM      1  C   UNL     1     -47.829  35.310  26.753  1.00  0.00     0.120 C 
ATOM      2  H   UNL     1     -48.635  35.880  26.274  1.00  0.00     0.076 H 
ATOM      3  H   UNL     1     -48.328  34.517  27.323  1.00  0.00     0.076 H 
ENDROOT
BRANCH   1   4
ATOM      4  C   UNL     1     -47.019  36.161  27.687  1.00  0.00     0.010 A 
ATOM      5  C   UNL     1     -45.717  38.161  28.151  1.00  0.00     0.066 A 
ATOM      6  C   UNL     1     -45.590  37.682  29.453  1.00  0.00     0.051 A 
ATOM      7  C   UNL     1     -46.455  37.374  27.264  1.00  0.00    -0.028 A 
ATOM      8  N   UNL     1     -46.129  36.519  29.901  1.00  0.00    -0.262 NA
ATOM      9  H   UNL     1     -45.030  38.197  30.225  1.00  0.00     0.086 H 
ATOM     10  H   UNL     1     -46.634  37.675  26.237  1.00  0.00     0.065 H 
ATOM     11  C   UNL     1     -46.837  35.792  29.012  1.00  0.00     0.034 A 
ATOM     12  H   UNL     1     -47.271  34.877  29.411  1.00  0.00     0.084 H 
BRANCH   5  13
ATOM     13  N   UNL     1     -45.117  39.405  27.764  1.00  0.00    -0.299 N 
ATOM     14  C   UNL     1     -44.751  41.317  26.624  1.00  0.00     0.033 A 
ATOM     15  C   UNL     1     -45.534  40.187  26.702  1.00  0.00     0.021 A 
ATOM     16  C   UNL     1     -43.766  41.234  27.640  1.00  0.00     0.071 A 
ATOM     17  H   UNL     1     -46.353  39.904  26.058  1.00  0.00     0.083 H 
ATOM     18  C   UNL     1     -44.033  40.063  28.355  1.00  0.00     0.150 A 
ATOM     19  C   UNL     1     -42.658  41.991  28.060  1.00  0.00     0.137 A 
ATOM     20  N   UNL     1     -43.346  39.654  29.441  1.00  0.00    -0.218 NA
ATOM     21  N   UNL     1     -41.959  41.595  29.139  1.00  0.00    -0.219 NA
ATOM     22  C   UNL     1     -42.341  40.475  29.767  1.00  0.00     0.120 A 
ATOM     23  H   UNL     1     -41.759  40.197  30.641  1.00  0.00     0.106 H 
BRANCH  14  24
ATOM     24  C   UNL     1     -44.926  42.386  25.646  1.00  0.00     0.095 A 
ATOM     25  N   UNL     1     -44.562  43.661  24.003  1.00  0.00    -0.275 N 
ATOM     26  C   UNL     1     -45.801  44.021  24.446  1.00  0.00     0.025 A 
ATOM     27  N   UNL     1     -44.009  42.660  24.711  1.00  0.00    -0.173 NA
ATOM     28  C   UNL     1     -46.073  43.196  25.512  1.00  0.00    -0.016 A 
ATOM     29  H   UNL     1     -46.377  44.804  23.973  1.00  0.00     0.084 H 
ATOM     30  H   UNL     1     -46.978  43.178  26.104  1.00  0.00     0.066 H 
BRANCH  25  31
ATOM     31  C   UNL     1     -43.838  44.227  22.890  1.00  0.00     0.030 C 
ATOM     32  H   UNL     1     -43.935  45.315  22.932  1.00  0.00     0.048 H 
ATOM     33  H   UNL     1     -44.270  43.836  21.965  1.00  0.00     0.048 H 
ATOM     34  H   UNL     1     -42.785  43.942  22.959  1.00  0.00     0.048 H 
ENDBRANCH  25  31
ENDBRANCH  14  24
BRANCH  19  35
ATOM     35  N   UNL     1     -42.186  43.129  27.417  1.00  0.00    -0.383 N 
ATOM     36  H   UNL     1     -42.100  43.024  26.413  1.00  0.00     0.158 HD
ATOM     37  H   UNL     1     -41.353  43.464  27.887  1.00  0.00     0.158 HD
ENDBRANCH  19  35
ENDBRANCH   5  13
ENDBRANCH   1   4
BRANCH   1  38
ATOM     38  O   UNL     1     -46.967  34.674  25.802  1.00  0.00    -0.444 OA
BRANCH  38  39
ATOM     39  C   UNL     1     -46.944  33.315  25.843  1.00  0.00     0.413 C 
ATOM     40  O   UNL     1     -46.919  32.663  26.875  1.00  0.00    -0.224 OA
ATOM     41  N   UNL     1     -46.947  32.851  24.567  1.00  0.00    -0.275 N 
ATOM     42  H   UNL     1     -46.972  33.542  23.833  1.00  0.00     0.175 HD
BRANCH  41  43
ATOM     43  C   UNL     1     -46.939  31.537  24.111  1.00  0.00     0.137 A 
ATOM     44  C   UNL     1     -46.077  31.061  23.136  1.00  0.00    -0.019 A 
ATOM     45  N   UNL     1     -47.860  30.755  24.715  1.00  0.00    -0.214 NA
ATOM     46  C   UNL     1     -46.163  29.723  22.772  1.00  0.00    -0.055 A 
ATOM     47  H   UNL     1     -45.337  31.689  22.657  1.00  0.00     0.066 H 
ATOM     48  C   UNL     1     -47.950  29.453  24.355  1.00  0.00     0.130 A 
ATOM     49  C   UNL     1     -47.107  28.909  23.389  1.00  0.00    -0.019 A 
ATOM     50  H   UNL     1     -45.496  29.316  22.018  1.00  0.00     0.063 H 
ATOM     51  H   UNL     1     -47.173  27.861  23.123  1.00  0.00     0.066 H 
BRANCH  48  52
ATOM     52  N   UNL     1     -48.902  28.639  24.997  1.00  0.00    -0.356 N 
ATOM     53  C   UNL     1     -49.522  27.491  24.400  1.00  0.00     0.021 C 
ATOM     54  C   UNL     1     -48.749  27.983  26.262  1.00  0.00     0.021 C 
ATOM     55  C   UNL     1     -49.894  27.063  25.823  1.00  0.00    -0.018 C 
ATOM     56  H   UNL     1     -48.809  26.832  23.891  1.00  0.00     0.049 H 
ATOM     57  H   UNL     1     -50.358  27.740  23.742  1.00  0.00     0.049 H 
ATOM     58  H   UNL     1     -48.962  28.626  27.119  1.00  0.00     0.049 H 
ATOM     59  H   UNL     1     -47.778  27.490  26.376  1.00  0.00     0.049 H 
ATOM     60  H   UNL     1     -49.767  26.002  26.050  1.00  0.00     0.030 H 
ATOM     61  H   UNL     1     -50.888  27.391  26.148  1.00  0.00     0.030 H 
ENDBRANCH  48  52
ENDBRANCH  41  43
ENDBRANCH  38  39
ENDBRANCH   1  38
TORSDOF 9
ENDMDL
MODEL 3
REMARK VINA RESULT:      -9.7      1.981      2.963
REMARK SMILES Cn1ccc(-c2cn(-c3cncc(COC(=O)Nc4cccc(N5CCC5)n4)c3)c3ncnc(N)c23)n1
REMARK SMILES IDX 14 1 13 4 9 5 10 6 29 7 11 8 12 11 8 13 6 14 7 15 36 16
REMARK SMILES IDX 30 18 34 19 31 20 33 21 32 22 5 24 2 25 3 26 37 27 4 28 1 31
REMARK SMILES IDX 35 35 15 38 16 39 17 40 18 41 19 43 20 44 28 45 21 46 23 48
REMARK SMILES IDX 22 49 24 52 25 53 27 54 26 55
REMARK H PARENT 14 2 14 3 10 9 29 10 12 12 7 17 32 23 3 29 4 30 1 32 1 33 1 34
REMARK H PARENT 35 36 35 37 18 42 20 47 21 50 22 51 25 56 25 57 27 58 27 59
REMARK H PARENT 26 60 26 61
REMARK Flexibility Score: inf
ROOT
ATOM      1  C   UNL     1     -47.095  33.895  25.810  1.00  0.00     0.120 C 
ATOM      2  H   UNL     1     -46.054  33.906  25.463  1.00  0.00     0.076 H 
ATOM      3  H   UNL     1     -47.706  33.803  24.904  1.00  0.00     0.076 H 
ENDROOT
BRANCH   1   4
ATOM      4  C   UNL     1     -47.459  35.159  26.531  1.00  0.00     0.010 A 
ATOM      5  C   UNL     1     -46.926  37.412  27.275  1.00  0.00     0.066 A 
ATOM      6  C   UNL     1     -48.204  37.448  27.827  1.00  0.00     0.051 A 
ATOM      7  C   UNL     1     -46.564  36.236  26.612  1.00  0.00    -0.028 A 
ATOM      8  N   UNL     1     -49.100  36.431  27.760  1.00  0.00    -0.262 NA
ATOM      9  H   UNL     1     -48.591  38.300  28.376  1.00  0.00     0.086 H 
ATOM     10  H   UNL     1     -45.601  36.121  26.126  1.00  0.00     0.065 H 
ATOM     11  C   UNL     1     -48.711  35.316  27.108  1.00  0.00     0.034 A 
ATOM     12  H   UNL     1     -49.462  34.530  27.058  1.00  0.00     0.084 H 
BRANCH   5  13
ATOM     13  N   UNL     1     -46.044  38.537  27.388  1.00  0.00    -0.299 N 
ATOM     14  C   UNL     1     -45.038  40.498  26.907  1.00  0.00     0.033 A 
ATOM     15  C   UNL     1     -45.978  39.584  26.487  1.00  0.00     0.021 A 
ATOM     16  C   UNL     1     -44.445  39.997  28.093  1.00  0.00     0.071 A 
ATOM     17  H   UNL     1     -46.592  39.626  25.599  1.00  0.00     0.083 H 
ATOM     18  C   UNL     1     -45.105  38.802  28.391  1.00  0.00     0.150 A 
ATOM     19  C   UNL     1     -43.415  40.385  28.969  1.00  0.00     0.137 A 
ATOM     20  N   UNL     1     -44.865  38.045  29.481  1.00  0.00    -0.218 NA
ATOM     21  N   UNL     1     -43.159  39.638  30.057  1.00  0.00    -0.219 NA
ATOM     22  C   UNL     1     -43.892  38.534  30.257  1.00  0.00     0.120 A 
ATOM     23  H   UNL     1     -43.663  37.967  31.155  1.00  0.00     0.106 H 
BRANCH  14  24
ATOM     24  C   UNL     1     -44.727  41.748  26.221  1.00  0.00     0.095 A 
ATOM     25  N   UNL     1     -43.628  43.261  25.240  1.00  0.00    -0.275 N 
ATOM     26  C   UNL     1     -44.925  43.676  25.162  1.00  0.00     0.025 A 
ATOM     27  N   UNL     1     -43.479  42.084  25.874  1.00  0.00    -0.173 NA
ATOM     28  C   UNL     1     -45.670  42.701  25.782  1.00  0.00    -0.016 A 
ATOM     29  H   UNL     1     -45.205  44.599  24.674  1.00  0.00     0.084 H 
ATOM     30  H   UNL     1     -46.745  42.679  25.895  1.00  0.00     0.066 H 
BRANCH  25  31
ATOM     31  C   UNL     1     -42.465  43.938  24.718  1.00  0.00     0.030 C 
ATOM     32  H   UNL     1     -41.895  44.343  25.559  1.00  0.00     0.048 H 
ATOM     33  H   UNL     1     -42.801  44.740  24.057  1.00  0.00     0.048 H 
ATOM     34  H   UNL     1     -41.851  43.226  24.160  1.00  0.00     0.048 H 
ENDBRANCH  25  31
ENDBRANCH  14  24
BRANCH  19  35
ATOM     35  N   UNL     1     -42.590  41.487  28.783  1.00  0.00    -0.383 N 
ATOM     36  H   UNL     1     -43.010  42.364  29.070  1.00  0.00     0.158 HD
ATOM     37  H   UNL     1     -42.218  41.478  27.840  1.00  0.00     0.158 HD
ENDBRANCH  19  35
ENDBRANCH   5  13
ENDBRANCH   1   4
BRANCH   1  38
ATOM     38  O   UNL     1     -47.386  32.761  26.636  1.00  0.00    -0.444 OA
BRANCH  38  39
ATOM     39  C   UNL     1     -47.900  31.679  25.994  1.00  0.00     0.413 C 
ATOM     40  O   UNL     1     -48.425  30.733  26.562  1.00  0.00    -0.224 OA
ATOM     41  N   UNL     1     -47.716  31.848  24.660  1.00  0.00    -0.275 N 
ATOM     42  H   UNL     1     -47.261  32.700  24.369  1.00  0.00     0.175 HD
BRANCH  41  43
ATOM     43  C   UNL     1     -48.083  31.013  23.610  1.00  0.00     0.137 A 
ATOM     44  C   UNL     1     -47.447  29.819  23.312  1.00  0.00    -0.019 A 
ATOM     45  N   UNL     1     -49.132  31.477  22.897  1.00  0.00    -0.214 NA
ATOM     46  C   UNL     1     -47.915  29.069  22.240  1.00  0.00    -0.055 A 
ATOM     47  H   UNL     1     -46.609  29.447  23.887  1.00  0.00     0.066 H 
ATOM     48  C   UNL     1     -49.583  30.751  21.848  1.00  0.00     0.130 A 
ATOM     49  C   UNL     1     -48.995  29.538  21.501  1.00  0.00    -0.019 A 
ATOM     50  H   UNL     1     -47.444  28.124  21.986  1.00  0.00     0.063 H 
ATOM     51  H   UNL     1     -49.377  28.954  20.672  1.00  0.00     0.066 H 
BRANCH  48  52
ATOM     52  N   UNL     1     -50.686  31.233  21.118  1.00  0.00    -0.356 N 
ATOM     53  C   UNL     1     -51.036  30.797  19.796  1.00  0.00     0.021 C 
ATOM     54  C   UNL     1     -52.053  31.250  21.548  1.00  0.00     0.021 C 
ATOM     55  C   UNL     1     -52.425  31.385  20.067  1.00  0.00    -0.018 C 
ATOM     56  H   UNL     1     -51.011  29.707  19.682  1.00  0.00     0.049 H 
ATOM     57  H   UNL     1     -50.457  31.283  19.009  1.00  0.00     0.049 H 
ATOM     58  H   UNL     1     -52.304  32.107  22.178  1.00  0.00     0.049 H 
ATOM     59  H   UNL     1     -52.366  30.313  22.020  1.00  0.00     0.049 H 
ATOM     60  H   UNL     1     -53.272  30.782  19.731  1.00  0.00     0.030 H 
ATOM     61  H   UNL     1     -52.552  32.418  19.725  1.00  0.00     0.030 H 
ENDBRANCH  48  52
ENDBRANCH  41  43
ENDBRANCH  38  39
ENDBRANCH   1  38
TORSDOF 9
ENDMDL
MODEL 4
REMARK VINA RESULT:      -9.2      2.638      3.856
REMARK SMILES Cn1ccc(-c2cn(-c3cncc(COC(=O)Nc4cccc(N5CCC5)n4)c3)c3ncnc(N)c23)n1
REMARK SMILES IDX 14 1 13 4 9 5 10 6 29 7 11 8 12 11 8 13 6 14 7 15 36 16
REMARK SMILES IDX 30 18 34 19 31 20 33 21 32 22 5 24 2 25 3 26 37 27 4 28 1 31
REMARK SMILES IDX 35 35 15 38 16 39 17 40 18 41 19 43 20 44 28 45 21 46 23 48
REMARK SMILES IDX 22 49 24 52 25 53 27 54 26 55
REMARK H PARENT 14 2 14 3 10 9 29 10 12 12 7 17 32 23 3 29 4 30 1 32 1 33 1 34
REMARK H PARENT 35 36 35 37 18 42 20 47 21 50 22 51 25 56 25 57 27 58 27 59
REMARK H PARENT 26 60 26 61
REMARK Flexibility Score: inf
ROOT
ATOM      1  C   UNL     1     -48.209  35.154  26.956  1.00  0.00     0.120 C 
ATOM      2  H   UNL     1     -48.619  35.468  25.988  1.00  0.00     0.076 H 
ATOM      3  H   UNL     1     -49.062  35.129  27.644  1.00  0.00     0.076 H 
ENDROOT
BRANCH   1   4
ATOM      4  C   UNL     1     -47.183  36.123  27.469  1.00  0.00     0.010 A 
ATOM      5  C   UNL     1     -46.109  38.304  27.427  1.00  0.00     0.066 A 
ATOM      6  C   UNL     1     -45.319  37.848  28.480  1.00  0.00     0.051 A 
ATOM      7  C   UNL     1     -47.060  37.410  26.926  1.00  0.00    -0.028 A 
ATOM      8  N   UNL     1     -45.415  36.614  29.036  1.00  0.00    -0.262 NA
ATOM      9  H   UNL     1     -44.540  38.446  28.940  1.00  0.00     0.086 H 
ATOM     10  H   UNL     1     -47.741  37.681  26.127  1.00  0.00     0.065 H 
ATOM     11  C   UNL     1     -46.349  35.785  28.525  1.00  0.00     0.034 A 
ATOM     12  H   UNL     1     -46.411  34.812  29.009  1.00  0.00     0.084 H 
BRANCH   5  13
ATOM     13  N   UNL     1     -45.943  39.628  26.902  1.00  0.00    -0.299 N 
ATOM     14  C   UNL     1     -44.951  41.438  25.990  1.00  0.00     0.033 A 
ATOM     15  C   UNL     1     -44.750  40.150  26.436  1.00  0.00     0.021 A 
ATOM     16  C   UNL     1     -46.309  41.770  26.224  1.00  0.00     0.071 A 
ATOM     17  H   UNL     1     -43.827  39.590  26.447  1.00  0.00     0.083 H 
ATOM     18  C   UNL     1     -46.911  40.627  26.755  1.00  0.00     0.150 A 
ATOM     19  C   UNL     1     -47.129  42.903  26.070  1.00  0.00     0.137 A 
ATOM     20  N   UNL     1     -48.220  40.523  27.063  1.00  0.00    -0.218 NA
ATOM     21  N   UNL     1     -48.435  42.817  26.377  1.00  0.00    -0.219 NA
ATOM     22  C   UNL     1     -48.904  41.650  26.838  1.00  0.00     0.120 A 
ATOM     23  H   UNL     1     -49.967  41.619  27.062  1.00  0.00     0.106 H 
BRANCH  14  24
ATOM     24  C   UNL     1     -43.920  42.284  25.397  1.00  0.00     0.095 A 
ATOM     25  N   UNL     1     -42.911  43.521  24.016  1.00  0.00    -0.275 N 
ATOM     26  C   UNL     1     -42.116  43.528  25.124  1.00  0.00     0.025 A 
ATOM     27  N   UNL     1     -44.023  42.777  24.158  1.00  0.00    -0.173 NA
ATOM     28  C   UNL     1     -42.755  42.739  26.051  1.00  0.00    -0.016 A 
ATOM     29  H   UNL     1     -41.192  44.088  25.166  1.00  0.00     0.084 H 
ATOM     30  H   UNL     1     -42.429  42.528  27.060  1.00  0.00     0.066 H 
BRANCH  25  31
ATOM     31  C   UNL     1     -42.678  44.217  22.773  1.00  0.00     0.030 C 
ATOM     32  H   UNL     1     -41.643  44.569  22.764  1.00  0.00     0.048 H 
ATOM     33  H   UNL     1     -43.372  45.058  22.714  1.00  0.00     0.048 H 
ATOM     34  H   UNL     1     -42.847  43.534  21.937  1.00  0.00     0.048 H 
ENDBRANCH  25  31
ENDBRANCH  14  24
BRANCH  19  35
ATOM     35  N   UNL     1     -46.686  44.150  25.648  1.00  0.00    -0.383 N 
ATOM     36  H   UNL     1     -47.431  44.763  25.336  1.00  0.00     0.158 HD
ATOM     37  H   UNL     1     -45.921  44.035  24.993  1.00  0.00     0.158 HD
ENDBRANCH  19  35
ENDBRANCH   5  13
ENDBRANCH   1   4
BRANCH   1  38
ATOM     38  O   UNL     1     -47.655  33.834  26.916  1.00  0.00    -0.444 OA
BRANCH  38  39
ATOM     39  C   UNL     1     -47.203  33.420  25.702  1.00  0.00     0.413 C 
ATOM     40  O   UNL     1     -46.311  33.976  25.079  1.00  0.00    -0.224 OA
ATOM     41  N   UNL     1     -47.914  32.322  25.336  1.00  0.00    -0.275 N 
ATOM     42  H   UNL     1     -48.616  32.000  25.982  1.00  0.00     0.175 HD
BRANCH  41  43
ATOM     43  C   UNL     1     -47.802  31.550  24.184  1.00  0.00     0.137 A 
ATOM     44  C   UNL     1     -46.647  30.887  23.805  1.00  0.00    -0.019 A 
ATOM     45  N   UNL     1     -48.941  31.502  23.459  1.00  0.00    -0.214 NA
ATOM     46  C   UNL     1     -46.666  30.139  22.634  1.00  0.00    -0.055 A 
ATOM     47  H   UNL     1     -45.736  30.924  24.390  1.00  0.00     0.066 H 
ATOM     48  C   UNL     1     -48.958  30.781  22.314  1.00  0.00     0.130 A 
ATOM     49  C   UNL     1     -47.834  30.083  21.881  1.00  0.00    -0.019 A 
ATOM     50  H   UNL     1     -45.779  29.601  22.313  1.00  0.00     0.063 H 
ATOM     51  H   UNL     1     -47.863  29.491  20.974  1.00  0.00     0.066 H 
BRANCH  48  52
ATOM     52  N   UNL     1     -50.151  30.723  21.570  1.00  0.00    -0.356 N 
ATOM     53  C   UNL     1     -51.242  31.644  21.713  1.00  0.00     0.021 C 
ATOM     54  C   UNL     1     -50.267  30.704  20.141  1.00  0.00     0.021 C 
ATOM     55  C   UNL     1     -51.717  31.157  20.341  1.00  0.00    -0.018 C 
ATOM     56  H   UNL     1     -50.920  32.691  21.745  1.00  0.00     0.049 H 
ATOM     57  H   UNL     1     -51.898  31.415  22.555  1.00  0.00     0.049 H 
ATOM     58  H   UNL     1     -50.137  29.711  19.704  1.00  0.00     0.049 H 
ATOM     59  H   UNL     1     -49.617  31.435  19.648  1.00  0.00     0.049 H 
ATOM     60  H   UNL     1     -52.073  31.932  19.657  1.00  0.00     0.030 H 
ATOM     61  H   UNL     1     -52.445  30.339  20.379  1.00  0.00     0.030 H 
ENDBRANCH  48  52
ENDBRANCH  41  43
ENDBRANCH  38  39
ENDBRANCH   1  38
TORSDOF 9
ENDMDL
MODEL 5
REMARK VINA RESULT:      -9.2      2.017      2.867
REMARK SMILES Cn1ccc(-c2cn(-c3cncc(COC(=O)Nc4cccc(N5CCC5)n4)c3)c3ncnc(N)c23)n1
REMARK SMILES IDX 14 1 13 4 9 5 10 6 29 7 11 8 12 11 8 13 6 14 7 15 36 16
REMARK SMILES IDX 30 18 34 19 31 20 33 21 32 22 5 24 2 25 3 26 37 27 4 28 1 31
REMARK SMILES IDX 35 35 15 38 16 39 17 40 18 41 19 43 20 44 28 45 21 46 23 48
REMARK SMILES IDX 22 49 24 52 25 53 27 54 26 55
REMARK H PARENT 14 2 14 3 10 9 29 10 12 12 7 17 32 23 3 29 4 30 1 32 1 33 1 34
REMARK H PARENT 35 36 35 37 18 42 20 47 21 50 22 51 25 56 25 57 27 58 27 59
REMARK H PARENT 26 60 26 61
REMARK Flexibility Score: inf
ROOT
ATOM      1  C   UNL     1     -46.297  34.434  26.617  1.00  0.00     0.120 C 
ATOM      2  H   UNL     1     -45.289  34.099  26.341  1.00  0.00     0.076 H 
ATOM      3  H   UNL     1     -46.805  34.652  25.670  1.00  0.00     0.076 H 
ENDROOT
BRANCH   1   4
ATOM      4  C   UNL     1     -46.263  35.673  27.463  1.00  0.00     0.010 A 
ATOM      5  C   UNL     1     -46.106  38.089  27.689  1.00  0.00     0.066 A 
ATOM      6  C   UNL     1     -46.249  37.891  29.061  1.00  0.00     0.051 A 
ATOM      7  C   UNL     1     -46.120  36.944  26.887  1.00  0.00    -0.028 A 
ATOM      8  N   UNL     1     -46.399  36.679  29.652  1.00  0.00    -0.262 NA
ATOM      9  H   UNL     1     -46.239  38.700  29.782  1.00  0.00     0.086 H 
ATOM     10  H   UNL     1     -46.043  36.996  25.807  1.00  0.00     0.065 H 
ATOM     11  C   UNL     1     -46.411  35.601  28.840  1.00  0.00     0.034 A 
ATOM     12  H   UNL     1     -46.553  34.648  29.347  1.00  0.00     0.084 H 
BRANCH   5  13
ATOM     13  N   UNL     1     -45.958  39.409  27.148  1.00  0.00    -0.299 N 
ATOM     14  C   UNL     1     -44.984  41.231  26.242  1.00  0.00     0.033 A 
ATOM     15  C   UNL     1     -44.764  39.957  26.717  1.00  0.00     0.021 A 
ATOM     16  C   UNL     1     -46.359  41.528  26.420  1.00  0.00     0.071 A 
ATOM     17  H   UNL     1     -43.826  39.425  26.772  1.00  0.00     0.083 H 
ATOM     18  C   UNL     1     -46.948  40.377  26.948  1.00  0.00     0.150 A 
ATOM     19  C   UNL     1     -47.204  42.634  26.216  1.00  0.00     0.137 A 
ATOM     20  N   UNL     1     -48.264  40.240  27.210  1.00  0.00    -0.218 NA
ATOM     21  N   UNL     1     -48.518  42.516  26.476  1.00  0.00    -0.219 NA
ATOM     22  C   UNL     1     -48.971  41.343  26.940  1.00  0.00     0.120 A 
ATOM     23  H   UNL     1     -50.040  41.284  27.125  1.00  0.00     0.106 H 
BRANCH  14  24
ATOM     24  C   UNL     1     -43.956  42.097  25.673  1.00  0.00     0.095 A 
ATOM     25  N   UNL     1     -42.947  43.368  24.322  1.00  0.00    -0.275 N 
ATOM     26  C   UNL     1     -42.162  43.362  25.437  1.00  0.00     0.025 A 
ATOM     27  N   UNL     1     -44.053  42.611  24.442  1.00  0.00    -0.173 NA
ATOM     28  C   UNL     1     -42.801  42.551  26.345  1.00  0.00    -0.016 A 
ATOM     29  H   UNL     1     -41.244  43.930  25.498  1.00  0.00     0.084 H 
ATOM     30  H   UNL     1     -42.481  42.325  27.353  1.00  0.00     0.066 H 
BRANCH  25  31
ATOM     31  C   UNL     1     -42.710  44.088  23.094  1.00  0.00     0.030 C 
ATOM     32  H   UNL     1     -41.633  44.246  22.989  1.00  0.00     0.048 H 
ATOM     33  H   UNL     1     -43.236  45.044  23.149  1.00  0.00     0.048 H 
ATOM     34  H   UNL     1     -43.085  43.502  22.252  1.00  0.00     0.048 H 
ENDBRANCH  25  31
ENDBRANCH  14  24
BRANCH  19  35
ATOM     35  N   UNL     1     -46.782  43.887  25.789  1.00  0.00    -0.383 N 
ATOM     36  H   UNL     1     -47.479  44.392  25.255  1.00  0.00     0.158 HD
ATOM     37  H   UNL     1     -45.875  43.805  25.343  1.00  0.00     0.158 HD
ENDBRANCH  19  35
ENDBRANCH   5  13
ENDBRANCH   1   4
BRANCH   1  38
ATOM     38  O   UNL     1     -47.052  33.412  27.280  1.00  0.00    -0.444 OA
BRANCH  38  39
ATOM     39  C   UNL     1     -48.113  32.920  26.588  1.00  0.00     0.413 C 
ATOM     40  O   UNL     1     -49.242  33.384  26.648  1.00  0.00    -0.224 OA
ATOM     41  N   UNL     1     -47.690  31.856  25.859  1.00  0.00    -0.275 N 
ATOM     42  H   UNL     1     -46.714  31.616  25.932  1.00  0.00     0.175 HD
BRANCH  41  43
ATOM     43  C   UNL     1     -48.413  31.042  24.993  1.00  0.00     0.137 A 
ATOM     44  C   UNL     1     -48.922  31.464  23.776  1.00  0.00    -0.019 A 
ATOM     45  N   UNL     1     -48.576  29.782  25.453  1.00  0.00    -0.214 NA
ATOM     46  C   UNL     1     -49.622  30.552  22.997  1.00  0.00    -0.055 A 
ATOM     47  H   UNL     1     -48.786  32.474  23.408  1.00  0.00     0.066 H 
ATOM     48  C   UNL     1     -49.265  28.895  24.699  1.00  0.00     0.130 A 
ATOM     49  C   UNL     1     -49.794  29.252  23.462  1.00  0.00    -0.019 A 
ATOM     50  H   UNL     1     -50.026  30.848  22.034  1.00  0.00     0.063 H 
ATOM     51  H   UNL     1     -50.326  28.528  22.856  1.00  0.00     0.066 H 
BRANCH  48  52
ATOM     52  N   UNL     1     -49.420  27.580  25.177  1.00  0.00    -0.356 N 
ATOM     53  C   UNL     1     -48.913  27.109  26.434  1.00  0.00     0.021 C 
ATOM     54  C   UNL     1     -50.654  26.867  25.330  1.00  0.00     0.021 C 
ATOM     55  C   UNL     1     -49.899  25.944  26.294  1.00  0.00    -0.018 C 
ATOM     56  H   UNL     1     -49.122  27.792  27.265  1.00  0.00     0.049 H 
ATOM     57  H   UNL     1     -47.854  26.844  26.405  1.00  0.00     0.049 H 
ATOM     58  H   UNL     1     -51.008  26.400  24.408  1.00  0.00     0.049 H 
ATOM     59  H   UNL     1     -51.444  27.470  25.790  1.00  0.00     0.049 H 
ATOM     60  H   UNL     1     -50.435  25.662  27.202  1.00  0.00     0.030 H 
ATOM     61  H   UNL     1     -49.476  25.049  25.824  1.00  0.00     0.030 H 
ENDBRANCH  48  52
ENDBRANCH  41  43
ENDBRANCH  38  39
ENDBRANCH   1  38
TORSDOF 9
ENDMDL
MODEL 6
REMARK VINA RESULT:      -9.1      2.038     12.131
REMARK SMILES Cn1ccc(-c2cn(-c3cncc(COC(=O)Nc4cccc(N5CCC5)n4)c3)c3ncnc(N)c23)n1
REMARK SMILES IDX 14 1 13 4 9 5 10 6 29 7 11 8 12 11 8 13 6 14 7 15 36 16
REMARK SMILES IDX 30 18 34 19 31 20 33 21 32 22 5 24 2 25 3 26 37 27 4 28 1 31
REMARK SMILES IDX 35 35 15 38 16 39 17 40 18 41 19 43 20 44 28 45 21 46 23 48
REMARK SMILES IDX 22 49 24 52 25 53 27 54 26 55
REMARK H PARENT 14 2 14 3 10 9 29 10 12 12 7 17 32 23 3 29 4 30 1 32 1 33 1 34
REMARK H PARENT 35 36 35 37 18 42 20 47 21 50 22 51 25 56 25 57 27 58 27 59
REMARK H PARENT 26 60 26 61
REMARK Flexibility Score: inf
ROOT
ATOM      1  C   UNL     1     -45.843  36.082  28.179  1.00  0.00     0.120 C 
ATOM      2  H   UNL     1     -44.988  36.098  27.491  1.00  0.00     0.076 H 
ATOM      3  H   UNL     1     -45.507  35.511  29.053  1.00  0.00     0.076 H 
ENDROOT
BRANCH   1   4
ATOM      4  C   UNL     1     -47.038  35.407  27.571  1.00  0.00     0.010 A 
ATOM      5  C   UNL     1     -48.050  33.549  26.373  1.00  0.00     0.066 A 
ATOM      6  C   UNL     1     -49.264  34.215  26.523  1.00  0.00     0.051 A 
ATOM      7  C   UNL     1     -46.924  34.170  26.919  1.00  0.00    -0.028 A 
ATOM      8  N   UNL     1     -49.414  35.407  27.155  1.00  0.00    -0.262 NA
ATOM      9  H   UNL     1     -50.202  33.839  26.130  1.00  0.00     0.086 H 
ATOM     10  H   UNL     1     -45.939  33.717  26.879  1.00  0.00     0.065 H 
ATOM     11  C   UNL     1     -48.302  35.970  27.671  1.00  0.00     0.034 A 
ATOM     12  H   UNL     1     -48.464  36.914  28.187  1.00  0.00     0.084 H 
BRANCH   5  13
ATOM     13  N   UNL     1     -47.983  32.287  25.694  1.00  0.00    -0.299 N 
ATOM     14  C   UNL     1     -48.413  30.135  25.173  1.00  0.00     0.033 A 
ATOM     15  C   UNL     1     -48.706  31.162  26.043  1.00  0.00     0.021 A 
ATOM     16  C   UNL     1     -47.431  30.604  24.265  1.00  0.00     0.071 A 
ATOM     17  H   UNL     1     -49.382  31.143  26.885  1.00  0.00     0.083 H 
ATOM     18  C   UNL     1     -47.205  31.945  24.582  1.00  0.00     0.150 A 
ATOM     19  C   UNL     1     -46.676  30.070  23.204  1.00  0.00     0.137 A 
ATOM     20  N   UNL     1     -46.372  32.763  23.907  1.00  0.00    -0.218 NA
ATOM     21  N   UNL     1     -45.837  30.871  22.524  1.00  0.00    -0.219 NA
ATOM     22  C   UNL     1     -45.741  32.154  22.898  1.00  0.00     0.120 A 
ATOM     23  H   UNL     1     -45.062  32.770  22.315  1.00  0.00     0.106 H 
BRANCH  14  24
ATOM     24  C   UNL     1     -49.019  28.808  25.216  1.00  0.00     0.095 A 
ATOM     25  N   UNL     1     -49.308  26.764  25.660  1.00  0.00    -0.275 N 
ATOM     26  C   UNL     1     -50.454  27.140  25.025  1.00  0.00     0.025 A 
ATOM     27  N   UNL     1     -48.418  27.764  25.798  1.00  0.00    -0.173 NA
ATOM     28  C   UNL     1     -50.302  28.475  24.733  1.00  0.00    -0.016 A 
ATOM     29  H   UNL     1     -51.267  26.450  24.847  1.00  0.00     0.084 H 
ATOM     30  H   UNL     1     -51.022  29.120  24.246  1.00  0.00     0.066 H 
BRANCH  25  31
ATOM     31  C   UNL     1     -48.990  25.456  26.180  1.00  0.00     0.030 C 
ATOM     32  H   UNL     1     -49.839  25.105  26.773  1.00  0.00     0.048 H 
ATOM     33  H   UNL     1     -48.094  25.541  26.800  1.00  0.00     0.048 H 
ATOM     34  H   UNL     1     -48.805  24.770  25.350  1.00  0.00     0.048 H 
ENDBRANCH  25  31
ENDBRANCH  14  24
BRANCH  19  35
ATOM     35  N   UNL     1     -46.697  28.739  22.808  1.00  0.00    -0.383 N 
ATOM     36  H   UNL     1     -47.122  28.118  23.487  1.00  0.00     0.158 HD
ATOM     37  H   UNL     1     -45.773  28.463  22.494  1.00  0.00     0.158 HD
ENDBRANCH  19  35
ENDBRANCH   5  13
ENDBRANCH   1   4
BRANCH   1  38
ATOM     38  O   UNL     1     -46.203  37.390  28.637  1.00  0.00    -0.444 OA
BRANCH  38  39
ATOM     39  C   UNL     1     -45.468  38.416  28.132  1.00  0.00     0.413 C 
ATOM     40  O   UNL     1     -45.587  38.846  26.995  1.00  0.00    -0.224 OA
ATOM     41  N   UNL     1     -44.611  38.841  29.096  1.00  0.00    -0.275 N 
ATOM     42  H   UNL     1     -44.655  38.365  29.983  1.00  0.00     0.175 HD
BRANCH  41  43
ATOM     43  C   UNL     1     -43.674  39.868  29.046  1.00  0.00     0.137 A 
ATOM     44  C   UNL     1     -42.625  40.003  29.939  1.00  0.00    -0.019 A 
ATOM     45  N   UNL     1     -43.884  40.735  28.031  1.00  0.00    -0.214 NA
ATOM     46  C   UNL     1     -41.750  41.070  29.778  1.00  0.00    -0.055 A 
ATOM     47  H   UNL     1     -42.457  39.304  30.750  1.00  0.00     0.066 H 
ATOM     48  C   UNL     1     -43.037  41.780  27.878  1.00  0.00     0.130 A 
ATOM     49  C   UNL     1     -41.956  41.967  28.735  1.00  0.00    -0.019 A 
ATOM     50  H   UNL     1     -40.912  41.199  30.456  1.00  0.00     0.063 H 
ATOM     51  H   UNL     1     -41.272  42.794  28.592  1.00  0.00     0.066 H 
BRANCH  48  52
ATOM     52  N   UNL     1     -43.251  42.672  26.811  1.00  0.00    -0.356 N 
ATOM     53  C   UNL     1     -42.232  43.100  25.895  1.00  0.00     0.021 C 
ATOM     54  C   UNL     1     -44.226  42.539  25.769  1.00  0.00     0.021 C 
ATOM     55  C   UNL     1     -43.372  43.525  24.964  1.00  0.00    -0.018 C 
ATOM     56  H   UNL     1     -41.615  42.275  25.521  1.00  0.00     0.049 H 
ATOM     57  H   UNL     1     -41.607  43.906  26.284  1.00  0.00     0.049 H 
ATOM     58  H   UNL     1     -45.220  42.893  26.051  1.00  0.00     0.049 H 
ATOM     59  H   UNL     1     -44.276  41.526  25.355  1.00  0.00     0.049 H 
ATOM     60  H   UNL     1     -43.238  43.287  23.907  1.00  0.00     0.030 H 
ATOM     61  H   UNL     1     -43.673  44.574  25.070  1.00  0.00     0.030 H 
ENDBRANCH  48  52
ENDBRANCH  41  43
ENDBRANCH  38  39
ENDBRANCH   1  38
TORSDOF 9
ENDMDL
MODEL 7
REMARK VINA RESULT:      -9.0      1.994     12.475
REMARK SMILES Cn1ccc(-c2cn(-c3cncc(COC(=O)Nc4cccc(N5CCC5)n4)c3)c3ncnc(N)c23)n1
REMARK SMILES IDX 14 1 13 4 9 5 10 6 29 7 11 8 12 11 8 13 6 14 7 15 36 16
REMARK SMILES IDX 30 18 34 19 31 20 33 21 32 22 5 24 2 25 3 26 37 27 4 28 1 31
REMARK SMILES IDX 35 35 15 38 16 39 17 40 18 41 19 43 20 44 28 45 21 46 23 48
REMARK SMILES IDX 22 49 24 52 25 53 27 54 26 55
REMARK H PARENT 14 2 14 3 10 9 29 10 12 12 7 17 32 23 3 29 4 30 1 32 1 33 1 34
REMARK H PARENT 35 36 35 37 18 42 20 47 21 50 22 51 25 56 25 57 27 58 27 59
REMARK H PARENT 26 60 26 61
REMARK Flexibility Score: inf
ROOT
ATOM      1  C   UNL     1     -48.490  35.558  27.368  1.00  0.00     0.120 C 
ATOM      2  H   UNL     1     -48.158  35.461  28.409  1.00  0.00     0.076 H 
ATOM      3  H   UNL     1     -49.576  35.407  27.389  1.00  0.00     0.076 H 
ENDROOT
BRANCH   1   4
ATOM      4  C   UNL     1     -47.860  34.522  26.482  1.00  0.00     0.010 A 
ATOM      5  C   UNL     1     -47.929  32.382  25.330  1.00  0.00     0.066 A 
ATOM      6  C   UNL     1     -46.668  32.699  24.830  1.00  0.00     0.051 A 
ATOM      7  C   UNL     1     -48.525  33.328  26.169  1.00  0.00    -0.028 A 
ATOM      8  N   UNL     1     -45.998  33.848  25.103  1.00  0.00    -0.262 NA
ATOM      9  H   UNL     1     -46.103  32.039  24.182  1.00  0.00     0.086 H 
ATOM     10  H   UNL     1     -49.516  33.186  26.585  1.00  0.00     0.065 H 
ATOM     11  C   UNL     1     -46.612  34.734  25.914  1.00  0.00     0.034 A 
ATOM     12  H   UNL     1     -46.054  35.651  26.094  1.00  0.00     0.084 H 
BRANCH   5  13
ATOM     13  N   UNL     1     -48.568  31.146  24.984  1.00  0.00    -0.299 N 
ATOM     14  C   UNL     1     -49.133  28.963  25.046  1.00  0.00     0.033 A 
ATOM     15  C   UNL     1     -48.346  29.937  25.618  1.00  0.00     0.021 A 
ATOM     16  C   UNL     1     -49.850  29.557  23.977  1.00  0.00     0.071 A 
ATOM     17  H   UNL     1     -47.644  29.827  26.431  1.00  0.00     0.083 H 
ATOM     18  C   UNL     1     -49.512  30.912  23.979  1.00  0.00     0.150 A 
ATOM     19  C   UNL     1     -50.745  29.130  22.979  1.00  0.00     0.137 A 
ATOM     20  N   UNL     1     -50.031  31.833  23.140  1.00  0.00    -0.218 NA
ATOM     21  N   UNL     1     -51.268  30.034  22.132  1.00  0.00    -0.219 NA
ATOM     22  C   UNL     1     -50.898  31.315  22.263  1.00  0.00     0.120 A 
ATOM     23  H   UNL     1     -51.353  32.015  21.569  1.00  0.00     0.106 H 
BRANCH  14  24
ATOM     24  C   UNL     1     -49.186  27.572  25.484  1.00  0.00     0.095 A 
ATOM     25  N   UNL     1     -48.559  25.662  26.131  1.00  0.00    -0.275 N 
ATOM     26  C   UNL     1     -49.920  25.611  26.188  1.00  0.00     0.025 A 
ATOM     27  N   UNL     1     -48.084  26.850  25.713  1.00  0.00    -0.173 NA
ATOM     28  C   UNL     1     -50.361  26.849  25.783  1.00  0.00    -0.016 A 
ATOM     29  H   UNL     1     -50.450  24.727  26.513  1.00  0.00     0.084 H 
ATOM     30  H   UNL     1     -51.387  27.185  25.721  1.00  0.00     0.066 H 
BRANCH  25  31
ATOM     31  C   UNL     1     -47.633  24.609  26.474  1.00  0.00     0.030 C 
ATOM     32  H   UNL     1     -48.159  23.653  26.409  1.00  0.00     0.048 H 
ATOM     33  H   UNL     1     -47.275  24.785  27.491  1.00  0.00     0.048 H 
ATOM     34  H   UNL     1     -46.793  24.622  25.775  1.00  0.00     0.048 H 
ENDBRANCH  25  31
ENDBRANCH  14  24
BRANCH  19  35
ATOM     35  N   UNL     1     -51.121  27.810  22.764  1.00  0.00    -0.383 N 
ATOM     36  H   UNL     1     -50.410  27.136  23.023  1.00  0.00     0.158 HD
ATOM     37  H   UNL     1     -51.486  27.709  21.824  1.00  0.00     0.158 HD
ENDBRANCH  19  35
ENDBRANCH   5  13
ENDBRANCH   1   4
BRANCH   1  38
ATOM     38  O   UNL     1     -48.251  36.866  26.834  1.00  0.00    -0.444 OA
BRANCH  38  39
ATOM     39  C   UNL     1     -47.687  37.758  27.690  1.00  0.00     0.413 C 
ATOM     40  O   UNL     1     -48.320  38.583  28.332  1.00  0.00    -0.224 OA
ATOM     41  N   UNL     1     -46.343  37.563  27.683  1.00  0.00    -0.275 N 
ATOM     42  H   UNL     1     -45.995  36.829  27.087  1.00  0.00     0.175 HD
BRANCH  41  43
ATOM     43  C   UNL     1     -45.356  38.229  28.403  1.00  0.00     0.137 A 
ATOM     44  C   UNL     1     -44.935  37.855  29.668  1.00  0.00    -0.019 A 
ATOM     45  N   UNL     1     -44.837  39.290  27.746  1.00  0.00    -0.214 NA
ATOM     46  C   UNL     1     -43.934  38.598  30.280  1.00  0.00    -0.055 A 
ATOM     47  H   UNL     1     -45.350  37.002  30.191  1.00  0.00     0.066 H 
ATOM     48  C   UNL     1     -43.868  40.019  28.345  1.00  0.00     0.130 A 
ATOM     49  C   UNL     1     -43.392  39.690  29.611  1.00  0.00    -0.019 A 
ATOM     50  H   UNL     1     -43.575  38.326  31.268  1.00  0.00     0.063 H 
ATOM     51  H   UNL     1     -42.601  40.268  30.074  1.00  0.00     0.066 H 
BRANCH  48  52
ATOM     52  N   UNL     1     -43.320  41.114  27.650  1.00  0.00    -0.356 N 
ATOM     53  C   UNL     1     -44.066  41.978  26.781  1.00  0.00     0.021 C 
ATOM     54  C   UNL     1     -42.588  42.207  28.220  1.00  0.00     0.021 C 
ATOM     55  C   UNL     1     -42.918  42.980  26.938  1.00  0.00    -0.018 C 
ATOM     56  H   UNL     1     -45.022  42.300  27.211  1.00  0.00     0.049 H 
ATOM     57  H   UNL     1     -44.210  41.569  25.779  1.00  0.00     0.049 H 
ATOM     58  H   UNL     1     -41.530  41.989  28.382  1.00  0.00     0.049 H 
ATOM     59  H   UNL     1     -43.049  42.604  29.131  1.00  0.00     0.049 H 
ATOM     60  H   UNL     1     -43.211  44.024  27.073  1.00  0.00     0.030 H 
ATOM     61  H   UNL     1     -42.150  42.912  26.159  1.00  0.00     0.030 H 
ENDBRANCH  48  52
ENDBRANCH  41  43
ENDBRANCH  38  39
ENDBRANCH   1  38
TORSDOF 9
ENDMDL
