MODEL 1
REMARK VINA RESULT:     -10.3      0.000      0.000
REMARK SMILES CC(C)Nc1ccc2ccc(CC[C@H]3C[C@@H](n4ccc5c(N)ncnc54)[C@H](O)[C@@H]3O)cc2n1
REMARK SMILES IDX 12 1 11 4 5 5 6 6 33 7 7 8 32 10 8 11 31 13 9 14 10 16 4 19
REMARK SMILES IDX 2 21 1 23 3 27 13 31 14 34 15 35 29 36 16 38 27 41 30 45
REMARK SMILES IDX 17 47 18 48 26 49 19 50 20 52 25 53 21 55 24 56 23 57 22 59
REMARK SMILES IDX 28 62
REMARK H PARENT 12 2 12 3 6 9 7 12 31 15 9 17 10 18 4 20 2 22 1 24 1 25 1 26
REMARK H PARENT 3 28 3 29 3 30 13 32 13 33 14 37 15 39 15 40 29 42 16 43 27 44
REMARK H PARENT 30 46 18 51 19 54 24 58 22 60 22 61 28 63
REMARK Flexibility Score: inf
ROOT
ATOM      1  C   UNL     1     -47.928  35.160  27.189  1.00  0.00    -0.027 C 
ATOM      2  H   UNL     1     -48.781  34.822  27.793  1.00  0.00     0.032 H 
ATOM      3  H   UNL     1     -48.285  36.029  26.623  1.00  0.00     0.032 H 
ENDROOT
BRANCH   1   4
ATOM      4  C   UNL     1     -47.602  34.022  26.249  1.00  0.00    -0.046 A 
ATOM      5  C   UNL     1     -48.687  29.636  24.715  1.00  0.00     0.126 A 
ATOM      6  C   UNL     1     -47.616  29.617  23.837  1.00  0.00    -0.019 A 
ATOM      7  N   UNL     1     -48.931  30.682  25.528  1.00  0.00    -0.231 NA
ATOM      8  C   UNL     1     -46.781  30.728  23.767  1.00  0.00    -0.049 A 
ATOM      9  H   UNL     1     -47.405  28.742  23.235  1.00  0.00     0.066 H 
ATOM     10  C   UNL     1     -48.128  31.759  25.464  1.00  0.00     0.073 A 
ATOM     11  C   UNL     1     -47.032  31.831  24.585  1.00  0.00     0.000 A 
ATOM     12  H   UNL     1     -45.937  30.717  23.083  1.00  0.00     0.063 H 
ATOM     13  C   UNL     1     -48.383  32.851  26.284  1.00  0.00    -0.033 A 
ATOM     14  C   UNL     1     -46.223  32.978  24.557  1.00  0.00    -0.053 A 
ATOM     15  H   UNL     1     -49.230  32.786  26.966  1.00  0.00     0.065 H 
ATOM     16  C   UNL     1     -46.503  34.061  25.389  1.00  0.00    -0.058 A 
ATOM     17  H   UNL     1     -45.363  33.028  23.892  1.00  0.00     0.063 H 
ATOM     18  H   UNL     1     -45.841  34.924  25.363  1.00  0.00     0.063 H 
BRANCH   5  19
ATOM     19  N   UNL     1     -49.567  28.566  24.850  1.00  0.00    -0.368 N 
ATOM     20  H   UNL     1     -49.872  28.423  23.884  1.00  0.00     0.162 HD
BRANCH  19  21
ATOM     21  C   UNL     1     -49.044  27.284  25.356  1.00  0.00     0.022 C 
ATOM     22  H   UNL     1     -48.227  27.015  24.674  1.00  0.00     0.052 H 
BRANCH  21  23
ATOM     23  C   UNL     1     -50.061  26.152  25.270  1.00  0.00    -0.045 C 
ATOM     24  H   UNL     1     -49.680  25.348  24.631  1.00  0.00     0.025 H 
ATOM     25  H   UNL     1     -51.007  26.502  24.841  1.00  0.00     0.025 H 
ATOM     26  H   UNL     1     -50.269  25.709  26.248  1.00  0.00     0.025 H 
ENDBRANCH  21  23
BRANCH  21  27
ATOM     27  C   UNL     1     -48.433  27.400  26.752  1.00  0.00    -0.045 C 
ATOM     28  H   UNL     1     -49.121  27.001  27.506  1.00  0.00     0.025 H 
ATOM     29  H   UNL     1     -47.497  26.833  26.818  1.00  0.00     0.025 H 
ATOM     30  H   UNL     1     -48.215  28.439  27.019  1.00  0.00     0.025 H 
ENDBRANCH  21  27
ENDBRANCH  19  21
ENDBRANCH   5  19
ENDBRANCH   1   4
BRANCH   1  31
ATOM     31  C   UNL     1     -46.814  35.614  28.144  1.00  0.00    -0.044 C 
ATOM     32  H   UNL     1     -45.822  35.448  27.708  1.00  0.00     0.027 H 
ATOM     33  H   UNL     1     -46.865  34.953  29.020  1.00  0.00     0.027 H 
BRANCH  31  34
ATOM     34  C   UNL     1     -46.924  37.055  28.669  1.00  0.00    -0.010 C 
ATOM     35  C   UNL     1     -45.531  37.702  28.734  1.00  0.00    -0.024 C 
ATOM     36  C   UNL     1     -47.708  38.038  27.797  1.00  0.00     0.085 C 
ATOM     37  H   UNL     1     -47.361  37.026  29.676  1.00  0.00     0.033 H 
ATOM     38  C   UNL     1     -45.768  39.222  28.715  1.00  0.00     0.064 C 
ATOM     39  H   UNL     1     -44.910  37.378  27.891  1.00  0.00     0.029 H 
ATOM     40  H   UNL     1     -45.003  37.400  29.646  1.00  0.00     0.029 H 
ATOM     41  C   UNL     1     -47.229  39.418  28.282  1.00  0.00     0.101 C 
ATOM     42  H   UNL     1     -47.491  37.897  26.733  1.00  0.00     0.063 H 
ATOM     43  H   UNL     1     -45.643  39.601  29.739  1.00  0.00     0.056 H 
ATOM     44  H   UNL     1     -47.382  40.190  27.522  1.00  0.00     0.065 H 
BRANCH  36  45
ATOM     45  O   UNL     1     -49.112  37.951  28.024  1.00  0.00    -0.390 OA
ATOM     46  H   UNL     1     -49.495  37.468  27.269  1.00  0.00     0.211 HD
ENDBRANCH  36  45
BRANCH  38  47
ATOM     47  N   UNL     1     -44.806  39.943  27.896  1.00  0.00    -0.327 N 
ATOM     48  C   UNL     1     -44.991  40.243  26.565  1.00  0.00     0.007 A 
ATOM     49  C   UNL     1     -43.589  40.431  28.307  1.00  0.00     0.145 A 
ATOM     50  C   UNL     1     -43.877  40.925  26.123  1.00  0.00    -0.031 A 
ATOM     51  H   UNL     1     -45.888  39.940  26.041  1.00  0.00     0.082 H 
ATOM     52  C   UNL     1     -42.985  41.052  27.223  1.00  0.00     0.061 A 
ATOM     53  N   UNL     1     -43.077  40.323  29.547  1.00  0.00    -0.218 NA
ATOM     54  H   UNL     1     -43.719  41.286  25.115  1.00  0.00     0.065 H 
ATOM     55  C   UNL     1     -41.722  41.619  27.441  1.00  0.00     0.136 A 
ATOM     56  C   UNL     1     -41.866  40.901  29.633  1.00  0.00     0.120 A 
ATOM     57  N   UNL     1     -41.175  41.538  28.669  1.00  0.00    -0.219 NA
ATOM     58  H   UNL     1     -41.382  40.850  30.603  1.00  0.00     0.106 H 
BRANCH  55  59
ATOM     59  N   UNL     1     -40.997  42.284  26.463  1.00  0.00    -0.383 N 
ATOM     60  H   UNL     1     -41.542  42.616  25.679  1.00  0.00     0.158 HD
ATOM     61  H   UNL     1     -40.352  42.945  26.880  1.00  0.00     0.158 HD
ENDBRANCH  55  59
ENDBRANCH  38  47
BRANCH  41  62
ATOM     62  O   UNL     1     -48.007  39.809  29.430  1.00  0.00    -0.388 OA
ATOM     63  H   UNL     1     -48.791  40.259  29.046  1.00  0.00     0.211 HD
ENDBRANCH  41  62
ENDBRANCH  31  34
ENDBRANCH   1  31
TORSDOF 11
ENDMDL
MODEL 2
REMARK VINA RESULT:     -10.1      1.533      2.088
REMARK SMILES CC(C)Nc1ccc2ccc(CC[C@H]3C[C@@H](n4ccc5c(N)ncnc54)[C@H](O)[C@@H]3O)cc2n1
REMARK SMILES IDX 12 1 11 4 5 5 6 6 33 7 7 8 32 10 8 11 31 13 9 14 10 16 4 19
REMARK SMILES IDX 2 21 1 23 3 27 13 31 14 34 15 35 29 36 16 38 27 41 30 45
REMARK SMILES IDX 17 47 18 48 26 49 19 50 20 52 25 53 21 55 24 56 23 57 22 59
REMARK SMILES IDX 28 62
REMARK H PARENT 12 2 12 3 6 9 7 12 31 15 9 17 10 18 4 20 2 22 1 24 1 25 1 26
REMARK H PARENT 3 28 3 29 3 30 13 32 13 33 14 37 15 39 15 40 29 42 16 43 27 44
REMARK H PARENT 30 46 18 51 19 54 24 58 22 60 22 61 28 63
REMARK Flexibility Score: inf
ROOT
ATOM      1  C   UNL     1     -46.117  35.238  26.872  1.00  0.00    -0.027 C 
ATOM      2  H   UNL     1     -46.324  36.182  26.350  1.00  0.00     0.032 H 
ATOM      3  H   UNL     1     -45.067  35.000  26.662  1.00  0.00     0.032 H 
ENDROOT
BRANCH   1   4
ATOM      4  C   UNL     1     -47.023  34.204  26.245  1.00  0.00    -0.046 A 
ATOM      5  C   UNL     1     -47.517  30.704  23.039  1.00  0.00     0.126 A 
ATOM      6  C   UNL     1     -48.856  30.533  23.349  1.00  0.00    -0.019 A 
ATOM      7  N   UNL     1     -46.756  31.642  23.635  1.00  0.00    -0.231 NA
ATOM      8  C   UNL     1     -49.429  31.334  24.330  1.00  0.00    -0.049 A 
ATOM      9  H   UNL     1     -49.463  29.812  22.815  1.00  0.00     0.066 H 
ATOM     10  C   UNL     1     -47.305  32.419  24.586  1.00  0.00     0.073 A 
ATOM     11  C   UNL     1     -48.650  32.297  24.976  1.00  0.00     0.000 A 
ATOM     12  H   UNL     1     -50.480  31.207  24.575  1.00  0.00     0.063 H 
ATOM     13  C   UNL     1     -46.524  33.377  25.221  1.00  0.00    -0.033 A 
ATOM     14  C   UNL     1     -49.177  33.132  25.974  1.00  0.00    -0.053 A 
ATOM     15  H   UNL     1     -45.484  33.469  24.910  1.00  0.00     0.065 H 
ATOM     16  C   UNL     1     -48.370  34.083  26.597  1.00  0.00    -0.058 A 
ATOM     17  H   UNL     1     -50.223  33.053  26.263  1.00  0.00     0.063 H 
ATOM     18  H   UNL     1     -48.814  34.735  27.347  1.00  0.00     0.063 H 
BRANCH   5  19
ATOM     19  N   UNL     1     -46.867  29.948  22.067  1.00  0.00    -0.368 N 
ATOM     20  H   UNL     1     -46.180  30.616  21.709  1.00  0.00     0.162 HD
BRANCH  19  21
ATOM     21  C   UNL     1     -46.146  28.733  22.488  1.00  0.00     0.022 C 
ATOM     22  H   UNL     1     -46.376  27.980  21.723  1.00  0.00     0.052 H 
BRANCH  21  23
ATOM     23  C   UNL     1     -46.657  28.167  23.809  1.00  0.00    -0.045 C 
ATOM     24  H   UNL     1     -45.941  28.373  24.612  1.00  0.00     0.025 H 
ATOM     25  H   UNL     1     -46.791  27.082  23.749  1.00  0.00     0.025 H 
ATOM     26  H   UNL     1     -47.608  28.616  24.109  1.00  0.00     0.025 H 
ENDBRANCH  21  23
BRANCH  21  27
ATOM     27  C   UNL     1     -44.628  28.912  22.491  1.00  0.00    -0.045 C 
ATOM     28  H   UNL     1     -44.350  29.821  23.034  1.00  0.00     0.025 H 
ATOM     29  H   UNL     1     -44.135  28.064  22.979  1.00  0.00     0.025 H 
ATOM     30  H   UNL     1     -44.225  28.995  21.476  1.00  0.00     0.025 H 
ENDBRANCH  21  27
ENDBRANCH  19  21
ENDBRANCH   5  19
ENDBRANCH   1   4
BRANCH   1  31
ATOM     31  C   UNL     1     -46.277  35.479  28.381  1.00  0.00    -0.044 C 
ATOM     32  H   UNL     1     -45.428  35.074  28.943  1.00  0.00     0.027 H 
ATOM     33  H   UNL     1     -47.149  34.890  28.700  1.00  0.00     0.027 H 
BRANCH  31  34
ATOM     34  C   UNL     1     -46.545  36.933  28.805  1.00  0.00    -0.010 C 
ATOM     35  C   UNL     1     -45.225  37.720  28.856  1.00  0.00    -0.024 C 
ATOM     36  C   UNL     1     -47.398  37.772  27.852  1.00  0.00     0.085 C 
ATOM     37  H   UNL     1     -47.005  36.925  29.802  1.00  0.00     0.033 H 
ATOM     38  C   UNL     1     -45.612  39.204  28.729  1.00  0.00     0.064 C 
ATOM     39  H   UNL     1     -44.552  37.406  28.050  1.00  0.00     0.029 H 
ATOM     40  H   UNL     1     -44.695  37.532  29.797  1.00  0.00     0.029 H 
ATOM     41  C   UNL     1     -47.073  39.222  28.253  1.00  0.00     0.101 C 
ATOM     42  H   UNL     1     -47.139  37.585  26.805  1.00  0.00     0.063 H 
ATOM     43  H   UNL     1     -45.553  39.659  29.727  1.00  0.00     0.056 H 
ATOM     44  H   UNL     1     -47.280  39.924  27.439  1.00  0.00     0.065 H 
BRANCH  36  45
ATOM     45  O   UNL     1     -48.792  37.559  28.055  1.00  0.00    -0.390 OA
ATOM     46  H   UNL     1     -49.087  36.923  27.377  1.00  0.00     0.211 HD
ENDBRANCH  36  45
BRANCH  38  47
ATOM     47  N   UNL     1     -44.704  39.963  27.883  1.00  0.00    -0.327 N 
ATOM     48  C   UNL     1     -44.940  40.257  26.560  1.00  0.00     0.007 A 
ATOM     49  C   UNL     1     -43.495  40.498  28.260  1.00  0.00     0.145 A 
ATOM     50  C   UNL     1     -43.868  40.984  26.086  1.00  0.00    -0.031 A 
ATOM     51  H   UNL     1     -45.840  39.920  26.062  1.00  0.00     0.082 H 
ATOM     52  C   UNL     1     -42.949  41.144  27.159  1.00  0.00     0.061 A 
ATOM     53  N   UNL     1     -42.943  40.408  29.483  1.00  0.00    -0.218 NA
ATOM     54  H   UNL     1     -43.754  41.352  25.075  1.00  0.00     0.065 H 
ATOM     55  C   UNL     1     -41.703  41.760  27.341  1.00  0.00     0.136 A 
ATOM     56  C   UNL     1     -41.754  41.033  29.534  1.00  0.00     0.120 A 
ATOM     57  N   UNL     1     -41.117  41.699  28.552  1.00  0.00    -0.219 NA
ATOM     58  H   UNL     1     -41.239  41.000  30.490  1.00  0.00     0.106 H 
BRANCH  55  59
ATOM     59  N   UNL     1     -41.035  42.455  26.344  1.00  0.00    -0.383 N 
ATOM     60  H   UNL     1     -41.396  43.378  26.151  1.00  0.00     0.158 HD
ATOM     61  H   UNL     1     -40.031  42.375  26.460  1.00  0.00     0.158 HD
ENDBRANCH  55  59
ENDBRANCH  38  47
BRANCH  41  62
ATOM     62  O   UNL     1     -47.917  39.607  29.354  1.00  0.00    -0.388 OA
ATOM     63  H   UNL     1     -47.525  39.149  30.129  1.00  0.00     0.211 HD
ENDBRANCH  41  62
ENDBRANCH  31  34
ENDBRANCH   1  31
TORSDOF 11
ENDMDL
MODEL 3
REMARK VINA RESULT:      -9.8      2.370     10.937
REMARK SMILES CC(C)Nc1ccc2ccc(CC[C@H]3C[C@@H](n4ccc5c(N)ncnc54)[C@H](O)[C@@H]3O)cc2n1
REMARK SMILES IDX 12 1 11 4 5 5 6 6 33 7 7 8 32 10 8 11 31 13 9 14 10 16 4 19
REMARK SMILES IDX 2 21 1 23 3 27 13 31 14 34 15 35 29 36 16 38 27 41 30 45
REMARK SMILES IDX 17 47 18 48 26 49 19 50 20 52 25 53 21 55 24 56 23 57 22 59
REMARK SMILES IDX 28 62
REMARK H PARENT 12 2 12 3 6 9 7 12 31 15 9 17 10 18 4 20 2 22 1 24 1 25 1 26
REMARK H PARENT 3 28 3 29 3 30 13 32 13 33 14 37 15 39 15 40 29 42 16 43 27 44
REMARK H PARENT 30 46 18 51 19 54 24 58 22 60 22 61 28 63
REMARK Flexibility Score: inf
ROOT
ATOM      1  C   UNL     1     -47.886  37.106  27.982  1.00  0.00    -0.027 C 
ATOM      2  H   UNL     1     -48.532  37.942  27.683  1.00  0.00     0.032 H 
ATOM      3  H   UNL     1     -48.435  36.562  28.760  1.00  0.00     0.032 H 
ENDROOT
BRANCH   1   4
ATOM      4  C   UNL     1     -46.635  37.727  28.562  1.00  0.00    -0.046 A 
ATOM      5  C   UNL     1     -43.271  41.091  28.190  1.00  0.00     0.126 A 
ATOM      6  C   UNL     1     -42.600  40.622  29.307  1.00  0.00    -0.019 A 
ATOM      7  N   UNL     1     -44.385  40.497  27.720  1.00  0.00    -0.231 NA
ATOM      8  C   UNL     1     -43.109  39.521  29.988  1.00  0.00    -0.049 A 
ATOM      9  H   UNL     1     -41.674  41.080  29.632  1.00  0.00     0.066 H 
ATOM     10  C   UNL     1     -44.883  39.433  28.375  1.00  0.00     0.073 A 
ATOM     11  C   UNL     1     -44.276  38.907  29.529  1.00  0.00     0.000 A 
ATOM     12  H   UNL     1     -42.584  39.147  30.862  1.00  0.00     0.063 H 
ATOM     13  C   UNL     1     -46.043  38.825  27.910  1.00  0.00    -0.033 A 
ATOM     14  C   UNL     1     -44.834  37.793  30.177  1.00  0.00    -0.053 A 
ATOM     15  H   UNL     1     -46.505  39.235  27.013  1.00  0.00     0.065 H 
ATOM     16  C   UNL     1     -46.001  37.204  29.691  1.00  0.00    -0.058 A 
ATOM     17  H   UNL     1     -44.355  37.372  31.058  1.00  0.00     0.063 H 
ATOM     18  H   UNL     1     -46.393  36.325  30.198  1.00  0.00     0.063 H 
BRANCH   5  19
ATOM     19  N   UNL     1     -42.828  42.183  27.449  1.00  0.00    -0.368 N 
ATOM     20  H   UNL     1     -42.179  41.741  26.792  1.00  0.00     0.162 HD
BRANCH  19  21
ATOM     21  C   UNL     1     -43.816  42.949  26.668  1.00  0.00     0.022 C 
ATOM     22  H   UNL     1     -44.772  42.432  26.823  1.00  0.00     0.052 H 
BRANCH  21  23
ATOM     23  C   UNL     1     -43.548  42.906  25.167  1.00  0.00    -0.045 C 
ATOM     24  H   UNL     1     -43.941  41.978  24.738  1.00  0.00     0.025 H 
ATOM     25  H   UNL     1     -42.474  42.945  24.956  1.00  0.00     0.025 H 
ATOM     26  H   UNL     1     -44.033  43.731  24.638  1.00  0.00     0.025 H 
ENDBRANCH  21  23
BRANCH  21  27
ATOM     27  C   UNL     1     -43.998  44.379  27.176  1.00  0.00    -0.045 C 
ATOM     28  H   UNL     1     -43.848  45.097  26.362  1.00  0.00     0.025 H 
ATOM     29  H   UNL     1     -45.009  44.527  27.573  1.00  0.00     0.025 H 
ATOM     30  H   UNL     1     -43.286  44.625  27.970  1.00  0.00     0.025 H 
ENDBRANCH  21  27
ENDBRANCH  19  21
ENDBRANCH   5  19
ENDBRANCH   1   4
BRANCH   1  31
ATOM     31  C   UNL     1     -47.704  36.183  26.768  1.00  0.00    -0.044 C 
ATOM     32  H   UNL     1     -46.936  36.565  26.086  1.00  0.00     0.027 H 
ATOM     33  H   UNL     1     -48.645  36.221  26.203  1.00  0.00     0.027 H 
BRANCH  31  34
ATOM     34  C   UNL     1     -47.438  34.701  27.084  1.00  0.00    -0.010 C 
ATOM     35  C   UNL     1     -48.234  33.805  26.120  1.00  0.00    -0.024 C 
ATOM     36  C   UNL     1     -46.003  34.211  26.887  1.00  0.00     0.085 C 
ATOM     37  H   UNL     1     -47.758  34.503  28.116  1.00  0.00     0.033 H 
ATOM     38  C   UNL     1     -47.516  32.443  26.120  1.00  0.00     0.064 C 
ATOM     39  H   UNL     1     -48.270  34.245  25.117  1.00  0.00     0.029 H 
ATOM     40  H   UNL     1     -49.273  33.700  26.454  1.00  0.00     0.029 H 
ATOM     41  C   UNL     1     -46.150  32.683  26.779  1.00  0.00     0.101 C 
ATOM     42  H   UNL     1     -45.553  34.629  25.981  1.00  0.00     0.063 H 
ATOM     43  H   UNL     1     -48.099  31.750  26.741  1.00  0.00     0.056 H 
ATOM     44  H   UNL     1     -45.303  32.230  26.255  1.00  0.00     0.065 H 
BRANCH  36  45
ATOM     45  O   UNL     1     -45.181  34.498  28.015  1.00  0.00    -0.390 OA
ATOM     46  H   UNL     1     -45.642  34.153  28.802  1.00  0.00     0.211 HD
ENDBRANCH  36  45
BRANCH  38  47
ATOM     47  N   UNL     1     -47.438  31.837  24.800  1.00  0.00    -0.327 N 
ATOM     48  C   UNL     1     -46.287  31.755  24.050  1.00  0.00     0.007 A 
ATOM     49  C   UNL     1     -48.475  31.260  24.106  1.00  0.00     0.145 A 
ATOM     50  C   UNL     1     -46.594  31.124  22.863  1.00  0.00    -0.031 A 
ATOM     51  H   UNL     1     -45.351  32.159  24.414  1.00  0.00     0.082 H 
ATOM     52  C   UNL     1     -47.979  30.802  22.892  1.00  0.00     0.061 A 
ATOM     53  N   UNL     1     -49.747  31.158  24.532  1.00  0.00    -0.218 NA
ATOM     54  H   UNL     1     -45.899  30.922  22.059  1.00  0.00     0.065 H 
ATOM     55  C   UNL     1     -48.891  30.177  22.031  1.00  0.00     0.136 A 
ATOM     56  C   UNL     1     -50.524  30.544  23.624  1.00  0.00     0.120 A 
ATOM     57  N   UNL     1     -50.173  30.050  22.421  1.00  0.00    -0.219 NA
ATOM     58  H   UNL     1     -51.570  30.430  23.892  1.00  0.00     0.106 H 
BRANCH  55  59
ATOM     59  N   UNL     1     -48.547  29.656  20.792  1.00  0.00    -0.383 N 
ATOM     60  H   UNL     1     -47.556  29.531  20.641  1.00  0.00     0.158 HD
ATOM     61  H   UNL     1     -49.145  28.875  20.551  1.00  0.00     0.158 HD
ENDBRANCH  55  59
ENDBRANCH  38  47
BRANCH  41  62
ATOM     62  O   UNL     1     -46.166  32.117  28.104  1.00  0.00    -0.388 OA
ATOM     63  H   UNL     1     -45.718  31.250  27.999  1.00  0.00     0.211 HD
ENDBRANCH  41  62
ENDBRANCH  31  34
ENDBRANCH   1  31
TORSDOF 11
ENDMDL
MODEL 4
REMARK VINA RESULT:      -9.5      1.487      2.356
REMARK SMILES CC(C)Nc1ccc2ccc(CC[C@H]3C[C@@H](n4ccc5c(N)ncnc54)[C@H](O)[C@@H]3O)cc2n1
REMARK SMILES IDX 12 1 11 4 5 5 6 6 33 7 7 8 32 10 8 11 31 13 9 14 10 16 4 19
REMARK SMILES IDX 2 21 1 23 3 27 13 31 14 34 15 35 29 36 16 38 27 41 30 45
REMARK SMILES IDX 17 47 18 48 26 49 19 50 20 52 25 53 21 55 24 56 23 57 22 59
REMARK SMILES IDX 28 62
REMARK H PARENT 12 2 12 3 6 9 7 12 31 15 9 17 10 18 4 20 2 22 1 24 1 25 1 26
REMARK H PARENT 3 28 3 29 3 30 13 32 13 33 14 37 15 39 15 40 29 42 16 43 27 44
REMARK H PARENT 30 46 18 51 19 54 24 58 22 60 22 61 28 63
REMARK Flexibility Score: inf
ROOT
ATOM      1  C   UNL     1     -46.661  33.600  25.367  1.00  0.00    -0.027 C 
ATOM      2  H   UNL     1     -47.551  34.211  25.168  1.00  0.00     0.032 H 
ATOM      3  H   UNL     1     -45.818  34.138  24.914  1.00  0.00     0.032 H 
ENDROOT
BRANCH   1   4
ATOM      4  C   UNL     1     -46.886  32.286  24.654  1.00  0.00    -0.046 A 
ATOM      5  C   UNL     1     -49.468  28.288  24.308  1.00  0.00     0.126 A 
ATOM      6  C   UNL     1     -48.672  27.795  23.288  1.00  0.00    -0.019 A 
ATOM      7  N   UNL     1     -49.221  29.471  24.905  1.00  0.00    -0.231 NA
ATOM      8  C   UNL     1     -47.598  28.558  22.841  1.00  0.00    -0.049 A 
ATOM      9  H   UNL     1     -48.855  26.817  22.863  1.00  0.00     0.066 H 
ATOM     10  C   UNL     1     -48.185  30.213  24.476  1.00  0.00     0.073 A 
ATOM     11  C   UNL     1     -47.340  29.797  23.432  1.00  0.00     0.000 A 
ATOM     12  H   UNL     1     -46.968  28.175  22.044  1.00  0.00     0.063 H 
ATOM     13  C   UNL     1     -47.933  31.443  25.071  1.00  0.00    -0.033 A 
ATOM     14  C   UNL     1     -46.271  30.609  23.021  1.00  0.00    -0.053 A 
ATOM     15  H   UNL     1     -48.589  31.757  25.883  1.00  0.00     0.065 H 
ATOM     16  C   UNL     1     -46.042  31.840  23.633  1.00  0.00    -0.058 A 
ATOM     17  H   UNL     1     -45.604  30.280  22.227  1.00  0.00     0.063 H 
ATOM     18  H   UNL     1     -45.189  32.434  23.311  1.00  0.00     0.063 H 
BRANCH   5  19
ATOM     19  N   UNL     1     -50.559  27.588  24.817  1.00  0.00    -0.368 N 
ATOM     20  H   UNL     1     -50.789  26.966  24.038  1.00  0.00     0.162 HD
BRANCH  19  21
ATOM     21  C   UNL     1     -50.362  26.759  26.020  1.00  0.00     0.022 C 
ATOM     22  H   UNL     1     -50.065  27.461  26.810  1.00  0.00     0.052 H 
BRANCH  21  23
ATOM     23  C   UNL     1     -49.212  25.768  25.876  1.00  0.00    -0.045 C 
ATOM     24  H   UNL     1     -49.598  24.772  25.633  1.00  0.00     0.025 H 
ATOM     25  H   UNL     1     -48.640  25.689  26.807  1.00  0.00     0.025 H 
ATOM     26  H   UNL     1     -48.525  26.048  25.072  1.00  0.00     0.025 H 
ENDBRANCH  21  23
BRANCH  21  27
ATOM     27  C   UNL     1     -51.647  26.080  26.492  1.00  0.00    -0.045 C 
ATOM     28  H   UNL     1     -51.939  25.286  25.797  1.00  0.00     0.025 H 
ATOM     29  H   UNL     1     -51.510  25.628  27.481  1.00  0.00     0.025 H 
ATOM     30  H   UNL     1     -52.482  26.786  26.559  1.00  0.00     0.025 H 
ENDBRANCH  21  27
ENDBRANCH  19  21
ENDBRANCH   5  19
ENDBRANCH   1   4
BRANCH   1  31
ATOM     31  C   UNL     1     -46.449  33.538  26.887  1.00  0.00    -0.044 C 
ATOM     32  H   UNL     1     -45.387  33.445  27.139  1.00  0.00     0.027 H 
ATOM     33  H   UNL     1     -46.916  32.605  27.229  1.00  0.00     0.027 H 
BRANCH  31  34
ATOM     34  C   UNL     1     -47.087  34.677  27.701  1.00  0.00    -0.010 C 
ATOM     35  C   UNL     1     -46.015  35.705  28.100  1.00  0.00    -0.024 C 
ATOM     36  C   UNL     1     -48.119  35.538  26.972  1.00  0.00     0.085 C 
ATOM     37  H   UNL     1     -47.537  34.248  28.606  1.00  0.00     0.033 H 
ATOM     38  C   UNL     1     -46.770  37.013  28.390  1.00  0.00     0.064 C 
ATOM     39  H   UNL     1     -45.276  35.830  27.300  1.00  0.00     0.029 H 
ATOM     40  H   UNL     1     -45.463  35.367  28.986  1.00  0.00     0.029 H 
ATOM     41  C   UNL     1     -48.182  36.824  27.814  1.00  0.00     0.101 C 
ATOM     42  H   UNL     1     -47.812  35.755  25.943  1.00  0.00     0.063 H 
ATOM     43  H   UNL     1     -46.839  37.135  29.479  1.00  0.00     0.056 H 
ATOM     44  H   UNL     1     -48.557  37.672  27.233  1.00  0.00     0.065 H 
BRANCH  36  45
ATOM     45  O   UNL     1     -49.412  34.941  26.977  1.00  0.00    -0.390 OA
ATOM     46  H   UNL     1     -49.718  34.927  27.903  1.00  0.00     0.211 HD
ENDBRANCH  36  45
BRANCH  38  47
ATOM     47  N   UNL     1     -46.082  38.195  27.893  1.00  0.00    -0.327 N 
ATOM     48  C   UNL     1     -46.412  38.855  26.732  1.00  0.00     0.007 A 
ATOM     49  C   UNL     1     -45.018  38.829  28.490  1.00  0.00     0.145 A 
ATOM     50  C   UNL     1     -45.547  39.918  26.583  1.00  0.00    -0.031 A 
ATOM     51  H   UNL     1     -47.224  38.511  26.103  1.00  0.00     0.082 H 
ATOM     52  C   UNL     1     -44.662  39.911  27.696  1.00  0.00     0.061 A 
ATOM     53  N   UNL     1     -44.429  38.461  29.642  1.00  0.00    -0.218 NA
ATOM     54  H   UNL     1     -45.547  40.619  25.759  1.00  0.00     0.065 H 
ATOM     55  C   UNL     1     -43.586  40.693  28.139  1.00  0.00     0.136 A 
ATOM     56  C   UNL     1     -43.413  39.282  29.960  1.00  0.00     0.120 A 
ATOM     57  N   UNL     1     -42.971  40.363  29.290  1.00  0.00    -0.219 NA
ATOM     58  H   UNL     1     -42.880  39.047  30.877  1.00  0.00     0.106 H 
BRANCH  55  59
ATOM     59  N   UNL     1     -43.120  41.812  27.465  1.00  0.00    -0.383 N 
ATOM     60  H   UNL     1     -42.648  41.620  26.592  1.00  0.00     0.158 HD
ATOM     61  H   UNL     1     -43.822  42.542  27.450  1.00  0.00     0.158 HD
ENDBRANCH  55  59
ENDBRANCH  38  47
BRANCH  41  62
ATOM     62  O   UNL     1     -49.107  36.630  28.902  1.00  0.00    -0.388 OA
ATOM     63  H   UNL     1     -49.551  35.780  28.690  1.00  0.00     0.211 HD
ENDBRANCH  41  62
ENDBRANCH  31  34
ENDBRANCH   1  31
TORSDOF 11
ENDMDL
MODEL 5
REMARK VINA RESULT:      -9.3      3.052     11.568
REMARK SMILES CC(C)Nc1ccc2ccc(CC[C@H]3C[C@@H](n4ccc5c(N)ncnc54)[C@H](O)[C@@H]3O)cc2n1
REMARK SMILES IDX 12 1 11 4 5 5 6 6 33 7 7 8 32 10 8 11 31 13 9 14 10 16 4 19
REMARK SMILES IDX 2 21 1 23 3 27 13 31 14 34 15 35 29 36 16 38 27 41 30 45
REMARK SMILES IDX 17 47 18 48 26 49 19 50 20 52 25 53 21 55 24 56 23 57 22 59
REMARK SMILES IDX 28 62
REMARK H PARENT 12 2 12 3 6 9 7 12 31 15 9 17 10 18 4 20 2 22 1 24 1 25 1 26
REMARK H PARENT 3 28 3 29 3 30 13 32 13 33 14 37 15 39 15 40 29 42 16 43 27 44
REMARK H PARENT 30 46 18 51 19 54 24 58 22 60 22 61 28 63
REMARK Flexibility Score: inf
ROOT
ATOM      1  C   UNL     1     -47.204  33.086  25.621  1.00  0.00    -0.027 C 
ATOM      2  H   UNL     1     -46.899  32.394  26.418  1.00  0.00     0.032 H 
ATOM      3  H   UNL     1     -46.341  33.171  24.949  1.00  0.00     0.032 H 
ENDROOT
BRANCH   1   4
ATOM      4  C   UNL     1     -47.473  34.412  26.296  1.00  0.00    -0.046 A 
ATOM      5  C   UNL     1     -45.674  38.449  28.093  1.00  0.00     0.126 A 
ATOM      6  C   UNL     1     -46.922  38.891  28.499  1.00  0.00    -0.019 A 
ATOM      7  N   UNL     1     -45.494  37.257  27.492  1.00  0.00    -0.231 NA
ATOM      8  C   UNL     1     -48.034  38.094  28.250  1.00  0.00    -0.049 A 
ATOM      9  H   UNL     1     -47.034  39.826  29.032  1.00  0.00     0.066 H 
ATOM     10  C   UNL     1     -46.566  36.482  27.248  1.00  0.00     0.073 A 
ATOM     11  C   UNL     1     -47.871  36.865  27.606  1.00  0.00     0.000 A 
ATOM     12  H   UNL     1     -49.015  38.434  28.569  1.00  0.00     0.063 H 
ATOM     13  C   UNL     1     -46.394  35.260  26.610  1.00  0.00    -0.033 A 
ATOM     14  C   UNL     1     -48.957  36.020  27.330  1.00  0.00    -0.053 A 
ATOM     15  H   UNL     1     -45.380  34.968  26.339  1.00  0.00     0.065 H 
ATOM     16  C   UNL     1     -48.757  34.800  26.686  1.00  0.00    -0.058 A 
ATOM     17  H   UNL     1     -49.965  36.305  27.625  1.00  0.00     0.063 H 
ATOM     18  H   UNL     1     -49.616  34.154  26.511  1.00  0.00     0.063 H 
BRANCH   5  19
ATOM     19  N   UNL     1     -44.510  39.183  28.307  1.00  0.00    -0.368 N 
ATOM     20  H   UNL     1     -43.799  38.569  27.900  1.00  0.00     0.162 HD
BRANCH  19  21
ATOM     21  C   UNL     1     -44.387  40.507  27.672  1.00  0.00     0.022 C 
ATOM     22  H   UNL     1     -45.207  41.106  28.090  1.00  0.00     0.052 H 
BRANCH  21  23
ATOM     23  C   UNL     1     -44.616  40.466  26.165  1.00  0.00    -0.045 C 
ATOM     24  H   UNL     1     -45.378  41.198  25.877  1.00  0.00     0.025 H 
ATOM     25  H   UNL     1     -44.962  39.477  25.844  1.00  0.00     0.025 H 
ATOM     26  H   UNL     1     -43.710  40.712  25.604  1.00  0.00     0.025 H 
ENDBRANCH  21  23
BRANCH  21  27
ATOM     27  C   UNL     1     -43.087  41.224  28.034  1.00  0.00    -0.045 C 
ATOM     28  H   UNL     1     -43.078  41.489  29.097  1.00  0.00     0.025 H 
ATOM     29  H   UNL     1     -42.220  40.583  27.840  1.00  0.00     0.025 H 
ATOM     30  H   UNL     1     -42.956  42.148  27.461  1.00  0.00     0.025 H 
ENDBRANCH  21  27
ENDBRANCH  19  21
ENDBRANCH   5  19
ENDBRANCH   1   4
BRANCH   1  31
ATOM     31  C   UNL     1     -48.370  32.448  24.852  1.00  0.00    -0.044 C 
ATOM     32  H   UNL     1     -49.071  33.207  24.488  1.00  0.00     0.027 H 
ATOM     33  H   UNL     1     -48.935  31.850  25.581  1.00  0.00     0.027 H 
BRANCH  31  34
ATOM     34  C   UNL     1     -47.980  31.497  23.708  1.00  0.00    -0.010 C 
ATOM     35  C   UNL     1     -46.874  30.535  24.174  1.00  0.00    -0.024 C 
ATOM     36  C   UNL     1     -49.069  30.541  23.219  1.00  0.00     0.085 C 
ATOM     37  H   UNL     1     -47.611  32.098  22.866  1.00  0.00     0.033 H 
ATOM     38  C   UNL     1     -46.943  29.322  23.230  1.00  0.00     0.064 C 
ATOM     39  H   UNL     1     -47.024  30.245  25.220  1.00  0.00     0.029 H 
ATOM     40  H   UNL     1     -45.891  31.017  24.121  1.00  0.00     0.029 H 
ATOM     41  C   UNL     1     -48.284  29.436  22.490  1.00  0.00     0.101 C 
ATOM     42  H   UNL     1     -49.650  30.129  24.050  1.00  0.00     0.063 H 
ATOM     43  H   UNL     1     -46.123  29.407  22.504  1.00  0.00     0.056 H 
ATOM     44  H   UNL     1     -48.855  28.504  22.431  1.00  0.00     0.065 H 
BRANCH  36  45
ATOM     45  O   UNL     1     -49.940  31.160  22.277  1.00  0.00    -0.390 OA
ATOM     46  H   UNL     1     -49.475  31.942  21.926  1.00  0.00     0.211 HD
ENDBRANCH  36  45
BRANCH  38  47
ATOM     47  N   UNL     1     -46.749  28.052  23.913  1.00  0.00    -0.327 N 
ATOM     48  C   UNL     1     -45.685  27.207  23.692  1.00  0.00     0.007 A 
ATOM     49  C   UNL     1     -47.574  27.505  24.866  1.00  0.00     0.145 A 
ATOM     50  C   UNL     1     -45.837  26.107  24.510  1.00  0.00    -0.031 A 
ATOM     51  H   UNL     1     -44.916  27.449  22.969  1.00  0.00     0.082 H 
ATOM     52  C   UNL     1     -47.030  26.290  25.261  1.00  0.00     0.061 A 
ATOM     53  N   UNL     1     -48.710  28.055  25.332  1.00  0.00    -0.218 NA
ATOM     54  H   UNL     1     -45.165  25.260  24.557  1.00  0.00     0.065 H 
ATOM     55  C   UNL     1     -47.733  25.570  26.237  1.00  0.00     0.136 A 
ATOM     56  C   UNL     1     -49.293  27.274  26.258  1.00  0.00     0.120 A 
ATOM     57  N   UNL     1     -48.872  26.087  26.734  1.00  0.00    -0.219 NA
ATOM     58  H   UNL     1     -50.222  27.647  26.679  1.00  0.00     0.106 H 
BRANCH  55  59
ATOM     59  N   UNL     1     -47.312  24.349  26.743  1.00  0.00    -0.383 N 
ATOM     60  H   UNL     1     -46.430  24.371  27.234  1.00  0.00     0.158 HD
ATOM     61  H   UNL     1     -48.076  23.868  27.204  1.00  0.00     0.158 HD
ENDBRANCH  55  59
ENDBRANCH  38  47
BRANCH  41  62
ATOM     62  O   UNL     1     -48.035  29.852  21.134  1.00  0.00    -0.388 OA
ATOM     63  H   UNL     1     -47.112  30.188  21.151  1.00  0.00     0.211 HD
ENDBRANCH  41  62
ENDBRANCH  31  34
ENDBRANCH   1  31
TORSDOF 11
ENDMDL
MODEL 6
REMARK VINA RESULT:      -9.1      3.680     11.626
REMARK SMILES CC(C)Nc1ccc2ccc(CC[C@H]3C[C@@H](n4ccc5c(N)ncnc54)[C@H](O)[C@@H]3O)cc2n1
REMARK SMILES IDX 12 1 11 4 5 5 6 6 33 7 7 8 32 10 8 11 31 13 9 14 10 16 4 19
REMARK SMILES IDX 2 21 1 23 3 27 13 31 14 34 15 35 29 36 16 38 27 41 30 45
REMARK SMILES IDX 17 47 18 48 26 49 19 50 20 52 25 53 21 55 24 56 23 57 22 59
REMARK SMILES IDX 28 62
REMARK H PARENT 12 2 12 3 6 9 7 12 31 15 9 17 10 18 4 20 2 22 1 24 1 25 1 26
REMARK H PARENT 3 28 3 29 3 30 13 32 13 33 14 37 15 39 15 40 29 42 16 43 27 44
REMARK H PARENT 30 46 18 51 19 54 24 58 22 60 22 61 28 63
REMARK Flexibility Score: inf
ROOT
ATOM      1  C   UNL     1     -46.442  31.603  24.360  1.00  0.00    -0.027 C 
ATOM      2  H   UNL     1     -46.952  30.662  24.602  1.00  0.00     0.032 H 
ATOM      3  H   UNL     1     -45.415  31.495  24.731  1.00  0.00     0.032 H 
ENDROOT
BRANCH   1   4
ATOM      4  C   UNL     1     -47.165  32.684  25.132  1.00  0.00    -0.046 A 
ATOM      5  C   UNL     1     -46.924  36.937  27.282  1.00  0.00     0.126 A 
ATOM      6  C   UNL     1     -48.244  36.866  27.694  1.00  0.00    -0.019 A 
ATOM      7  N   UNL     1     -46.332  35.943  26.591  1.00  0.00    -0.231 NA
ATOM      8  C   UNL     1     -48.996  35.745  27.359  1.00  0.00    -0.049 A 
ATOM      9  H   UNL     1     -48.681  37.651  28.298  1.00  0.00     0.066 H 
ATOM     10  C   UNL     1     -47.055  34.857  26.264  1.00  0.00     0.073 A 
ATOM     11  C   UNL     1     -48.407  34.714  26.624  1.00  0.00     0.000 A 
ATOM     12  H   UNL     1     -50.032  35.682  27.683  1.00  0.00     0.063 H 
ATOM     13  C   UNL     1     -46.461  33.834  25.535  1.00  0.00    -0.033 A 
ATOM     14  C   UNL     1     -49.119  33.561  26.258  1.00  0.00    -0.053 A 
ATOM     15  H   UNL     1     -45.412  33.950  25.263  1.00  0.00     0.065 H 
ATOM     16  C   UNL     1     -48.498  32.551  25.524  1.00  0.00    -0.058 A 
ATOM     17  H   UNL     1     -50.159  33.439  26.554  1.00  0.00     0.063 H 
ATOM     18  H   UNL     1     -49.069  31.657  25.280  1.00  0.00     0.063 H 
BRANCH   5  19
ATOM     19  N   UNL     1     -46.101  38.020  27.577  1.00  0.00    -0.368 N 
ATOM     20  H   UNL     1     -45.179  37.577  27.613  1.00  0.00     0.162 HD
BRANCH  19  21
ATOM     21  C   UNL     1     -46.033  39.135  26.616  1.00  0.00     0.022 C 
ATOM     22  H   UNL     1     -45.964  38.661  25.628  1.00  0.00     0.052 H 
BRANCH  21  23
ATOM     23  C   UNL     1     -44.773  39.979  26.773  1.00  0.00    -0.045 C 
ATOM     24  H   UNL     1     -44.596  40.204  27.830  1.00  0.00     0.025 H 
ATOM     25  H   UNL     1     -44.865  40.931  26.238  1.00  0.00     0.025 H 
ATOM     26  H   UNL     1     -43.882  39.462  26.405  1.00  0.00     0.025 H 
ENDBRANCH  21  23
BRANCH  21  27
ATOM     27  C   UNL     1     -47.299  39.992  26.607  1.00  0.00    -0.045 C 
ATOM     28  H   UNL     1     -47.138  40.918  27.170  1.00  0.00     0.025 H 
ATOM     29  H   UNL     1     -47.580  40.265  25.584  1.00  0.00     0.025 H 
ATOM     30  H   UNL     1     -48.148  39.471  27.062  1.00  0.00     0.025 H 
ENDBRANCH  21  27
ENDBRANCH  19  21
ENDBRANCH   5  19
ENDBRANCH   1   4
BRANCH   1  31
ATOM     31  C   UNL     1     -46.402  31.749  22.832  1.00  0.00    -0.044 C 
ATOM     32  H   UNL     1     -45.376  31.868  22.468  1.00  0.00     0.027 H 
ATOM     33  H   UNL     1     -46.910  32.695  22.595  1.00  0.00     0.027 H 
BRANCH  31  34
ATOM     34  C   UNL     1     -47.121  30.649  22.033  1.00  0.00    -0.010 C 
ATOM     35  C   UNL     1     -47.393  29.434  22.935  1.00  0.00    -0.024 C 
ATOM     36  C   UNL     1     -48.516  30.993  21.506  1.00  0.00     0.085 C 
ATOM     37  H   UNL     1     -46.476  30.347  21.197  1.00  0.00     0.033 H 
ATOM     38  C   UNL     1     -48.549  28.665  22.271  1.00  0.00     0.064 C 
ATOM     39  H   UNL     1     -47.649  29.752  23.952  1.00  0.00     0.029 H 
ATOM     40  H   UNL     1     -46.501  28.803  23.018  1.00  0.00     0.029 H 
ATOM     41  C   UNL     1     -49.149  29.619  21.227  1.00  0.00     0.101 C 
ATOM     42  H   UNL     1     -49.100  31.554  22.243  1.00  0.00     0.063 H 
ATOM     43  H   UNL     1     -48.128  27.789  21.758  1.00  0.00     0.056 H 
ATOM     44  H   UNL     1     -50.243  29.668  21.227  1.00  0.00     0.065 H 
BRANCH  36  45
ATOM     45  O   UNL     1     -48.461  31.713  20.278  1.00  0.00    -0.390 OA
ATOM     46  H   UNL     1     -48.079  32.588  20.475  1.00  0.00     0.211 HD
ENDBRANCH  36  45
BRANCH  38  47
ATOM     47  N   UNL     1     -49.517  28.147  23.226  1.00  0.00    -0.327 N 
ATOM     48  C   UNL     1     -50.865  28.423  23.192  1.00  0.00     0.007 A 
ATOM     49  C   UNL     1     -49.249  27.318  24.289  1.00  0.00     0.145 A 
ATOM     50  C   UNL     1     -51.462  27.767  24.247  1.00  0.00    -0.031 A 
ATOM     51  H   UNL     1     -51.287  29.068  22.431  1.00  0.00     0.082 H 
ATOM     52  C   UNL     1     -50.445  27.060  24.946  1.00  0.00     0.061 A 
ATOM     53  N   UNL     1     -48.038  26.842  24.629  1.00  0.00    -0.218 NA
ATOM     54  H   UNL     1     -52.515  27.799  24.493  1.00  0.00     0.065 H 
ATOM     55  C   UNL     1     -50.382  26.226  26.070  1.00  0.00     0.136 A 
ATOM     56  C   UNL     1     -48.104  26.059  25.720  1.00  0.00     0.120 A 
ATOM     57  N   UNL     1     -49.190  25.723  26.443  1.00  0.00    -0.219 NA
ATOM     58  H   UNL     1     -47.163  25.640  26.063  1.00  0.00     0.106 H 
BRANCH  55  59
ATOM     59  N   UNL     1     -51.490  25.865  26.823  1.00  0.00    -0.383 N 
ATOM     60  H   UNL     1     -52.364  26.269  26.519  1.00  0.00     0.158 HD
ATOM     61  H   UNL     1     -51.490  24.868  27.008  1.00  0.00     0.158 HD
ENDBRANCH  55  59
ENDBRANCH  38  47
BRANCH  41  62
ATOM     62  O   UNL     1     -48.758  29.178  19.913  1.00  0.00    -0.388 OA
ATOM     63  H   UNL     1     -49.101  28.260  19.855  1.00  0.00     0.211 HD
ENDBRANCH  41  62
ENDBRANCH  31  34
ENDBRANCH   1  31
TORSDOF 11
ENDMDL
MODEL 7
REMARK VINA RESULT:      -9.1      4.693     11.403
REMARK SMILES CC(C)Nc1ccc2ccc(CC[C@H]3C[C@@H](n4ccc5c(N)ncnc54)[C@H](O)[C@@H]3O)cc2n1
REMARK SMILES IDX 12 1 11 4 5 5 6 6 33 7 7 8 32 10 8 11 31 13 9 14 10 16 4 19
REMARK SMILES IDX 2 21 1 23 3 27 13 31 14 34 15 35 29 36 16 38 27 41 30 45
REMARK SMILES IDX 17 47 18 48 26 49 19 50 20 52 25 53 21 55 24 56 23 57 22 59
REMARK SMILES IDX 28 62
REMARK H PARENT 12 2 12 3 6 9 7 12 31 15 9 17 10 18 4 20 2 22 1 24 1 25 1 26
REMARK H PARENT 3 28 3 29 3 30 13 32 13 33 14 37 15 39 15 40 29 42 16 43 27 44
REMARK H PARENT 30 46 18 51 19 54 24 58 22 60 22 61 28 63
REMARK Flexibility Score: inf
ROOT
ATOM      1  C   UNL     1     -49.070  32.037  25.679  1.00  0.00    -0.027 C 
ATOM      2  H   UNL     1     -49.848  31.895  26.441  1.00  0.00     0.032 H 
ATOM      3  H   UNL     1     -48.370  31.201  25.803  1.00  0.00     0.032 H 
ENDROOT
BRANCH   1   4
ATOM      4  C   UNL     1     -48.388  33.344  26.012  1.00  0.00    -0.046 A 
ATOM      5  C   UNL     1     -48.743  37.681  27.972  1.00  0.00     0.126 A 
ATOM      6  C   UNL     1     -47.444  38.008  27.619  1.00  0.00    -0.019 A 
ATOM      7  N   UNL     1     -49.298  36.496  27.650  1.00  0.00    -0.231 NA
ATOM      8  C   UNL     1     -46.674  37.071  26.938  1.00  0.00    -0.049 A 
ATOM      9  H   UNL     1     -47.039  38.987  27.837  1.00  0.00     0.066 H 
ATOM     10  C   UNL     1     -48.557  35.586  26.992  1.00  0.00     0.073 A 
ATOM     11  C   UNL     1     -47.224  35.829  26.616  1.00  0.00     0.000 A 
ATOM     12  H   UNL     1     -45.656  37.324  26.655  1.00  0.00     0.063 H 
ATOM     13  C   UNL     1     -49.114  34.354  26.673  1.00  0.00    -0.033 A 
ATOM     14  C   UNL     1     -46.493  34.847  25.929  1.00  0.00    -0.053 A 
ATOM     15  H   UNL     1     -50.148  34.174  26.964  1.00  0.00     0.065 H 
ATOM     16  C   UNL     1     -47.075  33.617  25.624  1.00  0.00    -0.058 A 
ATOM     17  H   UNL     1     -45.468  35.040  25.619  1.00  0.00     0.063 H 
ATOM     18  H   UNL     1     -46.491  32.887  25.066  1.00  0.00     0.063 H 
BRANCH   5  19
ATOM     19  N   UNL     1     -49.582  38.559  28.651  1.00  0.00    -0.368 N 
ATOM     20  H   UNL     1     -48.939  38.985  29.323  1.00  0.00     0.162 HD
BRANCH  19  21
ATOM     21  C   UNL     1     -50.228  39.644  27.890  1.00  0.00     0.022 C 
ATOM     22  H   UNL     1     -50.076  39.386  26.833  1.00  0.00     0.052 H 
BRANCH  21  23
ATOM     23  C   UNL     1     -49.557  40.997  28.098  1.00  0.00    -0.045 C 
ATOM     24  H   UNL     1     -49.007  41.290  27.197  1.00  0.00     0.025 H 
ATOM     25  H   UNL     1     -48.844  40.961  28.930  1.00  0.00     0.025 H 
ATOM     26  H   UNL     1     -50.282  41.790  28.300  1.00  0.00     0.025 H 
ENDBRANCH  21  23
BRANCH  21  27
ATOM     27  C   UNL     1     -51.738  39.713  28.115  1.00  0.00    -0.045 C 
ATOM     28  H   UNL     1     -52.078  38.852  28.700  1.00  0.00     0.025 H 
ATOM     29  H   UNL     1     -52.010  40.622  28.664  1.00  0.00     0.025 H 
ATOM     30  H   UNL     1     -52.293  39.713  27.171  1.00  0.00     0.025 H 
ENDBRANCH  21  27
ENDBRANCH  19  21
ENDBRANCH   5  19
ENDBRANCH   1   4
BRANCH   1  31
ATOM     31  C   UNL     1     -49.729  31.930  24.295  1.00  0.00    -0.044 C 
ATOM     32  H   UNL     1     -49.900  32.919  23.856  1.00  0.00     0.027 H 
ATOM     33  H   UNL     1     -50.728  31.502  24.457  1.00  0.00     0.027 H 
BRANCH  31  34
ATOM     34  C   UNL     1     -49.017  31.019  23.281  1.00  0.00    -0.010 C 
ATOM     35  C   UNL     1     -47.790  30.360  23.933  1.00  0.00    -0.024 C 
ATOM     36  C   UNL     1     -49.812  29.815  22.774  1.00  0.00     0.085 C 
ATOM     37  H   UNL     1     -48.693  31.632  22.430  1.00  0.00     0.033 H 
ATOM     38  C   UNL     1     -47.489  29.105  23.096  1.00  0.00     0.064 C 
ATOM     39  H   UNL     1     -47.992  30.110  24.981  1.00  0.00     0.029 H 
ATOM     40  H   UNL     1     -46.934  31.045  23.934  1.00  0.00     0.029 H 
ATOM     41  C   UNL     1     -48.731  28.869  22.222  1.00  0.00     0.101 C 
ATOM     42  H   UNL     1     -50.381  29.338  23.578  1.00  0.00     0.063 H 
ATOM     43  H   UNL     1     -46.630  29.324  22.447  1.00  0.00     0.056 H 
ATOM     44  H   UNL     1     -49.078  27.831  22.190  1.00  0.00     0.065 H 
BRANCH  36  45
ATOM     45  O   UNL     1     -50.683  30.164  21.702  1.00  0.00    -0.390 OA
ATOM     46  H   UNL     1     -51.593  30.140  22.051  1.00  0.00     0.211 HD
ENDBRANCH  36  45
BRANCH  38  47
ATOM     47  N   UNL     1     -47.105  27.956  23.901  1.00  0.00    -0.327 N 
ATOM     48  C   UNL     1     -45.884  27.327  23.824  1.00  0.00     0.007 A 
ATOM     49  C   UNL     1     -47.880  27.329  24.848  1.00  0.00     0.145 A 
ATOM     50  C   UNL     1     -45.881  26.285  24.728  1.00  0.00    -0.031 A 
ATOM     51  H   UNL     1     -45.123  27.662  23.130  1.00  0.00     0.082 H 
ATOM     52  C   UNL     1     -47.143  26.282  25.384  1.00  0.00     0.061 A 
ATOM     53  N   UNL     1     -49.134  27.674  25.192  1.00  0.00    -0.218 NA
ATOM     54  H   UNL     1     -45.064  25.596  24.892  1.00  0.00     0.065 H 
ATOM     55  C   UNL     1     -47.765  25.513  26.377  1.00  0.00     0.136 A 
ATOM     56  C   UNL     1     -49.624  26.866  26.147  1.00  0.00     0.120 A 
ATOM     57  N   UNL     1     -49.019  25.827  26.754  1.00  0.00    -0.219 NA
ATOM     58  H   UNL     1     -50.638  27.076  26.475  1.00  0.00     0.106 H 
BRANCH  55  59
ATOM     59  N   UNL     1     -47.156  24.444  27.017  1.00  0.00    -0.383 N 
ATOM     60  H   UNL     1     -46.999  24.571  28.006  1.00  0.00     0.158 HD
ATOM     61  H   UNL     1     -47.577  23.566  26.733  1.00  0.00     0.158 HD
ENDBRANCH  55  59
ENDBRANCH  38  47
BRANCH  41  62
ATOM     62  O   UNL     1     -48.424  29.244  20.866  1.00  0.00    -0.388 OA
ATOM     63  H   UNL     1     -48.305  30.217  20.906  1.00  0.00     0.211 HD
ENDBRANCH  41  62
ENDBRANCH  31  34
ENDBRANCH   1  31
TORSDOF 11
ENDMDL
