MODEL 1
REMARK VINA RESULT:      -9.8      0.000      0.000
REMARK SMILES CC#CCNCc1cc2ccc(CNC(=O)c3cc(=O)n4ccccc4n3)cc2[nH]1
REMARK SMILES IDX 6 1 5 4 4 6 3 9 2 10 1 11 7 15 8 16 30 17 9 18 29 20 10 22
REMARK SMILES IDX 28 23 11 24 12 26 13 29 14 32 15 33 16 35 17 36 18 37 27 38
REMARK SMILES IDX 19 39 26 41 20 42 21 43 25 44 22 45 24 46 23 48
REMARK H PARENT 6 2 6 3 5 5 4 7 4 8 1 12 1 13 1 14 8 19 30 21 10 25 28 27
REMARK H PARENT 11 28 13 30 13 31 14 34 18 40 25 47 22 49 24 50 23 51
REMARK Flexibility Score: inf
ROOT
ATOM      1  C   UNL     1     -48.158  30.042  24.158  1.00  0.00     0.037 C 
ATOM      2  H   UNL     1     -49.038  29.635  24.671  1.00  0.00     0.049 H 
ATOM      3  H   UNL     1     -48.453  30.150  23.108  1.00  0.00     0.049 H 
ENDROOT
BRANCH   1   4
ATOM      4  N   UNL     1     -47.073  29.078  24.303  1.00  0.00    -0.301 NA
ATOM      5  H   UNL     1     -46.241  29.402  23.817  1.00  0.00     0.124 HD
BRANCH   4   6
ATOM      6  C   UNL     1     -47.404  27.735  23.826  1.00  0.00     0.058 C 
ATOM      7  H   UNL     1     -46.779  27.445  22.974  1.00  0.00     0.057 H 
ATOM      8  H   UNL     1     -48.432  27.766  23.449  1.00  0.00     0.057 H 
BRANCH   6   9
ATOM      9  C   UNL     1     -47.336  26.735  24.899  1.00  0.00    -0.088 C 
ATOM     10  C   UNL     1     -47.258  25.937  25.794  1.00  0.00    -0.105 C 
BRANCH  10  11
ATOM     11  C   UNL     1     -47.124  24.992  26.902  1.00  0.00    -0.003 C 
ATOM     12  H   UNL     1     -47.046  23.966  26.529  1.00  0.00     0.037 H 
ATOM     13  H   UNL     1     -46.230  25.209  27.493  1.00  0.00     0.037 H 
ATOM     14  H   UNL     1     -47.993  25.046  27.565  1.00  0.00     0.037 H 
ENDBRANCH  10  11
ENDBRANCH   6   9
ENDBRANCH   4   6
ENDBRANCH   1   4
BRANCH   1  15
ATOM     15  C   UNL     1     -47.842  31.367  24.757  1.00  0.00     0.030 A 
ATOM     16  C   UNL     1     -46.668  32.094  24.774  1.00  0.00    -0.032 A 
ATOM     17  N   UNL     1     -48.785  32.111  25.427  1.00  0.00    -0.357 N 
ATOM     18  C   UNL     1     -46.899  33.294  25.500  1.00  0.00    -0.000 A 
ATOM     19  H   UNL     1     -45.731  31.785  24.330  1.00  0.00     0.065 H 
ATOM     20  C   UNL     1     -48.234  33.281  25.899  1.00  0.00     0.046 A 
ATOM     21  H   UNL     1     -49.744  31.832  25.573  1.00  0.00     0.166 HD
ATOM     22  C   UNL     1     -46.096  34.392  25.857  1.00  0.00    -0.052 A 
ATOM     23  C   UNL     1     -48.812  34.318  26.643  1.00  0.00    -0.033 A 
ATOM     24  C   UNL     1     -46.655  35.436  26.604  1.00  0.00    -0.057 A 
ATOM     25  H   UNL     1     -45.053  34.432  25.558  1.00  0.00     0.063 H 
ATOM     26  C   UNL     1     -47.998  35.404  27.004  1.00  0.00    -0.027 A 
ATOM     27  H   UNL     1     -49.858  34.277  26.934  1.00  0.00     0.065 H 
ATOM     28  H   UNL     1     -46.030  36.287  26.871  1.00  0.00     0.063 H 
BRANCH  26  29
ATOM     29  C   UNL     1     -48.573  36.557  27.788  1.00  0.00     0.043 C 
ATOM     30  H   UNL     1     -49.579  36.801  27.428  1.00  0.00     0.054 H 
ATOM     31  H   UNL     1     -48.664  36.287  28.846  1.00  0.00     0.054 H 
BRANCH  29  32
ATOM     32  N   UNL     1     -47.765  37.739  27.629  1.00  0.00    -0.347 N 
ATOM     33  C   UNL     1     -46.735  38.055  28.479  1.00  0.00     0.270 C 
ATOM     34  H   UNL     1     -47.786  38.242  26.748  1.00  0.00     0.164 HD
ATOM     35  O   UNL     1     -46.485  37.460  29.522  1.00  0.00    -0.268 OA
BRANCH  33  36
ATOM     36  C   UNL     1     -45.917  39.223  27.981  1.00  0.00     0.136 A 
ATOM     37  C   UNL     1     -46.467  39.965  27.018  1.00  0.00     0.035 A 
ATOM     38  N   UNL     1     -44.680  39.453  28.540  1.00  0.00    -0.225 NA
ATOM     39  C   UNL     1     -45.711  41.114  26.507  1.00  0.00     0.258 A 
ATOM     40  H   UNL     1     -47.442  39.775  26.588  1.00  0.00     0.071 H 
ATOM     41  C   UNL     1     -44.016  40.473  28.089  1.00  0.00     0.140 A 
ATOM     42  O   UNL     1     -46.208  41.801  25.616  1.00  0.00    -0.269 OA
ATOM     43  N   UNL     1     -44.470  41.327  27.090  1.00  0.00    -0.268 N 
ATOM     44  C   UNL     1     -42.673  40.764  28.668  1.00  0.00    -0.019 A 
ATOM     45  C   UNL     1     -43.695  42.400  26.660  1.00  0.00     0.014 A 
ATOM     46  C   UNL     1     -41.966  41.809  28.221  1.00  0.00    -0.057 A 
ATOM     47  H   UNL     1     -42.313  40.106  29.448  1.00  0.00     0.066 H 
ATOM     48  C   UNL     1     -42.491  42.655  27.185  1.00  0.00    -0.045 A 
ATOM     49  H   UNL     1     -44.112  43.027  25.875  1.00  0.00     0.082 H 
ATOM     50  H   UNL     1     -40.987  42.037  28.632  1.00  0.00     0.062 H 
ATOM     51  H   UNL     1     -41.895  43.495  26.841  1.00  0.00     0.064 H 
ENDBRANCH  33  36
ENDBRANCH  29  32
ENDBRANCH  26  29
ENDBRANCH   1  15
TORSDOF 8
ENDMDL
MODEL 2
REMARK VINA RESULT:      -9.5      3.033     11.345
REMARK SMILES CC#CCNCc1cc2ccc(CNC(=O)c3cc(=O)n4ccccc4n3)cc2[nH]1
REMARK SMILES IDX 6 1 5 4 4 6 3 9 2 10 1 11 7 15 8 16 30 17 9 18 29 20 10 22
REMARK SMILES IDX 28 23 11 24 12 26 13 29 14 32 15 33 16 35 17 36 18 37 27 38
REMARK SMILES IDX 19 39 26 41 20 42 21 43 25 44 22 45 24 46 23 48
REMARK H PARENT 6 2 6 3 5 5 4 7 4 8 1 12 1 13 1 14 8 19 30 21 10 25 28 27
REMARK H PARENT 11 28 13 30 13 31 14 34 18 40 25 47 22 49 24 50 23 51
REMARK Flexibility Score: inf
ROOT
ATOM      1  C   UNL     1     -46.254  37.755  29.694  1.00  0.00     0.037 C 
ATOM      2  H   UNL     1     -46.829  37.503  30.594  1.00  0.00     0.049 H 
ATOM      3  H   UNL     1     -45.205  37.784  30.014  1.00  0.00     0.049 H 
ENDROOT
BRANCH   1   4
ATOM      4  N   UNL     1     -46.698  39.068  29.237  1.00  0.00    -0.301 NA
ATOM      5  H   UNL     1     -47.705  39.162  29.349  1.00  0.00     0.124 HD
BRANCH   4   6
ATOM      6  C   UNL     1     -46.350  39.361  27.847  1.00  0.00     0.058 C 
ATOM      7  H   UNL     1     -47.136  39.939  27.348  1.00  0.00     0.057 H 
ATOM      8  H   UNL     1     -46.292  38.406  27.314  1.00  0.00     0.057 H 
BRANCH   6   9
ATOM      9  C   UNL     1     -45.048  40.031  27.734  1.00  0.00    -0.088 C 
ATOM     10  C   UNL     1     -43.997  40.602  27.619  1.00  0.00    -0.105 C 
BRANCH  10  11
ATOM     11  C   UNL     1     -42.737  41.323  27.442  1.00  0.00    -0.003 C 
ATOM     12  H   UNL     1     -41.923  40.819  27.972  1.00  0.00     0.037 H 
ATOM     13  H   UNL     1     -42.468  41.383  26.384  1.00  0.00     0.037 H 
ATOM     14  H   UNL     1     -42.815  42.343  27.832  1.00  0.00     0.037 H 
ENDBRANCH  10  11
ENDBRANCH   6   9
ENDBRANCH   4   6
ENDBRANCH   1   4
BRANCH   1  15
ATOM     15  C   UNL     1     -46.470  36.684  28.686  1.00  0.00     0.030 A 
ATOM     16  C   UNL     1     -45.573  35.989  27.898  1.00  0.00    -0.032 A 
ATOM     17  N   UNL     1     -47.722  36.196  28.392  1.00  0.00    -0.357 N 
ATOM     18  C   UNL     1     -46.305  35.080  27.086  1.00  0.00    -0.000 A 
ATOM     19  H   UNL     1     -44.501  36.135  27.889  1.00  0.00     0.065 H 
ATOM     20  C   UNL     1     -47.650  35.230  27.415  1.00  0.00     0.046 A 
ATOM     21  H   UNL     1     -48.581  36.515  28.818  1.00  0.00     0.166 HD
ATOM     22  C   UNL     1     -45.948  34.145  26.099  1.00  0.00    -0.052 A 
ATOM     23  C   UNL     1     -48.667  34.486  26.802  1.00  0.00    -0.033 A 
ATOM     24  C   UNL     1     -46.950  33.393  25.473  1.00  0.00    -0.057 A 
ATOM     25  H   UNL     1     -44.908  34.003  25.823  1.00  0.00     0.063 H 
ATOM     26  C   UNL     1     -48.301  33.561  25.810  1.00  0.00    -0.027 A 
ATOM     27  H   UNL     1     -49.706  34.624  27.085  1.00  0.00     0.065 H 
ATOM     28  H   UNL     1     -46.667  32.665  24.715  1.00  0.00     0.063 H 
BRANCH  26  29
ATOM     29  C   UNL     1     -49.352  32.718  25.131  1.00  0.00     0.043 C 
ATOM     30  H   UNL     1     -50.312  32.810  25.652  1.00  0.00     0.054 H 
ATOM     31  H   UNL     1     -49.507  33.063  24.103  1.00  0.00     0.054 H 
BRANCH  29  32
ATOM     32  N   UNL     1     -48.985  31.326  25.154  1.00  0.00    -0.347 N 
ATOM     33  C   UNL     1     -48.524  30.660  24.046  1.00  0.00     0.270 C 
ATOM     34  H   UNL     1     -48.836  30.864  26.046  1.00  0.00     0.164 HD
ATOM     35  O   UNL     1     -48.508  31.124  22.912  1.00  0.00    -0.268 OA
BRANCH  33  36
ATOM     36  C   UNL     1     -48.016  29.276  24.378  1.00  0.00     0.136 A 
ATOM     37  C   UNL     1     -46.917  28.877  23.734  1.00  0.00     0.035 A 
ATOM     38  N   UNL     1     -48.696  28.526  25.310  1.00  0.00    -0.225 NA
ATOM     39  C   UNL     1     -46.384  27.543  24.030  1.00  0.00     0.258 A 
ATOM     40  H   UNL     1     -46.389  29.478  23.005  1.00  0.00     0.071 H 
ATOM     41  C   UNL     1     -48.218  27.348  25.573  1.00  0.00     0.140 A 
ATOM     42  O   UNL     1     -45.374  27.164  23.437  1.00  0.00    -0.269 OA
ATOM     43  N   UNL     1     -47.085  26.809  24.976  1.00  0.00    -0.268 N 
ATOM     44  C   UNL     1     -48.920  26.501  26.579  1.00  0.00    -0.019 A 
ATOM     45  C   UNL     1     -46.637  25.534  25.311  1.00  0.00     0.014 A 
ATOM     46  C   UNL     1     -48.451  25.281  26.869  1.00  0.00    -0.057 A 
ATOM     47  H   UNL     1     -49.802  26.913  27.050  1.00  0.00     0.066 H 
ATOM     48  C   UNL     1     -47.273  24.780  26.216  1.00  0.00    -0.045 A 
ATOM     49  H   UNL     1     -45.744  25.175  24.805  1.00  0.00     0.082 H 
ATOM     50  H   UNL     1     -48.947  24.650  27.600  1.00  0.00     0.062 H 
ATOM     51  H   UNL     1     -46.914  23.787  26.470  1.00  0.00     0.064 H 
ENDBRANCH  33  36
ENDBRANCH  29  32
ENDBRANCH  26  29
ENDBRANCH   1  15
TORSDOF 8
ENDMDL
MODEL 3
REMARK VINA RESULT:      -9.1      2.260      3.691
REMARK SMILES CC#CCNCc1cc2ccc(CNC(=O)c3cc(=O)n4ccccc4n3)cc2[nH]1
REMARK SMILES IDX 6 1 5 4 4 6 3 9 2 10 1 11 7 15 8 16 30 17 9 18 29 20 10 22
REMARK SMILES IDX 28 23 11 24 12 26 13 29 14 32 15 33 16 35 17 36 18 37 27 38
REMARK SMILES IDX 19 39 26 41 20 42 21 43 25 44 22 45 24 46 23 48
REMARK H PARENT 6 2 6 3 5 5 4 7 4 8 1 12 1 13 1 14 8 19 30 21 10 25 28 27
REMARK H PARENT 11 28 13 30 13 31 14 34 18 40 25 47 22 49 24 50 23 51
REMARK Flexibility Score: inf
ROOT
ATOM      1  C   UNL     1     -47.620  31.198  24.724  1.00  0.00     0.037 C 
ATOM      2  H   UNL     1     -47.935  30.382  25.385  1.00  0.00     0.049 H 
ATOM      3  H   UNL     1     -48.388  31.257  23.943  1.00  0.00     0.049 H 
ENDROOT
BRANCH   1   4
ATOM      4  N   UNL     1     -46.324  30.838  24.158  1.00  0.00    -0.301 NA
ATOM      5  H   UNL     1     -45.812  31.671  23.880  1.00  0.00     0.124 HD
BRANCH   4   6
ATOM      6  C   UNL     1     -46.407  29.931  23.014  1.00  0.00     0.058 C 
ATOM      7  H   UNL     1     -47.306  29.306  23.059  1.00  0.00     0.057 H 
ATOM      8  H   UNL     1     -45.557  29.243  23.078  1.00  0.00     0.057 H 
BRANCH   6   9
ATOM      9  C   UNL     1     -46.323  30.647  21.735  1.00  0.00    -0.088 C 
ATOM     10  C   UNL     1     -46.261  31.263  20.705  1.00  0.00    -0.105 C 
BRANCH  10  11
ATOM     11  C   UNL     1     -46.203  32.053  19.476  1.00  0.00    -0.003 C 
ATOM     12  H   UNL     1     -45.165  32.278  19.208  1.00  0.00     0.037 H 
ATOM     13  H   UNL     1     -46.660  31.512  18.643  1.00  0.00     0.037 H 
ATOM     14  H   UNL     1     -46.733  33.003  19.598  1.00  0.00     0.037 H 
ENDBRANCH  10  11
ENDBRANCH   6   9
ENDBRANCH   4   6
ENDBRANCH   1   4
BRANCH   1  15
ATOM     15  C   UNL     1     -47.578  32.454  25.519  1.00  0.00     0.030 A 
ATOM     16  C   UNL     1     -48.570  33.368  25.819  1.00  0.00    -0.032 A 
ATOM     17  N   UNL     1     -46.427  32.899  26.126  1.00  0.00    -0.357 N 
ATOM     18  C   UNL     1     -47.996  34.407  26.600  1.00  0.00    -0.000 A 
ATOM     19  H   UNL     1     -49.599  33.309  25.490  1.00  0.00     0.065 H 
ATOM     20  C   UNL     1     -46.651  34.089  26.779  1.00  0.00     0.046 A 
ATOM     21  H   UNL     1     -45.534  32.430  26.084  1.00  0.00     0.166 HD
ATOM     22  C   UNL     1     -48.494  35.591  27.172  1.00  0.00    -0.052 A 
ATOM     23  C   UNL     1     -45.771  34.902  27.507  1.00  0.00    -0.033 A 
ATOM     24  C   UNL     1     -47.629  36.417  27.900  1.00  0.00    -0.057 A 
ATOM     25  H   UNL     1     -49.538  35.864  27.053  1.00  0.00     0.063 H 
ATOM     26  C   UNL     1     -46.277  36.087  28.065  1.00  0.00    -0.027 A 
ATOM     27  H   UNL     1     -44.730  34.622  27.631  1.00  0.00     0.065 H 
ATOM     28  H   UNL     1     -48.023  37.329  28.347  1.00  0.00     0.063 H 
BRANCH  26  29
ATOM     29  C   UNL     1     -45.379  36.990  28.875  1.00  0.00     0.043 C 
ATOM     30  H   UNL     1     -45.901  37.344  29.771  1.00  0.00     0.054 H 
ATOM     31  H   UNL     1     -44.494  36.439  29.212  1.00  0.00     0.054 H 
BRANCH  29  32
ATOM     32  N   UNL     1     -45.001  38.152  28.113  1.00  0.00    -0.347 N 
ATOM     33  C   UNL     1     -45.650  39.356  28.222  1.00  0.00     0.270 C 
ATOM     34  H   UNL     1     -44.097  38.172  27.651  1.00  0.00     0.164 HD
ATOM     35  O   UNL     1     -46.684  39.535  28.856  1.00  0.00    -0.268 OA
BRANCH  33  36
ATOM     36  C   UNL     1     -44.937  40.462  27.479  1.00  0.00     0.136 A 
ATOM     37  C   UNL     1     -43.613  40.524  27.636  1.00  0.00     0.035 A 
ATOM     38  N   UNL     1     -45.677  41.318  26.695  1.00  0.00    -0.225 NA
ATOM     39  C   UNL     1     -42.878  41.579  26.928  1.00  0.00     0.258 A 
ATOM     40  H   UNL     1     -43.042  39.844  28.254  1.00  0.00     0.071 H 
ATOM     41  C   UNL     1     -45.022  42.246  26.067  1.00  0.00     0.140 A 
ATOM     42  O   UNL     1     -41.658  41.648  27.071  1.00  0.00    -0.269 OA
ATOM     43  N   UNL     1     -43.646  42.425  26.141  1.00  0.00    -0.268 N 
ATOM     44  C   UNL     1     -45.781  43.195  25.203  1.00  0.00    -0.019 A 
ATOM     45  C   UNL     1     -43.018  43.449  25.436  1.00  0.00     0.014 A 
ATOM     46  C   UNL     1     -45.133  44.163  24.543  1.00  0.00    -0.057 A 
ATOM     47  H   UNL     1     -46.853  43.061  25.137  1.00  0.00     0.066 H 
ATOM     48  C   UNL     1     -43.707  44.296  24.663  1.00  0.00    -0.045 A 
ATOM     49  H   UNL     1     -41.939  43.531  25.541  1.00  0.00     0.082 H 
ATOM     50  H   UNL     1     -45.668  44.862  23.908  1.00  0.00     0.062 H 
ATOM     51  H   UNL     1     -43.206  45.091  24.117  1.00  0.00     0.064 H 
ENDBRANCH  33  36
ENDBRANCH  29  32
ENDBRANCH  26  29
ENDBRANCH   1  15
TORSDOF 8
ENDMDL
MODEL 4
REMARK VINA RESULT:      -9.1      1.878      2.068
REMARK SMILES CC#CCNCc1cc2ccc(CNC(=O)c3cc(=O)n4ccccc4n3)cc2[nH]1
REMARK SMILES IDX 6 1 5 4 4 6 3 9 2 10 1 11 7 15 8 16 30 17 9 18 29 20 10 22
REMARK SMILES IDX 28 23 11 24 12 26 13 29 14 32 15 33 16 35 17 36 18 37 27 38
REMARK SMILES IDX 19 39 26 41 20 42 21 43 25 44 22 45 24 46 23 48
REMARK H PARENT 6 2 6 3 5 5 4 7 4 8 1 12 1 13 1 14 8 19 30 21 10 25 28 27
REMARK H PARENT 11 28 13 30 13 31 14 34 18 40 25 47 22 49 24 50 23 51
REMARK Flexibility Score: inf
ROOT
ATOM      1  C   UNL     1     -49.172  29.923  24.725  1.00  0.00     0.037 C 
ATOM      2  H   UNL     1     -48.401  29.156  24.863  1.00  0.00     0.049 H 
ATOM      3  H   UNL     1     -49.985  29.650  25.409  1.00  0.00     0.049 H 
ENDROOT
BRANCH   1   4
ATOM      4  N   UNL     1     -49.614  29.865  23.336  1.00  0.00    -0.301 NA
ATOM      5  H   UNL     1     -50.618  29.711  23.287  1.00  0.00     0.124 HD
BRANCH   4   6
ATOM      6  C   UNL     1     -48.942  28.837  22.542  1.00  0.00     0.058 C 
ATOM      7  H   UNL     1     -49.365  28.765  21.534  1.00  0.00     0.057 H 
ATOM      8  H   UNL     1     -49.138  27.871  23.022  1.00  0.00     0.057 H 
BRANCH   6   9
ATOM      9  C   UNL     1     -47.488  29.039  22.493  1.00  0.00    -0.088 C 
ATOM     10  C   UNL     1     -46.295  29.170  22.451  1.00  0.00    -0.105 C 
BRANCH  10  11
ATOM     11  C   UNL     1     -44.837  29.280  22.405  1.00  0.00    -0.003 C 
ATOM     12  H   UNL     1     -44.368  28.309  22.598  1.00  0.00     0.037 H 
ATOM     13  H   UNL     1     -44.503  29.630  21.425  1.00  0.00     0.037 H 
ATOM     14  H   UNL     1     -44.477  29.985  23.160  1.00  0.00     0.037 H 
ENDBRANCH  10  11
ENDBRANCH   6   9
ENDBRANCH   4   6
ENDBRANCH   1   4
BRANCH   1  15
ATOM     15  C   UNL     1     -48.591  31.242  25.096  1.00  0.00     0.030 A 
ATOM     16  C   UNL     1     -47.345  31.783  24.846  1.00  0.00    -0.032 A 
ATOM     17  N   UNL     1     -49.305  32.185  25.798  1.00  0.00    -0.357 N 
ATOM     18  C   UNL     1     -47.294  33.073  25.439  1.00  0.00    -0.000 A 
ATOM     19  H   UNL     1     -46.543  31.292  24.311  1.00  0.00     0.065 H 
ATOM     20  C   UNL     1     -48.535  33.302  26.030  1.00  0.00     0.046 A 
ATOM     21  H   UNL     1     -50.255  32.069  26.120  1.00  0.00     0.166 HD
ATOM     22  C   UNL     1     -46.307  34.070  25.530  1.00  0.00    -0.052 A 
ATOM     23  C   UNL     1     -48.842  34.486  26.714  1.00  0.00    -0.033 A 
ATOM     24  C   UNL     1     -46.593  35.259  26.212  1.00  0.00    -0.057 A 
ATOM     25  H   UNL     1     -45.331  33.922  25.077  1.00  0.00     0.063 H 
ATOM     26  C   UNL     1     -47.844  35.470  26.808  1.00  0.00    -0.027 A 
ATOM     27  H   UNL     1     -49.821  34.633  27.159  1.00  0.00     0.065 H 
ATOM     28  H   UNL     1     -45.826  36.030  26.273  1.00  0.00     0.063 H 
BRANCH  26  29
ATOM     29  C   UNL     1     -48.126  36.773  27.515  1.00  0.00     0.043 C 
ATOM     30  H   UNL     1     -49.031  37.240  27.111  1.00  0.00     0.054 H 
ATOM     31  H   UNL     1     -48.302  36.593  28.582  1.00  0.00     0.054 H 
BRANCH  29  32
ATOM     32  N   UNL     1     -47.043  37.703  27.324  1.00  0.00    -0.347 N 
ATOM     33  C   UNL     1     -47.186  39.057  27.505  1.00  0.00     0.270 C 
ATOM     34  H   UNL     1     -46.090  37.357  27.280  1.00  0.00     0.164 HD
ATOM     35  O   UNL     1     -48.254  39.624  27.705  1.00  0.00    -0.268 OA
BRANCH  33  36
ATOM     36  C   UNL     1     -45.864  39.785  27.446  1.00  0.00     0.136 A 
ATOM     37  C   UNL     1     -45.638  40.518  26.353  1.00  0.00     0.035 A 
ATOM     38  N   UNL     1     -44.989  39.660  28.502  1.00  0.00    -0.225 NA
ATOM     39  C   UNL     1     -44.369  41.249  26.256  1.00  0.00     0.258 A 
ATOM     40  H   UNL     1     -46.335  40.611  25.531  1.00  0.00     0.071 H 
ATOM     41  C   UNL     1     -43.870  40.311  28.414  1.00  0.00     0.140 A 
ATOM     42  O   UNL     1     -44.150  41.923  25.250  1.00  0.00    -0.269 OA
ATOM     43  N   UNL     1     -43.508  41.109  27.334  1.00  0.00    -0.268 N 
ATOM     44  C   UNL     1     -42.894  40.208  29.535  1.00  0.00    -0.019 A 
ATOM     45  C   UNL     1     -42.286  41.775  27.316  1.00  0.00     0.014 A 
ATOM     46  C   UNL     1     -41.731  40.868  29.472  1.00  0.00    -0.057 A 
ATOM     47  H   UNL     1     -43.169  39.591  30.381  1.00  0.00     0.066 H 
ATOM     48  C   UNL     1     -41.415  41.678  28.327  1.00  0.00    -0.045 A 
ATOM     49  H   UNL     1     -42.068  42.381  26.440  1.00  0.00     0.082 H 
ATOM     50  H   UNL     1     -41.008  40.807  30.279  1.00  0.00     0.062 H 
ATOM     51  H   UNL     1     -40.464  42.202  28.301  1.00  0.00     0.064 H 
ENDBRANCH  33  36
ENDBRANCH  29  32
ENDBRANCH  26  29
ENDBRANCH   1  15
TORSDOF 8
ENDMDL
MODEL 5
REMARK VINA RESULT:      -9.0      1.681      2.636
REMARK SMILES CC#CCNCc1cc2ccc(CNC(=O)c3cc(=O)n4ccccc4n3)cc2[nH]1
REMARK SMILES IDX 6 1 5 4 4 6 3 9 2 10 1 11 7 15 8 16 30 17 9 18 29 20 10 22
REMARK SMILES IDX 28 23 11 24 12 26 13 29 14 32 15 33 16 35 17 36 18 37 27 38
REMARK SMILES IDX 19 39 26 41 20 42 21 43 25 44 22 45 24 46 23 48
REMARK H PARENT 6 2 6 3 5 5 4 7 4 8 1 12 1 13 1 14 8 19 30 21 10 25 28 27
REMARK H PARENT 11 28 13 30 13 31 14 34 18 40 25 47 22 49 24 50 23 51
REMARK Flexibility Score: inf
ROOT
ATOM      1  C   UNL     1     -46.116  30.306  22.897  1.00  0.00     0.037 C 
ATOM      2  H   UNL     1     -46.854  30.295  22.086  1.00  0.00     0.049 H 
ATOM      3  H   UNL     1     -45.172  30.616  22.432  1.00  0.00     0.049 H 
ENDROOT
BRANCH   1   4
ATOM      4  N   UNL     1     -46.018  28.951  23.428  1.00  0.00    -0.301 NA
ATOM      5  H   UNL     1     -45.448  28.370  22.819  1.00  0.00     0.124 HD
BRANCH   4   6
ATOM      6  C   UNL     1     -47.311  28.297  23.627  1.00  0.00     0.058 C 
ATOM      7  H   UNL     1     -47.712  27.902  22.686  1.00  0.00     0.057 H 
ATOM      8  H   UNL     1     -48.019  29.064  23.958  1.00  0.00     0.057 H 
BRANCH   6   9
ATOM      9  C   UNL     1     -47.249  27.251  24.656  1.00  0.00    -0.088 C 
ATOM     10  C   UNL     1     -47.206  26.372  25.473  1.00  0.00    -0.105 C 
BRANCH  10  11
ATOM     11  C   UNL     1     -47.170  25.270  26.434  1.00  0.00    -0.003 C 
ATOM     12  H   UNL     1     -47.283  25.643  27.457  1.00  0.00     0.037 H 
ATOM     13  H   UNL     1     -47.978  24.558  26.240  1.00  0.00     0.037 H 
ATOM     14  H   UNL     1     -46.219  24.731  26.373  1.00  0.00     0.037 H 
ENDBRANCH  10  11
ENDBRANCH   6   9
ENDBRANCH   4   6
ENDBRANCH   1   4
BRANCH   1  15
ATOM     15  C   UNL     1     -46.555  31.299  23.914  1.00  0.00     0.030 A 
ATOM     16  C   UNL     1     -47.808  31.804  24.202  1.00  0.00    -0.032 A 
ATOM     17  N   UNL     1     -45.673  31.889  24.789  1.00  0.00    -0.357 N 
ATOM     18  C   UNL     1     -47.675  32.746  25.258  1.00  0.00    -0.000 A 
ATOM     19  H   UNL     1     -48.724  31.541  23.691  1.00  0.00     0.065 H 
ATOM     20  C   UNL     1     -46.327  32.781  25.608  1.00  0.00     0.046 A 
ATOM     21  H   UNL     1     -44.680  31.711  24.816  1.00  0.00     0.166 HD
ATOM     22  C   UNL     1     -48.576  33.575  25.949  1.00  0.00    -0.052 A 
ATOM     23  C   UNL     1     -45.829  33.610  26.623  1.00  0.00    -0.033 A 
ATOM     24  C   UNL     1     -48.098  34.412  26.964  1.00  0.00    -0.057 A 
ATOM     25  H   UNL     1     -49.634  33.567  25.701  1.00  0.00     0.063 H 
ATOM     26  C   UNL     1     -46.737  34.441  27.300  1.00  0.00    -0.027 A 
ATOM     27  H   UNL     1     -44.773  33.610  26.873  1.00  0.00     0.065 H 
ATOM     28  H   UNL     1     -48.802  35.046  27.500  1.00  0.00     0.063 H 
BRANCH  26  29
ATOM     29  C   UNL     1     -46.260  35.340  28.414  1.00  0.00     0.043 C 
ATOM     30  H   UNL     1     -46.881  35.206  29.306  1.00  0.00     0.054 H 
ATOM     31  H   UNL     1     -45.232  35.083  28.693  1.00  0.00     0.054 H 
BRANCH  29  32
ATOM     32  N   UNL     1     -46.355  36.725  28.031  1.00  0.00    -0.347 N 
ATOM     33  C   UNL     1     -45.620  37.716  28.633  1.00  0.00     0.270 C 
ATOM     34  H   UNL     1     -46.794  36.969  27.149  1.00  0.00     0.164 HD
ATOM     35  O   UNL     1     -44.926  37.558  29.630  1.00  0.00    -0.268 OA
BRANCH  33  36
ATOM     36  C   UNL     1     -45.746  39.040  27.917  1.00  0.00     0.136 A 
ATOM     37  C   UNL     1     -44.622  39.550  27.410  1.00  0.00     0.035 A 
ATOM     38  N   UNL     1     -46.988  39.628  27.825  1.00  0.00    -0.225 NA
ATOM     39  C   UNL     1     -44.699  40.832  26.700  1.00  0.00     0.258 A 
ATOM     40  H   UNL     1     -43.652  39.077  27.487  1.00  0.00     0.071 H 
ATOM     41  C   UNL     1     -47.052  40.759  27.192  1.00  0.00     0.140 A 
ATOM     42  O   UNL     1     -43.666  41.313  26.234  1.00  0.00    -0.269 OA
ATOM     43  N   UNL     1     -45.961  41.401  26.617  1.00  0.00    -0.268 N 
ATOM     44  C   UNL     1     -48.376  41.432  27.063  1.00  0.00    -0.019 A 
ATOM     45  C   UNL     1     -46.113  42.617  25.956  1.00  0.00     0.014 A 
ATOM     46  C   UNL     1     -48.472  42.600  26.417  1.00  0.00    -0.057 A 
ATOM     47  H   UNL     1     -49.231  40.938  27.505  1.00  0.00     0.066 H 
ATOM     48  C   UNL     1     -47.306  43.214  25.845  1.00  0.00    -0.045 A 
ATOM     49  H   UNL     1     -45.218  43.063  25.531  1.00  0.00     0.082 H 
ATOM     50  H   UNL     1     -49.428  43.104  26.312  1.00  0.00     0.062 H 
ATOM     51  H   UNL     1     -47.412  44.162  25.326  1.00  0.00     0.064 H 
ENDBRANCH  33  36
ENDBRANCH  29  32
ENDBRANCH  26  29
ENDBRANCH   1  15
TORSDOF 8
ENDMDL
MODEL 6
REMARK VINA RESULT:      -9.0      2.022      3.206
REMARK SMILES CC#CCNCc1cc2ccc(CNC(=O)c3cc(=O)n4ccccc4n3)cc2[nH]1
REMARK SMILES IDX 6 1 5 4 4 6 3 9 2 10 1 11 7 15 8 16 30 17 9 18 29 20 10 22
REMARK SMILES IDX 28 23 11 24 12 26 13 29 14 32 15 33 16 35 17 36 18 37 27 38
REMARK SMILES IDX 19 39 26 41 20 42 21 43 25 44 22 45 24 46 23 48
REMARK H PARENT 6 2 6 3 5 5 4 7 4 8 1 12 1 13 1 14 8 19 30 21 10 25 28 27
REMARK H PARENT 11 28 13 30 13 31 14 34 18 40 25 47 22 49 24 50 23 51
REMARK Flexibility Score: inf
ROOT
ATOM      1  C   UNL     1     -45.997  32.120  24.723  1.00  0.00     0.037 C 
ATOM      2  H   UNL     1     -44.943  32.188  25.019  1.00  0.00     0.049 H 
ATOM      3  H   UNL     1     -46.331  31.128  25.048  1.00  0.00     0.049 H 
ENDROOT
BRANCH   1   4
ATOM      4  N   UNL     1     -46.058  32.245  23.270  1.00  0.00    -0.301 NA
ATOM      5  H   UNL     1     -46.682  33.003  23.004  1.00  0.00     0.124 HD
BRANCH   4   6
ATOM      6  C   UNL     1     -46.483  31.024  22.587  1.00  0.00     0.058 C 
ATOM      7  H   UNL     1     -45.627  30.466  22.189  1.00  0.00     0.057 H 
ATOM      8  H   UNL     1     -47.078  31.324  21.718  1.00  0.00     0.057 H 
BRANCH   6   9
ATOM      9  C   UNL     1     -47.317  30.172  23.444  1.00  0.00    -0.088 C 
ATOM     10  C   UNL     1     -47.977  29.481  24.172  1.00  0.00    -0.105 C 
BRANCH  10  11
ATOM     11  C   UNL     1     -48.743  28.641  25.091  1.00  0.00    -0.003 C 
ATOM     12  H   UNL     1     -49.713  29.096  25.317  1.00  0.00     0.037 H 
ATOM     13  H   UNL     1     -48.924  27.653  24.658  1.00  0.00     0.037 H 
ATOM     14  H   UNL     1     -48.206  28.506  26.035  1.00  0.00     0.037 H 
ENDBRANCH  10  11
ENDBRANCH   6   9
ENDBRANCH   4   6
ENDBRANCH   1   4
BRANCH   1  15
ATOM     15  C   UNL     1     -46.750  33.190  25.431  1.00  0.00     0.030 A 
ATOM     16  C   UNL     1     -48.074  33.259  25.817  1.00  0.00    -0.032 A 
ATOM     17  N   UNL     1     -46.152  34.360  25.838  1.00  0.00    -0.357 N 
ATOM     18  C   UNL     1     -48.289  34.515  26.447  1.00  0.00    -0.000 A 
ATOM     19  H   UNL     1     -48.820  32.494  25.645  1.00  0.00     0.065 H 
ATOM     20  C   UNL     1     -47.068  35.186  26.447  1.00  0.00     0.046 A 
ATOM     21  H   UNL     1     -45.180  34.592  25.694  1.00  0.00     0.166 HD
ATOM     22  C   UNL     1     -49.409  35.145  27.016  1.00  0.00    -0.052 A 
ATOM     23  C   UNL     1     -46.909  36.467  26.993  1.00  0.00    -0.033 A 
ATOM     24  C   UNL     1     -49.271  36.427  27.563  1.00  0.00    -0.057 A 
ATOM     25  H   UNL     1     -50.373  34.646  27.033  1.00  0.00     0.063 H 
ATOM     26  C   UNL     1     -48.037  37.092  27.549  1.00  0.00    -0.027 A 
ATOM     27  H   UNL     1     -45.942  36.961  26.980  1.00  0.00     0.065 H 
ATOM     28  H   UNL     1     -50.141  36.907  28.009  1.00  0.00     0.063 H 
BRANCH  26  29
ATOM     29  C   UNL     1     -47.919  38.463  28.167  1.00  0.00     0.043 C 
ATOM     30  H   UNL     1     -48.782  39.081  27.896  1.00  0.00     0.054 H 
ATOM     31  H   UNL     1     -47.907  38.386  29.260  1.00  0.00     0.054 H 
BRANCH  29  32
ATOM     32  N   UNL     1     -46.741  39.140  27.689  1.00  0.00    -0.347 N 
ATOM     33  C   UNL     1     -46.795  40.202  26.820  1.00  0.00     0.270 C 
ATOM     34  H   UNL     1     -45.856  38.999  28.166  1.00  0.00     0.164 HD
ATOM     35  O   UNL     1     -47.812  40.591  26.259  1.00  0.00    -0.268 OA
BRANCH  33  36
ATOM     36  C   UNL     1     -45.448  40.861  26.636  1.00  0.00     0.136 A 
ATOM     37  C   UNL     1     -44.525  40.594  27.562  1.00  0.00     0.035 A 
ATOM     38  N   UNL     1     -45.253  41.677  25.544  1.00  0.00    -0.225 NA
ATOM     39  C   UNL     1     -43.200  41.209  27.420  1.00  0.00     0.258 A 
ATOM     40  H   UNL     1     -44.690  39.949  28.415  1.00  0.00     0.071 H 
ATOM     41  C   UNL     1     -44.078  42.215  25.420  1.00  0.00     0.140 A 
ATOM     42  O   UNL     1     -42.344  40.972  28.272  1.00  0.00    -0.269 OA
ATOM     43  N   UNL     1     -43.028  42.022  26.310  1.00  0.00    -0.268 N 
ATOM     44  C   UNL     1     -43.819  43.103  24.251  1.00  0.00    -0.019 A 
ATOM     45  C   UNL     1     -41.796  42.638  26.106  1.00  0.00     0.014 A 
ATOM     46  C   UNL     1     -42.617  43.672  24.098  1.00  0.00    -0.057 A 
ATOM     47  H   UNL     1     -44.631  43.256  23.552  1.00  0.00     0.066 H 
ATOM     48  C   UNL     1     -41.571  43.434  25.054  1.00  0.00    -0.045 A 
ATOM     49  H   UNL     1     -41.019  42.444  26.842  1.00  0.00     0.082 H 
ATOM     50  H   UNL     1     -42.410  44.320  23.252  1.00  0.00     0.062 H 
ATOM     51  H   UNL     1     -40.606  43.909  24.906  1.00  0.00     0.064 H 
ENDBRANCH  33  36
ENDBRANCH  29  32
ENDBRANCH  26  29
ENDBRANCH   1  15
TORSDOF 8
ENDMDL
MODEL 7
REMARK VINA RESULT:      -8.7      2.441      2.756
REMARK SMILES CC#CCNCc1cc2ccc(CNC(=O)c3cc(=O)n4ccccc4n3)cc2[nH]1
REMARK SMILES IDX 6 1 5 4 4 6 3 9 2 10 1 11 7 15 8 16 30 17 9 18 29 20 10 22
REMARK SMILES IDX 28 23 11 24 12 26 13 29 14 32 15 33 16 35 17 36 18 37 27 38
REMARK SMILES IDX 19 39 26 41 20 42 21 43 25 44 22 45 24 46 23 48
REMARK H PARENT 6 2 6 3 5 5 4 7 4 8 1 12 1 13 1 14 8 19 30 21 10 25 28 27
REMARK H PARENT 11 28 13 30 13 31 14 34 18 40 25 47 22 49 24 50 23 51
REMARK Flexibility Score: inf
ROOT
ATOM      1  C   UNL     1     -49.219  31.209  23.822  1.00  0.00     0.037 C 
ATOM      2  H   UNL     1     -48.972  30.216  24.218  1.00  0.00     0.049 H 
ATOM      3  H   UNL     1     -50.309  31.298  23.910  1.00  0.00     0.049 H 
ENDROOT
BRANCH   1   4
ATOM      4  N   UNL     1     -48.802  31.246  22.424  1.00  0.00    -0.301 NA
ATOM      5  H   UNL     1     -49.541  31.632  21.842  1.00  0.00     0.124 HD
BRANCH   4   6
ATOM      6  C   UNL     1     -48.412  29.943  21.886  1.00  0.00     0.058 C 
ATOM      7  H   UNL     1     -48.660  29.855  20.822  1.00  0.00     0.057 H 
ATOM      8  H   UNL     1     -49.012  29.183  22.399  1.00  0.00     0.057 H 
BRANCH   6   9
ATOM      9  C   UNL     1     -46.994  29.648  22.125  1.00  0.00    -0.088 C 
ATOM     10  C   UNL     1     -45.842  29.375  22.331  1.00  0.00    -0.105 C 
BRANCH  10  11
ATOM     11  C   UNL     1     -44.455  29.000  22.601  1.00  0.00    -0.003 C 
ATOM     12  H   UNL     1     -43.765  29.750  22.203  1.00  0.00     0.037 H 
ATOM     13  H   UNL     1     -44.277  28.912  23.677  1.00  0.00     0.037 H 
ATOM     14  H   UNL     1     -44.214  28.038  22.137  1.00  0.00     0.037 H 
ENDBRANCH  10  11
ENDBRANCH   6   9
ENDBRANCH   4   6
ENDBRANCH   1   4
BRANCH   1  15
ATOM     15  C   UNL     1     -48.535  32.230  24.660  1.00  0.00     0.030 A 
ATOM     16  C   UNL     1     -47.211  32.619  24.709  1.00  0.00    -0.032 A 
ATOM     17  N   UNL     1     -49.213  32.997  25.578  1.00  0.00    -0.357 N 
ATOM     18  C   UNL     1     -47.080  33.626  25.703  1.00  0.00    -0.000 A 
ATOM     19  H   UNL     1     -46.412  32.206  24.107  1.00  0.00     0.065 H 
ATOM     20  C   UNL     1     -48.350  33.845  26.233  1.00  0.00     0.046 A 
ATOM     21  H   UNL     1     -50.204  32.936  25.763  1.00  0.00     0.166 HD
ATOM     22  C   UNL     1     -45.999  34.372  26.205  1.00  0.00    -0.052 A 
ATOM     23  C   UNL     1     -48.596  34.780  27.248  1.00  0.00    -0.033 A 
ATOM     24  C   UNL     1     -46.225  35.309  27.220  1.00  0.00    -0.057 A 
ATOM     25  H   UNL     1     -44.998  34.226  25.809  1.00  0.00     0.063 H 
ATOM     26  C   UNL     1     -47.507  35.512  27.748  1.00  0.00    -0.027 A 
ATOM     27  H   UNL     1     -49.600  34.929  27.635  1.00  0.00     0.065 H 
ATOM     28  H   UNL     1     -45.384  35.889  27.599  1.00  0.00     0.063 H 
BRANCH  26  29
ATOM     29  C   UNL     1     -47.718  36.546  28.827  1.00  0.00     0.043 C 
ATOM     30  H   UNL     1     -48.719  36.985  28.747  1.00  0.00     0.054 H 
ATOM     31  H   UNL     1     -47.646  36.080  29.816  1.00  0.00     0.054 H 
BRANCH  29  32
ATOM     32  N   UNL     1     -46.768  37.621  28.697  1.00  0.00    -0.347 N 
ATOM     33  C   UNL     1     -45.776  37.852  29.617  1.00  0.00     0.270 C 
ATOM     34  H   UNL     1     -46.665  38.090  27.803  1.00  0.00     0.164 HD
ATOM     35  O   UNL     1     -45.676  37.273  30.693  1.00  0.00    -0.268 OA
BRANCH  33  36
ATOM     36  C   UNL     1     -44.793  38.900  29.150  1.00  0.00     0.136 A 
ATOM     37  C   UNL     1     -43.779  39.172  29.974  1.00  0.00     0.035 A 
ATOM     38  N   UNL     1     -44.993  39.497  27.925  1.00  0.00    -0.225 NA
ATOM     39  C   UNL     1     -42.796  40.179  29.558  1.00  0.00     0.258 A 
ATOM     40  H   UNL     1     -43.632  38.694  30.933  1.00  0.00     0.071 H 
ATOM     41  C   UNL     1     -44.118  40.384  27.559  1.00  0.00     0.140 A 
ATOM     42  O   UNL     1     -41.860  40.440  30.313  1.00  0.00    -0.269 OA
ATOM     43  N   UNL     1     -43.017  40.762  28.319  1.00  0.00    -0.268 N 
ATOM     44  C   UNL     1     -44.291  41.054  26.239  1.00  0.00    -0.019 A 
ATOM     45  C   UNL     1     -42.125  41.725  27.855  1.00  0.00     0.014 A 
ATOM     46  C   UNL     1     -43.406  41.974  25.836  1.00  0.00    -0.057 A 
ATOM     47  H   UNL     1     -45.144  40.764  25.640  1.00  0.00     0.066 H 
ATOM     48  C   UNL     1     -42.287  42.322  26.668  1.00  0.00    -0.045 A 
ATOM     49  H   UNL     1     -41.286  41.973  28.501  1.00  0.00     0.082 H 
ATOM     50  H   UNL     1     -43.514  42.471  24.877  1.00  0.00     0.062 H 
ATOM     51  H   UNL     1     -41.585  43.072  26.317  1.00  0.00     0.064 H 
ENDBRANCH  33  36
ENDBRANCH  29  32
ENDBRANCH  26  29
ENDBRANCH   1  15
TORSDOF 8
ENDMDL
