MODEL 1
REMARK VINA RESULT:     -10.2      0.000      0.000
REMARK SMILES CCc1cc(NC(C)=O)c2ccc(OCc3cncc(-n4cc([C@@H]5CCCO5)c5c(N)ncnc54)c3)cc2n1
REMARK SMILES IDX 15 1 14 4 13 5 3 6 4 7 39 8 5 9 38 11 10 12 37 13 11 14
REMARK SMILES IDX 12 16 2 19 1 22 6 26 7 27 9 29 8 30 16 34 17 35 36 36 18 37
REMARK SMILES IDX 20 39 19 41 21 43 22 44 35 45 23 46 29 48 34 49 30 50 33 51
REMARK SMILES IDX 32 52 24 54 25 55 28 56 26 58 27 61 31 66
REMARK H PARENT 15 2 15 3 4 10 37 15 11 17 12 18 2 20 2 21 1 23 1 24 1 25 6 28
REMARK H PARENT 8 31 8 32 8 33 17 38 36 40 19 42 22 47 33 53 24 57 25 59 25 60
REMARK H PARENT 26 62 26 63 27 64 27 65 31 67 31 68
REMARK Flexibility Score: inf
ROOT
ATOM      1  C   UNL     1     -46.143  34.260  27.574  1.00  0.00     0.115 C 
ATOM      2  H   UNL     1     -45.516  33.984  28.430  1.00  0.00     0.076 H 
ATOM      3  H   UNL     1     -45.516  34.137  26.683  1.00  0.00     0.076 H 
ENDROOT
BRANCH   1   4
ATOM      4  O   UNL     1     -47.237  33.347  27.422  1.00  0.00    -0.489 OA
BRANCH   4   5
ATOM      5  C   UNL     1     -47.263  32.544  26.317  1.00  0.00     0.122 A 
ATOM      6  C   UNL     1     -48.666  28.732  23.859  1.00  0.00     0.043 A 
ATOM      7  C   UNL     1     -47.951  29.082  22.725  1.00  0.00    -0.016 A 
ATOM      8  N   UNL     1     -48.668  29.489  24.977  1.00  0.00    -0.253 NA
ATOM      9  C   UNL     1     -47.193  30.253  22.727  1.00  0.00     0.052 A 
ATOM     10  H   UNL     1     -48.006  28.427  21.864  1.00  0.00     0.066 H 
ATOM     11  C   UNL     1     -47.947  30.616  24.999  1.00  0.00     0.076 A 
ATOM     12  C   UNL     1     -47.180  31.064  23.900  1.00  0.00     0.024 A 
ATOM     13  C   UNL     1     -47.979  31.358  26.174  1.00  0.00     0.007 A 
ATOM     14  C   UNL     1     -46.465  32.281  24.054  1.00  0.00    -0.047 A 
ATOM     15  H   UNL     1     -48.602  30.974  26.975  1.00  0.00     0.069 H 
ATOM     16  C   UNL     1     -46.512  33.007  25.244  1.00  0.00    -0.019 A 
ATOM     17  H   UNL     1     -45.857  32.692  23.254  1.00  0.00     0.063 H 
ATOM     18  H   UNL     1     -45.955  33.937  25.334  1.00  0.00     0.066 H 
BRANCH   6  19
ATOM     19  C   UNL     1     -49.513  27.487  23.878  1.00  0.00    -0.013 C 
ATOM     20  H   UNL     1     -50.549  27.736  23.619  1.00  0.00     0.033 H 
ATOM     21  H   UNL     1     -49.156  26.797  23.104  1.00  0.00     0.033 H 
BRANCH  19  22
ATOM     22  C   UNL     1     -49.463  26.796  25.231  1.00  0.00    -0.060 C 
ATOM     23  H   UNL     1     -50.475  26.551  25.570  1.00  0.00     0.023 H 
ATOM     24  H   UNL     1     -48.886  25.866  25.180  1.00  0.00     0.023 H 
ATOM     25  H   UNL     1     -48.998  27.437  25.988  1.00  0.00     0.023 H 
ENDBRANCH  19  22
ENDBRANCH   6  19
BRANCH   9  26
ATOM     26  N   UNL     1     -46.438  30.650  21.588  1.00  0.00    -0.326 N 
ATOM     27  C   UNL     1     -46.875  31.356  20.479  1.00  0.00     0.221 C 
ATOM     28  H   UNL     1     -45.464  30.393  21.581  1.00  0.00     0.169 HD
ATOM     29  O   UNL     1     -47.999  31.798  20.276  1.00  0.00    -0.275 OA
BRANCH  27  30
ATOM     30  C   UNL     1     -45.767  31.580  19.480  1.00  0.00     0.015 C 
ATOM     31  H   UNL     1     -46.106  32.277  18.710  1.00  0.00     0.033 H 
ATOM     32  H   UNL     1     -44.875  31.977  19.973  1.00  0.00     0.033 H 
ATOM     33  H   UNL     1     -45.500  30.627  19.012  1.00  0.00     0.033 H 
ENDBRANCH  27  30
ENDBRANCH   9  26
ENDBRANCH   4   5
ENDBRANCH   1   4
BRANCH   1  34
ATOM     34  C   UNL     1     -46.571  35.704  27.626  1.00  0.00     0.010 A 
ATOM     35  C   UNL     1     -47.916  36.019  27.768  1.00  0.00     0.034 A 
ATOM     36  C   UNL     1     -45.660  36.770  27.600  1.00  0.00    -0.028 A 
ATOM     37  N   UNL     1     -48.388  37.278  27.859  1.00  0.00    -0.262 NA
ATOM     38  H   UNL     1     -48.680  35.247  27.814  1.00  0.00     0.084 H 
ATOM     39  C   UNL     1     -46.109  38.096  27.683  1.00  0.00     0.066 A 
ATOM     40  H   UNL     1     -44.604  36.527  27.530  1.00  0.00     0.065 H 
ATOM     41  C   UNL     1     -47.479  38.287  27.812  1.00  0.00     0.051 A 
ATOM     42  H   UNL     1     -47.944  39.264  27.864  1.00  0.00     0.086 H 
BRANCH  39  43
ATOM     43  N   UNL     1     -45.191  39.194  27.631  1.00  0.00    -0.299 N 
ATOM     44  C   UNL     1     -45.134  40.136  26.612  1.00  0.00     0.018 A 
ATOM     45  C   UNL     1     -44.207  39.535  28.557  1.00  0.00     0.150 A 
ATOM     46  C   UNL     1     -44.141  41.065  26.865  1.00  0.00     0.012 A 
ATOM     47  H   UNL     1     -45.829  40.096  25.786  1.00  0.00     0.083 H 
ATOM     48  C   UNL     1     -43.544  40.672  28.105  1.00  0.00     0.067 A 
ATOM     49  N   UNL     1     -43.911  38.873  29.695  1.00  0.00    -0.218 NA
ATOM     50  C   UNL     1     -42.498  41.160  28.906  1.00  0.00     0.136 A 
ATOM     51  C   UNL     1     -42.903  39.435  30.376  1.00  0.00     0.120 A 
ATOM     52  N   UNL     1     -42.188  40.522  30.048  1.00  0.00    -0.219 NA
ATOM     53  H   UNL     1     -42.626  38.948  31.306  1.00  0.00     0.106 H 
BRANCH  46  54
ATOM     54  C   UNL     1     -43.746  42.270  26.051  1.00  0.00     0.085 C 
ATOM     55  C   UNL     1     -44.010  43.628  26.690  1.00  0.00    -0.020 C 
ATOM     56  O   UNL     1     -44.481  42.286  24.804  1.00  0.00    -0.373 OA
ATOM     57  H   UNL     1     -42.680  42.178  25.810  1.00  0.00     0.066 H 
ATOM     58  C   UNL     1     -45.412  43.939  26.228  1.00  0.00    -0.027 C 
ATOM     59  H   UNL     1     -43.327  44.370  26.256  1.00  0.00     0.030 H 
ATOM     60  H   UNL     1     -43.887  43.668  27.774  1.00  0.00     0.030 H 
ATOM     61  C   UNL     1     -45.405  43.383  24.821  1.00  0.00     0.048 C 
ATOM     62  H   UNL     1     -45.658  45.004  26.262  1.00  0.00     0.029 H 
ATOM     63  H   UNL     1     -46.143  43.401  26.843  1.00  0.00     0.029 H 
ATOM     64  H   UNL     1     -45.047  44.129  24.103  1.00  0.00     0.057 H 
ATOM     65  H   UNL     1     -46.392  43.038  24.502  1.00  0.00     0.057 H 
ENDBRANCH  46  54
BRANCH  50  66
ATOM     66  N   UNL     1     -41.727  42.268  28.573  1.00  0.00    -0.383 N 
ATOM     67  H   UNL     1     -41.332  42.681  29.409  1.00  0.00     0.158 HD
ATOM     68  H   UNL     1     -41.058  42.066  27.829  1.00  0.00     0.158 HD
ENDBRANCH  50  66
ENDBRANCH  39  43
ENDBRANCH   1  34
TORSDOF 10
ENDMDL
MODEL 2
REMARK VINA RESULT:     -10.1      1.253      2.852
REMARK SMILES CCc1cc(NC(C)=O)c2ccc(OCc3cncc(-n4cc([C@@H]5CCCO5)c5c(N)ncnc54)c3)cc2n1
REMARK SMILES IDX 15 1 14 4 13 5 3 6 4 7 39 8 5 9 38 11 10 12 37 13 11 14
REMARK SMILES IDX 12 16 2 19 1 22 6 26 7 27 9 29 8 30 16 34 17 35 36 36 18 37
REMARK SMILES IDX 20 39 19 41 21 43 22 44 35 45 23 46 29 48 34 49 30 50 33 51
REMARK SMILES IDX 32 52 24 54 25 55 28 56 26 58 27 61 31 66
REMARK H PARENT 15 2 15 3 4 10 37 15 11 17 12 18 2 20 2 21 1 23 1 24 1 25 6 28
REMARK H PARENT 8 31 8 32 8 33 17 38 36 40 19 42 22 47 33 53 24 57 25 59 25 60
REMARK H PARENT 26 62 26 63 27 64 27 65 31 67 31 68
REMARK Flexibility Score: inf
ROOT
ATOM      1  C   UNL     1     -46.492  34.589  27.013  1.00  0.00     0.115 C 
ATOM      2  H   UNL     1     -45.698  34.223  27.676  1.00  0.00     0.076 H 
ATOM      3  H   UNL     1     -46.084  34.546  25.996  1.00  0.00     0.076 H 
ENDROOT
BRANCH   1   4
ATOM      4  O   UNL     1     -47.621  33.708  27.028  1.00  0.00    -0.489 OA
BRANCH   4   5
ATOM      5  C   UNL     1     -47.738  32.785  26.028  1.00  0.00     0.122 A 
ATOM      6  C   UNL     1     -46.556  30.864  21.851  1.00  0.00     0.043 A 
ATOM      7  C   UNL     1     -47.476  29.833  21.956  1.00  0.00    -0.016 A 
ATOM      8  N   UNL     1     -46.406  31.803  22.809  1.00  0.00    -0.253 NA
ATOM      9  C   UNL     1     -48.291  29.755  23.085  1.00  0.00     0.052 A 
ATOM     10  H   UNL     1     -47.532  29.113  21.149  1.00  0.00     0.066 H 
ATOM     11  C   UNL     1     -47.179  31.746  23.900  1.00  0.00     0.076 A 
ATOM     12  C   UNL     1     -48.150  30.740  24.107  1.00  0.00     0.024 A 
ATOM     13  C   UNL     1     -46.989  32.737  24.855  1.00  0.00     0.007 A 
ATOM     14  C   UNL     1     -48.899  30.793  25.311  1.00  0.00    -0.047 A 
ATOM     15  H   UNL     1     -46.214  33.469  24.649  1.00  0.00     0.069 H 
ATOM     16  C   UNL     1     -48.690  31.800  26.255  1.00  0.00    -0.019 A 
ATOM     17  H   UNL     1     -49.660  30.055  25.544  1.00  0.00     0.063 H 
ATOM     18  H   UNL     1     -49.278  31.815  27.171  1.00  0.00     0.066 H 
BRANCH   6  19
ATOM     19  C   UNL     1     -45.645  30.960  20.654  1.00  0.00    -0.013 C 
ATOM     20  H   UNL     1     -44.634  31.236  20.977  1.00  0.00     0.033 H 
ATOM     21  H   UNL     1     -45.564  29.972  20.185  1.00  0.00     0.033 H 
BRANCH  19  22
ATOM     22  C   UNL     1     -46.162  31.962  19.636  1.00  0.00    -0.060 C 
ATOM     23  H   UNL     1     -47.051  32.472  20.023  1.00  0.00     0.023 H 
ATOM     24  H   UNL     1     -45.407  32.721  19.408  1.00  0.00     0.023 H 
ATOM     25  H   UNL     1     -46.436  31.470  18.697  1.00  0.00     0.023 H 
ENDBRANCH  19  22
ENDBRANCH   6  19
BRANCH   9  26
ATOM     26  N   UNL     1     -49.254  28.719  23.235  1.00  0.00    -0.326 N 
ATOM     27  C   UNL     1     -49.135  27.542  23.954  1.00  0.00     0.221 C 
ATOM     28  H   UNL     1     -50.137  28.852  22.765  1.00  0.00     0.169 HD
ATOM     29  O   UNL     1     -48.178  27.175  24.624  1.00  0.00    -0.275 OA
BRANCH  27  30
ATOM     30  C   UNL     1     -50.382  26.696  23.865  1.00  0.00     0.015 C 
ATOM     31  H   UNL     1     -51.258  27.317  24.066  1.00  0.00     0.033 H 
ATOM     32  H   UNL     1     -50.470  26.241  22.874  1.00  0.00     0.033 H 
ATOM     33  H   UNL     1     -50.331  25.893  24.605  1.00  0.00     0.033 H 
ENDBRANCH  27  30
ENDBRANCH   9  26
ENDBRANCH   4   5
ENDBRANCH   1   4
BRANCH   1  34
ATOM     34  C   UNL     1     -46.849  36.026  27.295  1.00  0.00     0.010 A 
ATOM     35  C   UNL     1     -48.155  36.358  27.626  1.00  0.00     0.034 A 
ATOM     36  C   UNL     1     -45.901  37.058  27.300  1.00  0.00    -0.028 A 
ATOM     37  N   UNL     1     -48.559  37.608  27.928  1.00  0.00    -0.262 NA
ATOM     38  H   UNL     1     -48.943  35.610  27.661  1.00  0.00     0.084 H 
ATOM     39  C   UNL     1     -46.279  38.375  27.600  1.00  0.00     0.066 A 
ATOM     40  H   UNL     1     -44.869  36.797  27.081  1.00  0.00     0.065 H 
ATOM     41  C   UNL     1     -47.618  38.587  27.906  1.00  0.00     0.051 A 
ATOM     42  H   UNL     1     -48.032  39.563  28.132  1.00  0.00     0.086 H 
BRANCH  39  43
ATOM     43  N   UNL     1     -45.326  39.444  27.583  1.00  0.00    -0.299 N 
ATOM     44  C   UNL     1     -45.272  40.446  26.623  1.00  0.00     0.018 A 
ATOM     45  C   UNL     1     -44.298  39.691  28.490  1.00  0.00     0.150 A 
ATOM     46  C   UNL     1     -44.239  41.324  26.897  1.00  0.00     0.012 A 
ATOM     47  H   UNL     1     -45.997  40.484  25.823  1.00  0.00     0.083 H 
ATOM     48  C   UNL     1     -43.612  40.833  28.086  1.00  0.00     0.067 A 
ATOM     49  N   UNL     1     -43.985  38.948  29.572  1.00  0.00    -0.218 NA
ATOM     50  C   UNL     1     -42.521  41.234  28.876  1.00  0.00     0.136 A 
ATOM     51  C   UNL     1     -42.934  39.431  30.248  1.00  0.00     0.120 A 
ATOM     52  N   UNL     1     -42.194  40.513  29.963  1.00  0.00    -0.219 NA
ATOM     53  H   UNL     1     -42.641  38.877  31.134  1.00  0.00     0.106 H 
BRANCH  46  54
ATOM     54  C   UNL     1     -43.831  42.566  26.147  1.00  0.00     0.085 C 
ATOM     55  C   UNL     1     -44.261  43.893  26.760  1.00  0.00    -0.020 C 
ATOM     56  O   UNL     1     -44.410  42.554  24.820  1.00  0.00    -0.373 OA
ATOM     57  H   UNL     1     -42.739  42.549  26.036  1.00  0.00     0.066 H 
ATOM     58  C   UNL     1     -45.615  44.119  26.134  1.00  0.00    -0.027 C 
ATOM     59  H   UNL     1     -43.581  44.685  26.418  1.00  0.00     0.030 H 
ATOM     60  H   UNL     1     -44.271  43.923  27.852  1.00  0.00     0.030 H 
ATOM     61  C   UNL     1     -45.401  43.588  24.735  1.00  0.00     0.048 C 
ATOM     62  H   UNL     1     -45.934  45.165  26.147  1.00  0.00     0.029 H 
ATOM     63  H   UNL     1     -46.376  43.524  26.652  1.00  0.00     0.029 H 
ATOM     64  H   UNL     1     -45.010  44.366  24.071  1.00  0.00     0.057 H 
ATOM     65  H   UNL     1     -46.317  43.183  24.295  1.00  0.00     0.057 H 
ENDBRANCH  46  54
BRANCH  50  66
ATOM     66  N   UNL     1     -41.724  42.335  28.585  1.00  0.00    -0.383 N 
ATOM     67  H   UNL     1     -41.361  42.737  29.440  1.00  0.00     0.158 HD
ATOM     68  H   UNL     1     -41.026  42.130  27.869  1.00  0.00     0.158 HD
ENDBRANCH  50  66
ENDBRANCH  39  43
ENDBRANCH   1  34
TORSDOF 10
ENDMDL
MODEL 3
REMARK VINA RESULT:      -9.8      2.360     11.923
REMARK SMILES CCc1cc(NC(C)=O)c2ccc(OCc3cncc(-n4cc([C@@H]5CCCO5)c5c(N)ncnc54)c3)cc2n1
REMARK SMILES IDX 15 1 14 4 13 5 3 6 4 7 39 8 5 9 38 11 10 12 37 13 11 14
REMARK SMILES IDX 12 16 2 19 1 22 6 26 7 27 9 29 8 30 16 34 17 35 36 36 18 37
REMARK SMILES IDX 20 39 19 41 21 43 22 44 35 45 23 46 29 48 34 49 30 50 33 51
REMARK SMILES IDX 32 52 24 54 25 55 28 56 26 58 27 61 31 66
REMARK H PARENT 15 2 15 3 4 10 37 15 11 17 12 18 2 20 2 21 1 23 1 24 1 25 6 28
REMARK H PARENT 8 31 8 32 8 33 17 38 36 40 19 42 22 47 33 53 24 57 25 59 25 60
REMARK H PARENT 26 62 26 63 27 64 27 65 31 67 31 68
REMARK Flexibility Score: inf
ROOT
ATOM      1  C   UNL     1     -48.659  35.609  27.186  1.00  0.00     0.115 C 
ATOM      2  H   UNL     1     -49.662  35.302  27.509  1.00  0.00     0.076 H 
ATOM      3  H   UNL     1     -48.804  36.455  26.504  1.00  0.00     0.076 H 
ENDROOT
BRANCH   1   4
ATOM      4  O   UNL     1     -47.894  36.110  28.288  1.00  0.00    -0.489 OA
BRANCH   4   5
ATOM      5  C   UNL     1     -47.080  37.186  28.077  1.00  0.00     0.122 A 
ATOM      6  C   UNL     1     -43.394  39.999  29.099  1.00  0.00     0.043 A 
ATOM      7  C   UNL     1     -43.614  40.841  28.020  1.00  0.00    -0.016 A 
ATOM      8  N   UNL     1     -44.173  38.926  29.353  1.00  0.00    -0.253 NA
ATOM      9  C   UNL     1     -44.684  40.587  27.161  1.00  0.00     0.052 A 
ATOM     10  H   UNL     1     -42.941  41.677  27.878  1.00  0.00     0.066 H 
ATOM     11  C   UNL     1     -45.204  38.666  28.540  1.00  0.00     0.076 A 
ATOM     12  C   UNL     1     -45.521  39.460  27.415  1.00  0.00     0.024 A 
ATOM     13  C   UNL     1     -45.978  37.552  28.846  1.00  0.00     0.007 A 
ATOM     14  C   UNL     1     -46.638  39.069  26.632  1.00  0.00    -0.047 A 
ATOM     15  H   UNL     1     -45.673  36.970  29.710  1.00  0.00     0.069 H 
ATOM     16  C   UNL     1     -47.401  37.948  26.961  1.00  0.00    -0.019 A 
ATOM     17  H   UNL     1     -46.942  39.626  25.751  1.00  0.00     0.063 H 
ATOM     18  H   UNL     1     -48.252  37.670  26.343  1.00  0.00     0.066 H 
BRANCH   6  19
ATOM     19  C   UNL     1     -42.233  40.233  30.029  1.00  0.00    -0.013 C 
ATOM     20  H   UNL     1     -42.600  40.410  31.047  1.00  0.00     0.033 H 
ATOM     21  H   UNL     1     -41.619  39.326  30.073  1.00  0.00     0.033 H 
BRANCH  19  22
ATOM     22  C   UNL     1     -41.376  41.402  29.571  1.00  0.00    -0.060 C 
ATOM     23  H   UNL     1     -40.941  41.915  30.435  1.00  0.00     0.023 H 
ATOM     24  H   UNL     1     -40.556  41.064  28.928  1.00  0.00     0.023 H 
ATOM     25  H   UNL     1     -41.966  42.131  29.006  1.00  0.00     0.023 H 
ENDBRANCH  19  22
ENDBRANCH   6  19
BRANCH   9  26
ATOM     26  N   UNL     1     -44.953  41.426  26.044  1.00  0.00    -0.326 N 
ATOM     27  C   UNL     1     -44.109  42.346  25.446  1.00  0.00     0.221 C 
ATOM     28  H   UNL     1     -45.868  41.344  25.629  1.00  0.00     0.169 HD
ATOM     29  O   UNL     1     -42.950  42.600  25.752  1.00  0.00    -0.275 OA
BRANCH  27  30
ATOM     30  C   UNL     1     -44.768  43.044  24.282  1.00  0.00     0.015 C 
ATOM     31  H   UNL     1     -44.903  42.335  23.461  1.00  0.00     0.033 H 
ATOM     32  H   UNL     1     -45.737  43.458  24.577  1.00  0.00     0.033 H 
ATOM     33  H   UNL     1     -44.134  43.870  23.945  1.00  0.00     0.033 H 
ENDBRANCH  27  30
ENDBRANCH   9  26
ENDBRANCH   4   5
ENDBRANCH   1   4
BRANCH   1  34
ATOM     34  C   UNL     1     -47.955  34.523  26.412  1.00  0.00     0.010 A 
ATOM     35  C   UNL     1     -46.629  34.693  26.041  1.00  0.00     0.034 A 
ATOM     36  C   UNL     1     -48.561  33.300  26.094  1.00  0.00    -0.028 A 
ATOM     37  N   UNL     1     -45.909  33.765  25.380  1.00  0.00    -0.262 NA
ATOM     38  H   UNL     1     -46.085  35.607  26.268  1.00  0.00     0.084 H 
ATOM     39  C   UNL     1     -47.851  32.309  25.400  1.00  0.00     0.066 A 
ATOM     40  H   UNL     1     -49.586  33.146  26.419  1.00  0.00     0.065 H 
ATOM     41  C   UNL     1     -46.532  32.598  25.072  1.00  0.00     0.051 A 
ATOM     42  H   UNL     1     -45.892  31.922  24.518  1.00  0.00     0.086 H 
BRANCH  39  43
ATOM     43  N   UNL     1     -48.467  31.066  25.046  1.00  0.00    -0.299 N 
ATOM     44  C   UNL     1     -48.418  29.908  25.811  1.00  0.00     0.018 A 
ATOM     45  C   UNL     1     -49.215  30.772  23.908  1.00  0.00     0.150 A 
ATOM     46  C   UNL     1     -49.115  28.887  25.191  1.00  0.00     0.012 A 
ATOM     47  H   UNL     1     -47.912  29.899  26.765  1.00  0.00     0.083 H 
ATOM     48  C   UNL     1     -49.616  29.440  23.970  1.00  0.00     0.067 A 
ATOM     49  N   UNL     1     -49.496  31.613  22.892  1.00  0.00    -0.218 NA
ATOM     50  C   UNL     1     -50.374  28.952  22.891  1.00  0.00     0.136 A 
ATOM     51  C   UNL     1     -50.228  31.039  21.928  1.00  0.00     0.120 A 
ATOM     52  N   UNL     1     -50.672  29.774  21.870  1.00  0.00    -0.219 NA
ATOM     53  H   UNL     1     -50.492  31.672  21.087  1.00  0.00     0.106 H 
BRANCH  46  54
ATOM     54  C   UNL     1     -49.350  27.477  25.669  1.00  0.00     0.085 C 
ATOM     55  C   UNL     1     -48.773  27.126  27.034  1.00  0.00    -0.020 C 
ATOM     56  O   UNL     1     -48.748  26.538  24.747  1.00  0.00    -0.373 OA
ATOM     57  H   UNL     1     -50.433  27.299  25.670  1.00  0.00     0.066 H 
ATOM     58  C   UNL     1     -47.388  26.638  26.688  1.00  0.00    -0.027 C 
ATOM     59  H   UNL     1     -49.341  26.288  27.461  1.00  0.00     0.030 H 
ATOM     60  H   UNL     1     -48.783  27.933  27.769  1.00  0.00     0.030 H 
ATOM     61  C   UNL     1     -47.635  25.901  25.391  1.00  0.00     0.048 C 
ATOM     62  H   UNL     1     -46.942  26.002  27.458  1.00  0.00     0.029 H 
ATOM     63  H   UNL     1     -46.718  27.488  26.518  1.00  0.00     0.029 H 
ATOM     64  H   UNL     1     -47.912  24.857  25.574  1.00  0.00     0.057 H 
ATOM     65  H   UNL     1     -46.767  25.919  24.726  1.00  0.00     0.057 H 
ENDBRANCH  46  54
BRANCH  50  66
ATOM     66  N   UNL     1     -50.822  27.640  22.798  1.00  0.00    -0.383 N 
ATOM     67  H   UNL     1     -51.010  27.270  23.721  1.00  0.00     0.158 HD
ATOM     68  H   UNL     1     -51.581  27.535  22.123  1.00  0.00     0.158 HD
ENDBRANCH  50  66
ENDBRANCH  39  43
ENDBRANCH   1  34
TORSDOF 10
ENDMDL
MODEL 4
REMARK VINA RESULT:      -9.8      2.119     11.818
REMARK SMILES CCc1cc(NC(C)=O)c2ccc(OCc3cncc(-n4cc([C@@H]5CCCO5)c5c(N)ncnc54)c3)cc2n1
REMARK SMILES IDX 15 1 14 4 13 5 3 6 4 7 39 8 5 9 38 11 10 12 37 13 11 14
REMARK SMILES IDX 12 16 2 19 1 22 6 26 7 27 9 29 8 30 16 34 17 35 36 36 18 37
REMARK SMILES IDX 20 39 19 41 21 43 22 44 35 45 23 46 29 48 34 49 30 50 33 51
REMARK SMILES IDX 32 52 24 54 25 55 28 56 26 58 27 61 31 66
REMARK H PARENT 15 2 15 3 4 10 37 15 11 17 12 18 2 20 2 21 1 23 1 24 1 25 6 28
REMARK H PARENT 8 31 8 32 8 33 17 38 36 40 19 42 22 47 33 53 24 57 25 59 25 60
REMARK H PARENT 26 62 26 63 27 64 27 65 31 67 31 68
REMARK Flexibility Score: inf
ROOT
ATOM      1  C   UNL     1     -46.385  35.831  27.022  1.00  0.00     0.115 C 
ATOM      2  H   UNL     1     -45.852  36.162  26.122  1.00  0.00     0.076 H 
ATOM      3  H   UNL     1     -45.645  35.308  27.640  1.00  0.00     0.076 H 
ENDROOT
BRANCH   1   4
ATOM      4  O   UNL     1     -46.832  36.951  27.796  1.00  0.00    -0.489 OA
BRANCH   4   5
ATOM      5  C   UNL     1     -46.271  38.173  27.553  1.00  0.00     0.122 A 
ATOM      6  C   UNL     1     -42.980  41.541  28.154  1.00  0.00     0.043 A 
ATOM      7  C   UNL     1     -43.558  42.404  27.236  1.00  0.00    -0.016 A 
ATOM      8  N   UNL     1     -43.498  40.326  28.433  1.00  0.00    -0.253 NA
ATOM      9  C   UNL     1     -44.725  42.020  26.575  1.00  0.00     0.052 A 
ATOM     10  H   UNL     1     -43.079  43.359  27.061  1.00  0.00     0.066 H 
ATOM     11  C   UNL     1     -44.616  39.938  27.809  1.00  0.00     0.076 A 
ATOM     12  C   UNL     1     -45.289  40.740  26.859  1.00  0.00     0.024 A 
ATOM     13  C   UNL     1     -45.111  38.680  28.132  1.00  0.00     0.007 A 
ATOM     14  C   UNL     1     -46.463  40.207  26.267  1.00  0.00    -0.047 A 
ATOM     15  H   UNL     1     -44.540  38.103  28.853  1.00  0.00     0.069 H 
ATOM     16  C   UNL     1     -46.941  38.942  26.610  1.00  0.00    -0.019 A 
ATOM     17  H   UNL     1     -47.032  40.760  25.527  1.00  0.00     0.063 H 
ATOM     18  H   UNL     1     -47.843  38.556  26.139  1.00  0.00     0.066 H 
BRANCH   6  19
ATOM     19  C   UNL     1     -41.707  41.919  28.865  1.00  0.00    -0.013 C 
ATOM     20  H   UNL     1     -40.862  41.867  28.169  1.00  0.00     0.033 H 
ATOM     21  H   UNL     1     -41.776  42.962  29.195  1.00  0.00     0.033 H 
BRANCH  19  22
ATOM     22  C   UNL     1     -41.451  41.025  30.067  1.00  0.00    -0.060 C 
ATOM     23  H   UNL     1     -41.943  40.056  29.931  1.00  0.00     0.023 H 
ATOM     24  H   UNL     1     -40.380  40.846  30.207  1.00  0.00     0.023 H 
ATOM     25  H   UNL     1     -41.838  41.475  30.988  1.00  0.00     0.023 H 
ENDBRANCH  19  22
ENDBRANCH   6  19
BRANCH   9  26
ATOM     26  N   UNL     1     -45.357  42.874  25.630  1.00  0.00    -0.326 N 
ATOM     27  C   UNL     1     -46.286  43.872  25.871  1.00  0.00     0.221 C 
ATOM     28  H   UNL     1     -45.100  42.746  24.664  1.00  0.00     0.169 HD
ATOM     29  O   UNL     1     -46.728  44.229  26.957  1.00  0.00    -0.275 OA
BRANCH  27  30
ATOM     30  C   UNL     1     -46.723  44.556  24.599  1.00  0.00     0.015 C 
ATOM     31  H   UNL     1     -47.740  44.244  24.348  1.00  0.00     0.033 H 
ATOM     32  H   UNL     1     -46.686  45.644  24.712  1.00  0.00     0.033 H 
ATOM     33  H   UNL     1     -46.048  44.277  23.785  1.00  0.00     0.033 H 
ENDBRANCH  27  30
ENDBRANCH   9  26
ENDBRANCH   4   5
ENDBRANCH   1   4
BRANCH   1  34
ATOM     34  C   UNL     1     -47.482  34.848  26.703  1.00  0.00     0.010 A 
ATOM     35  C   UNL     1     -48.801  35.174  26.982  1.00  0.00     0.034 A 
ATOM     36  C   UNL     1     -47.242  33.620  26.070  1.00  0.00    -0.028 A 
ATOM     37  N   UNL     1     -49.849  34.375  26.700  1.00  0.00    -0.262 NA
ATOM     38  H   UNL     1     -49.068  36.116  27.455  1.00  0.00     0.084 H 
ATOM     39  C   UNL     1     -48.303  32.754  25.766  1.00  0.00     0.066 A 
ATOM     40  H   UNL     1     -46.215  33.378  25.812  1.00  0.00     0.065 H 
ATOM     41  C   UNL     1     -49.580  33.185  26.103  1.00  0.00     0.051 A 
ATOM     42  H   UNL     1     -50.473  32.595  25.938  1.00  0.00     0.086 H 
BRANCH  39  43
ATOM     43  N   UNL     1     -48.070  31.485  25.143  1.00  0.00    -0.299 N 
ATOM     44  C   UNL     1     -48.620  30.281  25.561  1.00  0.00     0.018 A 
ATOM     45  C   UNL     1     -47.277  31.208  24.031  1.00  0.00     0.150 A 
ATOM     46  C   UNL     1     -48.200  29.246  24.746  1.00  0.00     0.012 A 
ATOM     47  H   UNL     1     -49.301  30.247  26.399  1.00  0.00     0.083 H 
ATOM     48  C   UNL     1     -47.334  29.841  23.773  1.00  0.00     0.067 A 
ATOM     49  N   UNL     1     -46.549  32.095  23.322  1.00  0.00    -0.218 NA
ATOM     50  C   UNL     1     -46.577  29.366  22.688  1.00  0.00     0.136 A 
ATOM     51  C   UNL     1     -45.878  31.527  22.312  1.00  0.00     0.120 A 
ATOM     52  N   UNL     1     -45.848  30.231  21.963  1.00  0.00    -0.219 NA
ATOM     53  H   UNL     1     -45.279  32.196  21.701  1.00  0.00     0.106 H 
BRANCH  46  54
ATOM     54  C   UNL     1     -48.565  27.785  24.808  1.00  0.00     0.085 C 
ATOM     55  C   UNL     1     -49.325  27.335  26.049  1.00  0.00    -0.020 C 
ATOM     56  O   UNL     1     -47.366  26.976  24.780  1.00  0.00    -0.373 OA
ATOM     57  H   UNL     1     -49.151  27.547  23.911  1.00  0.00     0.066 H 
ATOM     58  C   UNL     1     -48.212  26.962  26.996  1.00  0.00    -0.027 C 
ATOM     59  H   UNL     1     -49.900  26.430  25.811  1.00  0.00     0.030 H 
ATOM     60  H   UNL     1     -50.025  28.066  26.460  1.00  0.00     0.030 H 
ATOM     61  C   UNL     1     -47.201  26.342  26.056  1.00  0.00     0.048 C 
ATOM     62  H   UNL     1     -48.524  26.280  27.792  1.00  0.00     0.029 H 
ATOM     63  H   UNL     1     -47.793  27.860  27.462  1.00  0.00     0.029 H 
ATOM     64  H   UNL     1     -47.390  25.272  25.922  1.00  0.00     0.057 H 
ATOM     65  H   UNL     1     -46.172  26.473  26.402  1.00  0.00     0.057 H 
ENDBRANCH  46  54
BRANCH  50  66
ATOM     66  N   UNL     1     -46.511  28.026  22.326  1.00  0.00    -0.383 N 
ATOM     67  H   UNL     1     -47.067  27.466  22.960  1.00  0.00     0.158 HD
ATOM     68  H   UNL     1     -46.703  27.881  21.334  1.00  0.00     0.158 HD
ENDBRANCH  50  66
ENDBRANCH  39  43
ENDBRANCH   1  34
TORSDOF 10
ENDMDL
MODEL 5
REMARK VINA RESULT:      -9.3      1.912      2.889
REMARK SMILES CCc1cc(NC(C)=O)c2ccc(OCc3cncc(-n4cc([C@@H]5CCCO5)c5c(N)ncnc54)c3)cc2n1
REMARK SMILES IDX 15 1 14 4 13 5 3 6 4 7 39 8 5 9 38 11 10 12 37 13 11 14
REMARK SMILES IDX 12 16 2 19 1 22 6 26 7 27 9 29 8 30 16 34 17 35 36 36 18 37
REMARK SMILES IDX 20 39 19 41 21 43 22 44 35 45 23 46 29 48 34 49 30 50 33 51
REMARK SMILES IDX 32 52 24 54 25 55 28 56 26 58 27 61 31 66
REMARK H PARENT 15 2 15 3 4 10 37 15 11 17 12 18 2 20 2 21 1 23 1 24 1 25 6 28
REMARK H PARENT 8 31 8 32 8 33 17 38 36 40 19 42 22 47 33 53 24 57 25 59 25 60
REMARK H PARENT 26 62 26 63 27 64 27 65 31 67 31 68
REMARK Flexibility Score: inf
ROOT
ATOM      1  C   UNL     1     -45.701  34.685  27.648  1.00  0.00     0.115 C 
ATOM      2  H   UNL     1     -44.874  34.741  28.367  1.00  0.00     0.076 H 
ATOM      3  H   UNL     1     -45.240  34.641  26.655  1.00  0.00     0.076 H 
ENDROOT
BRANCH   1   4
ATOM      4  O   UNL     1     -46.435  33.465  27.803  1.00  0.00    -0.489 OA
BRANCH   4   5
ATOM      5  C   UNL     1     -46.809  32.785  26.678  1.00  0.00     0.122 A 
ATOM      6  C   UNL     1     -49.152  29.378  24.347  1.00  0.00     0.043 A 
ATOM      7  C   UNL     1     -48.695  29.782  23.102  1.00  0.00    -0.016 A 
ATOM      8  N   UNL     1     -48.808  30.013  25.487  1.00  0.00    -0.253 NA
ATOM      9  C   UNL     1     -47.837  30.878  23.011  1.00  0.00     0.052 A 
ATOM     10  H   UNL     1     -49.022  29.226  22.232  1.00  0.00     0.066 H 
ATOM     11  C   UNL     1     -47.987  31.067  25.421  1.00  0.00     0.076 A 
ATOM     12  C   UNL     1     -47.459  31.560  24.205  1.00  0.00     0.024 A 
ATOM     13  C   UNL     1     -47.660  31.684  26.622  1.00  0.00     0.007 A 
ATOM     14  C   UNL     1     -46.603  32.690  24.275  1.00  0.00    -0.047 A 
ATOM     15  H   UNL     1     -48.112  31.273  27.519  1.00  0.00     0.069 H 
ATOM     16  C   UNL     1     -46.288  33.290  25.494  1.00  0.00    -0.019 A 
ATOM     17  H   UNL     1     -46.162  33.128  23.385  1.00  0.00     0.063 H 
ATOM     18  H   UNL     1     -45.630  34.157  25.518  1.00  0.00     0.066 H 
BRANCH   6  19
ATOM     19  C   UNL     1     -50.099  28.212  24.475  1.00  0.00    -0.013 C 
ATOM     20  H   UNL     1     -50.795  28.387  25.303  1.00  0.00     0.033 H 
ATOM     21  H   UNL     1     -50.708  28.143  23.565  1.00  0.00     0.033 H 
BRANCH  19  22
ATOM     22  C   UNL     1     -49.352  26.906  24.684  1.00  0.00    -0.060 C 
ATOM     23  H   UNL     1     -50.043  26.059  24.617  1.00  0.00     0.023 H 
ATOM     24  H   UNL     1     -48.572  26.769  23.927  1.00  0.00     0.023 H 
ATOM     25  H   UNL     1     -48.872  26.875  25.668  1.00  0.00     0.023 H 
ENDBRANCH  19  22
ENDBRANCH   6  19
BRANCH   9  26
ATOM     26  N   UNL     1     -47.337  31.325  21.757  1.00  0.00    -0.326 N 
ATOM     27  C   UNL     1     -46.194  30.905  21.096  1.00  0.00     0.221 C 
ATOM     28  H   UNL     1     -47.877  32.032  21.281  1.00  0.00     0.169 HD
ATOM     29  O   UNL     1     -45.401  30.045  21.457  1.00  0.00    -0.275 OA
BRANCH  27  30
ATOM     30  C   UNL     1     -46.005  31.625  19.783  1.00  0.00     0.015 C 
ATOM     31  H   UNL     1     -46.097  30.912  18.960  1.00  0.00     0.033 H 
ATOM     32  H   UNL     1     -46.745  32.422  19.668  1.00  0.00     0.033 H 
ATOM     33  H   UNL     1     -45.010  32.080  19.757  1.00  0.00     0.033 H 
ENDBRANCH  27  30
ENDBRANCH   9  26
ENDBRANCH   4   5
ENDBRANCH   1   4
BRANCH   1  34
ATOM     34  C   UNL     1     -46.570  35.916  27.687  1.00  0.00     0.010 A 
ATOM     35  C   UNL     1     -47.891  35.813  28.102  1.00  0.00     0.034 A 
ATOM     36  C   UNL     1     -46.091  37.196  27.377  1.00  0.00    -0.028 A 
ATOM     37  N   UNL     1     -48.731  36.862  28.202  1.00  0.00    -0.262 NA
ATOM     38  H   UNL     1     -48.330  34.857  28.376  1.00  0.00     0.084 H 
ATOM     39  C   UNL     1     -46.934  38.314  27.459  1.00  0.00     0.066 A 
ATOM     40  H   UNL     1     -45.047  37.288  27.090  1.00  0.00     0.065 H 
ATOM     41  C   UNL     1     -48.239  38.085  27.877  1.00  0.00     0.051 A 
ATOM     42  H   UNL     1     -48.986  38.866  27.958  1.00  0.00     0.086 H 
BRANCH  39  43
ATOM     43  N   UNL     1     -46.464  39.624  27.120  1.00  0.00    -0.299 N 
ATOM     44  C   UNL     1     -45.129  40.009  27.100  1.00  0.00     0.018 A 
ATOM     45  C   UNL     1     -47.216  40.737  26.752  1.00  0.00     0.150 A 
ATOM     46  C   UNL     1     -45.013  41.337  26.729  1.00  0.00     0.012 A 
ATOM     47  H   UNL     1     -44.347  39.299  27.324  1.00  0.00     0.083 H 
ATOM     48  C   UNL     1     -46.350  41.802  26.516  1.00  0.00     0.067 A 
ATOM     49  N   UNL     1     -48.560  40.804  26.658  1.00  0.00    -0.218 NA
ATOM     50  C   UNL     1     -46.933  43.027  26.146  1.00  0.00     0.136 A 
ATOM     51  C   UNL     1     -48.997  42.016  26.293  1.00  0.00     0.120 A 
ATOM     52  N   UNL     1     -48.270  43.115  26.040  1.00  0.00    -0.219 NA
ATOM     53  H   UNL     1     -50.072  42.126  26.194  1.00  0.00     0.106 H 
BRANCH  46  54
ATOM     54  C   UNL     1     -43.765  42.161  26.547  1.00  0.00     0.085 C 
ATOM     55  C   UNL     1     -42.444  41.440  26.778  1.00  0.00    -0.020 C 
ATOM     56  O   UNL     1     -43.765  43.267  27.481  1.00  0.00    -0.373 OA
ATOM     57  H   UNL     1     -43.784  42.580  25.532  1.00  0.00     0.066 H 
ATOM     58  C   UNL     1     -42.210  41.652  28.254  1.00  0.00    -0.027 C 
ATOM     59  H   UNL     1     -41.650  41.956  26.222  1.00  0.00     0.030 H 
ATOM     60  H   UNL     1     -42.423  40.391  26.476  1.00  0.00     0.030 H 
ATOM     61  C   UNL     1     -42.729  43.058  28.451  1.00  0.00     0.048 C 
ATOM     62  H   UNL     1     -41.164  41.540  28.552  1.00  0.00     0.029 H 
ATOM     63  H   UNL     1     -42.808  40.943  28.838  1.00  0.00     0.029 H 
ATOM     64  H   UNL     1     -41.945  43.800  28.263  1.00  0.00     0.057 H 
ATOM     65  H   UNL     1     -43.128  43.221  29.456  1.00  0.00     0.057 H 
ENDBRANCH  46  54
BRANCH  50  66
ATOM     66  N   UNL     1     -46.202  44.184  25.906  1.00  0.00    -0.383 N 
ATOM     67  H   UNL     1     -46.433  44.890  26.593  1.00  0.00     0.158 HD
ATOM     68  H   UNL     1     -45.204  43.997  25.792  1.00  0.00     0.158 HD
ENDBRANCH  50  66
ENDBRANCH  39  43
ENDBRANCH   1  34
TORSDOF 10
ENDMDL
MODEL 6
REMARK VINA RESULT:      -9.3      2.705      4.167
REMARK SMILES CCc1cc(NC(C)=O)c2ccc(OCc3cncc(-n4cc([C@@H]5CCCO5)c5c(N)ncnc54)c3)cc2n1
REMARK SMILES IDX 15 1 14 4 13 5 3 6 4 7 39 8 5 9 38 11 10 12 37 13 11 14
REMARK SMILES IDX 12 16 2 19 1 22 6 26 7 27 9 29 8 30 16 34 17 35 36 36 18 37
REMARK SMILES IDX 20 39 19 41 21 43 22 44 35 45 23 46 29 48 34 49 30 50 33 51
REMARK SMILES IDX 32 52 24 54 25 55 28 56 26 58 27 61 31 66
REMARK H PARENT 15 2 15 3 4 10 37 15 11 17 12 18 2 20 2 21 1 23 1 24 1 25 6 28
REMARK H PARENT 8 31 8 32 8 33 17 38 36 40 19 42 22 47 33 53 24 57 25 59 25 60
REMARK H PARENT 26 62 26 63 27 64 27 65 31 67 31 68
REMARK Flexibility Score: inf
ROOT
ATOM      1  C   UNL     1     -47.083  33.871  25.780  1.00  0.00     0.115 C 
ATOM      2  H   UNL     1     -46.350  33.068  25.925  1.00  0.00     0.076 H 
ATOM      3  H   UNL     1     -46.845  34.331  24.814  1.00  0.00     0.076 H 
ENDROOT
BRANCH   1   4
ATOM      4  O   UNL     1     -48.408  33.340  25.654  1.00  0.00    -0.489 OA
BRANCH   4   5
ATOM      5  C   UNL     1     -48.554  32.053  25.218  1.00  0.00     0.122 A 
ATOM      6  C   UNL     1     -49.488  28.752  21.937  1.00  0.00     0.043 A 
ATOM      7  C   UNL     1     -49.261  27.692  22.801  1.00  0.00    -0.016 A 
ATOM      8  N   UNL     1     -49.362  30.041  22.321  1.00  0.00    -0.253 NA
ATOM      9  C   UNL     1     -48.898  27.952  24.122  1.00  0.00     0.052 A 
ATOM     10  H   UNL     1     -49.375  26.686  22.416  1.00  0.00     0.066 H 
ATOM     11  C   UNL     1     -49.015  30.310  23.584  1.00  0.00     0.076 A 
ATOM     12  C   UNL     1     -48.764  29.307  24.548  1.00  0.00     0.024 A 
ATOM     13  C   UNL     1     -48.902  31.651  23.931  1.00  0.00     0.007 A 
ATOM     14  C   UNL     1     -48.398  29.729  25.852  1.00  0.00    -0.047 A 
ATOM     15  H   UNL     1     -49.087  32.375  23.143  1.00  0.00     0.069 H 
ATOM     16  C   UNL     1     -48.293  31.083  26.176  1.00  0.00    -0.019 A 
ATOM     17  H   UNL     1     -48.186  29.019  26.645  1.00  0.00     0.063 H 
ATOM     18  H   UNL     1     -48.009  31.379  27.184  1.00  0.00     0.066 H 
BRANCH   6  19
ATOM     19  C   UNL     1     -49.857  28.503  20.498  1.00  0.00    -0.013 C 
ATOM     20  H   UNL     1     -50.830  28.959  20.278  1.00  0.00     0.033 H 
ATOM     21  H   UNL     1     -49.127  29.000  19.848  1.00  0.00     0.033 H 
BRANCH  19  22
ATOM     22  C   UNL     1     -49.890  27.018  20.178  1.00  0.00    -0.060 C 
ATOM     23  H   UNL     1     -48.927  26.556  20.418  1.00  0.00     0.023 H 
ATOM     24  H   UNL     1     -50.666  26.505  20.755  1.00  0.00     0.023 H 
ATOM     25  H   UNL     1     -50.093  26.844  19.115  1.00  0.00     0.023 H 
ENDBRANCH  19  22
ENDBRANCH   6  19
BRANCH   9  26
ATOM     26  N   UNL     1     -48.662  26.897  25.047  1.00  0.00    -0.326 N 
ATOM     27  C   UNL     1     -47.453  26.304  25.372  1.00  0.00     0.221 C 
ATOM     28  H   UNL     1     -49.467  26.534  25.532  1.00  0.00     0.169 HD
ATOM     29  O   UNL     1     -46.344  26.591  24.939  1.00  0.00    -0.275 OA
BRANCH  27  30
ATOM     30  C   UNL     1     -47.619  25.212  26.400  1.00  0.00     0.015 C 
ATOM     31  H   UNL     1     -47.870  24.274  25.899  1.00  0.00     0.033 H 
ATOM     32  H   UNL     1     -46.703  25.087  26.984  1.00  0.00     0.033 H 
ATOM     33  H   UNL     1     -48.426  25.480  27.089  1.00  0.00     0.033 H 
ENDBRANCH  27  30
ENDBRANCH   9  26
ENDBRANCH   4   5
ENDBRANCH   1   4
BRANCH   1  34
ATOM     34  C   UNL     1     -46.965  34.944  26.831  1.00  0.00     0.010 A 
ATOM     35  C   UNL     1     -46.715  34.592  28.150  1.00  0.00     0.034 A 
ATOM     36  C   UNL     1     -47.036  36.312  26.533  1.00  0.00    -0.028 A 
ATOM     37  N   UNL     1     -46.559  35.482  29.149  1.00  0.00    -0.262 NA
ATOM     38  H   UNL     1     -46.628  33.552  28.456  1.00  0.00     0.084 H 
ATOM     39  C   UNL     1     -46.888  37.273  27.544  1.00  0.00     0.066 A 
ATOM     40  H   UNL     1     -47.191  36.594  25.495  1.00  0.00     0.065 H 
ATOM     41  C   UNL     1     -46.652  36.799  28.828  1.00  0.00     0.051 A 
ATOM     42  H   UNL     1     -46.542  37.443  29.692  1.00  0.00     0.086 H 
BRANCH  39  43
ATOM     43  N   UNL     1     -46.984  38.673  27.257  1.00  0.00    -0.299 N 
ATOM     44  C   UNL     1     -45.990  39.430  26.651  1.00  0.00     0.018 A 
ATOM     45  C   UNL     1     -48.053  39.530  27.512  1.00  0.00     0.150 A 
ATOM     46  C   UNL     1     -46.398  40.745  26.514  1.00  0.00     0.012 A 
ATOM     47  H   UNL     1     -45.066  38.972  26.330  1.00  0.00     0.083 H 
ATOM     48  C   UNL     1     -47.714  40.807  27.074  1.00  0.00     0.067 A 
ATOM     49  N   UNL     1     -49.220  39.205  28.105  1.00  0.00    -0.218 NA
ATOM     50  C   UNL     1     -48.670  41.820  27.263  1.00  0.00     0.136 A 
ATOM     51  C   UNL     1     -50.051  40.248  28.225  1.00  0.00     0.120 A 
ATOM     52  N   UNL     1     -49.843  41.519  27.847  1.00  0.00    -0.219 NA
ATOM     53  H   UNL     1     -51.011  40.043  28.689  1.00  0.00     0.106 H 
BRANCH  46  54
ATOM     54  C   UNL     1     -45.661  41.903  25.891  1.00  0.00     0.085 C 
ATOM     55  C   UNL     1     -44.308  41.582  25.270  1.00  0.00    -0.020 C 
ATOM     56  O   UNL     1     -45.391  42.911  26.894  1.00  0.00    -0.373 OA
ATOM     57  H   UNL     1     -46.317  42.350  25.134  1.00  0.00     0.066 H 
ATOM     58  C   UNL     1     -43.362  41.774  26.429  1.00  0.00    -0.027 C 
ATOM     59  H   UNL     1     -44.077  42.333  24.502  1.00  0.00     0.030 H 
ATOM     60  H   UNL     1     -44.230  40.600  24.797  1.00  0.00     0.030 H 
ATOM     61  C   UNL     1     -43.978  42.959  27.138  1.00  0.00     0.048 C 
ATOM     62  H   UNL     1     -42.327  41.953  26.125  1.00  0.00     0.029 H 
ATOM     63  H   UNL     1     -43.378  40.893  27.081  1.00  0.00     0.029 H 
ATOM     64  H   UNL     1     -43.603  43.903  26.730  1.00  0.00     0.057 H 
ATOM     65  H   UNL     1     -43.791  42.947  28.216  1.00  0.00     0.057 H 
ENDBRANCH  46  54
BRANCH  50  66
ATOM     66  N   UNL     1     -48.465  43.147  26.904  1.00  0.00    -0.383 N 
ATOM     67  H   UNL     1     -48.253  43.700  27.725  1.00  0.00     0.158 HD
ATOM     68  H   UNL     1     -47.806  43.243  26.131  1.00  0.00     0.158 HD
ENDBRANCH  50  66
ENDBRANCH  39  43
ENDBRANCH   1  34
TORSDOF 10
ENDMDL
MODEL 7
REMARK VINA RESULT:      -9.2      2.163      4.024
REMARK SMILES CCc1cc(NC(C)=O)c2ccc(OCc3cncc(-n4cc([C@@H]5CCCO5)c5c(N)ncnc54)c3)cc2n1
REMARK SMILES IDX 15 1 14 4 13 5 3 6 4 7 39 8 5 9 38 11 10 12 37 13 11 14
REMARK SMILES IDX 12 16 2 19 1 22 6 26 7 27 9 29 8 30 16 34 17 35 36 36 18 37
REMARK SMILES IDX 20 39 19 41 21 43 22 44 35 45 23 46 29 48 34 49 30 50 33 51
REMARK SMILES IDX 32 52 24 54 25 55 28 56 26 58 27 61 31 66
REMARK H PARENT 15 2 15 3 4 10 37 15 11 17 12 18 2 20 2 21 1 23 1 24 1 25 6 28
REMARK H PARENT 8 31 8 32 8 33 17 38 36 40 19 42 22 47 33 53 24 57 25 59 25 60
REMARK H PARENT 26 62 26 63 27 64 27 65 31 67 31 68
REMARK Flexibility Score: inf
ROOT
ATOM      1  C   UNL     1     -46.287  34.471  27.549  1.00  0.00     0.115 C 
ATOM      2  H   UNL     1     -46.011  33.635  28.204  1.00  0.00     0.076 H 
ATOM      3  H   UNL     1     -45.525  34.506  26.761  1.00  0.00     0.076 H 
ENDROOT
BRANCH   1   4
ATOM      4  O   UNL     1     -47.532  34.217  26.888  1.00  0.00    -0.489 OA
BRANCH   4   5
ATOM      5  C   UNL     1     -47.611  33.149  26.039  1.00  0.00     0.122 A 
ATOM      6  C   UNL     1     -46.476  30.748  22.104  1.00  0.00     0.043 A 
ATOM      7  C   UNL     1     -47.279  29.663  22.419  1.00  0.00    -0.016 A 
ATOM      8  N   UNL     1     -46.368  31.828  22.907  1.00  0.00    -0.253 NA
ATOM      9  C   UNL     1     -48.018  29.679  23.602  1.00  0.00     0.052 A 
ATOM     10  H   UNL     1     -47.307  28.830  21.728  1.00  0.00     0.066 H 
ATOM     11  C   UNL     1     -47.069  31.862  24.046  1.00  0.00     0.076 A 
ATOM     12  C   UNL     1     -47.920  30.813  24.462  1.00  0.00     0.024 A 
ATOM     13  C   UNL     1     -46.927  32.997  24.836  1.00  0.00     0.007 A 
ATOM     14  C   UNL     1     -48.602  30.974  25.696  1.00  0.00    -0.047 A 
ATOM     15  H   UNL     1     -46.243  33.759  24.474  1.00  0.00     0.069 H 
ATOM     16  C   UNL     1     -48.444  32.125  26.470  1.00  0.00    -0.019 A 
ATOM     17  H   UNL     1     -49.270  30.212  26.084  1.00  0.00     0.063 H 
ATOM     18  H   UNL     1     -48.978  32.221  27.413  1.00  0.00     0.066 H 
BRANCH   6  19
ATOM     19  C   UNL     1     -45.647  30.749  20.846  1.00  0.00    -0.013 C 
ATOM     20  H   UNL     1     -44.581  30.782  21.101  1.00  0.00     0.033 H 
ATOM     21  H   UNL     1     -45.809  29.807  20.309  1.00  0.00     0.033 H 
BRANCH  19  22
ATOM     22  C   UNL     1     -46.006  31.915  19.941  1.00  0.00    -0.060 C 
ATOM     23  H   UNL     1     -47.058  32.190  20.074  1.00  0.00     0.023 H 
ATOM     24  H   UNL     1     -45.394  32.795  20.166  1.00  0.00     0.023 H 
ATOM     25  H   UNL     1     -45.853  31.662  18.886  1.00  0.00     0.023 H 
ENDBRANCH  19  22
ENDBRANCH   6  19
BRANCH   9  26
ATOM     26  N   UNL     1     -48.861  28.592  23.964  1.00  0.00    -0.326 N 
ATOM     27  C   UNL     1     -48.501  27.397  24.564  1.00  0.00     0.221 C 
ATOM     28  H   UNL     1     -49.844  28.699  23.767  1.00  0.00     0.169 HD
ATOM     29  O   UNL     1     -47.381  27.053  24.922  1.00  0.00    -0.275 OA
BRANCH  27  30
ATOM     30  C   UNL     1     -49.690  26.495  24.785  1.00  0.00     0.015 C 
ATOM     31  H   UNL     1     -50.352  26.546  23.917  1.00  0.00     0.033 H 
ATOM     32  H   UNL     1     -49.369  25.462  24.947  1.00  0.00     0.033 H 
ATOM     33  H   UNL     1     -50.236  26.824  25.675  1.00  0.00     0.033 H 
ENDBRANCH  27  30
ENDBRANCH   9  26
ENDBRANCH   4   5
ENDBRANCH   1   4
BRANCH   1  34
ATOM     34  C   UNL     1     -46.251  35.793  28.271  1.00  0.00     0.010 A 
ATOM     35  C   UNL     1     -46.142  35.820  29.654  1.00  0.00     0.034 A 
ATOM     36  C   UNL     1     -46.261  37.026  27.602  1.00  0.00    -0.028 A 
ATOM     37  N   UNL     1     -46.068  36.952  30.381  1.00  0.00    -0.262 NA
ATOM     38  H   UNL     1     -46.110  34.905  30.241  1.00  0.00     0.084 H 
ATOM     39  C   UNL     1     -46.194  38.229  28.320  1.00  0.00     0.066 A 
ATOM     40  H   UNL     1     -46.305  37.010  26.517  1.00  0.00     0.065 H 
ATOM     41  C   UNL     1     -46.098  38.129  29.702  1.00  0.00     0.051 A 
ATOM     42  H   UNL     1     -46.061  38.987  30.362  1.00  0.00     0.086 H 
BRANCH  39  43
ATOM     43  N   UNL     1     -46.229  39.495  27.651  1.00  0.00    -0.299 N 
ATOM     44  C   UNL     1     -45.115  40.171  27.170  1.00  0.00     0.018 A 
ATOM     45  C   UNL     1     -47.342  40.277  27.352  1.00  0.00     0.150 A 
ATOM     46  C   UNL     1     -45.491  41.361  26.573  1.00  0.00     0.012 A 
ATOM     47  H   UNL     1     -44.128  39.741  27.259  1.00  0.00     0.083 H 
ATOM     48  C   UNL     1     -46.915  41.430  26.700  1.00  0.00     0.067 A 
ATOM     49  N   UNL     1     -48.626  39.996  27.656  1.00  0.00    -0.218 NA
ATOM     50  C   UNL     1     -47.904  42.357  26.331  1.00  0.00     0.136 A 
ATOM     51  C   UNL     1     -49.477  40.948  27.250  1.00  0.00     0.120 A 
ATOM     52  N   UNL     1     -49.192  42.097  26.618  1.00  0.00    -0.219 NA
ATOM     53  H   UNL     1     -50.527  40.772  27.462  1.00  0.00     0.106 H 
BRANCH  46  54
ATOM     54  C   UNL     1     -44.626  42.393  25.896  1.00  0.00     0.085 C 
ATOM     55  C   UNL     1     -43.121  42.204  26.035  1.00  0.00    -0.020 C 
ATOM     56  O   UNL     1     -44.899  43.703  26.447  1.00  0.00    -0.373 OA
ATOM     57  H   UNL     1     -44.897  42.413  24.833  1.00  0.00     0.066 H 
ATOM     58  C   UNL     1     -42.812  42.967  27.300  1.00  0.00    -0.027 C 
ATOM     59  H   UNL     1     -42.616  42.701  25.196  1.00  0.00     0.030 H 
ATOM     60  H   UNL     1     -42.778  41.167  26.053  1.00  0.00     0.030 H 
ATOM     61  C   UNL     1     -43.753  44.145  27.188  1.00  0.00     0.048 C 
ATOM     62  H   UNL     1     -41.764  43.268  27.385  1.00  0.00     0.029 H 
ATOM     63  H   UNL     1     -43.064  42.363  28.179  1.00  0.00     0.029 H 
ATOM     64  H   UNL     1     -43.294  44.967  26.629  1.00  0.00     0.057 H 
ATOM     65  H   UNL     1     -44.070  44.522  28.165  1.00  0.00     0.057 H 
ENDBRANCH  46  54
BRANCH  50  66
ATOM     66  N   UNL     1     -47.630  43.565  25.700  1.00  0.00    -0.383 N 
ATOM     67  H   UNL     1     -46.816  43.999  26.119  1.00  0.00     0.158 HD
ATOM     68  H   UNL     1     -47.601  43.475  24.684  1.00  0.00     0.158 HD
ENDBRANCH  50  66
ENDBRANCH  39  43
ENDBRANCH   1  34
TORSDOF 10
ENDMDL
