MODEL 1
REMARK VINA RESULT:     -10.2      0.000      0.000
REMARK SMILES CNc1ccc2ccc(OC[C@H]3O[C@@H](n4cc(-c5ccn(C(C)C)n5)c5c(N)ncnc54)[C@@H](F)[C@@H]3O)cc2n1
REMARK SMILES IDX 12 1 13 2 14 3 33 4 34 5 35 6 11 11 10 14 9 15 3 16 4 17
REMARK SMILES IDX 39 18 5 19 38 21 6 22 37 24 7 25 8 27 2 30 1 32 36 36 15 38
REMARK SMILES IDX 16 39 32 40 17 41 26 43 31 44 27 45 30 46 29 47 18 49 19 50
REMARK SMILES IDX 25 51 20 52 21 54 22 56 23 58 24 62 28 66
REMARK H PARENT 12 7 14 8 33 9 35 10 11 12 11 13 4 20 5 23 37 26 7 28 8 29
REMARK H PARENT 2 31 1 33 1 34 1 35 36 37 16 42 30 48 19 53 20 55 22 57 23 59
REMARK H PARENT 23 60 23 61 24 63 24 64 24 65 28 67 28 68
REMARK Flexibility Score: inf
ROOT
ATOM      1  C   UNL     1     -46.339  36.161  28.177  1.00  0.00     0.123 C 
ATOM      2  O   UNL     1     -45.250  37.042  27.811  1.00  0.00    -0.345 OA
ATOM      3  C   UNL     1     -45.050  37.983  28.891  1.00  0.00     0.169 C 
ATOM      4  C   UNL     1     -46.353  37.997  29.679  1.00  0.00     0.173 C 
ATOM      5  F   UNL     1     -47.303  38.746  29.053  1.00  0.00    -0.239 F 
ATOM      6  C   UNL     1     -46.770  36.548  29.596  1.00  0.00     0.119 C 
ATOM      7  H   UNL     1     -45.946  35.139  28.138  1.00  0.00     0.067 H 
ATOM      8  H   UNL     1     -44.220  37.600  29.499  1.00  0.00     0.088 H 
ATOM      9  H   UNL     1     -46.238  38.363  30.703  1.00  0.00     0.074 H 
ATOM     10  H   UNL     1     -47.840  36.392  29.765  1.00  0.00     0.066 H 
ENDROOT
BRANCH   1  11
ATOM     11  C   UNL     1     -47.496  36.310  27.174  1.00  0.00     0.117 C 
ATOM     12  H   UNL     1     -48.216  37.030  27.579  1.00  0.00     0.073 H 
ATOM     13  H   UNL     1     -47.176  36.718  26.211  1.00  0.00     0.073 H 
BRANCH  11  14
ATOM     14  O   UNL     1     -48.225  35.085  27.050  1.00  0.00    -0.491 OA
BRANCH  14  15
ATOM     15  C   UNL     1     -47.770  34.103  26.218  1.00  0.00     0.121 A 
ATOM     16  C   UNL     1     -48.808  29.754  24.574  1.00  0.00     0.126 A 
ATOM     17  C   UNL     1     -47.649  29.703  23.813  1.00  0.00    -0.019 A 
ATOM     18  N   UNL     1     -49.122  30.812  25.344  1.00  0.00    -0.231 NA
ATOM     19  C   UNL     1     -46.787  30.792  23.831  1.00  0.00    -0.049 A 
ATOM     20  H   UNL     1     -47.407  28.822  23.229  1.00  0.00     0.066 H 
ATOM     21  C   UNL     1     -48.288  31.869  25.367  1.00  0.00     0.076 A 
ATOM     22  C   UNL     1     -47.098  31.905  24.616  1.00  0.00     0.001 A 
ATOM     23  H   UNL     1     -45.874  30.765  23.243  1.00  0.00     0.063 H 
ATOM     24  C   UNL     1     -48.593  32.972  26.155  1.00  0.00     0.007 A 
ATOM     25  C   UNL     1     -46.263  33.030  24.669  1.00  0.00    -0.049 A 
ATOM     26  H   UNL     1     -49.507  32.948  26.745  1.00  0.00     0.069 H 
ATOM     27  C   UNL     1     -46.603  34.126  25.464  1.00  0.00    -0.019 A 
ATOM     28  H   UNL     1     -45.333  33.060  24.105  1.00  0.00     0.063 H 
ATOM     29  H   UNL     1     -45.913  34.962  25.482  1.00  0.00     0.066 H 
BRANCH  16  30
ATOM     30  N   UNL     1     -49.717  28.692  24.613  1.00  0.00    -0.373 N 
ATOM     31  H   UNL     1     -49.830  28.446  23.629  1.00  0.00     0.161 HD
BRANCH  30  32
ATOM     32  C   UNL     1     -49.249  27.553  25.386  1.00  0.00     0.005 C 
ATOM     33  H   UNL     1     -49.493  26.604  24.895  1.00  0.00     0.045 H 
ATOM     34  H   UNL     1     -49.745  27.559  26.362  1.00  0.00     0.045 H 
ATOM     35  H   UNL     1     -48.171  27.601  25.567  1.00  0.00     0.045 H 
ENDBRANCH  30  32
ENDBRANCH  16  30
ENDBRANCH  14  15
ENDBRANCH  11  14
ENDBRANCH   1  11
BRANCH   6  36
ATOM     36  O   UNL     1     -46.055  35.773  30.563  1.00  0.00    -0.387 OA
ATOM     37  H   UNL     1     -45.384  36.349  30.976  1.00  0.00     0.211 HD
ENDBRANCH   6  36
BRANCH   3  38
ATOM     38  N   UNL     1     -44.627  39.273  28.370  1.00  0.00    -0.302 N 
ATOM     39  C   UNL     1     -45.132  39.923  27.274  1.00  0.00     0.019 A 
ATOM     40  C   UNL     1     -43.573  39.999  28.876  1.00  0.00     0.148 A 
ATOM     41  C   UNL     1     -44.442  41.109  27.119  1.00  0.00     0.033 A 
ATOM     42  H   UNL     1     -45.931  39.495  26.682  1.00  0.00     0.083 H 
ATOM     43  C   UNL     1     -43.457  41.179  28.146  1.00  0.00     0.071 A 
ATOM     44  N   UNL     1     -42.804  39.620  29.913  1.00  0.00    -0.218 NA
ATOM     45  C   UNL     1     -42.468  42.078  28.578  1.00  0.00     0.137 A 
ATOM     46  C   UNL     1     -41.880  40.546  30.209  1.00  0.00     0.120 A 
ATOM     47  N   UNL     1     -41.681  41.738  29.618  1.00  0.00    -0.219 NA
ATOM     48  H   UNL     1     -41.214  40.311  31.032  1.00  0.00     0.106 H 
BRANCH  41  49
ATOM     49  C   UNL     1     -44.679  42.088  26.064  1.00  0.00     0.095 A 
ATOM     50  C   UNL     1     -45.929  42.665  25.760  1.00  0.00    -0.016 A 
ATOM     51  N   UNL     1     -43.699  42.581  25.299  1.00  0.00    -0.173 NA
ATOM     52  C   UNL     1     -45.669  43.553  24.744  1.00  0.00     0.026 A 
ATOM     53  H   UNL     1     -46.885  42.470  26.227  1.00  0.00     0.066 H 
ATOM     54  N   UNL     1     -44.324  43.474  24.507  1.00  0.00    -0.270 N 
ATOM     55  H   UNL     1     -46.311  44.229  24.197  1.00  0.00     0.084 H 
BRANCH  54  56
ATOM     56  C   UNL     1     -43.546  44.244  23.544  1.00  0.00     0.046 C 
ATOM     57  H   UNL     1     -43.341  45.213  24.018  1.00  0.00     0.055 H 
BRANCH  56  58
ATOM     58  C   UNL     1     -42.202  43.583  23.239  1.00  0.00    -0.043 C 
ATOM     59  H   UNL     1     -42.101  43.381  22.167  1.00  0.00     0.025 H 
ATOM     60  H   UNL     1     -42.112  42.630  23.772  1.00  0.00     0.025 H 
ATOM     61  H   UNL     1     -41.361  44.216  23.541  1.00  0.00     0.025 H 
ENDBRANCH  56  58
BRANCH  56  62
ATOM     62  C   UNL     1     -44.345  44.504  22.268  1.00  0.00    -0.043 C 
ATOM     63  H   UNL     1     -44.307  43.634  21.603  1.00  0.00     0.025 H 
ATOM     64  H   UNL     1     -43.941  45.363  21.722  1.00  0.00     0.025 H 
ATOM     65  H   UNL     1     -45.397  44.715  22.487  1.00  0.00     0.025 H 
ENDBRANCH  56  62
ENDBRANCH  54  56
ENDBRANCH  41  49
BRANCH  45  66
ATOM     66  N   UNL     1     -42.249  43.335  28.028  1.00  0.00    -0.383 N 
ATOM     67  H   UNL     1     -42.109  44.063  28.718  1.00  0.00     0.158 HD
ATOM     68  H   UNL     1     -41.539  43.277  27.307  1.00  0.00     0.158 HD
ENDBRANCH  45  66
ENDBRANCH   3  38
TORSDOF 12
ENDMDL
MODEL 2
REMARK VINA RESULT:      -9.8      1.400      2.097
REMARK SMILES CNc1ccc2ccc(OC[C@H]3O[C@@H](n4cc(-c5ccn(C(C)C)n5)c5c(N)ncnc54)[C@@H](F)[C@@H]3O)cc2n1
REMARK SMILES IDX 12 1 13 2 14 3 33 4 34 5 35 6 11 11 10 14 9 15 3 16 4 17
REMARK SMILES IDX 39 18 5 19 38 21 6 22 37 24 7 25 8 27 2 30 1 32 36 36 15 38
REMARK SMILES IDX 16 39 32 40 17 41 26 43 31 44 27 45 30 46 29 47 18 49 19 50
REMARK SMILES IDX 25 51 20 52 21 54 22 56 23 58 24 62 28 66
REMARK H PARENT 12 7 14 8 33 9 35 10 11 12 11 13 4 20 5 23 37 26 7 28 8 29
REMARK H PARENT 2 31 1 33 1 34 1 35 36 37 16 42 30 48 19 53 20 55 22 57 23 59
REMARK H PARENT 23 60 23 61 24 63 24 64 24 65 28 67 28 68
REMARK Flexibility Score: inf
ROOT
ATOM      1  C   UNL     1     -45.941  36.002  28.300  1.00  0.00     0.123 C 
ATOM      2  O   UNL     1     -44.894  36.973  28.055  1.00  0.00    -0.345 OA
ATOM      3  C   UNL     1     -45.003  38.014  29.053  1.00  0.00     0.169 C 
ATOM      4  C   UNL     1     -46.428  37.939  29.582  1.00  0.00     0.173 C 
ATOM      5  F   UNL     1     -47.308  38.519  28.719  1.00  0.00    -0.239 F 
ATOM      6  C   UNL     1     -46.675  36.449  29.569  1.00  0.00     0.119 C 
ATOM      7  H   UNL     1     -45.448  35.033  28.438  1.00  0.00     0.067 H 
ATOM      8  H   UNL     1     -44.273  37.781  29.839  1.00  0.00     0.088 H 
ATOM      9  H   UNL     1     -46.551  38.396  30.567  1.00  0.00     0.074 H 
ATOM     10  H   UNL     1     -47.737  36.184  29.553  1.00  0.00     0.066 H 
ENDROOT
BRANCH   1  11
ATOM     11  C   UNL     1     -46.889  35.935  27.091  1.00  0.00     0.117 C 
ATOM     12  H   UNL     1     -47.835  35.486  27.417  1.00  0.00     0.073 H 
ATOM     13  H   UNL     1     -47.147  36.921  26.695  1.00  0.00     0.073 H 
BRANCH  11  14
ATOM     14  O   UNL     1     -46.380  35.045  26.093  1.00  0.00    -0.491 OA
BRANCH  14  15
ATOM     15  C   UNL     1     -47.082  33.922  25.761  1.00  0.00     0.121 A 
ATOM     16  C   UNL     1     -46.916  30.029  23.020  1.00  0.00     0.126 A 
ATOM     17  C   UNL     1     -48.163  29.601  23.454  1.00  0.00    -0.019 A 
ATOM     18  N   UNL     1     -46.352  31.171  23.454  1.00  0.00    -0.231 NA
ATOM     19  C   UNL     1     -48.847  30.369  24.388  1.00  0.00    -0.049 A 
ATOM     20  H   UNL     1     -48.606  28.694  23.060  1.00  0.00     0.066 H 
ATOM     21  C   UNL     1     -47.013  31.920  24.357  1.00  0.00     0.076 A 
ATOM     22  C   UNL     1     -48.274  31.552  24.861  1.00  0.00     0.001 A 
ATOM     23  H   UNL     1     -49.825  30.048  24.734  1.00  0.00     0.063 H 
ATOM     24  C   UNL     1     -46.447  33.102  24.820  1.00  0.00     0.007 A 
ATOM     25  C   UNL     1     -48.922  32.364  25.803  1.00  0.00    -0.049 A 
ATOM     26  H   UNL     1     -45.475  33.397  24.430  1.00  0.00     0.069 H 
ATOM     27  C   UNL     1     -48.324  33.541  26.254  1.00  0.00    -0.019 A 
ATOM     28  H   UNL     1     -49.907  32.096  26.185  1.00  0.00     0.063 H 
ATOM     29  H   UNL     1     -48.876  34.139  26.970  1.00  0.00     0.066 H 
BRANCH  16  30
ATOM     30  N   UNL     1     -46.175  29.314  22.074  1.00  0.00    -0.373 N 
ATOM     31  H   UNL     1     -46.288  29.866  21.223  1.00  0.00     0.161 HD
BRANCH  30  32
ATOM     32  C   UNL     1     -44.771  29.170  22.421  1.00  0.00     0.005 C 
ATOM     33  H   UNL     1     -44.620  29.182  23.507  1.00  0.00     0.045 H 
ATOM     34  H   UNL     1     -44.212  30.011  21.998  1.00  0.00     0.045 H 
ATOM     35  H   UNL     1     -44.343  28.252  22.006  1.00  0.00     0.045 H 
ENDBRANCH  30  32
ENDBRANCH  16  30
ENDBRANCH  14  15
ENDBRANCH  11  14
ENDBRANCH   1  11
BRANCH   6  36
ATOM     36  O   UNL     1     -46.088  35.842  30.725  1.00  0.00    -0.387 OA
ATOM     37  H   UNL     1     -45.153  36.115  30.767  1.00  0.00     0.211 HD
ENDBRANCH   6  36
BRANCH   3  38
ATOM     38  N   UNL     1     -44.616  39.299  28.492  1.00  0.00    -0.302 N 
ATOM     39  C   UNL     1     -45.181  39.928  27.413  1.00  0.00     0.019 A 
ATOM     40  C   UNL     1     -43.544  40.040  28.933  1.00  0.00     0.148 A 
ATOM     41  C   UNL     1     -44.509  41.116  27.205  1.00  0.00     0.033 A 
ATOM     42  H   UNL     1     -46.006  39.485  26.868  1.00  0.00     0.083 H 
ATOM     43  C   UNL     1     -43.475  41.209  28.180  1.00  0.00     0.071 A 
ATOM     44  N   UNL     1     -42.721  39.682  29.935  1.00  0.00    -0.218 NA
ATOM     45  C   UNL     1     -42.473  42.122  28.548  1.00  0.00     0.137 A 
ATOM     46  C   UNL     1     -41.790  40.620  30.170  1.00  0.00     0.120 A 
ATOM     47  N   UNL     1     -41.631  41.804  29.551  1.00  0.00    -0.219 NA
ATOM     48  H   UNL     1     -41.082  40.403  30.962  1.00  0.00     0.106 H 
BRANCH  41  49
ATOM     49  C   UNL     1     -44.808  42.077  26.150  1.00  0.00     0.095 A 
ATOM     50  C   UNL     1     -44.139  42.155  24.911  1.00  0.00    -0.016 A 
ATOM     51  N   UNL     1     -45.803  42.966  26.240  1.00  0.00    -0.173 NA
ATOM     52  C   UNL     1     -44.780  43.161  24.227  1.00  0.00     0.026 A 
ATOM     53  H   UNL     1     -43.314  41.551  24.559  1.00  0.00     0.066 H 
ATOM     54  N   UNL     1     -45.770  43.611  25.057  1.00  0.00    -0.270 N 
ATOM     55  H   UNL     1     -44.627  43.570  23.239  1.00  0.00     0.084 H 
BRANCH  54  56
ATOM     56  C   UNL     1     -46.754  44.652  24.781  1.00  0.00     0.046 C 
ATOM     57  H   UNL     1     -47.627  44.143  24.353  1.00  0.00     0.055 H 
BRANCH  56  58
ATOM     58  C   UNL     1     -47.208  45.358  26.058  1.00  0.00    -0.043 C 
ATOM     59  H   UNL     1     -46.904  44.793  26.946  1.00  0.00     0.025 H 
ATOM     60  H   UNL     1     -48.298  45.456  26.077  1.00  0.00     0.025 H 
ATOM     61  H   UNL     1     -46.780  46.363  26.140  1.00  0.00     0.025 H 
ENDBRANCH  56  58
BRANCH  56  62
ATOM     62  C   UNL     1     -46.232  45.646  23.746  1.00  0.00    -0.043 C 
ATOM     63  H   UNL     1     -46.963  46.444  23.571  1.00  0.00     0.025 H 
ATOM     64  H   UNL     1     -46.041  45.149  22.789  1.00  0.00     0.025 H 
ATOM     65  H   UNL     1     -45.295  46.113  24.071  1.00  0.00     0.025 H 
ENDBRANCH  56  62
ENDBRANCH  54  56
ENDBRANCH  41  49
BRANCH  45  66
ATOM     66  N   UNL     1     -42.292  43.373  27.969  1.00  0.00    -0.383 N 
ATOM     67  H   UNL     1     -41.558  43.396  27.271  1.00  0.00     0.158 HD
ATOM     68  H   UNL     1     -43.186  43.747  27.672  1.00  0.00     0.158 HD
ENDBRANCH  45  66
ENDBRANCH   3  38
TORSDOF 12
ENDMDL
MODEL 3
REMARK VINA RESULT:      -9.3      1.847      2.547
REMARK SMILES CNc1ccc2ccc(OC[C@H]3O[C@@H](n4cc(-c5ccn(C(C)C)n5)c5c(N)ncnc54)[C@@H](F)[C@@H]3O)cc2n1
REMARK SMILES IDX 12 1 13 2 14 3 33 4 34 5 35 6 11 11 10 14 9 15 3 16 4 17
REMARK SMILES IDX 39 18 5 19 38 21 6 22 37 24 7 25 8 27 2 30 1 32 36 36 15 38
REMARK SMILES IDX 16 39 32 40 17 41 26 43 31 44 27 45 30 46 29 47 18 49 19 50
REMARK SMILES IDX 25 51 20 52 21 54 22 56 23 58 24 62 28 66
REMARK H PARENT 12 7 14 8 33 9 35 10 11 12 11 13 4 20 5 23 37 26 7 28 8 29
REMARK H PARENT 2 31 1 33 1 34 1 35 36 37 16 42 30 48 19 53 20 55 22 57 23 59
REMARK H PARENT 23 60 23 61 24 63 24 64 24 65 28 67 28 68
REMARK Flexibility Score: inf
ROOT
ATOM      1  C   UNL     1     -46.827  35.756  28.192  1.00  0.00     0.123 C 
ATOM      2  O   UNL     1     -45.977  36.801  28.725  1.00  0.00    -0.345 OA
ATOM      3  C   UNL     1     -46.639  38.070  28.520  1.00  0.00     0.169 C 
ATOM      4  C   UNL     1     -47.649  37.838  27.404  1.00  0.00     0.173 C 
ATOM      5  F   UNL     1     -47.044  37.829  26.183  1.00  0.00    -0.239 F 
ATOM      6  C   UNL     1     -48.114  36.433  27.706  1.00  0.00     0.119 C 
ATOM      7  H   UNL     1     -47.024  35.058  29.013  1.00  0.00     0.067 H 
ATOM      8  H   UNL     1     -47.140  38.325  29.463  1.00  0.00     0.088 H 
ATOM      9  H   UNL     1     -48.457  38.574  27.388  1.00  0.00     0.074 H 
ATOM     10  H   UNL     1     -48.552  35.925  26.841  1.00  0.00     0.066 H 
ENDROOT
BRANCH   1  11
ATOM     11  C   UNL     1     -46.106  35.024  27.049  1.00  0.00     0.117 C 
ATOM     12  H   UNL     1     -46.599  35.283  26.104  1.00  0.00     0.073 H 
ATOM     13  H   UNL     1     -45.063  35.331  26.935  1.00  0.00     0.073 H 
BRANCH  11  14
ATOM     14  O   UNL     1     -46.262  33.606  27.172  1.00  0.00    -0.491 OA
BRANCH  14  15
ATOM     15  C   UNL     1     -47.001  32.921  26.252  1.00  0.00     0.121 A 
ATOM     16  C   UNL     1     -46.776  30.965  21.914  1.00  0.00     0.126 A 
ATOM     17  C   UNL     1     -48.104  30.565  21.963  1.00  0.00    -0.019 A 
ATOM     18  N   UNL     1     -46.184  31.635  22.920  1.00  0.00    -0.231 NA
ATOM     19  C   UNL     1     -48.848  30.850  23.102  1.00  0.00    -0.049 A 
ATOM     20  H   UNL     1     -48.562  30.058  21.122  1.00  0.00     0.066 H 
ATOM     21  C   UNL     1     -46.902  31.915  24.025  1.00  0.00     0.076 A 
ATOM     22  C   UNL     1     -48.250  31.534  24.163  1.00  0.00     0.001 A 
ATOM     23  H   UNL     1     -49.889  30.545  23.153  1.00  0.00     0.063 H 
ATOM     24  C   UNL     1     -46.310  32.604  25.076  1.00  0.00     0.007 A 
ATOM     25  C   UNL     1     -48.955  31.845  25.334  1.00  0.00    -0.049 A 
ATOM     26  H   UNL     1     -45.270  32.908  24.974  1.00  0.00     0.069 H 
ATOM     27  C   UNL     1     -48.329  32.531  26.375  1.00  0.00    -0.019 A 
ATOM     28  H   UNL     1     -50.003  31.569  25.443  1.00  0.00     0.063 H 
ATOM     29  H   UNL     1     -48.926  32.760  27.251  1.00  0.00     0.066 H 
BRANCH  16  30
ATOM     30  N   UNL     1     -45.970  30.724  20.797  1.00  0.00    -0.373 N 
ATOM     31  H   UNL     1     -46.331  29.840  20.435  1.00  0.00     0.161 HD
BRANCH  30  32
ATOM     32  C   UNL     1     -46.042  31.769  19.789  1.00  0.00     0.005 C 
ATOM     33  H   UNL     1     -45.343  32.585  20.003  1.00  0.00     0.045 H 
ATOM     34  H   UNL     1     -47.053  32.189  19.784  1.00  0.00     0.045 H 
ATOM     35  H   UNL     1     -45.846  31.377  18.785  1.00  0.00     0.045 H 
ENDBRANCH  30  32
ENDBRANCH  16  30
ENDBRANCH  14  15
ENDBRANCH  11  14
ENDBRANCH   1  11
BRANCH   6  36
ATOM     36  O   UNL     1     -49.093  36.452  28.748  1.00  0.00    -0.387 OA
ATOM     37  H   UNL     1     -49.609  35.626  28.693  1.00  0.00     0.211 HD
ENDBRANCH   6  36
BRANCH   3  38
ATOM     38  N   UNL     1     -45.664  39.118  28.266  1.00  0.00    -0.302 N 
ATOM     39  C   UNL     1     -45.700  40.047  27.259  1.00  0.00     0.019 A 
ATOM     40  C   UNL     1     -44.496  39.271  28.978  1.00  0.00     0.148 A 
ATOM     41  C   UNL     1     -44.579  40.846  27.369  1.00  0.00     0.033 A 
ATOM     42  H   UNL     1     -46.505  40.067  26.536  1.00  0.00     0.083 H 
ATOM     43  C   UNL     1     -43.812  40.374  28.473  1.00  0.00     0.071 A 
ATOM     44  N   UNL     1     -44.106  38.483  29.996  1.00  0.00    -0.218 NA
ATOM     45  C   UNL     1     -42.623  40.720  29.136  1.00  0.00     0.137 A 
ATOM     46  C   UNL     1     -42.944  38.897  30.524  1.00  0.00     0.120 A 
ATOM     47  N   UNL     1     -42.201  39.959  30.165  1.00  0.00    -0.219 NA
ATOM     48  H   UNL     1     -42.557  38.307  31.349  1.00  0.00     0.106 H 
BRANCH  41  49
ATOM     49  C   UNL     1     -44.247  41.955  26.482  1.00  0.00     0.095 A 
ATOM     50  C   UNL     1     -43.932  43.263  26.902  1.00  0.00    -0.016 A 
ATOM     51  N   UNL     1     -44.159  41.819  25.154  1.00  0.00    -0.173 NA
ATOM     52  C   UNL     1     -43.645  43.945  25.743  1.00  0.00     0.026 A 
ATOM     53  H   UNL     1     -43.905  43.652  27.911  1.00  0.00     0.066 H 
ATOM     54  N   UNL     1     -43.786  43.041  24.727  1.00  0.00    -0.270 N 
ATOM     55  H   UNL     1     -43.343  44.968  25.567  1.00  0.00     0.084 H 
BRANCH  54  56
ATOM     56  C   UNL     1     -43.560  43.264  23.304  1.00  0.00     0.046 C 
ATOM     57  H   UNL     1     -43.719  42.295  22.812  1.00  0.00     0.055 H 
BRANCH  56  58
ATOM     58  C   UNL     1     -44.564  44.254  22.715  1.00  0.00    -0.043 C 
ATOM     59  H   UNL     1     -45.582  44.018  23.043  1.00  0.00     0.025 H 
ATOM     60  H   UNL     1     -44.546  44.217  21.621  1.00  0.00     0.025 H 
ATOM     61  H   UNL     1     -44.345  45.283  23.019  1.00  0.00     0.025 H 
ENDBRANCH  56  58
BRANCH  56  62
ATOM     62  C   UNL     1     -42.120  43.699  23.033  1.00  0.00    -0.043 C 
ATOM     63  H   UNL     1     -41.518  42.852  22.687  1.00  0.00     0.025 H 
ATOM     64  H   UNL     1     -41.654  44.094  23.942  1.00  0.00     0.025 H 
ATOM     65  H   UNL     1     -42.072  44.482  22.268  1.00  0.00     0.025 H 
ENDBRANCH  56  62
ENDBRANCH  54  56
ENDBRANCH  41  49
BRANCH  45  66
ATOM     66  N   UNL     1     -41.842  41.828  28.831  1.00  0.00    -0.383 N 
ATOM     67  H   UNL     1     -40.949  41.594  28.413  1.00  0.00     0.158 HD
ATOM     68  H   UNL     1     -42.394  42.509  28.323  1.00  0.00     0.158 HD
ENDBRANCH  45  66
ENDBRANCH   3  38
TORSDOF 12
ENDMDL
MODEL 4
REMARK VINA RESULT:      -8.6      4.306      8.739
REMARK SMILES CNc1ccc2ccc(OC[C@H]3O[C@@H](n4cc(-c5ccn(C(C)C)n5)c5c(N)ncnc54)[C@@H](F)[C@@H]3O)cc2n1
REMARK SMILES IDX 12 1 13 2 14 3 33 4 34 5 35 6 11 11 10 14 9 15 3 16 4 17
REMARK SMILES IDX 39 18 5 19 38 21 6 22 37 24 7 25 8 27 2 30 1 32 36 36 15 38
REMARK SMILES IDX 16 39 32 40 17 41 26 43 31 44 27 45 30 46 29 47 18 49 19 50
REMARK SMILES IDX 25 51 20 52 21 54 22 56 23 58 24 62 28 66
REMARK H PARENT 12 7 14 8 33 9 35 10 11 12 11 13 4 20 5 23 37 26 7 28 8 29
REMARK H PARENT 2 31 1 33 1 34 1 35 36 37 16 42 30 48 19 53 20 55 22 57 23 59
REMARK H PARENT 23 60 23 61 24 63 24 64 24 65 28 67 28 68
REMARK Flexibility Score: inf
ROOT
ATOM      1  C   UNL     1     -43.545  45.029  25.235  1.00  0.00     0.123 C 
ATOM      2  O   UNL     1     -43.340  44.100  26.328  1.00  0.00    -0.345 OA
ATOM      3  C   UNL     1     -43.027  42.805  25.766  1.00  0.00     0.169 C 
ATOM      4  C   UNL     1     -43.549  42.833  24.336  1.00  0.00     0.173 C 
ATOM      5  F   UNL     1     -44.898  42.648  24.297  1.00  0.00    -0.239 F 
ATOM      6  C   UNL     1     -43.262  44.261  23.939  1.00  0.00     0.119 C 
ATOM      7  H   UNL     1     -42.836  45.851  25.381  1.00  0.00     0.067 H 
ATOM      8  H   UNL     1     -41.934  42.703  25.789  1.00  0.00     0.088 H 
ATOM      9  H   UNL     1     -43.075  42.093  23.685  1.00  0.00     0.074 H 
ATOM     10  H   UNL     1     -43.875  44.612  23.103  1.00  0.00     0.066 H 
ENDROOT
BRANCH   1  11
ATOM     11  C   UNL     1     -44.983  45.571  25.269  1.00  0.00     0.117 C 
ATOM     12  H   UNL     1     -44.954  46.611  25.618  1.00  0.00     0.073 H 
ATOM     13  H   UNL     1     -45.452  45.601  24.282  1.00  0.00     0.073 H 
BRANCH  11  14
ATOM     14  O   UNL     1     -45.769  44.875  26.242  1.00  0.00    -0.491 OA
BRANCH  14  15
ATOM     15  C   UNL     1     -47.064  44.546  25.962  1.00  0.00     0.121 A 
ATOM     16  C   UNL     1     -50.485  41.408  27.031  1.00  0.00     0.126 A 
ATOM     17  C   UNL     1     -51.379  41.997  26.148  1.00  0.00    -0.019 A 
ATOM     18  N   UNL     1     -49.230  41.863  27.200  1.00  0.00    -0.231 NA
ATOM     19  C   UNL     1     -50.971  43.110  25.423  1.00  0.00    -0.049 A 
ATOM     20  H   UNL     1     -52.372  41.586  26.008  1.00  0.00     0.066 H 
ATOM     21  C   UNL     1     -48.829  42.941  26.498  1.00  0.00     0.076 A 
ATOM     22  C   UNL     1     -49.676  43.606  25.592  1.00  0.00     0.001 A 
ATOM     23  H   UNL     1     -51.659  43.579  24.726  1.00  0.00     0.063 H 
ATOM     24  C   UNL     1     -47.538  43.428  26.659  1.00  0.00     0.007 A 
ATOM     25  C   UNL     1     -49.215  44.726  24.887  1.00  0.00    -0.049 A 
ATOM     26  H   UNL     1     -46.875  42.914  27.352  1.00  0.00     0.069 H 
ATOM     27  C   UNL     1     -47.915  45.196  25.077  1.00  0.00    -0.019 A 
ATOM     28  H   UNL     1     -49.857  45.237  24.171  1.00  0.00     0.063 H 
ATOM     29  H   UNL     1     -47.604  46.055  24.493  1.00  0.00     0.066 H 
BRANCH  16  30
ATOM     30  N   UNL     1     -50.822  40.279  27.784  1.00  0.00    -0.373 N 
ATOM     31  H   UNL     1     -49.951  39.748  27.810  1.00  0.00     0.161 HD
BRANCH  30  32
ATOM     32  C   UNL     1     -51.284  40.590  29.127  1.00  0.00     0.005 C 
ATOM     33  H   UNL     1     -51.946  41.464  29.134  1.00  0.00     0.045 H 
ATOM     34  H   UNL     1     -50.418  40.824  29.755  1.00  0.00     0.045 H 
ATOM     35  H   UNL     1     -51.800  39.740  29.585  1.00  0.00     0.045 H 
ENDBRANCH  30  32
ENDBRANCH  16  30
ENDBRANCH  14  15
ENDBRANCH  11  14
ENDBRANCH   1  11
BRANCH   6  36
ATOM     36  O   UNL     1     -41.887  44.402  23.565  1.00  0.00    -0.387 OA
ATOM     37  H   UNL     1     -41.353  44.418  24.381  1.00  0.00     0.211 HD
ENDBRANCH   6  36
BRANCH   3  38
ATOM     38  N   UNL     1     -43.564  41.744  26.602  1.00  0.00    -0.302 N 
ATOM     39  C   UNL     1     -44.688  40.997  26.360  1.00  0.00     0.019 A 
ATOM     40  C   UNL     1     -43.045  41.391  27.826  1.00  0.00     0.148 A 
ATOM     41  C   UNL     1     -44.851  40.111  27.407  1.00  0.00     0.033 A 
ATOM     42  H   UNL     1     -45.293  41.155  25.476  1.00  0.00     0.083 H 
ATOM     43  C   UNL     1     -43.799  40.338  28.339  1.00  0.00     0.071 A 
ATOM     44  N   UNL     1     -41.979  41.971  28.406  1.00  0.00    -0.218 NA
ATOM     45  C   UNL     1     -43.359  39.802  29.561  1.00  0.00     0.137 A 
ATOM     46  C   UNL     1     -41.679  41.392  29.579  1.00  0.00     0.120 A 
ATOM     47  N   UNL     1     -42.290  40.352  30.172  1.00  0.00    -0.219 NA
ATOM     48  H   UNL     1     -40.831  41.809  30.114  1.00  0.00     0.106 H 
BRANCH  41  49
ATOM     49  C   UNL     1     -45.933  39.141  27.526  1.00  0.00     0.095 A 
ATOM     50  C   UNL     1     -47.111  39.328  28.278  1.00  0.00    -0.016 A 
ATOM     51  N   UNL     1     -45.933  37.971  26.876  1.00  0.00    -0.173 NA
ATOM     52  C   UNL     1     -47.852  38.190  28.060  1.00  0.00     0.026 A 
ATOM     53  H   UNL     1     -47.388  40.180  28.882  1.00  0.00     0.066 H 
ATOM     54  N   UNL     1     -47.112  37.413  27.213  1.00  0.00    -0.270 N 
ATOM     55  H   UNL     1     -48.826  37.887  28.418  1.00  0.00     0.084 H 
BRANCH  54  56
ATOM     56  C   UNL     1     -47.476  36.116  26.653  1.00  0.00     0.046 C 
ATOM     57  H   UNL     1     -47.630  36.278  25.578  1.00  0.00     0.055 H 
BRANCH  56  58
ATOM     58  C   UNL     1     -46.353  35.093  26.812  1.00  0.00    -0.043 C 
ATOM     59  H   UNL     1     -45.454  35.412  26.272  1.00  0.00     0.025 H 
ATOM     60  H   UNL     1     -46.658  34.120  26.411  1.00  0.00     0.025 H 
ATOM     61  H   UNL     1     -46.078  34.951  27.863  1.00  0.00     0.025 H 
ENDBRANCH  56  58
BRANCH  56  62
ATOM     62  C   UNL     1     -48.788  35.606  27.246  1.00  0.00    -0.043 C 
ATOM     63  H   UNL     1     -48.872  35.886  28.301  1.00  0.00     0.025 H 
ATOM     64  H   UNL     1     -48.847  34.514  27.182  1.00  0.00     0.025 H 
ATOM     65  H   UNL     1     -49.656  36.016  26.717  1.00  0.00     0.025 H 
ENDBRANCH  56  62
ENDBRANCH  54  56
ENDBRANCH  41  49
BRANCH  45  66
ATOM     66  N   UNL     1     -43.931  38.705  30.194  1.00  0.00    -0.383 N 
ATOM     67  H   UNL     1     -44.284  38.908  31.122  1.00  0.00     0.158 HD
ATOM     68  H   UNL     1     -44.588  38.251  29.569  1.00  0.00     0.158 HD
ENDBRANCH  45  66
ENDBRANCH   3  38
TORSDOF 12
ENDMDL
MODEL 5
REMARK VINA RESULT:      -8.5      2.344     10.536
REMARK SMILES CNc1ccc2ccc(OC[C@H]3O[C@@H](n4cc(-c5ccn(C(C)C)n5)c5c(N)ncnc54)[C@@H](F)[C@@H]3O)cc2n1
REMARK SMILES IDX 12 1 13 2 14 3 33 4 34 5 35 6 11 11 10 14 9 15 3 16 4 17
REMARK SMILES IDX 39 18 5 19 38 21 6 22 37 24 7 25 8 27 2 30 1 32 36 36 15 38
REMARK SMILES IDX 16 39 32 40 17 41 26 43 31 44 27 45 30 46 29 47 18 49 19 50
REMARK SMILES IDX 25 51 20 52 21 54 22 56 23 58 24 62 28 66
REMARK H PARENT 12 7 14 8 33 9 35 10 11 12 11 13 4 20 5 23 37 26 7 28 8 29
REMARK H PARENT 2 31 1 33 1 34 1 35 36 37 16 42 30 48 19 53 20 55 22 57 23 59
REMARK H PARENT 23 60 23 61 24 63 24 64 24 65 28 67 28 68
REMARK Flexibility Score: inf
ROOT
ATOM      1  C   UNL     1     -46.322  38.837  28.924  1.00  0.00     0.123 C 
ATOM      2  O   UNL     1     -47.449  38.067  28.438  1.00  0.00    -0.345 OA
ATOM      3  C   UNL     1     -47.353  36.732  28.985  1.00  0.00     0.169 C 
ATOM      4  C   UNL     1     -45.895  36.548  29.384  1.00  0.00     0.173 C 
ATOM      5  F   UNL     1     -45.115  36.281  28.300  1.00  0.00    -0.239 F 
ATOM      6  C   UNL     1     -45.543  37.930  29.883  1.00  0.00     0.119 C 
ATOM      7  H   UNL     1     -46.734  39.711  29.439  1.00  0.00     0.067 H 
ATOM      8  H   UNL     1     -48.013  36.698  29.862  1.00  0.00     0.088 H 
ATOM      9  H   UNL     1     -45.743  35.761  30.127  1.00  0.00     0.074 H 
ATOM     10  H   UNL     1     -44.468  38.136  29.873  1.00  0.00     0.066 H 
ENDROOT
BRANCH   1  11
ATOM     11  C   UNL     1     -45.450  39.294  27.743  1.00  0.00     0.117 C 
ATOM     12  H   UNL     1     -45.176  38.412  27.151  1.00  0.00     0.073 H 
ATOM     13  H   UNL     1     -45.976  39.962  27.056  1.00  0.00     0.073 H 
BRANCH  11  14
ATOM     14  O   UNL     1     -44.206  39.831  28.205  1.00  0.00    -0.491 OA
BRANCH  14  15
ATOM     15  C   UNL     1     -43.567  40.792  27.476  1.00  0.00     0.121 A 
ATOM     16  C   UNL     1     -44.016  43.525  23.600  1.00  0.00     0.126 A 
ATOM     17  C   UNL     1     -42.770  44.104  23.794  1.00  0.00    -0.019 A 
ATOM     18  N   UNL     1     -44.513  42.585  24.424  1.00  0.00    -0.231 NA
ATOM     19  C   UNL     1     -42.012  43.711  24.891  1.00  0.00    -0.049 A 
ATOM     20  H   UNL     1     -42.382  44.834  23.093  1.00  0.00     0.066 H 
ATOM     21  C   UNL     1     -43.782  42.200  25.487  1.00  0.00     0.076 A 
ATOM     22  C   UNL     1     -42.514  42.745  25.765  1.00  0.00     0.001 A 
ATOM     23  H   UNL     1     -41.034  44.153  25.054  1.00  0.00     0.063 H 
ATOM     24  C   UNL     1     -44.277  41.231  26.351  1.00  0.00     0.007 A 
ATOM     25  C   UNL     1     -41.792  42.314  26.887  1.00  0.00    -0.049 A 
ATOM     26  H   UNL     1     -45.253  40.800  26.139  1.00  0.00     0.069 H 
ATOM     27  C   UNL     1     -42.321  41.345  27.740  1.00  0.00    -0.019 A 
ATOM     28  H   UNL     1     -40.803  42.718  27.101  1.00  0.00     0.063 H 
ATOM     29  H   UNL     1     -41.712  41.037  28.583  1.00  0.00     0.066 H 
BRANCH  16  30
ATOM     30  N   UNL     1     -44.828  43.862  22.513  1.00  0.00    -0.373 N 
ATOM     31  H   UNL     1     -45.687  44.191  22.956  1.00  0.00     0.161 HD
BRANCH  30  32
ATOM     32  C   UNL     1     -44.258  44.887  21.654  1.00  0.00     0.005 C 
ATOM     33  H   UNL     1     -44.551  44.746  20.608  1.00  0.00     0.045 H 
ATOM     34  H   UNL     1     -43.166  44.827  21.705  1.00  0.00     0.045 H 
ATOM     35  H   UNL     1     -44.545  45.893  21.978  1.00  0.00     0.045 H 
ENDBRANCH  30  32
ENDBRANCH  16  30
ENDBRANCH  14  15
ENDBRANCH  11  14
ENDBRANCH   1  11
BRANCH   6  36
ATOM     36  O   UNL     1     -46.011  38.103  31.224  1.00  0.00    -0.387 OA
ATOM     37  H   UNL     1     -46.895  38.513  31.185  1.00  0.00     0.211 HD
ENDBRANCH   6  36
BRANCH   3  38
ATOM     38  N   UNL     1     -47.865  35.755  28.038  1.00  0.00    -0.302 N 
ATOM     39  C   UNL     1     -47.135  34.831  27.336  1.00  0.00     0.019 A 
ATOM     40  C   UNL     1     -49.182  35.679  27.647  1.00  0.00     0.148 A 
ATOM     41  C   UNL     1     -48.003  34.111  26.539  1.00  0.00     0.033 A 
ATOM     42  H   UNL     1     -46.060  34.760  27.442  1.00  0.00     0.083 H 
ATOM     43  C   UNL     1     -49.314  34.629  26.743  1.00  0.00     0.071 A 
ATOM     44  N   UNL     1     -50.163  36.486  28.088  1.00  0.00    -0.218 NA
ATOM     45  C   UNL     1     -50.618  34.362  26.292  1.00  0.00     0.137 A 
ATOM     46  C   UNL     1     -51.352  36.151  27.563  1.00  0.00     0.120 A 
ATOM     47  N   UNL     1     -51.631  35.145  26.715  1.00  0.00    -0.219 NA
ATOM     48  H   UNL     1     -52.197  36.761  27.865  1.00  0.00     0.106 H 
BRANCH  41  49
ATOM     49  C   UNL     1     -47.617  33.032  25.637  1.00  0.00     0.095 A 
ATOM     50  C   UNL     1     -46.474  33.036  24.811  1.00  0.00    -0.016 A 
ATOM     51  N   UNL     1     -48.301  31.886  25.542  1.00  0.00    -0.173 NA
ATOM     52  C   UNL     1     -46.490  31.812  24.183  1.00  0.00     0.026 A 
ATOM     53  H   UNL     1     -45.734  33.816  24.699  1.00  0.00     0.066 H 
ATOM     54  N   UNL     1     -47.594  31.159  24.656  1.00  0.00    -0.270 N 
ATOM     55  H   UNL     1     -45.814  31.361  23.471  1.00  0.00     0.084 H 
BRANCH  54  56
ATOM     56  C   UNL     1     -48.037  29.810  24.323  1.00  0.00     0.046 C 
ATOM     57  H   UNL     1     -47.676  29.160  25.131  1.00  0.00     0.055 H 
BRANCH  56  58
ATOM     58  C   UNL     1     -49.561  29.703  24.286  1.00  0.00    -0.043 C 
ATOM     59  H   UNL     1     -49.877  28.825  23.713  1.00  0.00     0.025 H 
ATOM     60  H   UNL     1     -49.998  30.590  23.814  1.00  0.00     0.025 H 
ATOM     61  H   UNL     1     -49.986  29.616  25.292  1.00  0.00     0.025 H 
ENDBRANCH  56  58
BRANCH  56  62
ATOM     62  C   UNL     1     -47.410  29.328  23.016  1.00  0.00    -0.043 C 
ATOM     63  H   UNL     1     -47.789  28.337  22.745  1.00  0.00     0.025 H 
ATOM     64  H   UNL     1     -46.321  29.258  23.108  1.00  0.00     0.025 H 
ATOM     65  H   UNL     1     -47.630  30.011  22.187  1.00  0.00     0.025 H 
ENDBRANCH  56  62
ENDBRANCH  54  56
ENDBRANCH  41  49
BRANCH  45  66
ATOM     66  N   UNL     1     -50.964  33.312  25.450  1.00  0.00    -0.383 N 
ATOM     67  H   UNL     1     -51.277  32.483  25.940  1.00  0.00     0.158 HD
ATOM     68  H   UNL     1     -51.584  33.646  24.721  1.00  0.00     0.158 HD
ENDBRANCH  45  66
ENDBRANCH   3  38
TORSDOF 12
ENDMDL
MODEL 6
REMARK VINA RESULT:      -8.5      3.116      4.259
REMARK SMILES CNc1ccc2ccc(OC[C@H]3O[C@@H](n4cc(-c5ccn(C(C)C)n5)c5c(N)ncnc54)[C@@H](F)[C@@H]3O)cc2n1
REMARK SMILES IDX 12 1 13 2 14 3 33 4 34 5 35 6 11 11 10 14 9 15 3 16 4 17
REMARK SMILES IDX 39 18 5 19 38 21 6 22 37 24 7 25 8 27 2 30 1 32 36 36 15 38
REMARK SMILES IDX 16 39 32 40 17 41 26 43 31 44 27 45 30 46 29 47 18 49 19 50
REMARK SMILES IDX 25 51 20 52 21 54 22 56 23 58 24 62 28 66
REMARK H PARENT 12 7 14 8 33 9 35 10 11 12 11 13 4 20 5 23 37 26 7 28 8 29
REMARK H PARENT 2 31 1 33 1 34 1 35 36 37 16 42 30 48 19 53 20 55 22 57 23 59
REMARK H PARENT 23 60 23 61 24 63 24 64 24 65 28 67 28 68
REMARK Flexibility Score: inf
ROOT
ATOM      1  C   UNL     1     -45.850  35.515  27.744  1.00  0.00     0.123 C 
ATOM      2  O   UNL     1     -45.601  36.931  27.567  1.00  0.00    -0.345 OA
ATOM      3  C   UNL     1     -46.443  37.657  28.491  1.00  0.00     0.169 C 
ATOM      4  C   UNL     1     -47.572  36.705  28.863  1.00  0.00     0.173 C 
ATOM      5  F   UNL     1     -48.512  36.643  27.880  1.00  0.00    -0.239 F 
ATOM      6  C   UNL     1     -46.847  35.380  28.901  1.00  0.00     0.119 C 
ATOM      7  H   UNL     1     -44.887  35.052  27.986  1.00  0.00     0.067 H 
ATOM      8  H   UNL     1     -45.823  37.901  29.364  1.00  0.00     0.088 H 
ATOM      9  H   UNL     1     -48.065  36.962  29.804  1.00  0.00     0.074 H 
ATOM     10  H   UNL     1     -47.511  34.518  28.781  1.00  0.00     0.066 H 
ENDROOT
BRANCH   1  11
ATOM     11  C   UNL     1     -46.405  34.912  26.444  1.00  0.00     0.117 C 
ATOM     12  H   UNL     1     -46.827  35.722  25.837  1.00  0.00     0.073 H 
ATOM     13  H   UNL     1     -45.633  34.446  25.825  1.00  0.00     0.073 H 
BRANCH  11  14
ATOM     14  O   UNL     1     -47.507  34.040  26.715  1.00  0.00    -0.491 OA
BRANCH  14  15
ATOM     15  C   UNL     1     -47.664  32.895  25.989  1.00  0.00     0.121 A 
ATOM     16  C   UNL     1     -46.354  30.782  21.925  1.00  0.00     0.126 A 
ATOM     17  C   UNL     1     -47.123  29.660  22.194  1.00  0.00    -0.019 A 
ATOM     18  N   UNL     1     -46.298  31.838  22.758  1.00  0.00    -0.231 NA
ATOM     19  C   UNL     1     -47.851  29.613  23.377  1.00  0.00    -0.049 A 
ATOM     20  H   UNL     1     -47.175  28.840  21.487  1.00  0.00     0.066 H 
ATOM     21  C   UNL     1     -47.003  31.799  23.905  1.00  0.00     0.076 A 
ATOM     22  C   UNL     1     -47.798  30.693  24.261  1.00  0.00     0.001 A 
ATOM     23  H   UNL     1     -48.460  28.743  23.599  1.00  0.00     0.063 H 
ATOM     24  C   UNL     1     -46.958  32.877  24.779  1.00  0.00     0.007 A 
ATOM     25  C   UNL     1     -48.511  30.697  25.468  1.00  0.00    -0.049 A 
ATOM     26  H   UNL     1     -46.351  33.738  24.507  1.00  0.00     0.069 H 
ATOM     27  C   UNL     1     -48.439  31.793  26.329  1.00  0.00    -0.019 A 
ATOM     28  H   UNL     1     -49.143  29.854  25.745  1.00  0.00     0.063 H 
ATOM     29  H   UNL     1     -49.024  31.750  27.241  1.00  0.00     0.066 H 
BRANCH  16  30
ATOM     30  N   UNL     1     -45.605  30.904  20.750  1.00  0.00    -0.373 N 
ATOM     31  H   UNL     1     -45.654  29.968  20.345  1.00  0.00     0.161 HD
BRANCH  30  32
ATOM     32  C   UNL     1     -46.124  31.900  19.828  1.00  0.00     0.005 C 
ATOM     33  H   UNL     1     -45.999  31.589  18.785  1.00  0.00     0.045 H 
ATOM     34  H   UNL     1     -45.569  32.834  19.965  1.00  0.00     0.045 H 
ATOM     35  H   UNL     1     -47.180  32.118  20.019  1.00  0.00     0.045 H 
ENDBRANCH  30  32
ENDBRANCH  16  30
ENDBRANCH  14  15
ENDBRANCH  11  14
ENDBRANCH   1  11
BRANCH   6  36
ATOM     36  O   UNL     1     -46.154  35.232  30.144  1.00  0.00    -0.387 OA
ATOM     37  H   UNL     1     -46.199  36.083  30.618  1.00  0.00     0.211 HD
ENDBRANCH   6  36
BRANCH   3  38
ATOM     38  N   UNL     1     -46.864  38.921  27.911  1.00  0.00    -0.302 N 
ATOM     39  C   UNL     1     -48.139  39.424  27.874  1.00  0.00     0.019 A 
ATOM     40  C   UNL     1     -46.026  39.772  27.228  1.00  0.00     0.148 A 
ATOM     41  C   UNL     1     -48.104  40.641  27.222  1.00  0.00     0.033 A 
ATOM     42  H   UNL     1     -48.974  38.881  28.299  1.00  0.00     0.083 H 
ATOM     43  C   UNL     1     -46.760  40.884  26.821  1.00  0.00     0.071 A 
ATOM     44  N   UNL     1     -44.717  39.553  27.011  1.00  0.00    -0.218 NA
ATOM     45  C   UNL     1     -46.037  41.895  26.167  1.00  0.00     0.137 A 
ATOM     46  C   UNL     1     -44.147  40.573  26.352  1.00  0.00     0.120 A 
ATOM     47  N   UNL     1     -44.721  41.716  25.936  1.00  0.00    -0.219 NA
ATOM     48  H   UNL     1     -43.089  40.469  26.132  1.00  0.00     0.106 H 
BRANCH  41  49
ATOM     49  C   UNL     1     -49.261  41.495  26.975  1.00  0.00     0.095 A 
ATOM     50  C   UNL     1     -50.370  41.627  27.835  1.00  0.00    -0.016 A 
ATOM     51  N   UNL     1     -49.356  42.294  25.906  1.00  0.00    -0.173 NA
ATOM     52  C   UNL     1     -51.176  42.561  27.229  1.00  0.00     0.026 A 
ATOM     53  H   UNL     1     -50.550  41.122  28.774  1.00  0.00     0.066 H 
ATOM     54  N   UNL     1     -50.527  42.935  26.085  1.00  0.00    -0.270 N 
ATOM     55  H   UNL     1     -52.125  42.990  27.520  1.00  0.00     0.084 H 
BRANCH  54  56
ATOM     56  C   UNL     1     -50.955  43.930  25.107  1.00  0.00     0.046 C 
ATOM     57  H   UNL     1     -50.046  44.454  24.785  1.00  0.00     0.055 H 
BRANCH  56  58
ATOM     58  C   UNL     1     -51.580  43.282  23.872  1.00  0.00    -0.043 C 
ATOM     59  H   UNL     1     -51.850  42.239  24.073  1.00  0.00     0.025 H 
ATOM     60  H   UNL     1     -50.875  43.291  23.034  1.00  0.00     0.025 H 
ATOM     61  H   UNL     1     -52.487  43.806  23.554  1.00  0.00     0.025 H 
ENDBRANCH  56  58
BRANCH  56  62
ATOM     62  C   UNL     1     -51.894  44.957  25.737  1.00  0.00    -0.043 C 
ATOM     63  H   UNL     1     -52.873  44.512  25.944  1.00  0.00     0.025 H 
ATOM     64  H   UNL     1     -52.046  45.810  25.066  1.00  0.00     0.025 H 
ATOM     65  H   UNL     1     -51.493  45.345  26.680  1.00  0.00     0.025 H 
ENDBRANCH  56  62
ENDBRANCH  54  56
ENDBRANCH  41  49
BRANCH  45  66
ATOM     66  N   UNL     1     -46.573  43.109  25.754  1.00  0.00    -0.383 N 
ATOM     67  H   UNL     1     -47.218  43.026  24.977  1.00  0.00     0.158 HD
ATOM     68  H   UNL     1     -46.922  43.621  26.556  1.00  0.00     0.158 HD
ENDBRANCH  45  66
ENDBRANCH   3  38
TORSDOF 12
ENDMDL
MODEL 7
REMARK VINA RESULT:      -8.3      1.788      2.491
REMARK SMILES CNc1ccc2ccc(OC[C@H]3O[C@@H](n4cc(-c5ccn(C(C)C)n5)c5c(N)ncnc54)[C@@H](F)[C@@H]3O)cc2n1
REMARK SMILES IDX 12 1 13 2 14 3 33 4 34 5 35 6 11 11 10 14 9 15 3 16 4 17
REMARK SMILES IDX 39 18 5 19 38 21 6 22 37 24 7 25 8 27 2 30 1 32 36 36 15 38
REMARK SMILES IDX 16 39 32 40 17 41 26 43 31 44 27 45 30 46 29 47 18 49 19 50
REMARK SMILES IDX 25 51 20 52 21 54 22 56 23 58 24 62 28 66
REMARK H PARENT 12 7 14 8 33 9 35 10 11 12 11 13 4 20 5 23 37 26 7 28 8 29
REMARK H PARENT 2 31 1 33 1 34 1 35 36 37 16 42 30 48 19 53 20 55 22 57 23 59
REMARK H PARENT 23 60 23 61 24 63 24 64 24 65 28 67 28 68
REMARK Flexibility Score: inf
ROOT
ATOM      1  C   UNL     1     -46.708  37.731  28.429  1.00  0.00     0.123 C 
ATOM      2  O   UNL     1     -45.951  38.964  28.499  1.00  0.00    -0.345 OA
ATOM      3  C   UNL     1     -46.688  39.986  27.789  1.00  0.00     0.169 C 
ATOM      4  C   UNL     1     -47.635  39.246  26.855  1.00  0.00     0.173 C 
ATOM      5  F   UNL     1     -46.983  38.790  25.749  1.00  0.00    -0.239 F 
ATOM      6  C   UNL     1     -48.017  38.052  27.698  1.00  0.00     0.119 C 
ATOM      7  H   UNL     1     -46.890  37.412  29.461  1.00  0.00     0.067 H 
ATOM      8  H   UNL     1     -47.241  40.562  28.543  1.00  0.00     0.088 H 
ATOM      9  H   UNL     1     -48.489  39.848  26.534  1.00  0.00     0.074 H 
ATOM     10  H   UNL     1     -48.386  37.205  27.111  1.00  0.00     0.066 H 
ENDROOT
BRANCH   1  11
ATOM     11  C   UNL     1     -45.895  36.656  27.688  1.00  0.00     0.117 C 
ATOM     12  H   UNL     1     -44.904  37.066  27.460  1.00  0.00     0.073 H 
ATOM     13  H   UNL     1     -45.716  35.763  28.294  1.00  0.00     0.073 H 
BRANCH  11  14
ATOM     14  O   UNL     1     -46.478  36.362  26.415  1.00  0.00    -0.491 OA
BRANCH  14  15
ATOM     15  C   UNL     1     -47.140  35.184  26.225  1.00  0.00     0.121 A 
ATOM     16  C   UNL     1     -46.787  30.948  24.072  1.00  0.00     0.126 A 
ATOM     17  C   UNL     1     -48.037  30.551  24.524  1.00  0.00    -0.019 A 
ATOM     18  N   UNL     1     -46.265  32.156  24.357  1.00  0.00    -0.231 NA
ATOM     19  C   UNL     1     -48.772  31.424  25.316  1.00  0.00    -0.049 A 
ATOM     20  H   UNL     1     -48.445  29.585  24.248  1.00  0.00     0.066 H 
ATOM     21  C   UNL     1     -46.975  33.006  25.123  1.00  0.00     0.076 A 
ATOM     22  C   UNL     1     -48.244  32.678  25.634  1.00  0.00     0.001 A 
ATOM     23  H   UNL     1     -49.754  31.127  25.674  1.00  0.00     0.063 H 
ATOM     24  C   UNL     1     -46.453  34.257  25.430  1.00  0.00     0.007 A 
ATOM     25  C   UNL     1     -48.944  33.595  26.430  1.00  0.00    -0.049 A 
ATOM     26  H   UNL     1     -45.476  34.521  25.033  1.00  0.00     0.069 H 
ATOM     27  C   UNL     1     -48.389  34.841  26.727  1.00  0.00    -0.019 A 
ATOM     28  H   UNL     1     -49.934  33.357  26.815  1.00  0.00     0.063 H 
ATOM     29  H   UNL     1     -48.981  35.518  27.333  1.00  0.00     0.066 H 
BRANCH  16  30
ATOM     30  N   UNL     1     -45.996  30.128  23.262  1.00  0.00    -0.373 N 
ATOM     31  H   UNL     1     -46.437  29.212  23.358  1.00  0.00     0.161 HD
BRANCH  30  32
ATOM     32  C   UNL     1     -45.957  30.546  21.870  1.00  0.00     0.005 C 
ATOM     33  H   UNL     1     -45.443  29.809  21.242  1.00  0.00     0.045 H 
ATOM     34  H   UNL     1     -45.404  31.488  21.798  1.00  0.00     0.045 H 
ATOM     35  H   UNL     1     -46.961  30.725  21.472  1.00  0.00     0.045 H 
ENDBRANCH  30  32
ENDBRANCH  16  30
ENDBRANCH  14  15
ENDBRANCH  11  14
ENDBRANCH   1  11
BRANCH   6  36
ATOM     36  O   UNL     1     -49.036  38.416  28.634  1.00  0.00    -0.387 OA
ATOM     37  H   UNL     1     -49.847  38.620  28.133  1.00  0.00     0.211 HD
ENDBRANCH   6  36
BRANCH   3  38
ATOM     38  N   UNL     1     -45.775  40.913  27.141  1.00  0.00    -0.302 N 
ATOM     39  C   UNL     1     -46.041  41.700  26.050  1.00  0.00     0.019 A 
ATOM     40  C   UNL     1     -44.455  41.070  27.496  1.00  0.00     0.148 A 
ATOM     41  C   UNL     1     -44.901  42.418  25.747  1.00  0.00     0.033 A 
ATOM     42  H   UNL     1     -47.008  41.684  25.564  1.00  0.00     0.083 H 
ATOM     43  C   UNL     1     -43.888  42.040  26.674  1.00  0.00     0.071 A 
ATOM     44  N   UNL     1     -43.839  40.398  28.485  1.00  0.00    -0.218 NA
ATOM     45  C   UNL     1     -42.553  42.380  26.949  1.00  0.00     0.137 A 
ATOM     46  C   UNL     1     -42.563  40.788  28.628  1.00  0.00     0.120 A 
ATOM     47  N   UNL     1     -41.902  41.733  27.937  1.00  0.00    -0.219 NA
ATOM     48  H   UNL     1     -41.994  40.286  29.404  1.00  0.00     0.106 H 
BRANCH  41  49
ATOM     49  C   UNL     1     -44.774  43.371  24.650  1.00  0.00     0.095 A 
ATOM     50  C   UNL     1     -45.753  44.316  24.279  1.00  0.00    -0.016 A 
ATOM     51  N   UNL     1     -43.669  43.473  23.904  1.00  0.00    -0.173 NA
ATOM     52  C   UNL     1     -45.187  45.018  23.241  1.00  0.00     0.026 A 
ATOM     53  H   UNL     1     -46.728  44.473  24.717  1.00  0.00     0.066 H 
ATOM     54  N   UNL     1     -43.942  44.485  23.057  1.00  0.00    -0.270 N 
ATOM     55  H   UNL     1     -45.555  45.843  22.647  1.00  0.00     0.084 H 
BRANCH  54  56
ATOM     56  C   UNL     1     -42.929  44.906  22.096  1.00  0.00     0.046 C 
ATOM     57  H   UNL     1     -42.529  45.858  22.468  1.00  0.00     0.055 H 
BRANCH  56  58
ATOM     58  C   UNL     1     -41.771  43.913  22.017  1.00  0.00    -0.043 C 
ATOM     59  H   UNL     1     -40.899  44.367  21.532  1.00  0.00     0.025 H 
ATOM     60  H   UNL     1     -42.058  43.031  21.435  1.00  0.00     0.025 H 
ATOM     61  H   UNL     1     -41.460  43.572  23.011  1.00  0.00     0.025 H 
ENDBRANCH  56  58
BRANCH  56  62
ATOM     62  C   UNL     1     -43.544  45.160  20.720  1.00  0.00    -0.043 C 
ATOM     63  H   UNL     1     -43.727  46.230  20.569  1.00  0.00     0.025 H 
ATOM     64  H   UNL     1     -44.500  44.637  20.617  1.00  0.00     0.025 H 
ATOM     65  H   UNL     1     -42.887  44.813  19.915  1.00  0.00     0.025 H 
ENDBRANCH  56  62
ENDBRANCH  54  56
ENDBRANCH  41  49
BRANCH  45  66
ATOM     66  N   UNL     1     -41.839  43.374  26.292  1.00  0.00    -0.383 N 
ATOM     67  H   UNL     1     -42.335  44.255  26.224  1.00  0.00     0.158 HD
ATOM     68  H   UNL     1     -40.900  43.432  26.671  1.00  0.00     0.158 HD
ENDBRANCH  45  66
ENDBRANCH   3  38
TORSDOF 12
ENDMDL
