MODEL 1
REMARK VINA RESULT:     -10.8      0.000      0.000
REMARK SMILES Cn1ccc(-c2cn(-c3cncc(COc4ccc5ccc(N6CC(O)C6)nc5c4)c3)c3ncnc(N)c23)n1
REMARK SMILES IDX 14 1 13 4 9 5 10 6 31 7 11 8 12 11 8 13 6 14 7 15 38 16
REMARK SMILES IDX 32 18 36 19 33 20 35 21 34 22 5 24 2 25 3 26 39 27 4 28 1 31
REMARK SMILES IDX 37 35 15 38 16 39 17 40 30 41 18 42 29 44 19 46 28 48 20 49
REMARK SMILES IDX 22 50 21 51 23 54 24 55 27 56 25 57 26 63
REMARK H PARENT 14 2 14 3 10 9 31 10 12 12 7 17 34 23 3 29 4 30 1 32 1 33 1 34
REMARK H PARENT 37 36 37 37 17 43 30 45 18 47 20 52 21 53 24 58 24 59 27 60
REMARK H PARENT 27 61 25 62 26 64
REMARK Flexibility Score: inf
ROOT
ATOM      1  C   UNL     1     -47.017  36.703  26.537  1.00  0.00     0.115 C 
ATOM      2  H   UNL     1     -46.223  37.029  25.856  1.00  0.00     0.076 H 
ATOM      3  H   UNL     1     -47.961  36.893  26.012  1.00  0.00     0.076 H 
ENDROOT
BRANCH   1   4
ATOM      4  C   UNL     1     -46.798  35.238  26.814  1.00  0.00     0.010 A 
ATOM      5  C   UNL     1     -47.074  32.884  26.263  1.00  0.00     0.066 A 
ATOM      6  C   UNL     1     -46.397  32.605  27.448  1.00  0.00     0.051 A 
ATOM      7  C   UNL     1     -47.276  34.233  25.959  1.00  0.00    -0.028 A 
ATOM      8  N   UNL     1     -45.937  33.547  28.309  1.00  0.00    -0.262 NA
ATOM      9  H   UNL     1     -46.199  31.597  27.795  1.00  0.00     0.086 H 
ATOM     10  H   UNL     1     -47.780  34.547  25.050  1.00  0.00     0.065 H 
ATOM     11  C   UNL     1     -46.150  34.836  27.974  1.00  0.00     0.034 A 
ATOM     12  H   UNL     1     -45.769  35.557  28.693  1.00  0.00     0.084 H 
BRANCH   5  13
ATOM     13  N   UNL     1     -47.526  31.825  25.411  1.00  0.00    -0.299 N 
ATOM     14  C   UNL     1     -48.654  30.001  24.715  1.00  0.00     0.033 A 
ATOM     15  C   UNL     1     -48.493  30.897  25.750  1.00  0.00     0.021 A 
ATOM     16  C   UNL     1     -47.812  30.410  23.651  1.00  0.00     0.071 A 
ATOM     17  H   UNL     1     -48.980  30.892  26.714  1.00  0.00     0.083 H 
ATOM     18  C   UNL     1     -47.104  31.522  24.113  1.00  0.00     0.150 A 
ATOM     19  C   UNL     1     -47.556  30.003  22.330  1.00  0.00     0.137 A 
ATOM     20  N   UNL     1     -46.188  32.202  23.392  1.00  0.00    -0.218 NA
ATOM     21  N   UNL     1     -46.635  30.659  21.603  1.00  0.00    -0.219 NA
ATOM     22  C   UNL     1     -46.007  31.701  22.166  1.00  0.00     0.120 A 
ATOM     23  H   UNL     1     -45.266  32.201  21.549  1.00  0.00     0.106 H 
BRANCH  14  24
ATOM     24  C   UNL     1     -49.552  28.850  24.743  1.00  0.00     0.095 A 
ATOM     25  N   UNL     1     -50.325  26.938  25.196  1.00  0.00    -0.275 N 
ATOM     26  C   UNL     1     -51.208  27.459  24.296  1.00  0.00     0.025 A 
ATOM     27  N   UNL     1     -49.301  27.762  25.482  1.00  0.00    -0.173 NA
ATOM     28  C   UNL     1     -50.721  28.704  23.969  1.00  0.00    -0.016 A 
ATOM     29  H   UNL     1     -52.078  26.913  23.960  1.00  0.00     0.084 H 
ATOM     30  H   UNL     1     -51.151  29.405  23.265  1.00  0.00     0.066 H 
BRANCH  25  31
ATOM     31  C   UNL     1     -50.389  25.642  25.827  1.00  0.00     0.030 C 
ATOM     32  H   UNL     1     -51.428  25.444  26.103  1.00  0.00     0.048 H 
ATOM     33  H   UNL     1     -50.036  24.880  25.129  1.00  0.00     0.048 H 
ATOM     34  H   UNL     1     -49.752  25.660  26.715  1.00  0.00     0.048 H 
ENDBRANCH  25  31
ENDBRANCH  14  24
BRANCH  19  35
ATOM     35  N   UNL     1     -48.224  28.974  21.674  1.00  0.00    -0.383 N 
ATOM     36  H   UNL     1     -48.996  29.291  21.101  1.00  0.00     0.158 HD
ATOM     37  H   UNL     1     -47.550  28.384  21.199  1.00  0.00     0.158 HD
ENDBRANCH  19  35
ENDBRANCH   5  13
ENDBRANCH   1   4
BRANCH   1  38
ATOM     38  O   UNL     1     -46.910  37.521  27.705  1.00  0.00    -0.489 OA
BRANCH  38  39
ATOM     39  C   UNL     1     -45.922  38.466  27.759  1.00  0.00     0.122 A 
ATOM     40  C   UNL     1     -45.175  38.450  28.936  1.00  0.00    -0.019 A 
ATOM     41  C   UNL     1     -45.628  39.415  26.779  1.00  0.00     0.007 A 
ATOM     42  C   UNL     1     -44.139  39.363  29.124  1.00  0.00    -0.049 A 
ATOM     43  H   UNL     1     -45.400  37.722  29.710  1.00  0.00     0.066 H 
ATOM     44  C   UNL     1     -44.600  40.337  26.938  1.00  0.00     0.076 A 
ATOM     45  H   UNL     1     -46.197  39.478  25.857  1.00  0.00     0.069 H 
ATOM     46  C   UNL     1     -43.848  40.306  28.128  1.00  0.00     0.001 A 
ATOM     47  H   UNL     1     -43.568  39.335  30.048  1.00  0.00     0.063 H 
ATOM     48  N   UNL     1     -44.355  41.223  25.956  1.00  0.00    -0.231 NA
ATOM     49  C   UNL     1     -42.821  41.241  28.274  1.00  0.00    -0.049 A 
ATOM     50  C   UNL     1     -43.354  42.120  26.104  1.00  0.00     0.129 A 
ATOM     51  C   UNL     1     -42.576  42.156  27.256  1.00  0.00    -0.019 A 
ATOM     52  H   UNL     1     -42.213  41.268  29.175  1.00  0.00     0.063 H 
ATOM     53  H   UNL     1     -41.789  42.892  27.370  1.00  0.00     0.066 H 
BRANCH  50  54
ATOM     54  N   UNL     1     -43.130  43.048  25.072  1.00  0.00    -0.351 N 
ATOM     55  C   UNL     1     -41.859  43.499  24.585  1.00  0.00     0.047 C 
ATOM     56  C   UNL     1     -43.670  42.926  23.747  1.00  0.00     0.047 C 
ATOM     57  C   UNL     1     -42.593  43.935  23.301  1.00  0.00     0.089 C 
ATOM     58  H   UNL     1     -41.133  42.689  24.455  1.00  0.00     0.052 H 
ATOM     59  H   UNL     1     -41.431  44.309  25.180  1.00  0.00     0.052 H 
ATOM     60  H   UNL     1     -43.567  41.920  23.327  1.00  0.00     0.052 H 
ATOM     61  H   UNL     1     -44.704  43.272  23.672  1.00  0.00     0.052 H 
ATOM     62  H   UNL     1     -42.939  44.976  23.340  1.00  0.00     0.064 H 
BRANCH  57  63
ATOM     63  O   UNL     1     -41.922  43.678  22.048  1.00  0.00    -0.389 OA
ATOM     64  H   UNL     1     -41.997  42.717  21.921  1.00  0.00     0.211 HD
ENDBRANCH  57  63
ENDBRANCH  50  54
ENDBRANCH  38  39
ENDBRANCH   1  38
TORSDOF 9
ENDMDL
MODEL 2
REMARK VINA RESULT:     -10.6      2.776     12.569
REMARK SMILES Cn1ccc(-c2cn(-c3cncc(COc4ccc5ccc(N6CC(O)C6)nc5c4)c3)c3ncnc(N)c23)n1
REMARK SMILES IDX 14 1 13 4 9 5 10 6 31 7 11 8 12 11 8 13 6 14 7 15 38 16
REMARK SMILES IDX 32 18 36 19 33 20 35 21 34 22 5 24 2 25 3 26 39 27 4 28 1 31
REMARK SMILES IDX 37 35 15 38 16 39 17 40 30 41 18 42 29 44 19 46 28 48 20 49
REMARK SMILES IDX 22 50 21 51 23 54 24 55 27 56 25 57 26 63
REMARK H PARENT 14 2 14 3 10 9 31 10 12 12 7 17 34 23 3 29 4 30 1 32 1 33 1 34
REMARK H PARENT 37 36 37 37 17 43 30 45 18 47 20 52 21 53 24 58 24 59 27 60
REMARK H PARENT 27 61 25 62 26 64
REMARK Flexibility Score: inf
ROOT
ATOM      1  C   UNL     1     -45.774  34.429  27.752  1.00  0.00     0.115 C 
ATOM      2  H   UNL     1     -45.163  34.597  26.857  1.00  0.00     0.076 H 
ATOM      3  H   UNL     1     -45.276  33.626  28.310  1.00  0.00     0.076 H 
ENDROOT
BRANCH   1   4
ATOM      4  C   UNL     1     -45.813  35.725  28.519  1.00  0.00     0.010 A 
ATOM      5  C   UNL     1     -45.313  38.094  28.757  1.00  0.00     0.066 A 
ATOM      6  C   UNL     1     -45.880  38.009  30.027  1.00  0.00     0.051 A 
ATOM      7  C   UNL     1     -45.280  36.917  28.005  1.00  0.00    -0.028 A 
ATOM      8  N   UNL     1     -46.387  36.872  30.566  1.00  0.00    -0.262 NA
ATOM      9  H   UNL     1     -45.944  38.852  30.706  1.00  0.00     0.086 H 
ATOM     10  H   UNL     1     -44.871  36.891  27.000  1.00  0.00     0.065 H 
ATOM     11  C   UNL     1     -46.339  35.761  29.803  1.00  0.00     0.034 A 
ATOM     12  H   UNL     1     -46.752  34.873  30.274  1.00  0.00     0.084 H 
BRANCH   5  13
ATOM     13  N   UNL     1     -44.799  39.338  28.267  1.00  0.00    -0.299 N 
ATOM     14  C   UNL     1     -44.571  41.178  26.984  1.00  0.00     0.033 A 
ATOM     15  C   UNL     1     -45.334  40.054  27.213  1.00  0.00     0.021 A 
ATOM     16  C   UNL     1     -43.553  41.220  27.969  1.00  0.00     0.071 A 
ATOM     17  H   UNL     1     -46.194  39.711  26.656  1.00  0.00     0.083 H 
ATOM     18  C   UNL     1     -43.696  40.059  28.734  1.00  0.00     0.150 A 
ATOM     19  C   UNL     1     -42.522  42.100  28.345  1.00  0.00     0.137 A 
ATOM     20  N   UNL     1     -42.905  39.724  29.775  1.00  0.00    -0.218 NA
ATOM     21  N   UNL     1     -41.716  41.774  29.369  1.00  0.00    -0.219 NA
ATOM     22  C   UNL     1     -41.942  40.620  30.013  1.00  0.00     0.120 A 
ATOM     23  H   UNL     1     -41.266  40.390  30.831  1.00  0.00     0.106 H 
BRANCH  14  24
ATOM     24  C   UNL     1     -44.806  42.140  25.911  1.00  0.00     0.095 A 
ATOM     25  N   UNL     1     -44.470  43.356  24.219  1.00  0.00    -0.275 N 
ATOM     26  C   UNL     1     -45.715  43.709  24.651  1.00  0.00     0.025 A 
ATOM     27  N   UNL     1     -43.889  42.406  24.973  1.00  0.00    -0.173 NA
ATOM     28  C   UNL     1     -45.957  42.941  25.766  1.00  0.00    -0.016 A 
ATOM     29  H   UNL     1     -46.304  44.466  24.154  1.00  0.00     0.084 H 
ATOM     30  H   UNL     1     -46.841  42.963  26.389  1.00  0.00     0.066 H 
BRANCH  25  31
ATOM     31  C   UNL     1     -43.758  43.895  23.085  1.00  0.00     0.030 C 
ATOM     32  H   UNL     1     -44.059  44.936  22.951  1.00  0.00     0.048 H 
ATOM     33  H   UNL     1     -42.683  43.838  23.271  1.00  0.00     0.048 H 
ATOM     34  H   UNL     1     -44.016  43.302  22.204  1.00  0.00     0.048 H 
ENDBRANCH  25  31
ENDBRANCH  14  24
BRANCH  19  35
ATOM     35  N   UNL     1     -42.284  43.337  27.757  1.00  0.00    -0.383 N 
ATOM     36  H   UNL     1     -41.595  43.895  28.246  1.00  0.00     0.158 HD
ATOM     37  H   UNL     1     -42.109  43.212  26.766  1.00  0.00     0.158 HD
ENDBRANCH  19  35
ENDBRANCH   5  13
ENDBRANCH   1   4
BRANCH   1  38
ATOM     38  O   UNL     1     -47.060  34.007  27.290  1.00  0.00    -0.489 OA
BRANCH  38  39
ATOM     39  C   UNL     1     -47.128  33.068  26.298  1.00  0.00     0.122 A 
ATOM     40  C   UNL     1     -46.405  33.392  25.150  1.00  0.00    -0.019 A 
ATOM     41  C   UNL     1     -47.845  31.871  26.336  1.00  0.00     0.007 A 
ATOM     42  C   UNL     1     -46.392  32.523  24.060  1.00  0.00    -0.049 A 
ATOM     43  H   UNL     1     -45.851  34.324  25.105  1.00  0.00     0.066 H 
ATOM     44  C   UNL     1     -47.848  30.986  25.265  1.00  0.00     0.076 A 
ATOM     45  H   UNL     1     -48.437  31.589  27.200  1.00  0.00     0.069 H 
ATOM     46  C   UNL     1     -47.110  31.320  24.114  1.00  0.00     0.001 A 
ATOM     47  H   UNL     1     -45.823  32.793  23.173  1.00  0.00     0.063 H 
ATOM     48  N   UNL     1     -48.551  29.843  25.361  1.00  0.00    -0.231 NA
ATOM     49  C   UNL     1     -47.126  30.422  23.045  1.00  0.00    -0.049 A 
ATOM     50  C   UNL     1     -48.555  28.975  24.323  1.00  0.00     0.129 A 
ATOM     51  C   UNL     1     -47.857  29.243  23.150  1.00  0.00    -0.019 A 
ATOM     52  H   UNL     1     -46.580  30.632  22.129  1.00  0.00     0.063 H 
ATOM     53  H   UNL     1     -47.884  28.549  22.319  1.00  0.00     0.066 H 
BRANCH  50  54
ATOM     54  N   UNL     1     -49.312  27.796  24.440  1.00  0.00    -0.351 N 
ATOM     55  C   UNL     1     -48.961  26.621  25.185  1.00  0.00     0.047 C 
ATOM     56  C   UNL     1     -50.676  27.755  24.888  1.00  0.00     0.047 C 
ATOM     57  C   UNL     1     -50.458  26.253  25.158  1.00  0.00     0.089 C 
ATOM     58  H   UNL     1     -48.553  26.844  26.177  1.00  0.00     0.052 H 
ATOM     59  H   UNL     1     -48.301  25.945  24.639  1.00  0.00     0.052 H 
ATOM     60  H   UNL     1     -50.859  28.366  25.779  1.00  0.00     0.052 H 
ATOM     61  H   UNL     1     -51.393  27.996  24.100  1.00  0.00     0.052 H 
ATOM     62  H   UNL     1     -50.726  25.620  24.302  1.00  0.00     0.064 H 
BRANCH  57  63
ATOM     63  O   UNL     1     -51.017  25.711  26.375  1.00  0.00    -0.389 OA
ATOM     64  H   UNL     1     -51.939  25.497  26.149  1.00  0.00     0.211 HD
ENDBRANCH  57  63
ENDBRANCH  50  54
ENDBRANCH  38  39
ENDBRANCH   1  38
TORSDOF 9
ENDMDL
MODEL 3
REMARK VINA RESULT:     -10.6      1.782      2.518
REMARK SMILES Cn1ccc(-c2cn(-c3cncc(COc4ccc5ccc(N6CC(O)C6)nc5c4)c3)c3ncnc(N)c23)n1
REMARK SMILES IDX 14 1 13 4 9 5 10 6 31 7 11 8 12 11 8 13 6 14 7 15 38 16
REMARK SMILES IDX 32 18 36 19 33 20 35 21 34 22 5 24 2 25 3 26 39 27 4 28 1 31
REMARK SMILES IDX 37 35 15 38 16 39 17 40 30 41 18 42 29 44 19 46 28 48 20 49
REMARK SMILES IDX 22 50 21 51 23 54 24 55 27 56 25 57 26 63
REMARK H PARENT 14 2 14 3 10 9 31 10 12 12 7 17 34 23 3 29 4 30 1 32 1 33 1 34
REMARK H PARENT 37 36 37 37 17 43 30 45 18 47 20 52 21 53 24 58 24 59 27 60
REMARK H PARENT 27 61 25 62 26 64
REMARK Flexibility Score: inf
ROOT
ATOM      1  C   UNL     1     -48.661  35.072  27.255  1.00  0.00     0.115 C 
ATOM      2  H   UNL     1     -49.736  34.894  27.133  1.00  0.00     0.076 H 
ATOM      3  H   UNL     1     -48.438  34.861  28.309  1.00  0.00     0.076 H 
ENDROOT
BRANCH   1   4
ATOM      4  C   UNL     1     -47.941  34.138  26.317  1.00  0.00     0.010 A 
ATOM      5  C   UNL     1     -47.768  32.051  25.080  1.00  0.00     0.066 A 
ATOM      6  C   UNL     1     -46.516  32.493  24.656  1.00  0.00     0.051 A 
ATOM      7  C   UNL     1     -48.477  32.900  25.933  1.00  0.00    -0.028 A 
ATOM      8  N   UNL     1     -45.956  33.674  25.021  1.00  0.00    -0.262 NA
ATOM      9  H   UNL     1     -45.870  31.912  24.009  1.00  0.00     0.086 H 
ATOM     10  H   UNL     1     -49.466  32.646  26.302  1.00  0.00     0.065 H 
ATOM     11  C   UNL     1     -46.677  34.464  25.842  1.00  0.00     0.034 A 
ATOM     12  H   UNL     1     -46.191  35.397  26.111  1.00  0.00     0.084 H 
BRANCH   5  13
ATOM     13  N   UNL     1     -48.283  30.787  24.646  1.00  0.00    -0.299 N 
ATOM     14  C   UNL     1     -49.166  28.714  24.737  1.00  0.00     0.033 A 
ATOM     15  C   UNL     1     -48.799  29.814  25.481  1.00  0.00     0.021 A 
ATOM     16  C   UNL     1     -48.941  29.019  23.372  1.00  0.00     0.071 A 
ATOM     17  H   UNL     1     -48.838  29.933  26.554  1.00  0.00     0.083 H 
ATOM     18  C   UNL     1     -48.369  30.293  23.340  1.00  0.00     0.150 A 
ATOM     19  C   UNL     1     -49.162  28.395  22.130  1.00  0.00     0.137 A 
ATOM     20  N   UNL     1     -48.000  30.941  22.215  1.00  0.00    -0.218 NA
ATOM     21  N   UNL     1     -48.784  29.020  21.001  1.00  0.00    -0.219 NA
ATOM     22  C   UNL     1     -48.227  30.234  21.103  1.00  0.00     0.120 A 
ATOM     23  H   UNL     1     -47.930  30.703  20.170  1.00  0.00     0.106 H 
BRANCH  14  24
ATOM     24  C   UNL     1     -49.698  27.473  25.292  1.00  0.00     0.095 A 
ATOM     25  N   UNL     1     -51.027  26.104  26.195  1.00  0.00    -0.275 N 
ATOM     26  C   UNL     1     -49.859  25.412  26.069  1.00  0.00     0.025 A 
ATOM     27  N   UNL     1     -50.956  27.366  25.735  1.00  0.00    -0.173 NA
ATOM     28  C   UNL     1     -48.965  26.286  25.494  1.00  0.00    -0.016 A 
ATOM     29  H   UNL     1     -49.756  24.388  26.401  1.00  0.00     0.084 H 
ATOM     30  H   UNL     1     -47.926  26.091  25.261  1.00  0.00     0.066 H 
BRANCH  25  31
ATOM     31  C   UNL     1     -52.266  25.624  26.758  1.00  0.00     0.030 C 
ATOM     32  H   UNL     1     -52.944  26.473  26.875  1.00  0.00     0.048 H 
ATOM     33  H   UNL     1     -52.708  24.883  26.087  1.00  0.00     0.048 H 
ATOM     34  H   UNL     1     -52.050  25.167  27.727  1.00  0.00     0.048 H 
ENDBRANCH  25  31
ENDBRANCH  14  24
BRANCH  19  35
ATOM     35  N   UNL     1     -49.794  27.169  21.962  1.00  0.00    -0.383 N 
ATOM     36  H   UNL     1     -50.578  27.026  22.587  1.00  0.00     0.158 HD
ATOM     37  H   UNL     1     -49.999  27.027  20.978  1.00  0.00     0.158 HD
ENDBRANCH  19  35
ENDBRANCH   5  13
ENDBRANCH   1   4
BRANCH   1  38
ATOM     38  O   UNL     1     -48.444  36.453  26.955  1.00  0.00    -0.489 OA
BRANCH  38  39
ATOM     39  C   UNL     1     -47.392  37.099  27.546  1.00  0.00     0.122 A 
ATOM     40  C   UNL     1     -47.064  36.619  28.814  1.00  0.00    -0.019 A 
ATOM     41  C   UNL     1     -46.665  38.163  27.011  1.00  0.00     0.007 A 
ATOM     42  C   UNL     1     -46.014  37.190  29.531  1.00  0.00    -0.049 A 
ATOM     43  H   UNL     1     -47.628  35.797  29.245  1.00  0.00     0.066 H 
ATOM     44  C   UNL     1     -45.612  38.750  27.703  1.00  0.00     0.076 A 
ATOM     45  H   UNL     1     -46.899  38.582  26.039  1.00  0.00     0.069 H 
ATOM     46  C   UNL     1     -45.286  38.254  28.979  1.00  0.00     0.001 A 
ATOM     47  H   UNL     1     -45.773  36.804  30.518  1.00  0.00     0.063 H 
ATOM     48  N   UNL     1     -44.941  39.768  27.135  1.00  0.00    -0.231 NA
ATOM     49  C   UNL     1     -44.228  38.857  29.662  1.00  0.00    -0.049 A 
ATOM     50  C   UNL     1     -43.914  40.342  27.800  1.00  0.00     0.129 A 
ATOM     51  C   UNL     1     -43.540  39.911  29.069  1.00  0.00    -0.019 A 
ATOM     52  H   UNL     1     -43.937  38.520  30.654  1.00  0.00     0.063 H 
ATOM     53  H   UNL     1     -42.727  40.392  29.600  1.00  0.00     0.066 H 
BRANCH  50  54
ATOM     54  N   UNL     1     -43.239  41.416  27.194  1.00  0.00    -0.351 N 
ATOM     55  C   UNL     1     -43.685  42.181  26.064  1.00  0.00     0.047 C 
ATOM     56  C   UNL     1     -42.793  42.587  27.896  1.00  0.00     0.047 C 
ATOM     57  C   UNL     1     -42.705  43.279  26.522  1.00  0.00     0.089 C 
ATOM     58  H   UNL     1     -44.745  42.451  26.115  1.00  0.00     0.052 H 
ATOM     59  H   UNL     1     -43.452  41.711  25.107  1.00  0.00     0.052 H 
ATOM     60  H   UNL     1     -43.547  42.999  28.576  1.00  0.00     0.052 H 
ATOM     61  H   UNL     1     -41.843  42.440  28.415  1.00  0.00     0.052 H 
ATOM     62  H   UNL     1     -41.714  43.187  26.058  1.00  0.00     0.064 H 
BRANCH  57  63
ATOM     63  O   UNL     1     -43.170  44.645  26.435  1.00  0.00    -0.389 OA
ATOM     64  H   UNL     1     -43.523  44.728  25.533  1.00  0.00     0.211 HD
ENDBRANCH  57  63
ENDBRANCH  50  54
ENDBRANCH  38  39
ENDBRANCH   1  38
TORSDOF 9
ENDMDL
MODEL 4
REMARK VINA RESULT:     -10.1      2.840     12.194
REMARK SMILES Cn1ccc(-c2cn(-c3cncc(COc4ccc5ccc(N6CC(O)C6)nc5c4)c3)c3ncnc(N)c23)n1
REMARK SMILES IDX 14 1 13 4 9 5 10 6 31 7 11 8 12 11 8 13 6 14 7 15 38 16
REMARK SMILES IDX 32 18 36 19 33 20 35 21 34 22 5 24 2 25 3 26 39 27 4 28 1 31
REMARK SMILES IDX 37 35 15 38 16 39 17 40 30 41 18 42 29 44 19 46 28 48 20 49
REMARK SMILES IDX 22 50 21 51 23 54 24 55 27 56 25 57 26 63
REMARK H PARENT 14 2 14 3 10 9 31 10 12 12 7 17 34 23 3 29 4 30 1 32 1 33 1 34
REMARK H PARENT 37 36 37 37 17 43 30 45 18 47 20 52 21 53 24 58 24 59 27 60
REMARK H PARENT 27 61 25 62 26 64
REMARK Flexibility Score: inf
ROOT
ATOM      1  C   UNL     1     -48.152  35.919  28.458  1.00  0.00     0.115 C 
ATOM      2  H   UNL     1     -47.787  34.940  28.790  1.00  0.00     0.076 H 
ATOM      3  H   UNL     1     -49.020  36.147  29.089  1.00  0.00     0.076 H 
ENDROOT
BRANCH   1   4
ATOM      4  C   UNL     1     -47.029  36.906  28.647  1.00  0.00     0.010 A 
ATOM      5  C   UNL     1     -45.834  38.939  28.049  1.00  0.00     0.066 A 
ATOM      6  C   UNL     1     -44.911  38.596  29.035  1.00  0.00     0.051 A 
ATOM      7  C   UNL     1     -46.904  38.060  27.859  1.00  0.00    -0.028 A 
ATOM      8  N   UNL     1     -44.987  37.480  29.802  1.00  0.00    -0.262 NA
ATOM      9  H   UNL     1     -44.033  39.192  29.257  1.00  0.00     0.086 H 
ATOM     10  H   UNL     1     -47.680  38.252  27.124  1.00  0.00     0.065 H 
ATOM     11  C   UNL     1     -46.038  36.663  29.589  1.00  0.00     0.034 A 
ATOM     12  H   UNL     1     -46.059  35.780  30.222  1.00  0.00     0.084 H 
BRANCH   5  13
ATOM     13  N   UNL     1     -45.676  40.139  27.282  1.00  0.00    -0.299 N 
ATOM     14  C   UNL     1     -44.690  41.764  26.071  1.00  0.00     0.033 A 
ATOM     15  C   UNL     1     -44.495  40.552  26.695  1.00  0.00     0.021 A 
ATOM     16  C   UNL     1     -46.059  42.107  26.204  1.00  0.00     0.071 A 
ATOM     17  H   UNL     1     -43.575  39.993  26.787  1.00  0.00     0.083 H 
ATOM     18  C   UNL     1     -46.643  41.102  26.979  1.00  0.00     0.150 A 
ATOM     19  C   UNL     1     -46.909  43.132  25.753  1.00  0.00     0.137 A 
ATOM     20  N   UNL     1     -47.944  41.068  27.338  1.00  0.00    -0.218 NA
ATOM     21  N   UNL     1     -48.204  43.122  26.115  1.00  0.00    -0.219 NA
ATOM     22  C   UNL     1     -48.642  42.113  26.880  1.00  0.00     0.120 A 
ATOM     23  H   UNL     1     -49.692  42.143  27.156  1.00  0.00     0.106 H 
BRANCH  14  24
ATOM     24  C   UNL     1     -43.647  42.530  25.393  1.00  0.00     0.095 A 
ATOM     25  N   UNL     1     -42.584  43.531  23.869  1.00  0.00    -0.275 N 
ATOM     26  C   UNL     1     -41.750  43.568  24.947  1.00  0.00     0.025 A 
ATOM     27  N   UNL     1     -43.746  42.898  24.111  1.00  0.00    -0.173 NA
ATOM     28  C   UNL     1     -42.411  42.908  25.957  1.00  0.00    -0.016 A 
ATOM     29  H   UNL     1     -40.775  44.034  24.907  1.00  0.00     0.084 H 
ATOM     30  H   UNL     1     -42.046  42.722  26.959  1.00  0.00     0.066 H 
BRANCH  25  31
ATOM     31  C   UNL     1     -42.335  44.078  22.557  1.00  0.00     0.030 C 
ATOM     32  H   UNL     1     -41.832  43.317  21.955  1.00  0.00     0.048 H 
ATOM     33  H   UNL     1     -43.284  44.355  22.092  1.00  0.00     0.048 H 
ATOM     34  H   UNL     1     -41.701  44.962  22.667  1.00  0.00     0.048 H 
ENDBRANCH  25  31
ENDBRANCH  14  24
BRANCH  19  35
ATOM     35  N   UNL     1     -46.525  44.165  24.906  1.00  0.00    -0.383 N 
ATOM     36  H   UNL     1     -46.685  43.967  23.925  1.00  0.00     0.158 HD
ATOM     37  H   UNL     1     -46.920  45.038  25.237  1.00  0.00     0.158 HD
ENDBRANCH  19  35
ENDBRANCH   5  13
ENDBRANCH   1   4
BRANCH   1  38
ATOM     38  O   UNL     1     -48.542  35.762  27.091  1.00  0.00    -0.489 OA
BRANCH  38  39
ATOM     39  C   UNL     1     -48.116  34.657  26.407  1.00  0.00     0.122 A 
ATOM     40  C   UNL     1     -46.863  34.798  25.812  1.00  0.00    -0.019 A 
ATOM     41  C   UNL     1     -48.813  33.458  26.251  1.00  0.00     0.007 A 
ATOM     42  C   UNL     1     -46.310  33.748  25.081  1.00  0.00    -0.049 A 
ATOM     43  H   UNL     1     -46.314  35.729  25.919  1.00  0.00     0.066 H 
ATOM     44  C   UNL     1     -48.285  32.394  25.529  1.00  0.00     0.076 A 
ATOM     45  H   UNL     1     -49.799  33.312  26.678  1.00  0.00     0.069 H 
ATOM     46  C   UNL     1     -47.017  32.546  24.938  1.00  0.00     0.001 A 
ATOM     47  H   UNL     1     -45.332  33.876  24.624  1.00  0.00     0.063 H 
ATOM     48  N   UNL     1     -48.998  31.258  25.418  1.00  0.00    -0.231 NA
ATOM     49  C   UNL     1     -46.502  31.468  24.213  1.00  0.00    -0.049 A 
ATOM     50  C   UNL     1     -48.489  30.219  24.720  1.00  0.00     0.129 A 
ATOM     51  C   UNL     1     -47.246  30.299  24.101  1.00  0.00    -0.019 A 
ATOM     52  H   UNL     1     -45.531  31.533  23.729  1.00  0.00     0.063 H 
ATOM     53  H   UNL     1     -46.858  29.465  23.528  1.00  0.00     0.066 H 
BRANCH  50  54
ATOM     54  N   UNL     1     -49.261  29.049  24.603  1.00  0.00    -0.351 N 
ATOM     55  C   UNL     1     -50.530  28.921  23.944  1.00  0.00     0.047 C 
ATOM     56  C   UNL     1     -48.775  27.815  24.053  1.00  0.00     0.047 C 
ATOM     57  C   UNL     1     -50.251  27.407  23.873  1.00  0.00     0.089 C 
ATOM     58  H   UNL     1     -50.569  29.434  22.977  1.00  0.00     0.052 H 
ATOM     59  H   UNL     1     -51.373  29.215  24.571  1.00  0.00     0.052 H 
ATOM     60  H   UNL     1     -48.212  27.945  23.122  1.00  0.00     0.052 H 
ATOM     61  H   UNL     1     -48.203  27.222  24.771  1.00  0.00     0.052 H 
ATOM     62  H   UNL     1     -50.652  26.858  24.736  1.00  0.00     0.064 H 
BRANCH  57  63
ATOM     63  O   UNL     1     -50.608  26.735  22.645  1.00  0.00    -0.389 OA
ATOM     64  H   UNL     1     -49.861  26.904  22.045  1.00  0.00     0.211 HD
ENDBRANCH  57  63
ENDBRANCH  50  54
ENDBRANCH  38  39
ENDBRANCH   1  38
TORSDOF 9
ENDMDL
MODEL 5
REMARK VINA RESULT:      -9.9      1.966      2.400
REMARK SMILES Cn1ccc(-c2cn(-c3cncc(COc4ccc5ccc(N6CC(O)C6)nc5c4)c3)c3ncnc(N)c23)n1
REMARK SMILES IDX 14 1 13 4 9 5 10 6 31 7 11 8 12 11 8 13 6 14 7 15 38 16
REMARK SMILES IDX 32 18 36 19 33 20 35 21 34 22 5 24 2 25 3 26 39 27 4 28 1 31
REMARK SMILES IDX 37 35 15 38 16 39 17 40 30 41 18 42 29 44 19 46 28 48 20 49
REMARK SMILES IDX 22 50 21 51 23 54 24 55 27 56 25 57 26 63
REMARK H PARENT 14 2 14 3 10 9 31 10 12 12 7 17 34 23 3 29 4 30 1 32 1 33 1 34
REMARK H PARENT 37 36 37 37 17 43 30 45 18 47 20 52 21 53 24 58 24 59 27 60
REMARK H PARENT 27 61 25 62 26 64
REMARK Flexibility Score: inf
ROOT
ATOM      1  C   UNL     1     -46.563  35.635  26.687  1.00  0.00     0.115 C 
ATOM      2  H   UNL     1     -46.059  35.316  27.607  1.00  0.00     0.076 H 
ATOM      3  H   UNL     1     -45.818  35.539  25.887  1.00  0.00     0.076 H 
ENDROOT
BRANCH   1   4
ATOM      4  C   UNL     1     -47.745  34.724  26.483  1.00  0.00     0.010 A 
ATOM      5  C   UNL     1     -48.761  32.682  25.637  1.00  0.00     0.066 A 
ATOM      6  C   UNL     1     -49.974  33.177  26.113  1.00  0.00     0.051 A 
ATOM      7  C   UNL     1     -47.636  33.488  25.827  1.00  0.00    -0.028 A 
ATOM      8  N   UNL     1     -50.122  34.375  26.734  1.00  0.00    -0.262 NA
ATOM      9  H   UNL     1     -50.914  32.648  26.005  1.00  0.00     0.086 H 
ATOM     10  H   UNL     1     -46.647  33.178  25.504  1.00  0.00     0.065 H 
ATOM     11  C   UNL     1     -49.010  35.118  26.900  1.00  0.00     0.034 A 
ATOM     12  H   UNL     1     -49.174  36.070  27.398  1.00  0.00     0.084 H 
BRANCH   5  13
ATOM     13  N   UNL     1     -48.695  31.405  24.991  1.00  0.00    -0.299 N 
ATOM     14  C   UNL     1     -48.179  29.242  24.621  1.00  0.00     0.033 A 
ATOM     15  C   UNL     1     -48.093  30.280  25.522  1.00  0.00     0.021 A 
ATOM     16  C   UNL     1     -48.921  29.697  23.503  1.00  0.00     0.071 A 
ATOM     17  H   UNL     1     -47.601  30.286  26.484  1.00  0.00     0.083 H 
ATOM     18  C   UNL     1     -49.206  31.044  23.740  1.00  0.00     0.150 A 
ATOM     19  C   UNL     1     -49.421  29.147  22.309  1.00  0.00     0.137 A 
ATOM     20  N   UNL     1     -49.897  31.842  22.899  1.00  0.00    -0.218 NA
ATOM     21  N   UNL     1     -50.097  29.932  21.453  1.00  0.00    -0.219 NA
ATOM     22  C   UNL     1     -50.288  31.216  21.784  1.00  0.00     0.120 A 
ATOM     23  H   UNL     1     -50.834  31.819  21.064  1.00  0.00     0.106 H 
BRANCH  14  24
ATOM     24  C   UNL     1     -47.602  27.915  24.821  1.00  0.00     0.095 A 
ATOM     25  N   UNL     1     -47.262  25.992  25.621  1.00  0.00    -0.275 N 
ATOM     26  C   UNL     1     -46.271  26.158  24.698  1.00  0.00     0.025 A 
ATOM     27  N   UNL     1     -48.084  27.051  25.721  1.00  0.00    -0.173 NA
ATOM     28  C   UNL     1     -46.458  27.413  24.168  1.00  0.00    -0.016 A 
ATOM     29  H   UNL     1     -45.526  25.398  24.509  1.00  0.00     0.084 H 
ATOM     30  H   UNL     1     -45.847  27.898  23.418  1.00  0.00     0.066 H 
BRANCH  25  31
ATOM     31  C   UNL     1     -47.485  24.839  26.459  1.00  0.00     0.030 C 
ATOM     32  H   UNL     1     -48.494  24.903  26.874  1.00  0.00     0.048 H 
ATOM     33  H   UNL     1     -47.385  23.929  25.862  1.00  0.00     0.048 H 
ATOM     34  H   UNL     1     -46.739  24.845  27.259  1.00  0.00     0.048 H 
ENDBRANCH  25  31
ENDBRANCH  14  24
BRANCH  19  35
ATOM     35  N   UNL     1     -49.310  27.809  21.946  1.00  0.00    -0.383 N 
ATOM     36  H   UNL     1     -50.020  27.216  22.357  1.00  0.00     0.158 HD
ATOM     37  H   UNL     1     -49.223  27.740  20.938  1.00  0.00     0.158 HD
ENDBRANCH  19  35
ENDBRANCH   5  13
ENDBRANCH   1   4
BRANCH   1  38
ATOM     38  O   UNL     1     -46.930  37.003  26.880  1.00  0.00    -0.489 OA
BRANCH  38  39
ATOM     39  C   UNL     1     -46.005  37.867  27.400  1.00  0.00     0.122 A 
ATOM     40  C   UNL     1     -45.467  37.464  28.622  1.00  0.00    -0.019 A 
ATOM     41  C   UNL     1     -45.588  39.074  26.838  1.00  0.00     0.007 A 
ATOM     42  C   UNL     1     -44.516  38.253  29.266  1.00  0.00    -0.049 A 
ATOM     43  H   UNL     1     -45.790  36.531  29.075  1.00  0.00     0.066 H 
ATOM     44  C   UNL     1     -44.640  39.880  27.456  1.00  0.00     0.076 A 
ATOM     45  H   UNL     1     -45.995  39.436  25.900  1.00  0.00     0.069 H 
ATOM     46  C   UNL     1     -44.099  39.460  28.686  1.00  0.00     0.001 A 
ATOM     47  H   UNL     1     -44.108  37.923  30.218  1.00  0.00     0.063 H 
ATOM     48  N   UNL     1     -44.269  41.029  26.863  1.00  0.00    -0.231 NA
ATOM     49  C   UNL     1     -43.150  40.283  29.296  1.00  0.00    -0.049 A 
ATOM     50  C   UNL     1     -43.344  41.816  27.458  1.00  0.00     0.129 A 
ATOM     51  C   UNL     1     -42.774  41.471  28.678  1.00  0.00    -0.019 A 
ATOM     52  H   UNL     1     -42.704  40.012  30.250  1.00  0.00     0.063 H 
ATOM     53  H   UNL     1     -42.048  42.120  29.154  1.00  0.00     0.066 H 
BRANCH  50  54
ATOM     54  N   UNL     1     -42.987  43.022  26.828  1.00  0.00    -0.351 N 
ATOM     55  C   UNL     1     -42.159  43.170  25.666  1.00  0.00     0.047 C 
ATOM     56  C   UNL     1     -43.931  43.999  26.364  1.00  0.00     0.047 C 
ATOM     57  C   UNL     1     -42.795  44.563  25.488  1.00  0.00     0.089 C 
ATOM     58  H   UNL     1     -42.390  42.448  24.875  1.00  0.00     0.052 H 
ATOM     59  H   UNL     1     -41.092  43.166  25.893  1.00  0.00     0.052 H 
ATOM     60  H   UNL     1     -44.771  43.563  25.811  1.00  0.00     0.052 H 
ATOM     61  H   UNL     1     -44.291  44.658  27.157  1.00  0.00     0.052 H 
ATOM     62  H   UNL     1     -42.225  45.359  25.985  1.00  0.00     0.064 H 
BRANCH  57  63
ATOM     63  O   UNL     1     -43.131  44.958  24.139  1.00  0.00    -0.389 OA
ATOM     64  H   UNL     1     -44.054  44.673  24.021  1.00  0.00     0.211 HD
ENDBRANCH  57  63
ENDBRANCH  50  54
ENDBRANCH  38  39
ENDBRANCH   1  38
TORSDOF 9
ENDMDL
MODEL 6
REMARK VINA RESULT:      -9.8      2.837     12.126
REMARK SMILES Cn1ccc(-c2cn(-c3cncc(COc4ccc5ccc(N6CC(O)C6)nc5c4)c3)c3ncnc(N)c23)n1
REMARK SMILES IDX 14 1 13 4 9 5 10 6 31 7 11 8 12 11 8 13 6 14 7 15 38 16
REMARK SMILES IDX 32 18 36 19 33 20 35 21 34 22 5 24 2 25 3 26 39 27 4 28 1 31
REMARK SMILES IDX 37 35 15 38 16 39 17 40 30 41 18 42 29 44 19 46 28 48 20 49
REMARK SMILES IDX 22 50 21 51 23 54 24 55 27 56 25 57 26 63
REMARK H PARENT 14 2 14 3 10 9 31 10 12 12 7 17 34 23 3 29 4 30 1 32 1 33 1 34
REMARK H PARENT 37 36 37 37 17 43 30 45 18 47 20 52 21 53 24 58 24 59 27 60
REMARK H PARENT 27 61 25 62 26 64
REMARK Flexibility Score: inf
ROOT
ATOM      1  C   UNL     1     -47.407  36.994  28.278  1.00  0.00     0.115 C 
ATOM      2  H   UNL     1     -46.819  36.979  29.203  1.00  0.00     0.076 H 
ATOM      3  H   UNL     1     -48.351  36.488  28.513  1.00  0.00     0.076 H 
ENDROOT
BRANCH   1   4
ATOM      4  C   UNL     1     -47.607  38.437  27.895  1.00  0.00     0.010 A 
ATOM      5  C   UNL     1     -46.787  40.571  27.061  1.00  0.00     0.066 A 
ATOM      6  C   UNL     1     -48.068  41.068  27.293  1.00  0.00     0.051 A 
ATOM      7  C   UNL     1     -46.568  39.228  27.382  1.00  0.00    -0.028 A 
ATOM      8  N   UNL     1     -49.092  40.340  27.805  1.00  0.00    -0.262 NA
ATOM      9  H   UNL     1     -48.348  42.097  27.100  1.00  0.00     0.086 H 
ATOM     10  H   UNL     1     -45.606  38.750  27.221  1.00  0.00     0.065 H 
ATOM     11  C   UNL     1     -48.837  39.049  28.096  1.00  0.00     0.034 A 
ATOM     12  H   UNL     1     -49.683  38.504  28.507  1.00  0.00     0.084 H 
BRANCH   5  13
ATOM     13  N   UNL     1     -45.763  41.411  26.517  1.00  0.00    -0.299 N 
ATOM     14  C   UNL     1     -44.737  42.901  25.171  1.00  0.00     0.033 A 
ATOM     15  C   UNL     1     -45.934  42.282  25.457  1.00  0.00     0.021 A 
ATOM     16  C   UNL     1     -43.783  42.465  26.124  1.00  0.00     0.071 A 
ATOM     17  H   UNL     1     -46.875  42.383  24.937  1.00  0.00     0.083 H 
ATOM     18  C   UNL     1     -44.431  41.524  26.928  1.00  0.00     0.150 A 
ATOM     19  C   UNL     1     -42.443  42.751  26.441  1.00  0.00     0.137 A 
ATOM     20  N   UNL     1     -43.854  40.866  27.955  1.00  0.00    -0.218 NA
ATOM     21  N   UNL     1     -41.849  42.092  27.451  1.00  0.00    -0.219 NA
ATOM     22  C   UNL     1     -42.571  41.196  28.137  1.00  0.00     0.120 A 
ATOM     23  H   UNL     1     -42.054  40.681  28.941  1.00  0.00     0.106 H 
BRANCH  14  24
ATOM     24  C   UNL     1     -44.528  43.844  24.076  1.00  0.00     0.095 A 
ATOM     25  N   UNL     1     -43.648  44.800  22.412  1.00  0.00    -0.275 N 
ATOM     26  C   UNL     1     -44.717  45.586  22.732  1.00  0.00     0.025 A 
ATOM     27  N   UNL     1     -43.506  43.735  23.220  1.00  0.00    -0.173 NA
ATOM     28  C   UNL     1     -45.305  44.994  23.826  1.00  0.00    -0.016 A 
ATOM     29  H   UNL     1     -44.957  46.484  22.180  1.00  0.00     0.084 H 
ATOM     30  H   UNL     1     -46.170  45.350  24.369  1.00  0.00     0.066 H 
BRANCH  25  31
ATOM     31  C   UNL     1     -42.703  45.010  21.342  1.00  0.00     0.030 C 
ATOM     32  H   UNL     1     -42.328  46.034  21.409  1.00  0.00     0.048 H 
ATOM     33  H   UNL     1     -41.877  44.302  21.442  1.00  0.00     0.048 H 
ATOM     34  H   UNL     1     -43.219  44.850  20.392  1.00  0.00     0.048 H 
ENDBRANCH  25  31
ENDBRANCH  14  24
BRANCH  19  35
ATOM     35  N   UNL     1     -41.668  43.716  25.808  1.00  0.00    -0.383 N 
ATOM     36  H   UNL     1     -40.672  43.591  25.943  1.00  0.00     0.158 HD
ATOM     37  H   UNL     1     -41.962  43.803  24.841  1.00  0.00     0.158 HD
ENDBRANCH  19  35
ENDBRANCH   5  13
ENDBRANCH   1   4
BRANCH   1  38
ATOM     38  O   UNL     1     -46.658  36.251  27.312  1.00  0.00    -0.489 OA
BRANCH  38  39
ATOM     39  C   UNL     1     -47.247  35.175  26.706  1.00  0.00     0.122 A 
ATOM     40  C   UNL     1     -48.590  34.995  27.036  1.00  0.00    -0.019 A 
ATOM     41  C   UNL     1     -46.632  34.274  25.836  1.00  0.00     0.007 A 
ATOM     42  C   UNL     1     -49.310  33.933  26.492  1.00  0.00    -0.049 A 
ATOM     43  H   UNL     1     -49.076  35.685  27.720  1.00  0.00     0.066 H 
ATOM     44  C   UNL     1     -47.327  33.208  25.277  1.00  0.00     0.076 A 
ATOM     45  H   UNL     1     -45.585  34.364  25.568  1.00  0.00     0.069 H 
ATOM     46  C   UNL     1     -48.683  33.040  25.613  1.00  0.00     0.001 A 
ATOM     47  H   UNL     1     -50.356  33.808  26.762  1.00  0.00     0.063 H 
ATOM     48  N   UNL     1     -46.686  32.376  24.437  1.00  0.00    -0.231 NA
ATOM     49  C   UNL     1     -49.366  31.961  25.045  1.00  0.00    -0.049 A 
ATOM     50  C   UNL     1     -47.357  31.338  23.887  1.00  0.00     0.129 A 
ATOM     51  C   UNL     1     -48.696  31.103  24.180  1.00  0.00    -0.019 A 
ATOM     52  H   UNL     1     -50.413  31.778  25.275  1.00  0.00     0.063 H 
ATOM     53  H   UNL     1     -49.217  30.257  23.748  1.00  0.00     0.066 H 
BRANCH  50  54
ATOM     54  N   UNL     1     -46.660  30.471  23.027  1.00  0.00    -0.351 N 
ATOM     55  C   UNL     1     -45.325  30.644  22.531  1.00  0.00     0.047 C 
ATOM     56  C   UNL     1     -46.454  29.074  23.286  1.00  0.00     0.047 C 
ATOM     57  C   UNL     1     -45.319  29.130  22.245  1.00  0.00     0.089 C 
ATOM     58  H   UNL     1     -44.618  30.977  23.298  1.00  0.00     0.052 H 
ATOM     59  H   UNL     1     -45.272  31.289  21.652  1.00  0.00     0.052 H 
ATOM     60  H   UNL     1     -46.133  28.864  24.313  1.00  0.00     0.052 H 
ATOM     61  H   UNL     1     -47.315  28.456  23.017  1.00  0.00     0.052 H 
ATOM     62  H   UNL     1     -45.657  28.886  21.229  1.00  0.00     0.064 H 
BRANCH  57  63
ATOM     63  O   UNL     1     -44.102  28.414  22.551  1.00  0.00    -0.389 OA
ATOM     64  H   UNL     1     -43.838  28.004  21.710  1.00  0.00     0.211 HD
ENDBRANCH  57  63
ENDBRANCH  50  54
ENDBRANCH  38  39
ENDBRANCH   1  38
TORSDOF 9
ENDMDL
MODEL 7
REMARK VINA RESULT:      -9.8      2.967     12.206
REMARK SMILES Cn1ccc(-c2cn(-c3cncc(COc4ccc5ccc(N6CC(O)C6)nc5c4)c3)c3ncnc(N)c23)n1
REMARK SMILES IDX 14 1 13 4 9 5 10 6 31 7 11 8 12 11 8 13 6 14 7 15 38 16
REMARK SMILES IDX 32 18 36 19 33 20 35 21 34 22 5 24 2 25 3 26 39 27 4 28 1 31
REMARK SMILES IDX 37 35 15 38 16 39 17 40 30 41 18 42 29 44 19 46 28 48 20 49
REMARK SMILES IDX 22 50 21 51 23 54 24 55 27 56 25 57 26 63
REMARK H PARENT 14 2 14 3 10 9 31 10 12 12 7 17 34 23 3 29 4 30 1 32 1 33 1 34
REMARK H PARENT 37 36 37 37 17 43 30 45 18 47 20 52 21 53 24 58 24 59 27 60
REMARK H PARENT 27 61 25 62 26 64
REMARK Flexibility Score: inf
ROOT
ATOM      1  C   UNL     1     -45.488  34.466  27.737  1.00  0.00     0.115 C 
ATOM      2  H   UNL     1     -44.424  34.203  27.779  1.00  0.00     0.076 H 
ATOM      3  H   UNL     1     -46.020  33.644  28.232  1.00  0.00     0.076 H 
ENDROOT
BRANCH   1   4
ATOM      4  C   UNL     1     -45.656  35.778  28.458  1.00  0.00     0.010 A 
ATOM      5  C   UNL     1     -45.290  38.175  28.667  1.00  0.00     0.066 A 
ATOM      6  C   UNL     1     -45.965  38.095  29.883  1.00  0.00     0.051 A 
ATOM      7  C   UNL     1     -45.134  36.981  27.957  1.00  0.00    -0.028 A 
ATOM      8  N   UNL     1     -46.465  36.948  30.410  1.00  0.00    -0.262 NA
ATOM      9  H   UNL     1     -46.129  38.951  30.528  1.00  0.00     0.086 H 
ATOM     10  H   UNL     1     -44.636  36.949  26.993  1.00  0.00     0.065 H 
ATOM     11  C   UNL     1     -46.296  35.822  29.689  1.00  0.00     0.034 A 
ATOM     12  H   UNL     1     -46.708  34.927  30.148  1.00  0.00     0.084 H 
BRANCH   5  13
ATOM     13  N   UNL     1     -44.793  39.429  28.186  1.00  0.00    -0.299 N 
ATOM     14  C   UNL     1     -44.594  41.285  26.922  1.00  0.00     0.033 A 
ATOM     15  C   UNL     1     -45.343  40.150  27.143  1.00  0.00     0.021 A 
ATOM     16  C   UNL     1     -43.569  41.327  27.900  1.00  0.00     0.071 A 
ATOM     17  H   UNL     1     -46.203  39.803  26.588  1.00  0.00     0.083 H 
ATOM     18  C   UNL     1     -43.694  40.157  28.653  1.00  0.00     0.150 A 
ATOM     19  C   UNL     1     -42.545  42.214  28.277  1.00  0.00     0.137 A 
ATOM     20  N   UNL     1     -42.893  39.819  29.685  1.00  0.00    -0.218 NA
ATOM     21  N   UNL     1     -41.728  41.885  29.292  1.00  0.00    -0.219 NA
ATOM     22  C   UNL     1     -41.937  40.723  29.926  1.00  0.00     0.120 A 
ATOM     23  H   UNL     1     -41.253  40.490  30.736  1.00  0.00     0.106 H 
BRANCH  14  24
ATOM     24  C   UNL     1     -44.846  42.256  25.860  1.00  0.00     0.095 A 
ATOM     25  N   UNL     1     -44.531  43.501  24.185  1.00  0.00    -0.275 N 
ATOM     26  C   UNL     1     -45.785  43.821  24.618  1.00  0.00     0.025 A 
ATOM     27  N   UNL     1     -43.933  42.553  24.929  1.00  0.00    -0.173 NA
ATOM     28  C   UNL     1     -46.014  43.033  25.722  1.00  0.00    -0.016 A 
ATOM     29  H   UNL     1     -46.390  44.571  24.129  1.00  0.00     0.084 H 
ATOM     30  H   UNL     1     -46.900  43.027  26.343  1.00  0.00     0.066 H 
BRANCH  25  31
ATOM     31  C   UNL     1     -43.828  44.069  23.061  1.00  0.00     0.030 C 
ATOM     32  H   UNL     1     -44.551  44.592  22.429  1.00  0.00     0.048 H 
ATOM     33  H   UNL     1     -43.072  44.771  23.422  1.00  0.00     0.048 H 
ATOM     34  H   UNL     1     -43.350  43.257  22.508  1.00  0.00     0.048 H 
ENDBRANCH  25  31
ENDBRANCH  14  24
BRANCH  19  35
ATOM     35  N   UNL     1     -42.324  43.460  27.701  1.00  0.00    -0.383 N 
ATOM     36  H   UNL     1     -41.344  43.704  27.624  1.00  0.00     0.158 HD
ATOM     37  H   UNL     1     -42.853  43.531  26.838  1.00  0.00     0.158 HD
ENDBRANCH  19  35
ENDBRANCH   5  13
ENDBRANCH   1   4
BRANCH   1  38
ATOM     38  O   UNL     1     -45.832  34.534  26.351  1.00  0.00    -0.489 OA
BRANCH  38  39
ATOM     39  C   UNL     1     -46.895  33.802  25.899  1.00  0.00     0.122 A 
ATOM     40  C   UNL     1     -48.124  34.183  26.436  1.00  0.00    -0.019 A 
ATOM     41  C   UNL     1     -46.847  32.739  24.995  1.00  0.00     0.007 A 
ATOM     42  C   UNL     1     -49.291  33.517  26.064  1.00  0.00    -0.049 A 
ATOM     43  H   UNL     1     -48.174  35.003  27.147  1.00  0.00     0.066 H 
ATOM     44  C   UNL     1     -47.994  32.059  24.605  1.00  0.00     0.076 A 
ATOM     45  H   UNL     1     -45.911  32.396  24.569  1.00  0.00     0.069 H 
ATOM     46  C   UNL     1     -49.230  32.457  25.149  1.00  0.00     0.001 A 
ATOM     47  H   UNL     1     -50.240  33.828  26.493  1.00  0.00     0.063 H 
ATOM     48  N   UNL     1     -47.889  31.048  23.723  1.00  0.00    -0.231 NA
ATOM     49  C   UNL     1     -50.373  31.760  24.749  1.00  0.00    -0.049 A 
ATOM     50  C   UNL     1     -49.001  30.384  23.337  1.00  0.00     0.129 A 
ATOM     51  C   UNL     1     -50.255  30.714  23.839  1.00  0.00    -0.019 A 
ATOM     52  H   UNL     1     -51.352  32.020  25.142  1.00  0.00     0.063 H 
ATOM     53  H   UNL     1     -51.137  30.162  23.536  1.00  0.00     0.066 H 
BRANCH  50  54
ATOM     54  N   UNL     1     -48.864  29.319  22.429  1.00  0.00    -0.351 N 
ATOM     55  C   UNL     1     -48.909  27.918  22.737  1.00  0.00     0.047 C 
ATOM     56  C   UNL     1     -49.668  29.154  21.252  1.00  0.00     0.047 C 
ATOM     57  C   UNL     1     -49.217  27.680  21.246  1.00  0.00     0.089 C 
ATOM     58  H   UNL     1     -49.716  27.652  23.429  1.00  0.00     0.052 H 
ATOM     59  H   UNL     1     -47.954  27.523  23.089  1.00  0.00     0.052 H 
ATOM     60  H   UNL     1     -50.738  29.312  21.431  1.00  0.00     0.052 H 
ATOM     61  H   UNL     1     -49.325  29.759  20.409  1.00  0.00     0.052 H 
ATOM     62  H   UNL     1     -48.314  27.511  20.645  1.00  0.00     0.064 H 
BRANCH  57  63
ATOM     63  O   UNL     1     -50.216  26.682  20.938  1.00  0.00    -0.389 OA
ATOM     64  H   UNL     1     -50.799  27.109  20.287  1.00  0.00     0.211 HD
ENDBRANCH  57  63
ENDBRANCH  50  54
ENDBRANCH  38  39
ENDBRANCH   1  38
TORSDOF 9
ENDMDL
