MODEL 1
REMARK VINA RESULT:     -10.7      0.000      0.000
REMARK SMILES Cn1ccc(-c2cn(-c3cncc(COc4ccc(C(=O)N5CCOCC5)c(N)c4)c3)c3ncnc(N)c23)n1
REMARK SMILES IDX 9 1 10 2 11 3 12 4 13 5 31 6 8 10 6 11 7 12 38 13 32 15
REMARK SMILES IDX 36 16 33 17 35 18 34 19 5 21 2 22 3 23 39 24 4 25 1 28 37 32
REMARK SMILES IDX 14 35 15 38 16 39 17 40 30 41 18 42 28 44 19 46 29 48 20 51
REMARK SMILES IDX 21 52 22 53 23 54 27 55 24 56 26 59 25 62
REMARK H PARENT 10 7 12 8 31 9 7 14 34 20 3 26 4 27 1 29 1 30 1 31 37 33 37 34
REMARK H PARENT 14 36 14 37 17 43 30 45 18 47 29 49 29 50 23 57 23 58 27 60
REMARK H PARENT 27 61 24 63 24 64 26 65 26 66
REMARK Flexibility Score: inf
ROOT
ATOM      1  C   UNL     1     -45.406  38.312  28.600  1.00  0.00     0.066 A 
ATOM      2  C   UNL     1     -45.316  37.958  29.941  1.00  0.00     0.051 A 
ATOM      3  N   UNL     1     -45.870  36.837  30.472  1.00  0.00    -0.262 NA
ATOM      4  C   UNL     1     -46.546  36.028  29.631  1.00  0.00     0.034 A 
ATOM      5  C   UNL     1     -46.711  36.280  28.275  1.00  0.00     0.010 A 
ATOM      6  C   UNL     1     -46.114  37.439  27.760  1.00  0.00    -0.028 A 
ATOM      7  H   UNL     1     -44.815  38.565  30.686  1.00  0.00     0.086 H 
ATOM      8  H   UNL     1     -46.963  35.141  30.099  1.00  0.00     0.084 H 
ATOM      9  H   UNL     1     -46.204  37.625  26.694  1.00  0.00     0.065 H 
ENDROOT
BRANCH   1  10
ATOM     10  N   UNL     1     -44.816  39.512  28.090  1.00  0.00    -0.299 N 
ATOM     11  C   UNL     1     -44.483  41.321  26.776  1.00  0.00     0.033 A 
ATOM     12  C   UNL     1     -45.265  40.202  26.976  1.00  0.00     0.021 A 
ATOM     13  C   UNL     1     -43.475  41.321  27.782  1.00  0.00     0.071 A 
ATOM     14  H   UNL     1     -46.140  39.882  26.431  1.00  0.00     0.083 H 
ATOM     15  C   UNL     1     -43.716  40.210  28.591  1.00  0.00     0.150 A 
ATOM     16  C   UNL     1     -42.369  42.121  28.127  1.00  0.00     0.137 A 
ATOM     17  N   UNL     1     -42.978  39.860  29.665  1.00  0.00    -0.218 NA
ATOM     18  N   UNL     1     -41.639  41.805  29.213  1.00  0.00    -0.219 NA
ATOM     19  C   UNL     1     -41.973  40.708  29.906  1.00  0.00     0.120 A 
ATOM     20  H   UNL     1     -41.351  40.482  30.765  1.00  0.00     0.106 H 
BRANCH  11  21
ATOM     21  C   UNL     1     -44.680  42.331  25.731  1.00  0.00     0.095 A 
ATOM     22  N   UNL     1     -44.344  43.614  24.082  1.00  0.00    -0.275 N 
ATOM     23  C   UNL     1     -45.598  43.933  24.510  1.00  0.00     0.025 A 
ATOM     24  N   UNL     1     -43.758  42.644  24.811  1.00  0.00    -0.173 NA
ATOM     25  C   UNL     1     -45.847  43.115  25.587  1.00  0.00    -0.016 A 
ATOM     26  H   UNL     1     -46.195  44.695  24.028  1.00  0.00     0.084 H 
ATOM     27  H   UNL     1     -46.749  43.090  26.181  1.00  0.00     0.066 H 
BRANCH  22  28
ATOM     28  C   UNL     1     -43.629  44.201  22.976  1.00  0.00     0.030 C 
ATOM     29  H   UNL     1     -43.875  45.265  22.931  1.00  0.00     0.048 H 
ATOM     30  H   UNL     1     -43.927  43.709  22.047  1.00  0.00     0.048 H 
ATOM     31  H   UNL     1     -42.558  44.061  23.145  1.00  0.00     0.048 H 
ENDBRANCH  22  28
ENDBRANCH  11  21
BRANCH  16  32
ATOM     32  N   UNL     1     -41.961  43.237  27.412  1.00  0.00    -0.383 N 
ATOM     33  H   UNL     1     -42.062  43.113  26.400  1.00  0.00     0.158 HD
ATOM     34  H   UNL     1     -42.336  44.088  27.806  1.00  0.00     0.158 HD
ENDBRANCH  16  32
ENDBRANCH   1  10
BRANCH   5  35
ATOM     35  C   UNL     1     -47.467  35.292  27.425  1.00  0.00     0.115 C 
ATOM     36  H   UNL     1     -47.565  34.367  28.007  1.00  0.00     0.076 H 
ATOM     37  H   UNL     1     -48.489  35.636  27.217  1.00  0.00     0.076 H 
BRANCH  35  38
ATOM     38  O   UNL     1     -46.791  34.928  26.217  1.00  0.00    -0.489 OA
BRANCH  38  39
ATOM     39  C   UNL     1     -47.099  33.725  25.642  1.00  0.00     0.121 A 
ATOM     40  C   UNL     1     -48.321  33.187  26.047  1.00  0.00    -0.019 A 
ATOM     41  C   UNL     1     -46.286  33.004  24.764  1.00  0.00     0.004 A 
ATOM     42  C   UNL     1     -48.743  31.952  25.559  1.00  0.00    -0.044 A 
ATOM     43  H   UNL     1     -48.943  33.730  26.755  1.00  0.00     0.066 H 
ATOM     44  C   UNL     1     -46.697  31.765  24.241  1.00  0.00     0.048 A 
ATOM     45  H   UNL     1     -45.297  33.363  24.497  1.00  0.00     0.068 H 
ATOM     46  C   UNL     1     -47.942  31.249  24.647  1.00  0.00     0.063 A 
ATOM     47  H   UNL     1     -49.686  31.534  25.899  1.00  0.00     0.063 H 
BRANCH  44  48
ATOM     48  N   UNL     1     -45.782  31.030  23.483  1.00  0.00    -0.398 N 
ATOM     49  H   UNL     1     -46.123  30.547  22.661  1.00  0.00     0.156 HD
ATOM     50  H   UNL     1     -45.048  30.549  24.003  1.00  0.00     0.156 HD
ENDBRANCH  44  48
BRANCH  46  51
ATOM     51  C   UNL     1     -48.436  29.948  24.124  1.00  0.00     0.256 C 
ATOM     52  O   UNL     1     -47.971  28.907  24.580  1.00  0.00    -0.269 OA
ATOM     53  N   UNL     1     -49.406  29.956  23.124  1.00  0.00    -0.334 N 
ATOM     54  C   UNL     1     -49.748  31.112  22.285  1.00  0.00     0.044 C 
ATOM     55  C   UNL     1     -49.952  28.675  22.673  1.00  0.00     0.044 C 
ATOM     56  C   UNL     1     -50.101  30.672  20.860  1.00  0.00     0.064 C 
ATOM     57  H   UNL     1     -48.921  31.827  22.261  1.00  0.00     0.052 H 
ATOM     58  H   UNL     1     -50.619  31.588  22.750  1.00  0.00     0.052 H 
ATOM     59  C   UNL     1     -51.281  28.874  21.941  1.00  0.00     0.064 C 
ATOM     60  H   UNL     1     -50.080  28.006  23.532  1.00  0.00     0.052 H 
ATOM     61  H   UNL     1     -49.209  28.230  22.001  1.00  0.00     0.052 H 
ATOM     62  O   UNL     1     -51.195  29.747  20.805  1.00  0.00    -0.378 OA
ATOM     63  H   UNL     1     -50.374  31.542  20.253  1.00  0.00     0.059 H 
ATOM     64  H   UNL     1     -49.237  30.196  20.382  1.00  0.00     0.059 H 
ATOM     65  H   UNL     1     -51.669  27.912  21.590  1.00  0.00     0.059 H 
ATOM     66  H   UNL     1     -52.027  29.299  22.622  1.00  0.00     0.059 H 
ENDBRANCH  46  51
ENDBRANCH  38  39
ENDBRANCH  35  38
ENDBRANCH   5  35
TORSDOF 9
ENDMDL
MODEL 2
REMARK VINA RESULT:     -10.4      1.230      2.035
REMARK SMILES Cn1ccc(-c2cn(-c3cncc(COc4ccc(C(=O)N5CCOCC5)c(N)c4)c3)c3ncnc(N)c23)n1
REMARK SMILES IDX 9 1 10 2 11 3 12 4 13 5 31 6 8 10 6 11 7 12 38 13 32 15
REMARK SMILES IDX 36 16 33 17 35 18 34 19 5 21 2 22 3 23 39 24 4 25 1 28 37 32
REMARK SMILES IDX 14 35 15 38 16 39 17 40 30 41 18 42 28 44 19 46 29 48 20 51
REMARK SMILES IDX 21 52 22 53 23 54 27 55 24 56 26 59 25 62
REMARK H PARENT 10 7 12 8 31 9 7 14 34 20 3 26 4 27 1 29 1 30 1 31 37 33 37 34
REMARK H PARENT 14 36 14 37 17 43 30 45 18 47 29 49 29 50 23 57 23 58 27 60
REMARK H PARENT 27 61 24 63 24 64 26 65 26 66
REMARK Flexibility Score: inf
ROOT
ATOM      1  C   UNL     1     -45.469  38.206  28.589  1.00  0.00     0.066 A 
ATOM      2  C   UNL     1     -45.334  37.837  29.922  1.00  0.00     0.051 A 
ATOM      3  N   UNL     1     -45.851  36.699  30.454  1.00  0.00    -0.262 NA
ATOM      4  C   UNL     1     -46.534  35.887  29.622  1.00  0.00     0.034 A 
ATOM      5  C   UNL     1     -46.742  36.152  28.275  1.00  0.00     0.010 A 
ATOM      6  C   UNL     1     -46.183  37.329  27.758  1.00  0.00    -0.028 A 
ATOM      7  H   UNL     1     -44.825  38.445  30.661  1.00  0.00     0.086 H 
ATOM      8  H   UNL     1     -46.921  34.986  30.091  1.00  0.00     0.084 H 
ATOM      9  H   UNL     1     -46.307  37.526  26.697  1.00  0.00     0.065 H 
ENDROOT
BRANCH   1  10
ATOM     10  N   UNL     1     -44.917  39.423  28.078  1.00  0.00    -0.299 N 
ATOM     11  C   UNL     1     -44.648  41.247  26.769  1.00  0.00     0.033 A 
ATOM     12  C   UNL     1     -45.398  40.106  26.972  1.00  0.00     0.021 A 
ATOM     13  C   UNL     1     -43.628  41.269  27.763  1.00  0.00     0.071 A 
ATOM     14  H   UNL     1     -46.271  39.766  26.437  1.00  0.00     0.083 H 
ATOM     15  C   UNL     1     -43.830  40.147  28.569  1.00  0.00     0.150 A 
ATOM     16  C   UNL     1     -42.540  42.096  28.098  1.00  0.00     0.137 A 
ATOM     17  N   UNL     1     -43.070  39.812  29.632  1.00  0.00    -0.218 NA
ATOM     18  N   UNL     1     -41.789  41.795  29.174  1.00  0.00    -0.219 NA
ATOM     19  C   UNL     1     -42.085  40.686  29.865  1.00  0.00     0.120 A 
ATOM     20  H   UNL     1     -41.446  40.473  30.716  1.00  0.00     0.106 H 
BRANCH  11  21
ATOM     21  C   UNL     1     -44.885  42.256  25.731  1.00  0.00     0.095 A 
ATOM     22  N   UNL     1     -44.607  43.547  24.078  1.00  0.00    -0.275 N 
ATOM     23  C   UNL     1     -45.855  43.847  24.537  1.00  0.00     0.025 A 
ATOM     24  N   UNL     1     -43.991  42.584  24.790  1.00  0.00    -0.173 NA
ATOM     25  C   UNL     1     -46.067  43.024  25.618  1.00  0.00    -0.016 A 
ATOM     26  H   UNL     1     -46.474  44.602  24.072  1.00  0.00     0.084 H 
ATOM     27  H   UNL     1     -46.953  42.985  26.234  1.00  0.00     0.066 H 
BRANCH  22  28
ATOM     28  C   UNL     1     -43.928  44.146  22.956  1.00  0.00     0.030 C 
ATOM     29  H   UNL     1     -42.920  43.728  22.900  1.00  0.00     0.048 H 
ATOM     30  H   UNL     1     -43.876  45.228  23.096  1.00  0.00     0.048 H 
ATOM     31  H   UNL     1     -44.491  43.914  22.049  1.00  0.00     0.048 H 
ENDBRANCH  22  28
ENDBRANCH  11  21
BRANCH  16  32
ATOM     32  N   UNL     1     -42.171  43.226  27.383  1.00  0.00    -0.383 N 
ATOM     33  H   UNL     1     -41.556  43.845  27.919  1.00  0.00     0.158 HD
ATOM     34  H   UNL     1     -41.876  42.992  26.446  1.00  0.00     0.158 HD
ENDBRANCH  16  32
ENDBRANCH   1  10
BRANCH   5  35
ATOM     35  C   UNL     1     -47.502  35.159  27.434  1.00  0.00     0.115 C 
ATOM     36  H   UNL     1     -47.506  34.205  27.976  1.00  0.00     0.076 H 
ATOM     37  H   UNL     1     -48.554  35.451  27.315  1.00  0.00     0.076 H 
BRANCH  35  38
ATOM     38  O   UNL     1     -46.897  34.889  26.165  1.00  0.00    -0.489 OA
BRANCH  38  39
ATOM     39  C   UNL     1     -47.165  33.690  25.564  1.00  0.00     0.121 A 
ATOM     40  C   UNL     1     -48.412  33.150  25.881  1.00  0.00    -0.019 A 
ATOM     41  C   UNL     1     -46.293  32.972  24.741  1.00  0.00     0.004 A 
ATOM     42  C   UNL     1     -48.799  31.917  25.359  1.00  0.00    -0.044 A 
ATOM     43  H   UNL     1     -49.081  33.689  26.548  1.00  0.00     0.066 H 
ATOM     44  C   UNL     1     -46.667  31.736  24.185  1.00  0.00     0.048 A 
ATOM     45  H   UNL     1     -45.289  33.332  24.544  1.00  0.00     0.068 H 
ATOM     46  C   UNL     1     -47.938  31.218  24.502  1.00  0.00     0.063 A 
ATOM     47  H   UNL     1     -49.764  31.497  25.632  1.00  0.00     0.063 H 
BRANCH  44  48
ATOM     48  N   UNL     1     -45.702  31.004  23.488  1.00  0.00    -0.398 N 
ATOM     49  H   UNL     1     -45.112  31.497  22.831  1.00  0.00     0.156 HD
ATOM     50  H   UNL     1     -45.964  30.056  23.218  1.00  0.00     0.156 HD
ENDBRANCH  44  48
BRANCH  46  51
ATOM     51  C   UNL     1     -48.394  29.920  23.940  1.00  0.00     0.256 C 
ATOM     52  O   UNL     1     -48.848  29.891  22.799  1.00  0.00    -0.269 OA
ATOM     53  N   UNL     1     -48.302  28.779  24.734  1.00  0.00    -0.334 N 
ATOM     54  C   UNL     1     -48.120  28.775  26.191  1.00  0.00     0.044 C 
ATOM     55  C   UNL     1     -48.670  27.490  24.147  1.00  0.00     0.044 C 
ATOM     56  C   UNL     1     -48.886  27.615  26.837  1.00  0.00     0.064 C 
ATOM     57  H   UNL     1     -48.448  29.725  26.622  1.00  0.00     0.052 H 
ATOM     58  H   UNL     1     -47.046  28.651  26.372  1.00  0.00     0.052 H 
ATOM     59  C   UNL     1     -48.092  26.332  24.962  1.00  0.00     0.064 C 
ATOM     60  H   UNL     1     -48.323  27.444  23.109  1.00  0.00     0.052 H 
ATOM     61  H   UNL     1     -49.767  27.443  24.143  1.00  0.00     0.052 H 
ATOM     62  O   UNL     1     -48.497  26.328  26.339  1.00  0.00    -0.378 OA
ATOM     63  H   UNL     1     -48.725  27.612  27.920  1.00  0.00     0.059 H 
ATOM     64  H   UNL     1     -49.963  27.727  26.667  1.00  0.00     0.059 H 
ATOM     65  H   UNL     1     -48.392  25.374  24.527  1.00  0.00     0.059 H 
ATOM     66  H   UNL     1     -46.996  26.370  24.947  1.00  0.00     0.059 H 
ENDBRANCH  46  51
ENDBRANCH  38  39
ENDBRANCH  35  38
ENDBRANCH   5  35
TORSDOF 9
ENDMDL
MODEL 3
REMARK VINA RESULT:     -10.1      1.543      2.568
REMARK SMILES Cn1ccc(-c2cn(-c3cncc(COc4ccc(C(=O)N5CCOCC5)c(N)c4)c3)c3ncnc(N)c23)n1
REMARK SMILES IDX 9 1 10 2 11 3 12 4 13 5 31 6 8 10 6 11 7 12 38 13 32 15
REMARK SMILES IDX 36 16 33 17 35 18 34 19 5 21 2 22 3 23 39 24 4 25 1 28 37 32
REMARK SMILES IDX 14 35 15 38 16 39 17 40 30 41 18 42 28 44 19 46 29 48 20 51
REMARK SMILES IDX 21 52 22 53 23 54 27 55 24 56 26 59 25 62
REMARK H PARENT 10 7 12 8 31 9 7 14 34 20 3 26 4 27 1 29 1 30 1 31 37 33 37 34
REMARK H PARENT 14 36 14 37 17 43 30 45 18 47 29 49 29 50 23 57 23 58 27 60
REMARK H PARENT 27 61 24 63 24 64 26 65 26 66
REMARK Flexibility Score: inf
ROOT
ATOM      1  C   UNL     1     -45.925  38.387  28.145  1.00  0.00     0.066 A 
ATOM      2  C   UNL     1     -45.539  38.230  29.471  1.00  0.00     0.051 A 
ATOM      3  N   UNL     1     -45.651  37.067  30.164  1.00  0.00    -0.262 NA
ATOM      4  C   UNL     1     -46.169  36.009  29.509  1.00  0.00     0.034 A 
ATOM      5  C   UNL     1     -46.597  36.045  28.188  1.00  0.00     0.010 A 
ATOM      6  C   UNL     1     -46.455  37.259  27.501  1.00  0.00    -0.028 A 
ATOM      7  H   UNL     1     -45.139  39.035  30.076  1.00  0.00     0.086 H 
ATOM      8  H   UNL     1     -46.230  35.099  30.101  1.00  0.00     0.084 H 
ATOM      9  H   UNL     1     -46.750  37.287  26.457  1.00  0.00     0.065 H 
ENDROOT
BRANCH   1  10
ATOM     10  N   UNL     1     -45.800  39.638  27.461  1.00  0.00    -0.299 N 
ATOM     11  C   UNL     1     -44.846  41.382  26.385  1.00  0.00     0.033 A 
ATOM     12  C   UNL     1     -44.604  40.182  27.020  1.00  0.00     0.021 A 
ATOM     13  C   UNL     1     -46.247  41.628  26.458  1.00  0.00     0.071 A 
ATOM     14  H   UNL     1     -43.669  39.656  27.140  1.00  0.00     0.083 H 
ATOM     15  C   UNL     1     -46.813  40.528  27.105  1.00  0.00     0.150 A 
ATOM     16  C   UNL     1     -47.132  42.648  26.061  1.00  0.00     0.137 A 
ATOM     17  N   UNL     1     -48.128  40.377  27.365  1.00  0.00    -0.218 NA
ATOM     18  N   UNL     1     -48.451  42.501  26.285  1.00  0.00    -0.219 NA
ATOM     19  C   UNL     1     -48.870  41.397  26.919  1.00  0.00     0.120 A 
ATOM     20  H   UNL     1     -49.938  41.325  27.092  1.00  0.00     0.106 H 
BRANCH  11  21
ATOM     21  C   UNL     1     -43.839  42.229  25.737  1.00  0.00     0.095 A 
ATOM     22  N   UNL     1     -42.802  43.379  24.295  1.00  0.00    -0.275 N 
ATOM     23  C   UNL     1     -41.989  43.394  25.389  1.00  0.00     0.025 A 
ATOM     24  N   UNL     1     -43.934  42.673  24.477  1.00  0.00    -0.173 NA
ATOM     25  C   UNL     1     -42.635  42.649  26.348  1.00  0.00    -0.016 A 
ATOM     26  H   UNL     1     -41.043  43.917  25.397  1.00  0.00     0.084 H 
ATOM     27  H   UNL     1     -42.283  42.443  27.348  1.00  0.00     0.066 H 
BRANCH  22  28
ATOM     28  C   UNL     1     -42.561  44.021  23.026  1.00  0.00     0.030 C 
ATOM     29  H   UNL     1     -41.547  44.429  23.033  1.00  0.00     0.048 H 
ATOM     30  H   UNL     1     -43.287  44.824  22.881  1.00  0.00     0.048 H 
ATOM     31  H   UNL     1     -42.669  43.273  22.237  1.00  0.00     0.048 H 
ENDBRANCH  22  28
ENDBRANCH  11  21
BRANCH  16  32
ATOM     32  N   UNL     1     -46.738  43.826  25.445  1.00  0.00    -0.383 N 
ATOM     33  H   UNL     1     -45.720  43.920  25.394  1.00  0.00     0.158 HD
ATOM     34  H   UNL     1     -47.253  43.989  24.591  1.00  0.00     0.158 HD
ENDBRANCH  16  32
ENDBRANCH   1  10
BRANCH   5  35
ATOM     35  C   UNL     1     -47.140  34.793  27.551  1.00  0.00     0.115 C 
ATOM     36  H   UNL     1     -46.618  33.941  28.005  1.00  0.00     0.076 H 
ATOM     37  H   UNL     1     -48.207  34.655  27.772  1.00  0.00     0.076 H 
BRANCH  35  38
ATOM     38  O   UNL     1     -46.892  34.703  26.144  1.00  0.00    -0.489 OA
BRANCH  38  39
ATOM     39  C   UNL     1     -47.120  33.505  25.523  1.00  0.00     0.121 A 
ATOM     40  C   UNL     1     -48.331  32.900  25.862  1.00  0.00    -0.019 A 
ATOM     41  C   UNL     1     -46.239  32.847  24.660  1.00  0.00     0.004 A 
ATOM     42  C   UNL     1     -48.675  31.662  25.322  1.00  0.00    -0.044 A 
ATOM     43  H   UNL     1     -49.006  33.392  26.558  1.00  0.00     0.066 H 
ATOM     44  C   UNL     1     -46.571  31.607  24.086  1.00  0.00     0.048 A 
ATOM     45  H   UNL     1     -45.259  33.259  24.444  1.00  0.00     0.068 H 
ATOM     46  C   UNL     1     -47.806  31.023  24.426  1.00  0.00     0.063 A 
ATOM     47  H   UNL     1     -49.611  31.192  25.611  1.00  0.00     0.063 H 
BRANCH  44  48
ATOM     48  N   UNL     1     -45.593  30.937  23.346  1.00  0.00    -0.398 N 
ATOM     49  H   UNL     1     -45.865  30.516  22.467  1.00  0.00     0.156 HD
ATOM     50  H   UNL     1     -44.896  30.422  23.883  1.00  0.00     0.156 HD
ENDBRANCH  44  48
BRANCH  46  51
ATOM     51  C   UNL     1     -48.218  29.718  23.847  1.00  0.00     0.256 C 
ATOM     52  O   UNL     1     -47.752  28.684  24.317  1.00  0.00    -0.269 OA
ATOM     53  N   UNL     1     -49.113  29.714  22.779  1.00  0.00    -0.334 N 
ATOM     54  C   UNL     1     -49.432  30.874  21.937  1.00  0.00     0.044 C 
ATOM     55  C   UNL     1     -49.583  28.425  22.269  1.00  0.00     0.044 C 
ATOM     56  C   UNL     1     -49.667  30.450  20.483  1.00  0.00     0.064 C 
ATOM     57  H   UNL     1     -48.629  31.615  21.985  1.00  0.00     0.052 H 
ATOM     58  H   UNL     1     -50.350  31.313  22.345  1.00  0.00     0.052 H 
ATOM     59  C   UNL     1     -50.861  28.595  21.446  1.00  0.00     0.064 C 
ATOM     60  H   UNL     1     -49.749  27.736  23.104  1.00  0.00     0.052 H 
ATOM     61  H   UNL     1     -48.778  28.017  21.644  1.00  0.00     0.052 H 
ATOM     62  O   UNL     1     -50.723  29.492  20.333  1.00  0.00    -0.378 OA
ATOM     63  H   UNL     1     -49.924  31.322  19.872  1.00  0.00     0.059 H 
ATOM     64  H   UNL     1     -48.756  30.012  20.061  1.00  0.00     0.059 H 
ATOM     65  H   UNL     1     -51.191  27.629  21.051  1.00  0.00     0.059 H 
ATOM     66  H   UNL     1     -51.668  28.983  22.077  1.00  0.00     0.059 H 
ENDBRANCH  46  51
ENDBRANCH  38  39
ENDBRANCH  35  38
ENDBRANCH   5  35
TORSDOF 9
ENDMDL
MODEL 4
REMARK VINA RESULT:     -10.1      1.913      3.121
REMARK SMILES Cn1ccc(-c2cn(-c3cncc(COc4ccc(C(=O)N5CCOCC5)c(N)c4)c3)c3ncnc(N)c23)n1
REMARK SMILES IDX 9 1 10 2 11 3 12 4 13 5 31 6 8 10 6 11 7 12 38 13 32 15
REMARK SMILES IDX 36 16 33 17 35 18 34 19 5 21 2 22 3 23 39 24 4 25 1 28 37 32
REMARK SMILES IDX 14 35 15 38 16 39 17 40 30 41 18 42 28 44 19 46 29 48 20 51
REMARK SMILES IDX 21 52 22 53 23 54 27 55 24 56 26 59 25 62
REMARK H PARENT 10 7 12 8 31 9 7 14 34 20 3 26 4 27 1 29 1 30 1 31 37 33 37 34
REMARK H PARENT 14 36 14 37 17 43 30 45 18 47 29 49 29 50 23 57 23 58 27 60
REMARK H PARENT 27 61 24 63 24 64 26 65 26 66
REMARK Flexibility Score: inf
ROOT
ATOM      1  C   UNL     1     -45.831  38.288  28.243  1.00  0.00     0.066 A 
ATOM      2  C   UNL     1     -46.045  38.223  29.615  1.00  0.00     0.051 A 
ATOM      3  N   UNL     1     -46.172  37.063  30.312  1.00  0.00    -0.262 NA
ATOM      4  C   UNL     1     -46.081  35.914  29.614  1.00  0.00     0.034 A 
ATOM      5  C   UNL     1     -45.877  35.852  28.242  1.00  0.00     0.010 A 
ATOM      6  C   UNL     1     -45.739  37.067  27.558  1.00  0.00    -0.028 A 
ATOM      7  H   UNL     1     -46.157  39.098  30.244  1.00  0.00     0.086 H 
ATOM      8  H   UNL     1     -46.180  35.014  30.216  1.00  0.00     0.084 H 
ATOM      9  H   UNL     1     -45.540  37.029  26.491  1.00  0.00     0.065 H 
ENDROOT
BRANCH   1  10
ATOM     10  N   UNL     1     -45.718  39.535  27.551  1.00  0.00    -0.299 N 
ATOM     11  C   UNL     1     -44.780  41.282  26.466  1.00  0.00     0.033 A 
ATOM     12  C   UNL     1     -44.527  40.089  27.111  1.00  0.00     0.021 A 
ATOM     13  C   UNL     1     -46.183  41.513  26.532  1.00  0.00     0.071 A 
ATOM     14  H   UNL     1     -43.586  39.575  27.238  1.00  0.00     0.083 H 
ATOM     15  C   UNL     1     -46.740  40.411  27.184  1.00  0.00     0.150 A 
ATOM     16  C   UNL     1     -47.078  42.520  26.125  1.00  0.00     0.137 A 
ATOM     17  N   UNL     1     -48.054  40.247  27.440  1.00  0.00    -0.218 NA
ATOM     18  N   UNL     1     -48.396  42.359  26.344  1.00  0.00    -0.219 NA
ATOM     19  C   UNL     1     -48.805  41.256  26.985  1.00  0.00     0.120 A 
ATOM     20  H   UNL     1     -49.873  41.173  27.154  1.00  0.00     0.106 H 
BRANCH  11  21
ATOM     21  C   UNL     1     -43.779  42.135  25.816  1.00  0.00     0.095 A 
ATOM     22  N   UNL     1     -42.763  43.309  24.378  1.00  0.00    -0.275 N 
ATOM     23  C   UNL     1     -41.929  43.295  25.455  1.00  0.00     0.025 A 
ATOM     24  N   UNL     1     -43.896  42.606  24.567  1.00  0.00    -0.173 NA
ATOM     25  C   UNL     1     -42.561  42.535  26.411  1.00  0.00    -0.016 A 
ATOM     26  H   UNL     1     -40.979  43.812  25.456  1.00  0.00     0.084 H 
ATOM     27  H   UNL     1     -42.191  42.306  27.400  1.00  0.00     0.066 H 
BRANCH  22  28
ATOM     28  C   UNL     1     -42.542  43.975  23.118  1.00  0.00     0.030 C 
ATOM     29  H   UNL     1     -42.282  43.221  22.370  1.00  0.00     0.048 H 
ATOM     30  H   UNL     1     -41.727  44.694  23.224  1.00  0.00     0.048 H 
ATOM     31  H   UNL     1     -43.463  44.493  22.837  1.00  0.00     0.048 H 
ENDBRANCH  22  28
ENDBRANCH  11  21
BRANCH  16  32
ATOM     32  N   UNL     1     -46.695  43.698  25.501  1.00  0.00    -0.383 N 
ATOM     33  H   UNL     1     -45.934  44.172  25.994  1.00  0.00     0.158 HD
ATOM     34  H   UNL     1     -46.583  43.571  24.505  1.00  0.00     0.158 HD
ENDBRANCH  16  32
ENDBRANCH   1  10
BRANCH   5  35
ATOM     35  C   UNL     1     -45.769  34.507  27.570  1.00  0.00     0.115 C 
ATOM     36  H   UNL     1     -44.735  34.162  27.692  1.00  0.00     0.076 H 
ATOM     37  H   UNL     1     -46.405  33.757  28.060  1.00  0.00     0.076 H 
BRANCH  35  38
ATOM     38  O   UNL     1     -46.009  34.542  26.159  1.00  0.00    -0.489 OA
BRANCH  38  39
ATOM     39  C   UNL     1     -46.828  33.588  25.620  1.00  0.00     0.121 A 
ATOM     40  C   UNL     1     -48.058  33.451  26.264  1.00  0.00    -0.019 A 
ATOM     41  C   UNL     1     -46.509  32.741  24.555  1.00  0.00     0.004 A 
ATOM     42  C   UNL     1     -48.975  32.494  25.833  1.00  0.00    -0.044 A 
ATOM     43  H   UNL     1     -48.298  34.085  27.114  1.00  0.00     0.066 H 
ATOM     44  C   UNL     1     -47.425  31.781  24.088  1.00  0.00     0.048 A 
ATOM     45  H   UNL     1     -45.530  32.774  24.090  1.00  0.00     0.068 H 
ATOM     46  C   UNL     1     -48.668  31.672  24.740  1.00  0.00     0.063 A 
ATOM     47  H   UNL     1     -49.921  32.382  26.358  1.00  0.00     0.063 H 
BRANCH  44  48
ATOM     48  N   UNL     1     -46.995  30.873  23.117  1.00  0.00    -0.398 N 
ATOM     49  H   UNL     1     -47.588  30.721  22.311  1.00  0.00     0.156 HD
ATOM     50  H   UNL     1     -46.496  30.052  23.458  1.00  0.00     0.156 HD
ENDBRANCH  44  48
BRANCH  46  51
ATOM     51  C   UNL     1     -49.682  30.683  24.288  1.00  0.00     0.256 C 
ATOM     52  O   UNL     1     -50.668  31.078  23.672  1.00  0.00    -0.269 OA
ATOM     53  N   UNL     1     -49.482  29.338  24.591  1.00  0.00    -0.334 N 
ATOM     54  C   UNL     1     -48.551  28.827  25.605  1.00  0.00     0.044 C 
ATOM     55  C   UNL     1     -50.437  28.357  24.070  1.00  0.00     0.044 C 
ATOM     56  C   UNL     1     -49.123  27.586  26.301  1.00  0.00     0.064 C 
ATOM     57  H   UNL     1     -48.328  29.600  26.345  1.00  0.00     0.052 H 
ATOM     58  H   UNL     1     -47.629  28.559  25.077  1.00  0.00     0.052 H 
ATOM     59  C   UNL     1     -49.842  26.948  24.094  1.00  0.00     0.064 C 
ATOM     60  H   UNL     1     -50.732  28.635  23.052  1.00  0.00     0.052 H 
ATOM     61  H   UNL     1     -51.326  28.407  24.710  1.00  0.00     0.052 H 
ATOM     62  O   UNL     1     -49.424  26.514  25.397  1.00  0.00    -0.378 OA
ATOM     63  H   UNL     1     -48.410  27.205  27.039  1.00  0.00     0.059 H 
ATOM     64  H   UNL     1     -50.045  27.840  26.836  1.00  0.00     0.059 H 
ATOM     65  H   UNL     1     -50.572  26.221  23.723  1.00  0.00     0.059 H 
ATOM     66  H   UNL     1     -48.966  26.896  23.438  1.00  0.00     0.059 H 
ENDBRANCH  46  51
ENDBRANCH  38  39
ENDBRANCH  35  38
ENDBRANCH   5  35
TORSDOF 9
ENDMDL
MODEL 5
REMARK VINA RESULT:     -10.0      2.817     12.749
REMARK SMILES Cn1ccc(-c2cn(-c3cncc(COc4ccc(C(=O)N5CCOCC5)c(N)c4)c3)c3ncnc(N)c23)n1
REMARK SMILES IDX 9 1 10 2 11 3 12 4 13 5 31 6 8 10 6 11 7 12 38 13 32 15
REMARK SMILES IDX 36 16 33 17 35 18 34 19 5 21 2 22 3 23 39 24 4 25 1 28 37 32
REMARK SMILES IDX 14 35 15 38 16 39 17 40 30 41 18 42 28 44 19 46 29 48 20 51
REMARK SMILES IDX 21 52 22 53 23 54 27 55 24 56 26 59 25 62
REMARK H PARENT 10 7 12 8 31 9 7 14 34 20 3 26 4 27 1 29 1 30 1 31 37 33 37 34
REMARK H PARENT 14 36 14 37 17 43 30 45 18 47 29 49 29 50 23 57 23 58 27 60
REMARK H PARENT 27 61 24 63 24 64 26 65 26 66
REMARK Flexibility Score: inf
ROOT
ATOM      1  C   UNL     1     -48.020  31.934  25.034  1.00  0.00     0.066 A 
ATOM      2  C   UNL     1     -46.745  32.136  24.519  1.00  0.00     0.051 A 
ATOM      3  N   UNL     1     -45.977  33.223  24.792  1.00  0.00    -0.262 NA
ATOM      4  C   UNL     1     -46.500  34.153  25.616  1.00  0.00     0.034 A 
ATOM      5  C   UNL     1     -47.764  34.066  26.184  1.00  0.00     0.010 A 
ATOM      6  C   UNL     1     -48.523  32.925  25.890  1.00  0.00    -0.028 A 
ATOM      7  H   UNL     1     -46.263  31.451  23.831  1.00  0.00     0.086 H 
ATOM      8  H   UNL     1     -45.845  34.999  25.811  1.00  0.00     0.084 H 
ATOM      9  H   UNL     1     -49.497  32.829  26.360  1.00  0.00     0.065 H 
ENDROOT
BRANCH   1  10
ATOM     10  N   UNL     1     -48.797  30.777  24.706  1.00  0.00    -0.299 N 
ATOM     11  C   UNL     1     -49.729  28.726  24.886  1.00  0.00     0.033 A 
ATOM     12  C   UNL     1     -48.881  29.635  25.485  1.00  0.00     0.021 A 
ATOM     13  C   UNL     1     -50.171  29.299  23.660  1.00  0.00     0.071 A 
ATOM     14  H   UNL     1     -48.376  29.564  26.437  1.00  0.00     0.083 H 
ATOM     15  C   UNL     1     -49.601  30.571  23.585  1.00  0.00     0.150 A 
ATOM     16  C   UNL     1     -50.989  28.912  22.582  1.00  0.00     0.137 A 
ATOM     17  N   UNL     1     -49.783  31.441  22.569  1.00  0.00    -0.218 NA
ATOM     18  N   UNL     1     -51.207  29.778  21.575  1.00  0.00    -0.219 NA
ATOM     19  C   UNL     1     -50.597  30.970  21.618  1.00  0.00     0.120 A 
ATOM     20  H   UNL     1     -50.788  31.631  20.780  1.00  0.00     0.106 H 
BRANCH  11  21
ATOM     21  C   UNL     1     -50.115  27.421  25.435  1.00  0.00     0.095 A 
ATOM     22  N   UNL     1     -51.228  25.870  26.348  1.00  0.00    -0.275 N 
ATOM     23  C   UNL     1     -50.007  25.316  26.109  1.00  0.00     0.025 A 
ATOM     24  N   UNL     1     -51.321  27.154  25.952  1.00  0.00    -0.173 NA
ATOM     25  C   UNL     1     -49.254  26.303  25.517  1.00  0.00    -0.016 A 
ATOM     26  H   UNL     1     -49.776  24.292  26.373  1.00  0.00     0.084 H 
ATOM     27  H   UNL     1     -48.228  26.220  25.188  1.00  0.00     0.066 H 
BRANCH  22  28
ATOM     28  C   UNL     1     -52.367  25.231  26.959  1.00  0.00     0.030 C 
ATOM     29  H   UNL     1     -52.488  24.241  26.512  1.00  0.00     0.048 H 
ATOM     30  H   UNL     1     -53.261  25.833  26.782  1.00  0.00     0.048 H 
ATOM     31  H   UNL     1     -52.179  25.148  28.033  1.00  0.00     0.048 H 
ENDBRANCH  22  28
ENDBRANCH  11  21
BRANCH  16  32
ATOM     32  N   UNL     1     -51.601  27.672  22.474  1.00  0.00    -0.383 N 
ATOM     33  H   UNL     1     -52.412  27.688  21.850  1.00  0.00     0.158 HD
ATOM     34  H   UNL     1     -50.925  26.936  22.325  1.00  0.00     0.158 HD
ENDBRANCH  16  32
ENDBRANCH   1  10
BRANCH   5  35
ATOM     35  C   UNL     1     -48.236  35.157  27.109  1.00  0.00     0.115 C 
ATOM     36  H   UNL     1     -47.964  36.116  26.651  1.00  0.00     0.076 H 
ATOM     37  H   UNL     1     -49.329  35.160  27.208  1.00  0.00     0.076 H 
BRANCH  35  38
ATOM     38  O   UNL     1     -47.604  35.142  28.394  1.00  0.00    -0.489 OA
BRANCH  38  39
ATOM     39  C   UNL     1     -46.761  36.172  28.712  1.00  0.00     0.121 A 
ATOM     40  C   UNL     1     -45.994  36.640  27.644  1.00  0.00    -0.019 A 
ATOM     41  C   UNL     1     -46.579  36.721  29.984  1.00  0.00     0.004 A 
ATOM     42  C   UNL     1     -45.073  37.668  27.837  1.00  0.00    -0.044 A 
ATOM     43  H   UNL     1     -46.108  36.194  26.659  1.00  0.00     0.066 H 
ATOM     44  C   UNL     1     -45.671  37.772  30.201  1.00  0.00     0.048 A 
ATOM     45  H   UNL     1     -47.105  36.321  30.844  1.00  0.00     0.068 H 
ATOM     46  C   UNL     1     -44.921  38.244  29.106  1.00  0.00     0.063 A 
ATOM     47  H   UNL     1     -44.465  38.008  27.002  1.00  0.00     0.063 H 
BRANCH  44  48
ATOM     48  N   UNL     1     -45.433  38.181  31.516  1.00  0.00    -0.398 N 
ATOM     49  H   UNL     1     -46.213  38.538  32.053  1.00  0.00     0.156 HD
ATOM     50  H   UNL     1     -44.535  38.630  31.692  1.00  0.00     0.156 HD
ENDBRANCH  44  48
BRANCH  46  51
ATOM     51  C   UNL     1     -43.951  39.357  29.270  1.00  0.00     0.256 C 
ATOM     52  O   UNL     1     -43.315  39.445  30.316  1.00  0.00    -0.269 OA
ATOM     53  N   UNL     1     -43.805  40.273  28.230  1.00  0.00    -0.334 N 
ATOM     54  C   UNL     1     -44.753  40.457  27.124  1.00  0.00     0.044 C 
ATOM     55  C   UNL     1     -42.786  41.317  28.358  1.00  0.00     0.044 C 
ATOM     56  C   UNL     1     -44.838  41.931  26.712  1.00  0.00     0.064 C 
ATOM     57  H   UNL     1     -45.744  40.090  27.404  1.00  0.00     0.052 H 
ATOM     58  H   UNL     1     -44.374  39.862  26.285  1.00  0.00     0.052 H 
ATOM     59  C   UNL     1     -42.448  41.923  26.995  1.00  0.00     0.064 C 
ATOM     60  H   UNL     1     -41.889  40.901  28.830  1.00  0.00     0.052 H 
ATOM     61  H   UNL     1     -43.199  42.084  29.025  1.00  0.00     0.052 H 
ATOM     62  O   UNL     1     -43.578  42.484  26.310  1.00  0.00    -0.378 OA
ATOM     63  H   UNL     1     -45.533  42.050  25.874  1.00  0.00     0.059 H 
ATOM     64  H   UNL     1     -45.219  42.538  27.542  1.00  0.00     0.059 H 
ATOM     65  H   UNL     1     -41.702  42.716  27.106  1.00  0.00     0.059 H 
ATOM     66  H   UNL     1     -42.017  41.158  26.339  1.00  0.00     0.059 H 
ENDBRANCH  46  51
ENDBRANCH  38  39
ENDBRANCH  35  38
ENDBRANCH   5  35
TORSDOF 9
ENDMDL
MODEL 6
REMARK VINA RESULT:      -9.7      1.694      2.283
REMARK SMILES Cn1ccc(-c2cn(-c3cncc(COc4ccc(C(=O)N5CCOCC5)c(N)c4)c3)c3ncnc(N)c23)n1
REMARK SMILES IDX 9 1 10 2 11 3 12 4 13 5 31 6 8 10 6 11 7 12 38 13 32 15
REMARK SMILES IDX 36 16 33 17 35 18 34 19 5 21 2 22 3 23 39 24 4 25 1 28 37 32
REMARK SMILES IDX 14 35 15 38 16 39 17 40 30 41 18 42 28 44 19 46 29 48 20 51
REMARK SMILES IDX 21 52 22 53 23 54 27 55 24 56 26 59 25 62
REMARK H PARENT 10 7 12 8 31 9 7 14 34 20 3 26 4 27 1 29 1 30 1 31 37 33 37 34
REMARK H PARENT 14 36 14 37 17 43 30 45 18 47 29 49 29 50 23 57 23 58 27 60
REMARK H PARENT 27 61 24 63 24 64 26 65 26 66
REMARK Flexibility Score: inf
ROOT
ATOM      1  C   UNL     1     -46.263  38.064  27.631  1.00  0.00     0.066 A 
ATOM      2  C   UNL     1     -47.620  38.167  27.916  1.00  0.00     0.051 A 
ATOM      3  N   UNL     1     -48.478  37.114  27.927  1.00  0.00    -0.262 NA
ATOM      4  C   UNL     1     -47.965  35.901  27.642  1.00  0.00     0.034 A 
ATOM      5  C   UNL     1     -46.630  35.674  27.335  1.00  0.00     0.010 A 
ATOM      6  C   UNL     1     -45.772  36.782  27.345  1.00  0.00    -0.028 A 
ATOM      7  H   UNL     1     -48.115  39.107  28.128  1.00  0.00     0.086 H 
ATOM      8  H   UNL     1     -48.688  35.089  27.672  1.00  0.00     0.084 H 
ATOM      9  H   UNL     1     -44.718  36.609  27.145  1.00  0.00     0.065 H 
ENDROOT
BRANCH   1  10
ATOM     10  N   UNL     1     -45.401  39.206  27.619  1.00  0.00    -0.299 N 
ATOM     11  C   UNL     1     -44.501  41.180  26.982  1.00  0.00     0.033 A 
ATOM     12  C   UNL     1     -45.460  40.231  26.689  1.00  0.00     0.021 A 
ATOM     13  C   UNL     1     -43.781  40.720  28.121  1.00  0.00     0.071 A 
ATOM     14  H   UNL     1     -46.211  40.245  25.914  1.00  0.00     0.083 H 
ATOM     15  C   UNL     1     -44.370  39.514  28.507  1.00  0.00     0.150 A 
ATOM     16  C   UNL     1     -42.691  41.163  28.893  1.00  0.00     0.137 A 
ATOM     17  N   UNL     1     -43.976  38.762  29.555  1.00  0.00    -0.218 NA
ATOM     18  N   UNL     1     -42.303  40.441  29.961  1.00  0.00    -0.219 NA
ATOM     19  C   UNL     1     -42.949  39.298  30.226  1.00  0.00     0.120 A 
ATOM     20  H   UNL     1     -42.595  38.740  31.086  1.00  0.00     0.106 H 
BRANCH  11  21
ATOM     21  C   UNL     1     -44.290  42.438  26.258  1.00  0.00     0.095 A 
ATOM     22  N   UNL     1     -44.081  44.497  25.819  1.00  0.00    -0.275 N 
ATOM     23  C   UNL     1     -43.966  43.879  24.610  1.00  0.00     0.025 A 
ATOM     24  N   UNL     1     -44.284  43.644  26.841  1.00  0.00    -0.173 NA
ATOM     25  C   UNL     1     -44.100  42.533  24.860  1.00  0.00    -0.016 A 
ATOM     26  H   UNL     1     -43.803  44.430  23.693  1.00  0.00     0.084 H 
ATOM     27  H   UNL     1     -44.063  41.736  24.132  1.00  0.00     0.066 H 
BRANCH  22  28
ATOM     28  C   UNL     1     -44.011  45.914  26.079  1.00  0.00     0.030 C 
ATOM     29  H   UNL     1     -44.608  46.130  26.969  1.00  0.00     0.048 H 
ATOM     30  H   UNL     1     -44.406  46.462  25.221  1.00  0.00     0.048 H 
ATOM     31  H   UNL     1     -42.965  46.182  26.244  1.00  0.00     0.048 H 
ENDBRANCH  22  28
ENDBRANCH  11  21
BRANCH  16  32
ATOM     32  N   UNL     1     -41.965  42.314  28.629  1.00  0.00    -0.383 N 
ATOM     33  H   UNL     1     -41.751  42.423  27.634  1.00  0.00     0.158 HD
ATOM     34  H   UNL     1     -42.358  43.117  29.101  1.00  0.00     0.158 HD
ENDBRANCH  16  32
ENDBRANCH   1  10
BRANCH   5  35
ATOM     35  C   UNL     1     -46.163  34.268  27.055  1.00  0.00     0.115 C 
ATOM     36  H   UNL     1     -45.887  34.220  25.995  1.00  0.00     0.076 H 
ATOM     37  H   UNL     1     -45.255  34.023  27.622  1.00  0.00     0.076 H 
BRANCH  35  38
ATOM     38  O   UNL     1     -47.173  33.272  27.247  1.00  0.00    -0.489 OA
BRANCH  38  39
ATOM     39  C   UNL     1     -47.720  32.686  26.138  1.00  0.00     0.121 A 
ATOM     40  C   UNL     1     -46.787  32.147  25.250  1.00  0.00    -0.019 A 
ATOM     41  C   UNL     1     -49.080  32.643  25.818  1.00  0.00     0.004 A 
ATOM     42  C   UNL     1     -47.209  31.545  24.066  1.00  0.00    -0.044 A 
ATOM     43  H   UNL     1     -45.726  32.206  25.478  1.00  0.00     0.066 H 
ATOM     44  C   UNL     1     -49.532  32.024  24.640  1.00  0.00     0.048 A 
ATOM     45  H   UNL     1     -49.817  33.124  26.453  1.00  0.00     0.068 H 
ATOM     46  C   UNL     1     -48.577  31.469  23.767  1.00  0.00     0.063 A 
ATOM     47  H   UNL     1     -46.471  31.149  23.373  1.00  0.00     0.063 H 
BRANCH  44  48
ATOM     48  N   UNL     1     -50.885  32.138  24.309  1.00  0.00    -0.398 N 
ATOM     49  H   UNL     1     -51.145  32.074  23.333  1.00  0.00     0.156 HD
ATOM     50  H   UNL     1     -51.432  32.793  24.868  1.00  0.00     0.156 HD
ENDBRANCH  44  48
BRANCH  46  51
ATOM     51  C   UNL     1     -48.992  30.794  22.510  1.00  0.00     0.256 C 
ATOM     52  O   UNL     1     -48.942  31.418  21.454  1.00  0.00    -0.269 OA
ATOM     53  N   UNL     1     -49.437  29.476  22.576  1.00  0.00    -0.334 N 
ATOM     54  C   UNL     1     -49.865  28.786  23.800  1.00  0.00     0.044 C 
ATOM     55  C   UNL     1     -49.763  28.786  21.326  1.00  0.00     0.044 C 
ATOM     56  C   UNL     1     -51.023  27.824  23.513  1.00  0.00     0.064 C 
ATOM     57  H   UNL     1     -50.163  29.510  24.564  1.00  0.00     0.052 H 
ATOM     58  H   UNL     1     -48.998  28.221  24.160  1.00  0.00     0.052 H 
ATOM     59  C   UNL     1     -49.783  27.270  21.526  1.00  0.00     0.064 C 
ATOM     60  H   UNL     1     -49.039  29.065  20.552  1.00  0.00     0.052 H 
ATOM     61  H   UNL     1     -50.752  29.143  21.013  1.00  0.00     0.052 H 
ATOM     62  O   UNL     1     -50.705  26.827  22.533  1.00  0.00    -0.378 OA
ATOM     63  H   UNL     1     -51.318  27.303  24.430  1.00  0.00     0.059 H 
ATOM     64  H   UNL     1     -51.899  28.377  23.154  1.00  0.00     0.059 H 
ATOM     65  H   UNL     1     -50.048  26.767  20.591  1.00  0.00     0.059 H 
ATOM     66  H   UNL     1     -48.788  26.914  21.818  1.00  0.00     0.059 H 
ENDBRANCH  46  51
ENDBRANCH  38  39
ENDBRANCH  35  38
ENDBRANCH   5  35
TORSDOF 9
ENDMDL
