MODEL 1
REMARK VINA RESULT:      -9.2      0.000      0.000
REMARK SMILES CCCNc1ncnc2c1ccn2[C@@H]1C[C@H](CCc2ccc3ccc(N)nc3c2)[C@@H](O)[C@H]1O
REMARK SMILES IDX 5 1 6 2 7 3 8 4 9 5 10 6 11 7 12 8 13 9 4 13 3 15 2 18 1 21
REMARK SMILES IDX 14 25 15 26 32 27 16 29 30 32 33 36 17 38 18 41 19 44 20 45
REMARK SMILES IDX 29 46 21 47 28 49 22 51 27 53 23 54 25 55 24 56 26 59 31 62
REMARK H PARENT 7 10 11 11 12 12 4 14 3 16 3 17 2 19 2 20 1 22 1 23 1 24 14 28
REMARK H PARENT 15 30 15 31 32 33 16 34 30 35 33 37 17 39 17 40 18 42 18 43
REMARK H PARENT 20 48 29 50 21 52 23 57 24 58 26 60 26 61 31 63
REMARK Flexibility Score: inf
ROOT
ATOM      1  C   UNL     1     -47.605  30.263  23.654  1.00  0.00     0.138 A 
ATOM      2  N   UNL     1     -48.431  29.507  24.415  1.00  0.00    -0.219 NA
ATOM      3  C   UNL     1     -48.740  29.924  25.657  1.00  0.00     0.120 A 
ATOM      4  N   UNL     1     -48.324  31.036  26.289  1.00  0.00    -0.218 NA
ATOM      5  C   UNL     1     -47.528  31.777  25.497  1.00  0.00     0.145 A 
ATOM      6  C   UNL     1     -47.123  31.464  24.208  1.00  0.00     0.061 A 
ATOM      7  C   UNL     1     -46.264  32.517  23.786  1.00  0.00    -0.031 A 
ATOM      8  C   UNL     1     -46.165  33.424  24.822  1.00  0.00     0.007 A 
ATOM      9  N   UNL     1     -46.962  32.986  25.848  1.00  0.00    -0.327 N 
ATOM     10  H   UNL     1     -49.408  29.277  26.218  1.00  0.00     0.106 H 
ATOM     11  H   UNL     1     -45.762  32.599  22.832  1.00  0.00     0.065 H 
ATOM     12  H   UNL     1     -45.592  34.338  24.882  1.00  0.00     0.082 H 
ENDROOT
BRANCH   1  13
ATOM     13  N   UNL     1     -47.259  29.858  22.369  1.00  0.00    -0.369 N 
ATOM     14  H   UNL     1     -47.217  28.852  22.264  1.00  0.00     0.162 HD
BRANCH  13  15
ATOM     15  C   UNL     1     -47.828  30.587  21.244  1.00  0.00     0.016 C 
ATOM     16  H   UNL     1     -47.143  30.484  20.395  1.00  0.00     0.049 H 
ATOM     17  H   UNL     1     -47.880  31.662  21.456  1.00  0.00     0.049 H 
BRANCH  15  18
ATOM     18  C   UNL     1     -49.208  30.063  20.841  1.00  0.00    -0.039 C 
ATOM     19  H   UNL     1     -49.226  28.968  20.850  1.00  0.00     0.028 H 
ATOM     20  H   UNL     1     -49.937  30.397  21.590  1.00  0.00     0.028 H 
BRANCH  18  21
ATOM     21  C   UNL     1     -49.660  30.559  19.475  1.00  0.00    -0.064 C 
ATOM     22  H   UNL     1     -48.822  30.967  18.900  1.00  0.00     0.023 H 
ATOM     23  H   UNL     1     -50.424  31.337  19.573  1.00  0.00     0.023 H 
ATOM     24  H   UNL     1     -50.089  29.734  18.899  1.00  0.00     0.023 H 
ENDBRANCH  18  21
ENDBRANCH  15  18
ENDBRANCH  13  15
ENDBRANCH   1  13
BRANCH   9  25
ATOM     25  C   UNL     1     -47.189  33.609  27.148  1.00  0.00     0.064 C 
ATOM     26  C   UNL     1     -48.068  34.878  27.182  1.00  0.00    -0.024 C 
ATOM     27  C   UNL     1     -45.845  34.011  27.793  1.00  0.00     0.101 C 
ATOM     28  H   UNL     1     -47.691  32.836  27.748  1.00  0.00     0.056 H 
ATOM     29  C   UNL     1     -47.157  36.030  27.646  1.00  0.00    -0.010 C 
ATOM     30  H   UNL     1     -48.606  35.103  26.257  1.00  0.00     0.029 H 
ATOM     31  H   UNL     1     -48.844  34.729  27.947  1.00  0.00     0.029 H 
ATOM     32  C   UNL     1     -46.151  35.309  28.544  1.00  0.00     0.085 C 
ATOM     33  H   UNL     1     -45.069  34.187  27.040  1.00  0.00     0.065 H 
ATOM     34  H   UNL     1     -47.757  36.746  28.222  1.00  0.00     0.033 H 
ATOM     35  H   UNL     1     -45.247  35.880  28.768  1.00  0.00     0.063 H 
BRANCH  27  36
ATOM     36  O   UNL     1     -45.364  33.024  28.709  1.00  0.00    -0.388 OA
ATOM     37  H   UNL     1     -44.795  33.505  29.350  1.00  0.00     0.211 HD
ENDBRANCH  27  36
BRANCH  29  38
ATOM     38  C   UNL     1     -46.524  36.758  26.447  1.00  0.00    -0.044 C 
ATOM     39  H   UNL     1     -45.444  36.578  26.408  1.00  0.00     0.027 H 
ATOM     40  H   UNL     1     -46.936  36.332  25.522  1.00  0.00     0.027 H 
BRANCH  38  41
ATOM     41  C   UNL     1     -46.795  38.266  26.461  1.00  0.00    -0.027 C 
ATOM     42  H   UNL     1     -47.712  38.495  27.014  1.00  0.00     0.032 H 
ATOM     43  H   UNL     1     -46.960  38.628  25.437  1.00  0.00     0.032 H 
BRANCH  41  44
ATOM     44  C   UNL     1     -45.649  39.022  27.086  1.00  0.00    -0.046 A 
ATOM     45  C   UNL     1     -45.218  38.722  28.380  1.00  0.00    -0.058 A 
ATOM     46  C   UNL     1     -45.019  40.062  26.384  1.00  0.00    -0.033 A 
ATOM     47  C   UNL     1     -44.170  39.442  28.950  1.00  0.00    -0.053 A 
ATOM     48  H   UNL     1     -45.692  37.926  28.950  1.00  0.00     0.063 H 
ATOM     49  C   UNL     1     -43.973  40.797  26.929  1.00  0.00     0.073 A 
ATOM     50  H   UNL     1     -45.346  40.312  25.376  1.00  0.00     0.065 H 
ATOM     51  C   UNL     1     -43.545  40.476  28.232  1.00  0.00     0.000 A 
ATOM     52  H   UNL     1     -43.842  39.193  29.957  1.00  0.00     0.063 H 
ATOM     53  N   UNL     1     -43.409  41.782  26.205  1.00  0.00    -0.231 NA
ATOM     54  C   UNL     1     -42.490  41.216  28.774  1.00  0.00    -0.049 A 
ATOM     55  C   UNL     1     -42.400  42.481  26.752  1.00  0.00     0.124 A 
ATOM     56  C   UNL     1     -41.907  42.230  28.021  1.00  0.00    -0.019 A 
ATOM     57  H   UNL     1     -42.113  41.007  29.770  1.00  0.00     0.063 H 
ATOM     58  H   UNL     1     -41.076  42.802  28.416  1.00  0.00     0.066 H 
BRANCH  55  59
ATOM     59  N   UNL     1     -41.832  43.475  25.959  1.00  0.00    -0.384 N 
ATOM     60  H   UNL     1     -41.388  44.136  26.591  1.00  0.00     0.158 HD
ATOM     61  H   UNL     1     -41.174  43.090  25.292  1.00  0.00     0.158 HD
ENDBRANCH  55  59
ENDBRANCH  41  44
ENDBRANCH  38  41
ENDBRANCH  29  38
BRANCH  32  62
ATOM     62  O   UNL     1     -46.779  34.998  29.791  1.00  0.00    -0.390 OA
ATOM     63  H   UNL     1     -46.052  34.665  30.359  1.00  0.00     0.211 HD
ENDBRANCH  32  62
ENDBRANCH   9  25
TORSDOF 11
ENDMDL
MODEL 2
REMARK VINA RESULT:      -9.0      2.004     10.242
REMARK SMILES CCCNc1ncnc2c1ccn2[C@@H]1C[C@H](CCc2ccc3ccc(N)nc3c2)[C@@H](O)[C@H]1O
REMARK SMILES IDX 5 1 6 2 7 3 8 4 9 5 10 6 11 7 12 8 13 9 4 13 3 15 2 18 1 21
REMARK SMILES IDX 14 25 15 26 32 27 16 29 30 32 33 36 17 38 18 41 19 44 20 45
REMARK SMILES IDX 29 46 21 47 28 49 22 51 27 53 23 54 25 55 24 56 26 59 31 62
REMARK H PARENT 7 10 11 11 12 12 4 14 3 16 3 17 2 19 2 20 1 22 1 23 1 24 14 28
REMARK H PARENT 15 30 15 31 32 33 16 34 30 35 33 37 17 39 17 40 18 42 18 43
REMARK H PARENT 20 48 29 50 21 52 23 57 24 58 26 60 26 61 31 63
REMARK Flexibility Score: inf
ROOT
ATOM      1  C   UNL     1     -43.610  42.466  26.788  1.00  0.00     0.138 A 
ATOM      2  N   UNL     1     -42.594  42.560  27.678  1.00  0.00    -0.219 NA
ATOM      3  C   UNL     1     -42.435  41.585  28.592  1.00  0.00     0.120 A 
ATOM      4  N   UNL     1     -43.176  40.477  28.766  1.00  0.00    -0.218 NA
ATOM      5  C   UNL     1     -44.159  40.401  27.850  1.00  0.00     0.145 A 
ATOM      6  C   UNL     1     -44.442  41.332  26.862  1.00  0.00     0.061 A 
ATOM      7  C   UNL     1     -45.581  40.847  26.163  1.00  0.00    -0.031 A 
ATOM      8  C   UNL     1     -45.960  39.654  26.743  1.00  0.00     0.007 A 
ATOM      9  N   UNL     1     -45.072  39.370  27.748  1.00  0.00    -0.327 N 
ATOM     10  H   UNL     1     -41.602  41.715  29.278  1.00  0.00     0.106 H 
ATOM     11  H   UNL     1     -46.081  41.325  25.330  1.00  0.00     0.065 H 
ATOM     12  H   UNL     1     -46.788  39.004  26.500  1.00  0.00     0.082 H 
ENDROOT
BRANCH   1  13
ATOM     13  N   UNL     1     -43.808  43.458  25.834  1.00  0.00    -0.369 N 
ATOM     14  H   UNL     1     -44.501  43.213  25.138  1.00  0.00     0.162 HD
BRANCH  13  15
ATOM     15  C   UNL     1     -43.824  44.844  26.279  1.00  0.00     0.016 C 
ATOM     16  H   UNL     1     -43.803  45.485  25.389  1.00  0.00     0.049 H 
ATOM     17  H   UNL     1     -42.914  45.088  26.842  1.00  0.00     0.049 H 
BRANCH  15  18
ATOM     18  C   UNL     1     -45.064  45.181  27.111  1.00  0.00    -0.039 C 
ATOM     19  H   UNL     1     -45.441  44.290  27.624  1.00  0.00     0.028 H 
ATOM     20  H   UNL     1     -44.774  45.896  27.890  1.00  0.00     0.028 H 
BRANCH  18  21
ATOM     21  C   UNL     1     -46.186  45.796  26.287  1.00  0.00    -0.064 C 
ATOM     22  H   UNL     1     -46.935  46.276  26.926  1.00  0.00     0.023 H 
ATOM     23  H   UNL     1     -46.688  45.038  25.678  1.00  0.00     0.023 H 
ATOM     24  H   UNL     1     -45.784  46.560  25.615  1.00  0.00     0.023 H 
ENDBRANCH  18  21
ENDBRANCH  15  18
ENDBRANCH  13  15
ENDBRANCH   1  13
BRANCH   9  25
ATOM     25  C   UNL     1     -45.054  38.217  28.642  1.00  0.00     0.064 C 
ATOM     26  C   UNL     1     -44.651  36.855  28.036  1.00  0.00    -0.024 C 
ATOM     27  C   UNL     1     -46.448  38.002  29.270  1.00  0.00     0.101 C 
ATOM     28  H   UNL     1     -44.315  38.471  29.417  1.00  0.00     0.056 H 
ATOM     29  C   UNL     1     -45.892  35.947  28.134  1.00  0.00    -0.010 C 
ATOM     30  H   UNL     1     -44.230  36.896  27.028  1.00  0.00     0.029 H 
ATOM     31  H   UNL     1     -43.863  36.425  28.669  1.00  0.00     0.029 H 
ATOM     32  C   UNL     1     -46.588  36.482  29.386  1.00  0.00     0.085 C 
ATOM     33  H   UNL     1     -47.246  38.405  28.636  1.00  0.00     0.065 H 
ATOM     34  H   UNL     1     -45.561  34.911  28.280  1.00  0.00     0.033 H 
ATOM     35  H   UNL     1     -47.629  36.171  29.499  1.00  0.00     0.063 H 
BRANCH  27  36
ATOM     36  O   UNL     1     -46.561  38.599  30.565  1.00  0.00    -0.388 OA
ATOM     37  H   UNL     1     -46.980  37.920  31.139  1.00  0.00     0.211 HD
ENDBRANCH  27  36
BRANCH  29  38
ATOM     38  C   UNL     1     -46.744  36.026  26.856  1.00  0.00    -0.044 C 
ATOM     39  H   UNL     1     -46.849  37.064  26.521  1.00  0.00     0.027 H 
ATOM     40  H   UNL     1     -46.215  35.499  26.051  1.00  0.00     0.027 H 
BRANCH  38  41
ATOM     41  C   UNL     1     -48.131  35.397  27.031  1.00  0.00    -0.027 C 
ATOM     42  H   UNL     1     -48.917  36.087  26.704  1.00  0.00     0.032 H 
ATOM     43  H   UNL     1     -48.323  35.198  28.093  1.00  0.00     0.032 H 
BRANCH  41  44
ATOM     44  C   UNL     1     -48.253  34.115  26.245  1.00  0.00    -0.046 A 
ATOM     45  C   UNL     1     -49.460  33.413  26.211  1.00  0.00    -0.058 A 
ATOM     46  C   UNL     1     -47.143  33.594  25.561  1.00  0.00    -0.033 A 
ATOM     47  C   UNL     1     -49.551  32.219  25.497  1.00  0.00    -0.053 A 
ATOM     48  H   UNL     1     -50.334  33.788  26.738  1.00  0.00     0.063 H 
ATOM     49  C   UNL     1     -47.206  32.407  24.842  1.00  0.00     0.073 A 
ATOM     50  H   UNL     1     -46.195  34.128  25.582  1.00  0.00     0.065 H 
ATOM     51  C   UNL     1     -48.433  31.714  24.812  1.00  0.00     0.000 A 
ATOM     52  H   UNL     1     -50.499  31.686  25.474  1.00  0.00     0.063 H 
ATOM     53  N   UNL     1     -46.107  31.959  24.208  1.00  0.00    -0.231 NA
ATOM     54  C   UNL     1     -48.491  30.522  24.083  1.00  0.00    -0.049 A 
ATOM     55  C   UNL     1     -46.190  30.808  23.519  1.00  0.00     0.124 A 
ATOM     56  C   UNL     1     -47.354  30.065  23.425  1.00  0.00    -0.019 A 
ATOM     57  H   UNL     1     -49.412  29.951  24.018  1.00  0.00     0.063 H 
ATOM     58  H   UNL     1     -47.384  29.153  22.840  1.00  0.00     0.066 H 
BRANCH  55  59
ATOM     59  N   UNL     1     -45.035  30.395  22.859  1.00  0.00    -0.384 N 
ATOM     60  H   UNL     1     -44.438  31.214  22.775  1.00  0.00     0.158 HD
ATOM     61  H   UNL     1     -44.572  29.641  23.353  1.00  0.00     0.158 HD
ENDBRANCH  55  59
ENDBRANCH  41  44
ENDBRANCH  38  41
ENDBRANCH  29  38
BRANCH  32  62
ATOM     62  O   UNL     1     -45.879  36.029  30.543  1.00  0.00    -0.390 OA
ATOM     63  H   UNL     1     -46.106  36.678  31.244  1.00  0.00     0.211 HD
ENDBRANCH  32  62
ENDBRANCH   9  25
TORSDOF 11
ENDMDL
MODEL 3
REMARK VINA RESULT:      -8.9      1.955     10.388
REMARK SMILES CCCNc1ncnc2c1ccn2[C@@H]1C[C@H](CCc2ccc3ccc(N)nc3c2)[C@@H](O)[C@H]1O
REMARK SMILES IDX 5 1 6 2 7 3 8 4 9 5 10 6 11 7 12 8 13 9 4 13 3 15 2 18 1 21
REMARK SMILES IDX 14 25 15 26 32 27 16 29 30 32 33 36 17 38 18 41 19 44 20 45
REMARK SMILES IDX 29 46 21 47 28 49 22 51 27 53 23 54 25 55 24 56 26 59 31 62
REMARK H PARENT 7 10 11 11 12 12 4 14 3 16 3 17 2 19 2 20 1 22 1 23 1 24 14 28
REMARK H PARENT 15 30 15 31 32 33 16 34 30 35 33 37 17 39 17 40 18 42 18 43
REMARK H PARENT 20 48 29 50 21 52 23 57 24 58 26 60 26 61 31 63
REMARK Flexibility Score: inf
ROOT
ATOM      1  C   UNL     1     -44.385  41.813  27.037  1.00  0.00     0.138 A 
ATOM      2  N   UNL     1     -43.381  41.889  27.941  1.00  0.00    -0.219 NA
ATOM      3  C   UNL     1     -43.142  40.835  28.743  1.00  0.00     0.120 A 
ATOM      4  N   UNL     1     -43.791  39.658  28.785  1.00  0.00    -0.218 NA
ATOM      5  C   UNL     1     -44.764  39.605  27.857  1.00  0.00     0.145 A 
ATOM      6  C   UNL     1     -45.121  40.615  26.977  1.00  0.00     0.061 A 
ATOM      7  C   UNL     1     -46.217  40.120  26.217  1.00  0.00    -0.031 A 
ATOM      8  C   UNL     1     -46.497  38.843  26.658  1.00  0.00     0.007 A 
ATOM      9  N   UNL     1     -45.589  38.522  27.633  1.00  0.00    -0.327 N 
ATOM     10  H   UNL     1     -42.324  40.955  29.447  1.00  0.00     0.106 H 
ATOM     11  H   UNL     1     -46.753  40.645  25.438  1.00  0.00     0.065 H 
ATOM     12  H   UNL     1     -47.270  38.158  26.335  1.00  0.00     0.082 H 
ENDROOT
BRANCH   1  13
ATOM     13  N   UNL     1     -44.663  42.887  26.197  1.00  0.00    -0.369 N 
ATOM     14  H   UNL     1     -44.712  43.773  26.683  1.00  0.00     0.162 HD
BRANCH  13  15
ATOM     15  C   UNL     1     -44.024  42.918  24.889  1.00  0.00     0.016 C 
ATOM     16  H   UNL     1     -44.722  43.383  24.183  1.00  0.00     0.049 H 
ATOM     17  H   UNL     1     -43.849  41.903  24.511  1.00  0.00     0.049 H 
BRANCH  15  18
ATOM     18  C   UNL     1     -42.714  43.711  24.894  1.00  0.00    -0.039 C 
ATOM     19  H   UNL     1     -42.901  44.768  25.108  1.00  0.00     0.028 H 
ATOM     20  H   UNL     1     -42.083  43.331  25.707  1.00  0.00     0.028 H 
BRANCH  18  21
ATOM     21  C   UNL     1     -41.940  43.594  23.589  1.00  0.00    -0.064 C 
ATOM     22  H   UNL     1     -42.537  43.938  22.738  1.00  0.00     0.023 H 
ATOM     23  H   UNL     1     -41.638  42.558  23.403  1.00  0.00     0.023 H 
ATOM     24  H   UNL     1     -41.036  44.208  23.632  1.00  0.00     0.023 H 
ENDBRANCH  18  21
ENDBRANCH  15  18
ENDBRANCH  13  15
ENDBRANCH   1  13
BRANCH   9  25
ATOM     25  C   UNL     1     -45.477  37.281  28.394  1.00  0.00     0.064 C 
ATOM     26  C   UNL     1     -45.025  36.018  27.629  1.00  0.00    -0.024 C 
ATOM     27  C   UNL     1     -46.834  36.920  29.036  1.00  0.00     0.101 C 
ATOM     28  H   UNL     1     -44.726  37.491  29.169  1.00  0.00     0.056 H 
ATOM     29  C   UNL     1     -46.211  35.036  27.664  1.00  0.00    -0.010 C 
ATOM     30  H   UNL     1     -44.643  36.192  26.619  1.00  0.00     0.029 H 
ATOM     31  H   UNL     1     -44.192  35.567  28.187  1.00  0.00     0.029 H 
ATOM     32  C   UNL     1     -46.889  35.391  28.988  1.00  0.00     0.085 C 
ATOM     33  H   UNL     1     -47.675  37.344  28.474  1.00  0.00     0.065 H 
ATOM     34  H   UNL     1     -45.821  34.010  27.685  1.00  0.00     0.033 H 
ATOM     35  H   UNL     1     -47.907  35.010  29.097  1.00  0.00     0.063 H 
BRANCH  27  36
ATOM     36  O   UNL     1     -46.932  37.366  30.391  1.00  0.00    -0.388 OA
ATOM     37  H   UNL     1     -47.841  37.727  30.491  1.00  0.00     0.211 HD
ENDBRANCH  27  36
BRANCH  29  38
ATOM     38  C   UNL     1     -47.112  35.204  26.429  1.00  0.00    -0.044 C 
ATOM     39  H   UNL     1     -47.505  36.225  26.369  1.00  0.00     0.027 H 
ATOM     40  H   UNL     1     -46.500  35.061  25.528  1.00  0.00     0.027 H 
BRANCH  38  41
ATOM     41  C   UNL     1     -48.272  34.202  26.402  1.00  0.00    -0.027 C 
ATOM     42  H   UNL     1     -49.162  34.646  25.943  1.00  0.00     0.032 H 
ATOM     43  H   UNL     1     -48.560  33.933  27.427  1.00  0.00     0.032 H 
BRANCH  41  44
ATOM     44  C   UNL     1     -47.901  32.956  25.637  1.00  0.00    -0.046 A 
ATOM     45  C   UNL     1     -46.794  32.945  24.786  1.00  0.00    -0.058 A 
ATOM     46  C   UNL     1     -48.686  31.796  25.748  1.00  0.00    -0.033 A 
ATOM     47  C   UNL     1     -46.476  31.791  24.072  1.00  0.00    -0.053 A 
ATOM     48  H   UNL     1     -46.172  33.830  24.674  1.00  0.00     0.063 H 
ATOM     49  C   UNL     1     -48.392  30.633  25.047  1.00  0.00     0.073 A 
ATOM     50  H   UNL     1     -49.554  31.791  26.404  1.00  0.00     0.065 H 
ATOM     51  C   UNL     1     -47.267  30.636  24.199  1.00  0.00     0.000 A 
ATOM     52  H   UNL     1     -45.607  31.795  23.417  1.00  0.00     0.063 H 
ATOM     53  N   UNL     1     -49.183  29.554  25.196  1.00  0.00    -0.231 NA
ATOM     54  C   UNL     1     -46.975  29.461  23.498  1.00  0.00    -0.049 A 
ATOM     55  C   UNL     1     -48.881  28.441  24.507  1.00  0.00     0.124 A 
ATOM     56  C   UNL     1     -47.791  28.348  23.659  1.00  0.00    -0.019 A 
ATOM     57  H   UNL     1     -46.116  29.404  22.837  1.00  0.00     0.063 H 
ATOM     58  H   UNL     1     -47.570  27.422  23.140  1.00  0.00     0.066 H 
BRANCH  55  59
ATOM     59  N   UNL     1     -49.713  27.341  24.710  1.00  0.00    -0.384 N 
ATOM     60  H   UNL     1     -49.131  26.601  25.093  1.00  0.00     0.158 HD
ATOM     61  H   UNL     1     -50.487  27.568  25.323  1.00  0.00     0.158 HD
ENDBRANCH  55  59
ENDBRANCH  41  44
ENDBRANCH  38  41
ENDBRANCH  29  38
BRANCH  32  62
ATOM     62  O   UNL     1     -46.116  34.857  30.066  1.00  0.00    -0.390 OA
ATOM     63  H   UNL     1     -45.688  34.056  29.693  1.00  0.00     0.211 HD
ENDBRANCH  32  62
ENDBRANCH   9  25
TORSDOF 11
ENDMDL
MODEL 4
REMARK VINA RESULT:      -8.8      2.266     10.048
REMARK SMILES CCCNc1ncnc2c1ccn2[C@@H]1C[C@H](CCc2ccc3ccc(N)nc3c2)[C@@H](O)[C@H]1O
REMARK SMILES IDX 5 1 6 2 7 3 8 4 9 5 10 6 11 7 12 8 13 9 4 13 3 15 2 18 1 21
REMARK SMILES IDX 14 25 15 26 32 27 16 29 30 32 33 36 17 38 18 41 19 44 20 45
REMARK SMILES IDX 29 46 21 47 28 49 22 51 27 53 23 54 25 55 24 56 26 59 31 62
REMARK H PARENT 7 10 11 11 12 12 4 14 3 16 3 17 2 19 2 20 1 22 1 23 1 24 14 28
REMARK H PARENT 15 30 15 31 32 33 16 34 30 35 33 37 17 39 17 40 18 42 18 43
REMARK H PARENT 20 48 29 50 21 52 23 57 24 58 26 60 26 61 31 63
REMARK Flexibility Score: inf
ROOT
ATOM      1  C   UNL     1     -43.288  40.326  28.623  1.00  0.00     0.138 A 
ATOM      2  N   UNL     1     -42.902  39.761  29.791  1.00  0.00    -0.219 NA
ATOM      3  C   UNL     1     -43.741  38.916  30.417  1.00  0.00     0.120 A 
ATOM      4  N   UNL     1     -44.972  38.532  30.037  1.00  0.00    -0.218 NA
ATOM      5  C   UNL     1     -45.314  39.089  28.861  1.00  0.00     0.145 A 
ATOM      6  C   UNL     1     -44.555  39.979  28.117  1.00  0.00     0.061 A 
ATOM      7  C   UNL     1     -45.334  40.321  26.977  1.00  0.00    -0.031 A 
ATOM      8  C   UNL     1     -46.534  39.645  27.064  1.00  0.00     0.007 A 
ATOM      9  N   UNL     1     -46.504  38.871  28.196  1.00  0.00    -0.327 N 
ATOM     10  H   UNL     1     -43.375  38.494  31.349  1.00  0.00     0.106 H 
ATOM     11  H   UNL     1     -45.054  40.999  26.182  1.00  0.00     0.065 H 
ATOM     12  H   UNL     1     -47.385  39.666  26.398  1.00  0.00     0.082 H 
ENDROOT
BRANCH   1  13
ATOM     13  N   UNL     1     -42.448  41.210  27.953  1.00  0.00    -0.369 N 
ATOM     14  H   UNL     1     -42.385  41.027  26.959  1.00  0.00     0.162 HD
BRANCH  13  15
ATOM     15  C   UNL     1     -42.484  42.613  28.336  1.00  0.00     0.016 C 
ATOM     16  H   UNL     1     -41.451  42.977  28.383  1.00  0.00     0.049 H 
ATOM     17  H   UNL     1     -42.890  42.736  29.347  1.00  0.00     0.049 H 
BRANCH  15  18
ATOM     18  C   UNL     1     -43.273  43.473  27.345  1.00  0.00    -0.039 C 
ATOM     19  H   UNL     1     -44.349  43.313  27.462  1.00  0.00     0.028 H 
ATOM     20  H   UNL     1     -43.082  44.528  27.575  1.00  0.00     0.028 H 
BRANCH  18  21
ATOM     21  C   UNL     1     -42.886  43.220  25.894  1.00  0.00    -0.064 C 
ATOM     22  H   UNL     1     -42.436  44.108  25.439  1.00  0.00     0.023 H 
ATOM     23  H   UNL     1     -43.758  42.930  25.300  1.00  0.00     0.023 H 
ATOM     24  H   UNL     1     -42.153  42.409  25.837  1.00  0.00     0.023 H 
ENDBRANCH  18  21
ENDBRANCH  15  18
ENDBRANCH  13  15
ENDBRANCH   1  13
BRANCH   9  25
ATOM     25  C   UNL     1     -47.537  37.977  28.709  1.00  0.00     0.064 C 
ATOM     26  C   UNL     1     -47.226  36.464  28.717  1.00  0.00    -0.024 C 
ATOM     27  C   UNL     1     -48.838  38.134  27.893  1.00  0.00     0.101 C 
ATOM     28  H   UNL     1     -47.692  38.293  29.751  1.00  0.00     0.056 H 
ATOM     29  C   UNL     1     -48.220  35.807  27.741  1.00  0.00    -0.010 C 
ATOM     30  H   UNL     1     -46.185  36.197  28.513  1.00  0.00     0.029 H 
ATOM     31  H   UNL     1     -47.437  36.083  29.726  1.00  0.00     0.029 H 
ATOM     32  C   UNL     1     -49.437  36.727  27.847  1.00  0.00     0.085 C 
ATOM     33  H   UNL     1     -48.639  38.491  26.876  1.00  0.00     0.065 H 
ATOM     34  H   UNL     1     -48.456  34.798  28.102  1.00  0.00     0.033 H 
ATOM     35  H   UNL     1     -50.167  36.614  27.043  1.00  0.00     0.063 H 
BRANCH  27  36
ATOM     36  O   UNL     1     -49.763  39.034  28.509  1.00  0.00    -0.388 OA
ATOM     37  H   UNL     1     -49.698  39.875  28.004  1.00  0.00     0.211 HD
ENDBRANCH  27  36
BRANCH  29  38
ATOM     38  C   UNL     1     -47.627  35.706  26.325  1.00  0.00    -0.044 C 
ATOM     39  H   UNL     1     -48.407  35.466  25.592  1.00  0.00     0.027 H 
ATOM     40  H   UNL     1     -47.235  36.691  26.039  1.00  0.00     0.027 H 
BRANCH  38  41
ATOM     41  C   UNL     1     -46.496  34.677  26.229  1.00  0.00    -0.027 C 
ATOM     42  H   UNL     1     -46.100  34.436  27.222  1.00  0.00     0.032 H 
ATOM     43  H   UNL     1     -45.655  35.094  25.659  1.00  0.00     0.032 H 
BRANCH  41  44
ATOM     44  C   UNL     1     -46.969  33.403  25.574  1.00  0.00    -0.046 A 
ATOM     45  C   UNL     1     -48.209  32.852  25.900  1.00  0.00    -0.058 A 
ATOM     46  C   UNL     1     -46.151  32.738  24.646  1.00  0.00    -0.033 A 
ATOM     47  C   UNL     1     -48.624  31.664  25.299  1.00  0.00    -0.053 A 
ATOM     48  H   UNL     1     -48.861  33.341  26.620  1.00  0.00     0.063 H 
ATOM     49  C   UNL     1     -46.538  31.552  24.034  1.00  0.00     0.073 A 
ATOM     50  H   UNL     1     -45.179  33.153  24.385  1.00  0.00     0.065 H 
ATOM     51  C   UNL     1     -47.796  31.013  24.368  1.00  0.00     0.000 A 
ATOM     52  H   UNL     1     -49.595  31.249  25.559  1.00  0.00     0.063 H 
ATOM     53  N   UNL     1     -45.710  30.961  23.153  1.00  0.00    -0.231 NA
ATOM     54  C   UNL     1     -48.183  29.822  23.745  1.00  0.00    -0.049 A 
ATOM     55  C   UNL     1     -46.104  29.815  22.573  1.00  0.00     0.124 A 
ATOM     56  C   UNL     1     -47.325  29.218  22.832  1.00  0.00    -0.019 A 
ATOM     57  H   UNL     1     -49.144  29.366  23.958  1.00  0.00     0.063 H 
ATOM     58  H   UNL     1     -47.615  28.304  22.325  1.00  0.00     0.066 H 
BRANCH  55  59
ATOM     59  N   UNL     1     -45.224  29.252  21.651  1.00  0.00    -0.384 N 
ATOM     60  H   UNL     1     -45.780  28.656  21.043  1.00  0.00     0.158 HD
ATOM     61  H   UNL     1     -44.726  29.962  21.130  1.00  0.00     0.158 HD
ENDBRANCH  55  59
ENDBRANCH  41  44
ENDBRANCH  38  41
ENDBRANCH  29  38
BRANCH  32  62
ATOM     62  O   UNL     1     -50.115  36.462  29.079  1.00  0.00    -0.390 OA
ATOM     63  H   UNL     1     -51.066  36.586  28.871  1.00  0.00     0.211 HD
ENDBRANCH  32  62
ENDBRANCH   9  25
TORSDOF 11
ENDMDL
MODEL 5
REMARK VINA RESULT:      -8.6      1.532      2.112
REMARK SMILES CCCNc1ncnc2c1ccn2[C@@H]1C[C@H](CCc2ccc3ccc(N)nc3c2)[C@@H](O)[C@H]1O
REMARK SMILES IDX 5 1 6 2 7 3 8 4 9 5 10 6 11 7 12 8 13 9 4 13 3 15 2 18 1 21
REMARK SMILES IDX 14 25 15 26 32 27 16 29 30 32 33 36 17 38 18 41 19 44 20 45
REMARK SMILES IDX 29 46 21 47 28 49 22 51 27 53 23 54 25 55 24 56 26 59 31 62
REMARK H PARENT 7 10 11 11 12 12 4 14 3 16 3 17 2 19 2 20 1 22 1 23 1 24 14 28
REMARK H PARENT 15 30 15 31 32 33 16 34 30 35 33 37 17 39 17 40 18 42 18 43
REMARK H PARENT 20 48 29 50 21 52 23 57 24 58 26 60 26 61 31 63
REMARK Flexibility Score: inf
ROOT
ATOM      1  C   UNL     1     -47.931  30.877  23.688  1.00  0.00     0.138 A 
ATOM      2  N   UNL     1     -48.791  30.146  24.437  1.00  0.00    -0.219 NA
ATOM      3  C   UNL     1     -49.022  30.513  25.711  1.00  0.00     0.120 A 
ATOM      4  N   UNL     1     -48.496  31.548  26.388  1.00  0.00    -0.218 NA
ATOM      5  C   UNL     1     -47.668  32.269  25.608  1.00  0.00     0.145 A 
ATOM      6  C   UNL     1     -47.333  32.001  24.289  1.00  0.00     0.061 A 
ATOM      7  C   UNL     1     -46.406  33.005  23.895  1.00  0.00    -0.031 A 
ATOM      8  C   UNL     1     -46.198  33.838  24.975  1.00  0.00     0.007 A 
ATOM      9  N   UNL     1     -46.993  33.405  26.005  1.00  0.00    -0.327 N 
ATOM     10  H   UNL     1     -49.722  29.890  26.260  1.00  0.00     0.106 H 
ATOM     11  H   UNL     1     -45.931  33.102  22.929  1.00  0.00     0.065 H 
ATOM     12  H   UNL     1     -45.549  34.698  25.064  1.00  0.00     0.082 H 
ENDROOT
BRANCH   1  13
ATOM     13  N   UNL     1     -47.664  30.522  22.370  1.00  0.00    -0.369 N 
ATOM     14  H   UNL     1     -48.321  30.915  21.708  1.00  0.00     0.162 HD
BRANCH  13  15
ATOM     15  C   UNL     1     -46.274  30.490  21.937  1.00  0.00     0.016 C 
ATOM     16  H   UNL     1     -45.919  31.524  21.865  1.00  0.00     0.049 H 
ATOM     17  H   UNL     1     -46.186  30.074  20.926  1.00  0.00     0.049 H 
BRANCH  15  18
ATOM     18  C   UNL     1     -45.375  29.717  22.904  1.00  0.00    -0.039 C 
ATOM     19  H   UNL     1     -44.699  30.396  23.435  1.00  0.00     0.028 H 
ATOM     20  H   UNL     1     -46.009  29.245  23.664  1.00  0.00     0.028 H 
BRANCH  18  21
ATOM     21  C   UNL     1     -44.555  28.632  22.220  1.00  0.00    -0.064 C 
ATOM     22  H   UNL     1     -43.983  29.034  21.377  1.00  0.00     0.023 H 
ATOM     23  H   UNL     1     -45.199  27.828  21.849  1.00  0.00     0.023 H 
ATOM     24  H   UNL     1     -43.843  28.197  22.928  1.00  0.00     0.023 H 
ENDBRANCH  18  21
ENDBRANCH  15  18
ENDBRANCH  13  15
ENDBRANCH   1  13
BRANCH   9  25
ATOM     25  C   UNL     1     -47.124  33.967  27.346  1.00  0.00     0.064 C 
ATOM     26  C   UNL     1     -48.039  35.200  27.512  1.00  0.00    -0.024 C 
ATOM     27  C   UNL     1     -45.743  34.392  27.888  1.00  0.00     0.101 C 
ATOM     28  H   UNL     1     -47.545  33.153  27.953  1.00  0.00     0.056 H 
ATOM     29  C   UNL     1     -47.129  36.366  27.942  1.00  0.00    -0.010 C 
ATOM     30  H   UNL     1     -48.664  35.442  26.648  1.00  0.00     0.029 H 
ATOM     31  H   UNL     1     -48.738  34.992  28.334  1.00  0.00     0.029 H 
ATOM     32  C   UNL     1     -46.023  35.648  28.717  1.00  0.00     0.085 C 
ATOM     33  H   UNL     1     -45.043  34.627  27.077  1.00  0.00     0.065 H 
ATOM     34  H   UNL     1     -47.698  37.036  28.600  1.00  0.00     0.033 H 
ATOM     35  H   UNL     1     -45.122  36.242  28.886  1.00  0.00     0.063 H 
BRANCH  27  36
ATOM     36  O   UNL     1     -45.148  33.389  28.714  1.00  0.00    -0.388 OA
ATOM     37  H   UNL     1     -44.976  32.621  28.126  1.00  0.00     0.211 HD
ENDBRANCH  27  36
BRANCH  29  38
ATOM     38  C   UNL     1     -46.630  37.164  26.726  1.00  0.00    -0.044 C 
ATOM     39  H   UNL     1     -45.541  37.085  26.627  1.00  0.00     0.027 H 
ATOM     40  H   UNL     1     -47.050  36.714  25.816  1.00  0.00     0.027 H 
BRANCH  38  41
ATOM     41  C   UNL     1     -47.037  38.641  26.779  1.00  0.00    -0.027 C 
ATOM     42  H   UNL     1     -47.708  38.832  27.624  1.00  0.00     0.032 H 
ATOM     43  H   UNL     1     -47.601  38.909  25.877  1.00  0.00     0.032 H 
BRANCH  41  44
ATOM     44  C   UNL     1     -45.830  39.537  26.906  1.00  0.00    -0.046 A 
ATOM     45  C   UNL     1     -45.480  40.410  25.875  1.00  0.00    -0.058 A 
ATOM     46  C   UNL     1     -45.023  39.481  28.054  1.00  0.00    -0.033 A 
ATOM     47  C   UNL     1     -44.350  41.218  25.999  1.00  0.00    -0.053 A 
ATOM     48  H   UNL     1     -46.081  40.470  24.971  1.00  0.00     0.063 H 
ATOM     49  C   UNL     1     -43.892  40.274  28.204  1.00  0.00     0.073 A 
ATOM     50  H   UNL     1     -45.281  38.802  28.865  1.00  0.00     0.065 H 
ATOM     51  C   UNL     1     -43.557  41.156  27.157  1.00  0.00     0.000 A 
ATOM     52  H   UNL     1     -44.093  41.898  25.190  1.00  0.00     0.063 H 
ATOM     53  N   UNL     1     -43.159  40.175  29.328  1.00  0.00    -0.231 NA
ATOM     54  C   UNL     1     -42.419  41.954  27.315  1.00  0.00    -0.049 A 
ATOM     55  C   UNL     1     -42.069  40.950  29.451  1.00  0.00     0.124 A 
ATOM     56  C   UNL     1     -41.668  41.852  28.481  1.00  0.00    -0.019 A 
ATOM     57  H   UNL     1     -42.118  42.657  26.545  1.00  0.00     0.063 H 
ATOM     58  H   UNL     1     -40.794  42.475  28.630  1.00  0.00     0.066 H 
BRANCH  55  59
ATOM     59  N   UNL     1     -41.354  40.831  30.642  1.00  0.00    -0.384 N 
ATOM     60  H   UNL     1     -41.838  41.399  31.332  1.00  0.00     0.158 HD
ATOM     61  H   UNL     1     -41.277  39.864  30.935  1.00  0.00     0.158 HD
ENDBRANCH  55  59
ENDBRANCH  41  44
ENDBRANCH  38  41
ENDBRANCH  29  38
BRANCH  32  62
ATOM     62  O   UNL     1     -46.527  35.263  30.000  1.00  0.00    -0.390 OA
ATOM     63  H   UNL     1     -47.493  35.156  29.866  1.00  0.00     0.211 HD
ENDBRANCH  32  62
ENDBRANCH   9  25
TORSDOF 11
ENDMDL
MODEL 6
REMARK VINA RESULT:      -8.4      2.380      9.878
REMARK SMILES CCCNc1ncnc2c1ccn2[C@@H]1C[C@H](CCc2ccc3ccc(N)nc3c2)[C@@H](O)[C@H]1O
REMARK SMILES IDX 5 1 6 2 7 3 8 4 9 5 10 6 11 7 12 8 13 9 4 13 3 15 2 18 1 21
REMARK SMILES IDX 14 25 15 26 32 27 16 29 30 32 33 36 17 38 18 41 19 44 20 45
REMARK SMILES IDX 29 46 21 47 28 49 22 51 27 53 23 54 25 55 24 56 26 59 31 62
REMARK H PARENT 7 10 11 11 12 12 4 14 3 16 3 17 2 19 2 20 1 22 1 23 1 24 14 28
REMARK H PARENT 15 30 15 31 32 33 16 34 30 35 33 37 17 39 17 40 18 42 18 43
REMARK H PARENT 20 48 29 50 21 52 23 57 24 58 26 60 26 61 31 63
REMARK Flexibility Score: inf
ROOT
ATOM      1  C   UNL     1     -45.121  42.088  26.150  1.00  0.00     0.138 A 
ATOM      2  N   UNL     1     -46.335  42.679  26.042  1.00  0.00    -0.219 NA
ATOM      3  C   UNL     1     -47.410  42.065  26.569  1.00  0.00     0.120 A 
ATOM      4  N   UNL     1     -47.462  40.887  27.216  1.00  0.00    -0.218 NA
ATOM      5  C   UNL     1     -46.238  40.340  27.329  1.00  0.00     0.145 A 
ATOM      6  C   UNL     1     -45.052  40.857  26.829  1.00  0.00     0.061 A 
ATOM      7  C   UNL     1     -44.032  39.921  27.158  1.00  0.00    -0.031 A 
ATOM      8  C   UNL     1     -44.620  38.871  27.833  1.00  0.00     0.007 A 
ATOM      9  N   UNL     1     -45.957  39.146  27.963  1.00  0.00    -0.327 N 
ATOM     10  H   UNL     1     -48.355  42.588  26.452  1.00  0.00     0.106 H 
ATOM     11  H   UNL     1     -42.981  40.000  26.917  1.00  0.00     0.065 H 
ATOM     12  H   UNL     1     -44.172  37.968  28.223  1.00  0.00     0.082 H 
ENDROOT
BRANCH   1  13
ATOM     13  N   UNL     1     -43.990  42.692  25.610  1.00  0.00    -0.369 N 
ATOM     14  H   UNL     1     -43.129  42.393  26.049  1.00  0.00     0.162 HD
BRANCH  13  15
ATOM     15  C   UNL     1     -43.933  42.876  24.168  1.00  0.00     0.016 C 
ATOM     16  H   UNL     1     -44.719  42.260  23.717  1.00  0.00     0.049 H 
ATOM     17  H   UNL     1     -42.988  42.498  23.759  1.00  0.00     0.049 H 
BRANCH  15  18
ATOM     18  C   UNL     1     -44.140  44.335  23.753  1.00  0.00    -0.039 C 
ATOM     19  H   UNL     1     -44.295  44.970  24.630  1.00  0.00     0.028 H 
ATOM     20  H   UNL     1     -43.224  44.688  23.264  1.00  0.00     0.028 H 
BRANCH  18  21
ATOM     21  C   UNL     1     -45.302  44.522  22.788  1.00  0.00    -0.064 C 
ATOM     22  H   UNL     1     -46.216  44.819  23.314  1.00  0.00     0.023 H 
ATOM     23  H   UNL     1     -45.506  43.600  22.234  1.00  0.00     0.023 H 
ATOM     24  H   UNL     1     -45.066  45.307  22.063  1.00  0.00     0.023 H 
ENDBRANCH  18  21
ENDBRANCH  15  18
ENDBRANCH  13  15
ENDBRANCH   1  13
BRANCH   9  25
ATOM     25  C   UNL     1     -46.989  38.340  28.607  1.00  0.00     0.064 C 
ATOM     26  C   UNL     1     -46.535  37.056  29.336  1.00  0.00    -0.024 C 
ATOM     27  C   UNL     1     -48.041  37.886  27.572  1.00  0.00     0.101 C 
ATOM     28  H   UNL     1     -47.444  39.007  29.354  1.00  0.00     0.056 H 
ATOM     29  C   UNL     1     -47.165  35.874  28.575  1.00  0.00    -0.010 C 
ATOM     30  H   UNL     1     -45.456  36.950  29.473  1.00  0.00     0.029 H 
ATOM     31  H   UNL     1     -46.962  37.075  30.348  1.00  0.00     0.029 H 
ATOM     32  C   UNL     1     -48.457  36.487  28.032  1.00  0.00     0.085 C 
ATOM     33  H   UNL     1     -47.620  37.839  26.560  1.00  0.00     0.065 H 
ATOM     34  H   UNL     1     -47.381  35.068  29.288  1.00  0.00     0.033 H 
ATOM     35  H   UNL     1     -48.935  35.914  27.234  1.00  0.00     0.063 H 
BRANCH  27  36
ATOM     36  O   UNL     1     -49.183  38.745  27.541  1.00  0.00    -0.388 OA
ATOM     37  H   UNL     1     -49.871  38.262  27.034  1.00  0.00     0.211 HD
ENDBRANCH  27  36
BRANCH  29  38
ATOM     38  C   UNL     1     -46.215  35.340  27.489  1.00  0.00    -0.044 C 
ATOM     39  H   UNL     1     -45.288  35.924  27.460  1.00  0.00     0.027 H 
ATOM     40  H   UNL     1     -45.921  34.316  27.754  1.00  0.00     0.027 H 
BRANCH  38  41
ATOM     41  C   UNL     1     -46.857  35.325  26.097  1.00  0.00    -0.027 C 
ATOM     42  H   UNL     1     -46.168  35.721  25.343  1.00  0.00     0.032 H 
ATOM     43  H   UNL     1     -47.736  35.982  26.081  1.00  0.00     0.032 H 
BRANCH  41  44
ATOM     44  C   UNL     1     -47.263  33.928  25.697  1.00  0.00    -0.046 A 
ATOM     45  C   UNL     1     -48.385  33.322  26.264  1.00  0.00    -0.058 A 
ATOM     46  C   UNL     1     -46.496  33.206  24.768  1.00  0.00    -0.033 A 
ATOM     47  C   UNL     1     -48.736  32.023  25.897  1.00  0.00    -0.053 A 
ATOM     48  H   UNL     1     -48.994  33.853  26.992  1.00  0.00     0.063 H 
ATOM     49  C   UNL     1     -46.822  31.911  24.385  1.00  0.00     0.073 A 
ATOM     50  H   UNL     1     -45.616  33.664  24.320  1.00  0.00     0.065 H 
ATOM     51  C   UNL     1     -47.962  31.316  24.961  1.00  0.00     0.000 A 
ATOM     52  H   UNL     1     -49.616  31.565  26.343  1.00  0.00     0.063 H 
ATOM     53  N   UNL     1     -46.047  31.271  23.490  1.00  0.00    -0.231 NA
ATOM     54  C   UNL     1     -48.287  30.014  24.569  1.00  0.00    -0.049 A 
ATOM     55  C   UNL     1     -46.380  30.018  23.135  1.00  0.00     0.124 A 
ATOM     56  C   UNL     1     -47.486  29.358  23.640  1.00  0.00    -0.019 A 
ATOM     57  H   UNL     1     -49.159  29.509  24.974  1.00  0.00     0.063 H 
ATOM     58  H   UNL     1     -47.733  28.356  23.310  1.00  0.00     0.066 H 
BRANCH  55  59
ATOM     59  N   UNL     1     -45.563  29.404  22.189  1.00  0.00    -0.384 N 
ATOM     60  H   UNL     1     -44.968  30.131  21.800  1.00  0.00     0.158 HD
ATOM     61  H   UNL     1     -45.021  28.651  22.596  1.00  0.00     0.158 HD
ENDBRANCH  55  59
ENDBRANCH  41  44
ENDBRANCH  38  41
ENDBRANCH  29  38
BRANCH  32  62
ATOM     62  O   UNL     1     -49.402  36.603  29.100  1.00  0.00    -0.390 OA
ATOM     63  H   UNL     1     -49.700  37.537  29.068  1.00  0.00     0.211 HD
ENDBRANCH  32  62
ENDBRANCH   9  25
TORSDOF 11
ENDMDL
MODEL 7
REMARK VINA RESULT:      -8.3      2.096      9.693
REMARK SMILES CCCNc1ncnc2c1ccn2[C@@H]1C[C@H](CCc2ccc3ccc(N)nc3c2)[C@@H](O)[C@H]1O
REMARK SMILES IDX 5 1 6 2 7 3 8 4 9 5 10 6 11 7 12 8 13 9 4 13 3 15 2 18 1 21
REMARK SMILES IDX 14 25 15 26 32 27 16 29 30 32 33 36 17 38 18 41 19 44 20 45
REMARK SMILES IDX 29 46 21 47 28 49 22 51 27 53 23 54 25 55 24 56 26 59 31 62
REMARK H PARENT 7 10 11 11 12 12 4 14 3 16 3 17 2 19 2 20 1 22 1 23 1 24 14 28
REMARK H PARENT 15 30 15 31 32 33 16 34 30 35 33 37 17 39 17 40 18 42 18 43
REMARK H PARENT 20 48 29 50 21 52 23 57 24 58 26 60 26 61 31 63
REMARK Flexibility Score: inf
ROOT
ATOM      1  C   UNL     1     -46.311  41.722  26.391  1.00  0.00     0.138 A 
ATOM      2  N   UNL     1     -47.579  41.259  26.287  1.00  0.00    -0.219 NA
ATOM      3  C   UNL     1     -47.897  40.087  26.869  1.00  0.00     0.120 A 
ATOM      4  N   UNL     1     -47.099  39.263  27.570  1.00  0.00    -0.218 NA
ATOM      5  C   UNL     1     -45.855  39.764  27.677  1.00  0.00     0.145 A 
ATOM      6  C   UNL     1     -45.391  40.948  27.123  1.00  0.00     0.061 A 
ATOM      7  C   UNL     1     -44.014  41.044  27.469  1.00  0.00    -0.031 A 
ATOM      8  C   UNL     1     -43.682  39.925  28.205  1.00  0.00     0.007 A 
ATOM      9  N   UNL     1     -44.814  39.166  28.357  1.00  0.00    -0.327 N 
ATOM     10  H   UNL     1     -48.929  39.769  26.753  1.00  0.00     0.106 H 
ATOM     11  H   UNL     1     -43.334  41.840  27.198  1.00  0.00     0.065 H 
ATOM     12  H   UNL     1     -42.729  39.637  28.625  1.00  0.00     0.082 H 
ENDROOT
BRANCH   1  13
ATOM     13  N   UNL     1     -45.947  42.925  25.797  1.00  0.00    -0.369 N 
ATOM     14  H   UNL     1     -46.425  43.726  26.189  1.00  0.00     0.162 HD
BRANCH  13  15
ATOM     15  C   UNL     1     -44.545  43.128  25.462  1.00  0.00     0.016 C 
ATOM     16  H   UNL     1     -43.943  42.518  26.145  1.00  0.00     0.049 H 
ATOM     17  H   UNL     1     -44.242  44.167  25.644  1.00  0.00     0.049 H 
BRANCH  15  18
ATOM     18  C   UNL     1     -44.222  42.732  24.019  1.00  0.00    -0.039 C 
ATOM     19  H   UNL     1     -44.081  41.649  23.935  1.00  0.00     0.028 H 
ATOM     20  H   UNL     1     -45.083  42.988  23.389  1.00  0.00     0.028 H 
BRANCH  18  21
ATOM     21  C   UNL     1     -42.993  43.440  23.466  1.00  0.00    -0.064 C 
ATOM     22  H   UNL     1     -42.173  43.444  24.191  1.00  0.00     0.023 H 
ATOM     23  H   UNL     1     -43.224  44.476  23.199  1.00  0.00     0.023 H 
ATOM     24  H   UNL     1     -42.639  42.929  22.566  1.00  0.00     0.023 H 
ENDBRANCH  18  21
ENDBRANCH  15  18
ENDBRANCH  13  15
ENDBRANCH   1  13
BRANCH   9  25
ATOM     25  C   UNL     1     -44.965  37.897  29.063  1.00  0.00     0.064 C 
ATOM     26  C   UNL     1     -44.940  36.606  28.215  1.00  0.00    -0.024 C 
ATOM     27  C   UNL     1     -46.301  37.868  29.835  1.00  0.00     0.101 C 
ATOM     28  H   UNL     1     -44.115  37.858  29.759  1.00  0.00     0.056 H 
ATOM     29  C   UNL     1     -46.337  35.969  28.347  1.00  0.00    -0.010 C 
ATOM     30  H   UNL     1     -44.624  36.732  27.177  1.00  0.00     0.029 H 
ATOM     31  H   UNL     1     -44.209  35.921  28.667  1.00  0.00     0.029 H 
ATOM     32  C   UNL     1     -46.767  36.413  29.746  1.00  0.00     0.085 C 
ATOM     33  H   UNL     1     -47.048  38.529  29.379  1.00  0.00     0.065 H 
ATOM     34  H   UNL     1     -46.234  34.878  28.295  1.00  0.00     0.033 H 
ATOM     35  H   UNL     1     -47.834  36.306  29.952  1.00  0.00     0.063 H 
BRANCH  27  36
ATOM     36  O   UNL     1     -46.148  38.245  31.206  1.00  0.00    -0.388 OA
ATOM     37  H   UNL     1     -46.443  37.470  31.733  1.00  0.00     0.211 HD
ENDBRANCH  27  36
BRANCH  29  38
ATOM     38  C   UNL     1     -47.273  36.438  27.221  1.00  0.00    -0.044 C 
ATOM     39  H   UNL     1     -47.681  37.432  27.442  1.00  0.00     0.027 H 
ATOM     40  H   UNL     1     -46.685  36.550  26.301  1.00  0.00     0.027 H 
BRANCH  38  41
ATOM     41  C   UNL     1     -48.421  35.457  26.959  1.00  0.00    -0.027 C 
ATOM     42  H   UNL     1     -49.231  35.941  26.403  1.00  0.00     0.032 H 
ATOM     43  H   UNL     1     -48.859  35.127  27.909  1.00  0.00     0.032 H 
BRANCH  41  44
ATOM     44  C   UNL     1     -47.946  34.257  26.177  1.00  0.00    -0.046 A 
ATOM     45  C   UNL     1     -46.683  34.248  25.582  1.00  0.00    -0.058 A 
ATOM     46  C   UNL     1     -48.784  33.142  26.013  1.00  0.00    -0.033 A 
ATOM     47  C   UNL     1     -46.267  33.139  24.847  1.00  0.00    -0.053 A 
ATOM     48  H   UNL     1     -46.016  35.100  25.686  1.00  0.00     0.063 H 
ATOM     49  C   UNL     1     -48.394  32.024  25.285  1.00  0.00     0.073 A 
ATOM     50  H   UNL     1     -49.773  33.135  26.467  1.00  0.00     0.065 H 
ATOM     51  C   UNL     1     -47.114  32.028  24.697  1.00  0.00     0.000 A 
ATOM     52  H   UNL     1     -45.278  33.144  24.393  1.00  0.00     0.063 H 
ATOM     53  N   UNL     1     -49.243  30.986  25.163  1.00  0.00    -0.231 NA
ATOM     54  C   UNL     1     -46.727  30.898  23.969  1.00  0.00    -0.049 A 
ATOM     55  C   UNL     1     -48.846  29.915  24.454  1.00  0.00     0.124 A 
ATOM     56  C   UNL     1     -47.605  29.826  23.850  1.00  0.00    -0.019 A 
ATOM     57  H   UNL     1     -45.749  30.842  23.501  1.00  0.00     0.063 H 
ATOM     58  H   UNL     1     -47.315  28.935  23.306  1.00  0.00     0.066 H 
BRANCH  55  59
ATOM     59  N   UNL     1     -49.748  28.856  24.375  1.00  0.00    -0.384 N 
ATOM     60  H   UNL     1     -50.531  29.093  24.978  1.00  0.00     0.158 HD
ATOM     61  H   UNL     1     -50.043  28.689  23.420  1.00  0.00     0.158 HD
ENDBRANCH  55  59
ENDBRANCH  41  44
ENDBRANCH  38  41
ENDBRANCH  29  38
BRANCH  32  62
ATOM     62  O   UNL     1     -46.065  35.633  30.719  1.00  0.00    -0.390 OA
ATOM     63  H   UNL     1     -45.811  36.274  31.417  1.00  0.00     0.211 HD
ENDBRANCH  32  62
ENDBRANCH   9  25
TORSDOF 11
ENDMDL
