MODEL 1
REMARK VINA RESULT:     -10.8      0.000      0.000
REMARK SMILES CNc1ccc2ccc(OC[C@H]3O[C@@H](n4cc([C@H]5CCCO5)c5c(N)ncnc54)[C@@H](F)[C@@H]3O)cc2n1
REMARK SMILES IDX 11 1 10 4 9 5 3 6 4 7 36 8 5 9 35 11 6 12 34 14 7 15 8 17
REMARK SMILES IDX 2 20 1 22 12 26 13 27 32 28 14 30 30 31 31 34 33 36 15 38
REMARK SMILES IDX 16 39 29 40 17 41 23 43 28 44 24 45 27 46 26 47 18 49 19 50
REMARK SMILES IDX 22 51 20 53 21 56 25 61
REMARK H PARENT 11 2 11 3 4 10 5 13 34 16 7 18 8 19 2 21 1 23 1 24 1 25 12 29
REMARK H PARENT 32 32 14 33 30 35 33 37 16 42 27 48 18 52 19 54 19 55 20 57
REMARK H PARENT 20 58 21 59 21 60 25 62 25 63
REMARK Flexibility Score: inf
ROOT
ATOM      1  C   UNL     1     -47.044  36.106  27.247  1.00  0.00     0.117 C 
ATOM      2  H   UNL     1     -47.927  35.551  27.582  1.00  0.00     0.073 H 
ATOM      3  H   UNL     1     -47.431  37.108  27.025  1.00  0.00     0.073 H 
ENDROOT
BRANCH   1   4
ATOM      4  O   UNL     1     -46.561  35.438  26.081  1.00  0.00    -0.491 OA
BRANCH   4   5
ATOM      5  C   UNL     1     -47.082  34.217  25.757  1.00  0.00     0.121 A 
ATOM      6  C   UNL     1     -47.120  29.981  23.586  1.00  0.00     0.126 A 
ATOM      7  C   UNL     1     -48.340  29.644  24.160  1.00  0.00    -0.019 A 
ATOM      8  N   UNL     1     -46.521  31.162  23.844  1.00  0.00    -0.231 NA
ATOM      9  C   UNL     1     -48.971  30.550  25.006  1.00  0.00    -0.049 A 
ATOM     10  H   UNL     1     -48.791  28.677  23.963  1.00  0.00     0.066 H 
ATOM     11  C   UNL     1     -47.124  32.044  24.661  1.00  0.00     0.076 A 
ATOM     12  C   UNL     1     -48.364  31.779  25.270  1.00  0.00     0.001 A 
ATOM     13  H   UNL     1     -49.924  30.286  25.456  1.00  0.00     0.063 H 
ATOM     14  C   UNL     1     -46.504  33.263  24.918  1.00  0.00     0.007 A 
ATOM     15  C   UNL     1     -48.955  32.730  26.117  1.00  0.00    -0.049 A 
ATOM     16  H   UNL     1     -45.547  33.430  24.437  1.00  0.00     0.069 H 
ATOM     17  C   UNL     1     -48.311  33.942  26.356  1.00  0.00    -0.019 A 
ATOM     18  H   UNL     1     -49.912  32.532  26.592  1.00  0.00     0.063 H 
ATOM     19  H   UNL     1     -48.771  34.676  27.012  1.00  0.00     0.066 H 
BRANCH   6  20
ATOM     20  N   UNL     1     -46.497  29.028  22.759  1.00  0.00    -0.373 N 
ATOM     21  H   UNL     1     -47.081  28.868  21.945  1.00  0.00     0.161 HD
BRANCH  20  22
ATOM     22  C   UNL     1     -45.130  29.362  22.389  1.00  0.00     0.005 C 
ATOM     23  H   UNL     1     -44.405  28.891  23.061  1.00  0.00     0.045 H 
ATOM     24  H   UNL     1     -44.934  28.983  21.381  1.00  0.00     0.045 H 
ATOM     25  H   UNL     1     -44.970  30.446  22.372  1.00  0.00     0.045 H 
ENDBRANCH  20  22
ENDBRANCH   6  20
ENDBRANCH   4   5
ENDBRANCH   1   4
BRANCH   1  26
ATOM     26  C   UNL     1     -45.998  36.131  28.370  1.00  0.00     0.123 C 
ATOM     27  O   UNL     1     -44.927  37.016  27.967  1.00  0.00    -0.345 OA
ATOM     28  C   UNL     1     -46.553  36.657  29.700  1.00  0.00     0.119 C 
ATOM     29  H   UNL     1     -45.567  35.135  28.509  1.00  0.00     0.067 H 
ATOM     30  C   UNL     1     -44.912  38.133  28.887  1.00  0.00     0.169 C 
ATOM     31  C   UNL     1     -46.248  38.133  29.620  1.00  0.00     0.173 C 
ATOM     32  H   UNL     1     -47.615  36.436  29.833  1.00  0.00     0.066 H 
ATOM     33  H   UNL     1     -44.079  37.954  29.577  1.00  0.00     0.088 H 
ATOM     34  F   UNL     1     -47.221  38.730  28.878  1.00  0.00    -0.239 F 
ATOM     35  H   UNL     1     -46.197  38.636  30.590  1.00  0.00     0.074 H 
BRANCH  28  36
ATOM     36  O   UNL     1     -45.837  36.077  30.798  1.00  0.00    -0.387 OA
ATOM     37  H   UNL     1     -44.895  36.300  30.688  1.00  0.00     0.211 HD
ENDBRANCH  28  36
BRANCH  30  38
ATOM     38  N   UNL     1     -44.634  39.371  28.178  1.00  0.00    -0.303 N 
ATOM     39  C   UNL     1     -45.248  39.841  27.044  1.00  0.00     0.015 A 
ATOM     40  C   UNL     1     -43.668  40.259  28.577  1.00  0.00     0.148 A 
ATOM     41  C   UNL     1     -44.687  41.063  26.705  1.00  0.00     0.012 A 
ATOM     42  H   UNL     1     -46.032  39.266  26.568  1.00  0.00     0.082 H 
ATOM     43  C   UNL     1     -43.666  41.323  27.684  1.00  0.00     0.067 A 
ATOM     44  N   UNL     1     -42.872  40.106  29.649  1.00  0.00    -0.218 NA
ATOM     45  C   UNL     1     -42.725  42.337  27.931  1.00  0.00     0.136 A 
ATOM     46  C   UNL     1     -42.021  41.138  29.778  1.00  0.00     0.120 A 
ATOM     47  N   UNL     1     -41.908  42.228  28.997  1.00  0.00    -0.219 NA
ATOM     48  H   UNL     1     -41.337  41.090  30.620  1.00  0.00     0.106 H 
BRANCH  41  49
ATOM     49  C   UNL     1     -45.028  41.935  25.532  1.00  0.00     0.085 C 
ATOM     50  C   UNL     1     -45.659  43.280  25.880  1.00  0.00    -0.020 C 
ATOM     51  O   UNL     1     -43.858  42.247  24.735  1.00  0.00    -0.373 OA
ATOM     52  H   UNL     1     -45.706  41.377  24.874  1.00  0.00     0.066 H 
ATOM     53  C   UNL     1     -45.298  44.118  24.681  1.00  0.00    -0.027 C 
ATOM     54  H   UNL     1     -46.737  43.210  26.053  1.00  0.00     0.030 H 
ATOM     55  H   UNL     1     -45.201  43.720  26.775  1.00  0.00     0.030 H 
ATOM     56  C   UNL     1     -43.896  43.640  24.391  1.00  0.00     0.048 C 
ATOM     57  H   UNL     1     -45.962  43.874  23.843  1.00  0.00     0.029 H 
ATOM     58  H   UNL     1     -45.354  45.195  24.864  1.00  0.00     0.029 H 
ATOM     59  H   UNL     1     -43.161  44.159  25.015  1.00  0.00     0.057 H 
ATOM     60  H   UNL     1     -43.615  43.767  23.342  1.00  0.00     0.057 H 
ENDBRANCH  41  49
BRANCH  45  61
ATOM     61  N   UNL     1     -42.594  43.474  27.143  1.00  0.00    -0.383 N 
ATOM     62  H   UNL     1     -42.057  44.180  27.628  1.00  0.00     0.158 HD
ATOM     63  H   UNL     1     -43.491  43.783  26.765  1.00  0.00     0.158 HD
ENDBRANCH  45  61
ENDBRANCH  30  38
ENDBRANCH   1  26
TORSDOF 9
ENDMDL
MODEL 2
REMARK VINA RESULT:      -9.6      2.698     10.396
REMARK SMILES CNc1ccc2ccc(OC[C@H]3O[C@@H](n4cc([C@H]5CCCO5)c5c(N)ncnc54)[C@@H](F)[C@@H]3O)cc2n1
REMARK SMILES IDX 11 1 10 4 9 5 3 6 4 7 36 8 5 9 35 11 6 12 34 14 7 15 8 17
REMARK SMILES IDX 2 20 1 22 12 26 13 27 32 28 14 30 30 31 31 34 33 36 15 38
REMARK SMILES IDX 16 39 29 40 17 41 23 43 28 44 24 45 27 46 26 47 18 49 19 50
REMARK SMILES IDX 22 51 20 53 21 56 25 61
REMARK H PARENT 11 2 11 3 4 10 5 13 34 16 7 18 8 19 2 21 1 23 1 24 1 25 12 29
REMARK H PARENT 32 32 14 33 30 35 33 37 16 42 27 48 18 52 19 54 19 55 20 57
REMARK H PARENT 20 58 21 59 21 60 25 62 25 63
REMARK Flexibility Score: inf
ROOT
ATOM      1  C   UNL     1     -48.365  35.763  27.070  1.00  0.00     0.117 C 
ATOM      2  H   UNL     1     -47.942  36.134  26.130  1.00  0.00     0.073 H 
ATOM      3  H   UNL     1     -49.387  35.469  26.801  1.00  0.00     0.073 H 
ENDROOT
BRANCH   1   4
ATOM      4  O   UNL     1     -48.337  36.854  27.990  1.00  0.00    -0.491 OA
BRANCH   4   5
ATOM      5  C   UNL     1     -47.273  37.711  27.964  1.00  0.00     0.121 A 
ATOM      6  C   UNL     1     -44.533  41.132  26.108  1.00  0.00     0.126 A 
ATOM      7  C   UNL     1     -43.670  41.099  27.197  1.00  0.00    -0.019 A 
ATOM      8  N   UNL     1     -45.614  40.329  26.040  1.00  0.00    -0.231 NA
ATOM      9  C   UNL     1     -43.913  40.205  28.234  1.00  0.00    -0.049 A 
ATOM     10  H   UNL     1     -42.822  41.774  27.247  1.00  0.00     0.066 H 
ATOM     11  C   UNL     1     -45.856  39.461  27.038  1.00  0.00     0.076 A 
ATOM     12  C   UNL     1     -45.023  39.361  28.167  1.00  0.00     0.001 A 
ATOM     13  H   UNL     1     -43.239  40.179  29.087  1.00  0.00     0.063 H 
ATOM     14  C   UNL     1     -46.970  38.630  26.959  1.00  0.00     0.007 A 
ATOM     15  C   UNL     1     -45.317  38.441  29.185  1.00  0.00    -0.049 A 
ATOM     16  H   UNL     1     -47.593  38.739  26.077  1.00  0.00     0.069 H 
ATOM     17  C   UNL     1     -46.439  37.623  29.079  1.00  0.00    -0.019 A 
ATOM     18  H   UNL     1     -44.679  38.359  30.061  1.00  0.00     0.063 H 
ATOM     19  H   UNL     1     -46.664  36.911  29.868  1.00  0.00     0.066 H 
BRANCH   6  20
ATOM     20  N   UNL     1     -44.272  42.070  25.092  1.00  0.00    -0.373 N 
ATOM     21  H   UNL     1     -45.126  42.578  24.887  1.00  0.00     0.161 HD
BRANCH  20  22
ATOM     22  C   UNL     1     -43.164  42.967  25.378  1.00  0.00     0.005 C 
ATOM     23  H   UNL     1     -42.875  42.925  26.435  1.00  0.00     0.045 H 
ATOM     24  H   UNL     1     -42.294  42.656  24.791  1.00  0.00     0.045 H 
ATOM     25  H   UNL     1     -43.399  44.000  25.100  1.00  0.00     0.045 H 
ENDBRANCH  20  22
ENDBRANCH   6  20
ENDBRANCH   4   5
ENDBRANCH   1   4
BRANCH   1  26
ATOM     26  C   UNL     1     -47.538  34.569  27.568  1.00  0.00     0.123 C 
ATOM     27  O   UNL     1     -48.168  33.357  27.093  1.00  0.00    -0.345 OA
ATOM     28  C   UNL     1     -46.096  34.574  27.045  1.00  0.00     0.119 C 
ATOM     29  H   UNL     1     -47.542  34.536  28.661  1.00  0.00     0.067 H 
ATOM     30  C   UNL     1     -47.247  32.713  26.181  1.00  0.00     0.169 C 
ATOM     31  C   UNL     1     -46.204  33.750  25.784  1.00  0.00     0.173 C 
ATOM     32  H   UNL     1     -45.709  35.582  26.876  1.00  0.00     0.066 H 
ATOM     33  H   UNL     1     -46.793  31.883  26.737  1.00  0.00     0.088 H 
ATOM     34  F   UNL     1     -46.661  34.556  24.786  1.00  0.00    -0.239 F 
ATOM     35  H   UNL     1     -45.262  33.299  25.458  1.00  0.00     0.074 H 
BRANCH  28  36
ATOM     36  O   UNL     1     -45.229  33.915  27.977  1.00  0.00    -0.387 OA
ATOM     37  H   UNL     1     -45.192  32.973  27.731  1.00  0.00     0.211 HD
ENDBRANCH  28  36
BRANCH  30  38
ATOM     38  N   UNL     1     -47.964  32.142  25.054  1.00  0.00    -0.303 N 
ATOM     39  C   UNL     1     -49.320  32.144  24.839  1.00  0.00     0.015 A 
ATOM     40  C   UNL     1     -47.338  31.493  24.021  1.00  0.00     0.148 A 
ATOM     41  C   UNL     1     -49.583  31.502  23.637  1.00  0.00     0.012 A 
ATOM     42  H   UNL     1     -49.988  32.600  25.558  1.00  0.00     0.082 H 
ATOM     43  C   UNL     1     -48.310  31.075  23.122  1.00  0.00     0.067 A 
ATOM     44  N   UNL     1     -46.011  31.305  23.918  1.00  0.00    -0.218 NA
ATOM     45  C   UNL     1     -47.850  30.377  21.992  1.00  0.00     0.136 A 
ATOM     46  C   UNL     1     -45.698  30.629  22.799  1.00  0.00     0.120 A 
ATOM     47  N   UNL     1     -46.527  30.168  21.844  1.00  0.00    -0.219 NA
ATOM     48  H   UNL     1     -44.643  30.430  22.641  1.00  0.00     0.106 H 
BRANCH  41  49
ATOM     49  C   UNL     1     -50.921  31.250  23.007  1.00  0.00     0.085 C 
ATOM     50  C   UNL     1     -51.163  31.969  21.683  1.00  0.00    -0.020 C 
ATOM     51  O   UNL     1     -51.130  29.842  22.731  1.00  0.00    -0.373 OA
ATOM     52  H   UNL     1     -51.700  31.540  23.724  1.00  0.00     0.066 H 
ATOM     53  C   UNL     1     -52.194  31.085  21.027  1.00  0.00    -0.027 C 
ATOM     54  H   UNL     1     -51.499  33.002  21.817  1.00  0.00     0.030 H 
ATOM     55  H   UNL     1     -50.259  31.985  21.062  1.00  0.00     0.030 H 
ATOM     56  C   UNL     1     -51.707  29.712  21.424  1.00  0.00     0.048 C 
ATOM     57  H   UNL     1     -53.181  31.277  21.465  1.00  0.00     0.029 H 
ATOM     58  H   UNL     1     -52.263  31.219  19.944  1.00  0.00     0.029 H 
ATOM     59  H   UNL     1     -50.924  29.356  20.746  1.00  0.00     0.057 H 
ATOM     60  H   UNL     1     -52.510  28.971  21.449  1.00  0.00     0.057 H 
ENDBRANCH  41  49
BRANCH  45  61
ATOM     61  N   UNL     1     -48.686  29.897  20.991  1.00  0.00    -0.383 N 
ATOM     62  H   UNL     1     -49.397  30.580  20.767  1.00  0.00     0.158 HD
ATOM     63  H   UNL     1     -49.027  28.956  21.195  1.00  0.00     0.158 HD
ENDBRANCH  45  61
ENDBRANCH  30  38
ENDBRANCH   1  26
TORSDOF 9
ENDMDL
MODEL 3
REMARK VINA RESULT:      -9.1      1.827      2.252
REMARK SMILES CNc1ccc2ccc(OC[C@H]3O[C@@H](n4cc([C@H]5CCCO5)c5c(N)ncnc54)[C@@H](F)[C@@H]3O)cc2n1
REMARK SMILES IDX 11 1 10 4 9 5 3 6 4 7 36 8 5 9 35 11 6 12 34 14 7 15 8 17
REMARK SMILES IDX 2 20 1 22 12 26 13 27 32 28 14 30 30 31 31 34 33 36 15 38
REMARK SMILES IDX 16 39 29 40 17 41 23 43 28 44 24 45 27 46 26 47 18 49 19 50
REMARK SMILES IDX 22 51 20 53 21 56 25 61
REMARK H PARENT 11 2 11 3 4 10 5 13 34 16 7 18 8 19 2 21 1 23 1 24 1 25 12 29
REMARK H PARENT 32 32 14 33 30 35 33 37 16 42 27 48 18 52 19 54 19 55 20 57
REMARK H PARENT 20 58 21 59 21 60 25 62 25 63
REMARK Flexibility Score: inf
ROOT
ATOM      1  C   UNL     1     -46.596  35.014  27.182  1.00  0.00     0.117 C 
ATOM      2  H   UNL     1     -47.035  35.218  26.200  1.00  0.00     0.073 H 
ATOM      3  H   UNL     1     -45.567  35.383  27.093  1.00  0.00     0.073 H 
ENDROOT
BRANCH   1   4
ATOM      4  O   UNL     1     -46.652  33.600  27.369  1.00  0.00    -0.491 OA
BRANCH   4   5
ATOM      5  C   UNL     1     -46.927  32.803  26.293  1.00  0.00     0.121 A 
ATOM      6  C   UNL     1     -46.401  31.267  21.819  1.00  0.00     0.126 A 
ATOM      7  C   UNL     1     -47.370  30.285  21.991  1.00  0.00    -0.019 A 
ATOM      8  N   UNL     1     -46.057  32.101  22.820  1.00  0.00    -0.231 NA
ATOM      9  C   UNL     1     -48.016  30.169  23.217  1.00  0.00    -0.049 A 
ATOM     10  H   UNL     1     -47.613  29.604  21.181  1.00  0.00     0.066 H 
ATOM     11  C   UNL     1     -46.675  31.997  24.010  1.00  0.00     0.076 A 
ATOM     12  C   UNL     1     -47.674  31.036  24.257  1.00  0.00     0.001 A 
ATOM     13  H   UNL     1     -48.772  29.402  23.353  1.00  0.00     0.063 H 
ATOM     14  C   UNL     1     -46.320  32.865  25.038  1.00  0.00     0.007 A 
ATOM     15  C   UNL     1     -48.291  30.964  25.515  1.00  0.00    -0.049 A 
ATOM     16  H   UNL     1     -45.543  33.588  24.813  1.00  0.00     0.069 H 
ATOM     17  C   UNL     1     -47.914  31.846  26.525  1.00  0.00    -0.019 A 
ATOM     18  H   UNL     1     -49.061  30.224  25.714  1.00  0.00     0.063 H 
ATOM     19  H   UNL     1     -48.394  31.788  27.499  1.00  0.00     0.066 H 
BRANCH   6  20
ATOM     20  N   UNL     1     -45.749  31.335  20.574  1.00  0.00    -0.373 N 
ATOM     21  H   UNL     1     -45.307  30.441  20.385  1.00  0.00     0.161 HD
BRANCH  20  22
ATOM     22  C   UNL     1     -46.603  31.758  19.475  1.00  0.00     0.005 C 
ATOM     23  H   UNL     1     -46.315  31.277  18.533  1.00  0.00     0.045 H 
ATOM     24  H   UNL     1     -47.634  31.458  19.691  1.00  0.00     0.045 H 
ATOM     25  H   UNL     1     -46.594  32.847  19.353  1.00  0.00     0.045 H 
ENDBRANCH  20  22
ENDBRANCH   6  20
ENDBRANCH   4   5
ENDBRANCH   1   4
BRANCH   1  26
ATOM     26  C   UNL     1     -47.383  35.769  28.263  1.00  0.00     0.123 C 
ATOM     27  O   UNL     1     -46.491  36.723  28.884  1.00  0.00    -0.345 OA
ATOM     28  C   UNL     1     -48.578  36.552  27.703  1.00  0.00     0.119 C 
ATOM     29  H   UNL     1     -47.718  35.076  29.040  1.00  0.00     0.067 H 
ATOM     30  C   UNL     1     -46.994  38.048  28.589  1.00  0.00     0.169 C 
ATOM     31  C   UNL     1     -47.979  37.912  27.436  1.00  0.00     0.173 C 
ATOM     32  H   UNL     1     -49.014  36.084  26.816  1.00  0.00     0.066 H 
ATOM     33  H   UNL     1     -47.493  38.399  29.500  1.00  0.00     0.088 H 
ATOM     34  F   UNL     1     -47.336  37.866  26.236  1.00  0.00    -0.239 F 
ATOM     35  H   UNL     1     -48.708  38.727  27.404  1.00  0.00     0.074 H 
BRANCH  28  36
ATOM     36  O   UNL     1     -49.604  36.665  28.697  1.00  0.00    -0.387 OA
ATOM     37  H   UNL     1     -49.459  35.960  29.354  1.00  0.00     0.211 HD
ENDBRANCH  28  36
BRANCH  30  38
ATOM     38  N   UNL     1     -45.895  38.958  28.316  1.00  0.00    -0.303 N 
ATOM     39  C   UNL     1     -45.780  39.840  27.270  1.00  0.00     0.015 A 
ATOM     40  C   UNL     1     -44.780  39.044  29.110  1.00  0.00     0.148 A 
ATOM     41  C   UNL     1     -44.580  40.525  27.391  1.00  0.00     0.012 A 
ATOM     42  H   UNL     1     -46.561  39.907  26.522  1.00  0.00     0.082 H 
ATOM     43  C   UNL     1     -43.936  40.003  28.566  1.00  0.00     0.067 A 
ATOM     44  N   UNL     1     -44.563  38.315  30.218  1.00  0.00    -0.218 NA
ATOM     45  C   UNL     1     -42.727  40.222  29.247  1.00  0.00     0.136 A 
ATOM     46  C   UNL     1     -43.379  38.617  30.778  1.00  0.00     0.120 A 
ATOM     47  N   UNL     1     -42.467  39.517  30.366  1.00  0.00    -0.219 NA
ATOM     48  H   UNL     1     -43.123  38.066  31.678  1.00  0.00     0.106 H 
BRANCH  41  49
ATOM     49  C   UNL     1     -44.024  41.570  26.468  1.00  0.00     0.085 C 
ATOM     50  C   UNL     1     -44.958  42.014  25.347  1.00  0.00    -0.020 C 
ATOM     51  O   UNL     1     -43.666  42.781  27.181  1.00  0.00    -0.373 OA
ATOM     52  H   UNL     1     -43.093  41.184  26.033  1.00  0.00     0.066 H 
ATOM     53  C   UNL     1     -44.447  43.398  25.039  1.00  0.00    -0.027 C 
ATOM     54  H   UNL     1     -44.935  41.340  24.485  1.00  0.00     0.030 H 
ATOM     55  H   UNL     1     -45.997  42.085  25.692  1.00  0.00     0.030 H 
ATOM     56  C   UNL     1     -44.117  43.911  26.420  1.00  0.00     0.048 C 
ATOM     57  H   UNL     1     -43.535  43.331  24.433  1.00  0.00     0.029 H 
ATOM     58  H   UNL     1     -45.168  44.026  24.510  1.00  0.00     0.029 H 
ATOM     59  H   UNL     1     -45.006  44.315  26.917  1.00  0.00     0.057 H 
ATOM     60  H   UNL     1     -43.342  44.681  26.410  1.00  0.00     0.057 H 
ENDBRANCH  41  49
BRANCH  45  61
ATOM     61  N   UNL     1     -41.774  41.150  28.845  1.00  0.00    -0.383 N 
ATOM     62  H   UNL     1     -41.041  41.227  29.538  1.00  0.00     0.158 HD
ATOM     63  H   UNL     1     -42.198  42.032  28.551  1.00  0.00     0.158 HD
ENDBRANCH  45  61
ENDBRANCH  30  38
ENDBRANCH   1  26
TORSDOF 9
ENDMDL
MODEL 4
REMARK VINA RESULT:      -9.1      2.318      2.851
REMARK SMILES CNc1ccc2ccc(OC[C@H]3O[C@@H](n4cc([C@H]5CCCO5)c5c(N)ncnc54)[C@@H](F)[C@@H]3O)cc2n1
REMARK SMILES IDX 11 1 10 4 9 5 3 6 4 7 36 8 5 9 35 11 6 12 34 14 7 15 8 17
REMARK SMILES IDX 2 20 1 22 12 26 13 27 32 28 14 30 30 31 31 34 33 36 15 38
REMARK SMILES IDX 16 39 29 40 17 41 23 43 28 44 24 45 27 46 26 47 18 49 19 50
REMARK SMILES IDX 22 51 20 53 21 56 25 61
REMARK H PARENT 11 2 11 3 4 10 5 13 34 16 7 18 8 19 2 21 1 23 1 24 1 25 12 29
REMARK H PARENT 32 32 14 33 30 35 33 37 16 42 27 48 18 52 19 54 19 55 20 57
REMARK H PARENT 20 58 21 59 21 60 25 62 25 63
REMARK Flexibility Score: inf
ROOT
ATOM      1  C   UNL     1     -46.394  35.226  26.554  1.00  0.00     0.117 C 
ATOM      2  H   UNL     1     -46.752  36.087  25.979  1.00  0.00     0.073 H 
ATOM      3  H   UNL     1     -45.623  34.782  25.911  1.00  0.00     0.073 H 
ENDROOT
BRANCH   1   4
ATOM      4  O   UNL     1     -47.515  34.361  26.735  1.00  0.00    -0.491 OA
BRANCH   4   5
ATOM      5  C   UNL     1     -47.707  33.337  25.851  1.00  0.00     0.121 A 
ATOM      6  C   UNL     1     -46.371  30.190  22.538  1.00  0.00     0.126 A 
ATOM      7  C   UNL     1     -47.650  29.651  22.465  1.00  0.00    -0.019 A 
ATOM      8  N   UNL     1     -46.079  31.201  23.382  1.00  0.00    -0.231 NA
ATOM      9  C   UNL     1     -48.660  30.177  23.264  1.00  0.00    -0.049 A 
ATOM     10  H   UNL     1     -47.859  28.819  21.801  1.00  0.00     0.066 H 
ATOM     11  C   UNL     1     -47.049  31.716  24.158  1.00  0.00     0.076 A 
ATOM     12  C   UNL     1     -48.370  31.232  24.132  1.00  0.00     0.001 A 
ATOM     13  H   UNL     1     -49.660  29.756  23.208  1.00  0.00     0.063 H 
ATOM     14  C   UNL     1     -46.742  32.763  25.021  1.00  0.00     0.007 A 
ATOM     15  C   UNL     1     -49.348  31.799  24.962  1.00  0.00    -0.049 A 
ATOM     16  H   UNL     1     -45.713  33.106  25.019  1.00  0.00     0.069 H 
ATOM     17  C   UNL     1     -49.012  32.846  25.816  1.00  0.00    -0.019 A 
ATOM     18  H   UNL     1     -50.371  31.430  24.948  1.00  0.00     0.063 H 
ATOM     19  H   UNL     1     -49.773  33.285  26.457  1.00  0.00     0.066 H 
BRANCH   6  20
ATOM     20  N   UNL     1     -45.369  29.614  21.737  1.00  0.00    -0.373 N 
ATOM     21  H   UNL     1     -44.799  30.354  21.339  1.00  0.00     0.161 HD
BRANCH  20  22
ATOM     22  C   UNL     1     -44.560  28.616  22.419  1.00  0.00     0.005 C 
ATOM     23  H   UNL     1     -44.285  28.943  23.429  1.00  0.00     0.045 H 
ATOM     24  H   UNL     1     -45.143  27.696  22.523  1.00  0.00     0.045 H 
ATOM     25  H   UNL     1     -43.655  28.372  21.851  1.00  0.00     0.045 H 
ENDBRANCH  20  22
ENDBRANCH   6  20
ENDBRANCH   4   5
ENDBRANCH   1   4
BRANCH   1  26
ATOM     26  C   UNL     1     -45.816  35.707  27.892  1.00  0.00     0.123 C 
ATOM     27  O   UNL     1     -45.397  37.082  27.732  1.00  0.00    -0.345 OA
ATOM     28  C   UNL     1     -46.834  35.666  29.039  1.00  0.00     0.119 C 
ATOM     29  H   UNL     1     -44.930  35.121  28.154  1.00  0.00     0.067 H 
ATOM     30  C   UNL     1     -46.221  37.895  28.601  1.00  0.00     0.169 C 
ATOM     31  C   UNL     1     -47.428  37.054  28.996  1.00  0.00     0.173 C 
ATOM     32  H   UNL     1     -47.574  34.870  28.922  1.00  0.00     0.066 H 
ATOM     33  H   UNL     1     -45.603  38.139  29.473  1.00  0.00     0.088 H 
ATOM     34  F   UNL     1     -48.387  37.077  28.030  1.00  0.00    -0.239 F 
ATOM     35  H   UNL     1     -47.880  37.379  29.938  1.00  0.00     0.074 H 
BRANCH  28  36
ATOM     36  O   UNL     1     -46.163  35.469  30.290  1.00  0.00    -0.387 OA
ATOM     37  H   UNL     1     -45.893  34.534  30.336  1.00  0.00     0.211 HD
ENDBRANCH  28  36
BRANCH  30  38
ATOM     38  N   UNL     1     -46.568  39.145  27.948  1.00  0.00    -0.303 N 
ATOM     39  C   UNL     1     -47.812  39.715  27.840  1.00  0.00     0.015 A 
ATOM     40  C   UNL     1     -45.644  39.943  27.323  1.00  0.00     0.148 A 
ATOM     41  C   UNL     1     -47.699  40.912  27.149  1.00  0.00     0.012 A 
ATOM     42  H   UNL     1     -48.679  39.221  28.261  1.00  0.00     0.082 H 
ATOM     43  C   UNL     1     -46.307  41.049  26.809  1.00  0.00     0.067 A 
ATOM     44  N   UNL     1     -44.329  39.680  27.236  1.00  0.00    -0.218 NA
ATOM     45  C   UNL     1     -45.515  41.983  26.120  1.00  0.00     0.136 A 
ATOM     46  C   UNL     1     -43.682  40.644  26.558  1.00  0.00     0.120 A 
ATOM     47  N   UNL     1     -44.189  41.762  26.010  1.00  0.00    -0.219 NA
ATOM     48  H   UNL     1     -42.612  40.505  26.437  1.00  0.00     0.106 H 
BRANCH  41  49
ATOM     49  C   UNL     1     -48.797  41.865  26.778  1.00  0.00     0.085 C 
ATOM     50  C   UNL     1     -50.205  41.418  27.160  1.00  0.00    -0.020 C 
ATOM     51  O   UNL     1     -48.617  43.162  27.401  1.00  0.00    -0.373 OA
ATOM     52  H   UNL     1     -48.752  42.037  25.695  1.00  0.00     0.066 H 
ATOM     53  C   UNL     1     -50.936  42.731  27.268  1.00  0.00    -0.027 C 
ATOM     54  H   UNL     1     -50.645  40.734  26.427  1.00  0.00     0.030 H 
ATOM     55  H   UNL     1     -50.218  40.919  28.137  1.00  0.00     0.030 H 
ATOM     56  C   UNL     1     -49.884  43.608  27.905  1.00  0.00     0.048 C 
ATOM     57  H   UNL     1     -51.182  43.103  26.266  1.00  0.00     0.029 H 
ATOM     58  H   UNL     1     -51.858  42.675  27.852  1.00  0.00     0.029 H 
ATOM     59  H   UNL     1     -49.873  43.489  28.993  1.00  0.00     0.057 H 
ATOM     60  H   UNL     1     -50.021  44.667  27.672  1.00  0.00     0.057 H 
ENDBRANCH  41  49
BRANCH  45  61
ATOM     61  N   UNL     1     -46.015  43.148  25.551  1.00  0.00    -0.383 N 
ATOM     62  H   UNL     1     -46.803  42.939  24.953  1.00  0.00     0.158 HD
ATOM     63  H   UNL     1     -45.278  43.716  25.130  1.00  0.00     0.158 HD
ENDBRANCH  45  61
ENDBRANCH  30  38
ENDBRANCH   1  26
TORSDOF 9
ENDMDL
MODEL 5
REMARK VINA RESULT:      -9.0      1.750      2.279
REMARK SMILES CNc1ccc2ccc(OC[C@H]3O[C@@H](n4cc([C@H]5CCCO5)c5c(N)ncnc54)[C@@H](F)[C@@H]3O)cc2n1
REMARK SMILES IDX 11 1 10 4 9 5 3 6 4 7 36 8 5 9 35 11 6 12 34 14 7 15 8 17
REMARK SMILES IDX 2 20 1 22 12 26 13 27 32 28 14 30 30 31 31 34 33 36 15 38
REMARK SMILES IDX 16 39 29 40 17 41 23 43 28 44 24 45 27 46 26 47 18 49 19 50
REMARK SMILES IDX 22 51 20 53 21 56 25 61
REMARK H PARENT 11 2 11 3 4 10 5 13 34 16 7 18 8 19 2 21 1 23 1 24 1 25 12 29
REMARK H PARENT 32 32 14 33 30 35 33 37 16 42 27 48 18 52 19 54 19 55 20 57
REMARK H PARENT 20 58 21 59 21 60 25 62 25 63
REMARK Flexibility Score: inf
ROOT
ATOM      1  C   UNL     1     -45.862  35.113  27.836  1.00  0.00     0.117 C 
ATOM      2  H   UNL     1     -45.955  35.367  26.774  1.00  0.00     0.073 H 
ATOM      3  H   UNL     1     -44.817  35.348  28.072  1.00  0.00     0.073 H 
ENDROOT
BRANCH   1   4
ATOM      4  O   UNL     1     -46.146  33.718  27.949  1.00  0.00    -0.491 OA
BRANCH   4   5
ATOM      5  C   UNL     1     -46.580  33.042  26.843  1.00  0.00     0.121 A 
ATOM      6  C   UNL     1     -49.076  29.721  24.521  1.00  0.00     0.126 A 
ATOM      7  C   UNL     1     -48.599  30.153  23.290  1.00  0.00    -0.019 A 
ATOM      8  N   UNL     1     -48.710  30.323  25.671  1.00  0.00    -0.231 NA
ATOM      9  C   UNL     1     -47.707  31.219  23.239  1.00  0.00    -0.049 A 
ATOM     10  H   UNL     1     -48.928  29.674  22.374  1.00  0.00     0.066 H 
ATOM     11  C   UNL     1     -47.849  31.354  25.632  1.00  0.00     0.076 A 
ATOM     12  C   UNL     1     -47.313  31.842  24.425  1.00  0.00     0.001 A 
ATOM     13  H   UNL     1     -47.334  31.558  22.277  1.00  0.00     0.063 H 
ATOM     14  C   UNL     1     -47.470  31.968  26.822  1.00  0.00     0.007 A 
ATOM     15  C   UNL     1     -46.418  32.922  24.433  1.00  0.00    -0.049 A 
ATOM     16  H   UNL     1     -47.907  31.570  27.731  1.00  0.00     0.069 H 
ATOM     17  C   UNL     1     -46.057  33.517  25.640  1.00  0.00    -0.019 A 
ATOM     18  H   UNL     1     -46.001  33.305  23.505  1.00  0.00     0.063 H 
ATOM     19  H   UNL     1     -45.363  34.353  25.643  1.00  0.00     0.066 H 
BRANCH   6  20
ATOM     20  N   UNL     1     -49.999  28.658  24.532  1.00  0.00    -0.373 N 
ATOM     21  H   UNL     1     -50.559  28.701  23.686  1.00  0.00     0.161 HD
BRANCH  20  22
ATOM     22  C   UNL     1     -49.397  27.347  24.716  1.00  0.00     0.005 C 
ATOM     23  H   UNL     1     -50.158  26.575  24.876  1.00  0.00     0.045 H 
ATOM     24  H   UNL     1     -48.847  27.079  23.808  1.00  0.00     0.045 H 
ATOM     25  H   UNL     1     -48.685  27.343  25.548  1.00  0.00     0.045 H 
ENDBRANCH  20  22
ENDBRANCH   6  20
ENDBRANCH   4   5
ENDBRANCH   1   4
BRANCH   1  26
ATOM     26  C   UNL     1     -46.841  35.967  28.655  1.00  0.00     0.123 C 
ATOM     27  O   UNL     1     -46.123  37.121  29.150  1.00  0.00    -0.345 OA
ATOM     28  C   UNL     1     -48.028  36.482  27.831  1.00  0.00     0.119 C 
ATOM     29  H   UNL     1     -47.199  35.405  29.521  1.00  0.00     0.067 H 
ATOM     30  C   UNL     1     -46.708  38.296  28.541  1.00  0.00     0.169 C 
ATOM     31  C   UNL     1     -47.531  37.825  27.349  1.00  0.00     0.173 C 
ATOM     32  H   UNL     1     -48.308  35.804  27.021  1.00  0.00     0.066 H 
ATOM     33  H   UNL     1     -47.343  38.756  29.307  1.00  0.00     0.088 H 
ATOM     34  F   UNL     1     -46.748  37.621  26.254  1.00  0.00    -0.239 F 
ATOM     35  H   UNL     1     -48.324  38.528  27.079  1.00  0.00     0.074 H 
BRANCH  28  36
ATOM     36  O   UNL     1     -49.172  36.667  28.674  1.00  0.00    -0.387 OA
ATOM     37  H   UNL     1     -49.079  37.532  29.113  1.00  0.00     0.211 HD
ENDBRANCH  28  36
BRANCH  30  38
ATOM     38  N   UNL     1     -45.675  39.257  28.196  1.00  0.00    -0.303 N 
ATOM     39  C   UNL     1     -45.664  40.127  27.134  1.00  0.00     0.015 A 
ATOM     40  C   UNL     1     -44.523  39.410  28.925  1.00  0.00     0.148 A 
ATOM     41  C   UNL     1     -44.496  40.874  27.179  1.00  0.00     0.012 A 
ATOM     42  H   UNL     1     -46.487  40.143  26.431  1.00  0.00     0.082 H 
ATOM     43  C   UNL     1     -43.762  40.403  28.323  1.00  0.00     0.067 A 
ATOM     44  N   UNL     1     -44.208  38.710  30.028  1.00  0.00    -0.218 NA
ATOM     45  C   UNL     1     -42.530  40.694  28.933  1.00  0.00     0.136 A 
ATOM     46  C   UNL     1     -43.012  39.080  30.517  1.00  0.00     0.120 A 
ATOM     47  N   UNL     1     -42.172  40.019  30.044  1.00  0.00    -0.219 NA
ATOM     48  H   UNL     1     -42.678  38.557  31.408  1.00  0.00     0.106 H 
BRANCH  41  49
ATOM     49  C   UNL     1     -44.047  41.932  26.215  1.00  0.00     0.085 C 
ATOM     50  C   UNL     1     -45.091  42.368  25.192  1.00  0.00    -0.020 C 
ATOM     51  O   UNL     1     -43.639  43.145  26.898  1.00  0.00    -0.373 OA
ATOM     52  H   UNL     1     -43.157  41.563  25.690  1.00  0.00     0.066 H 
ATOM     53  C   UNL     1     -44.632  43.761  24.845  1.00  0.00    -0.027 C 
ATOM     54  H   UNL     1     -45.141  41.700  24.327  1.00  0.00     0.030 H 
ATOM     55  H   UNL     1     -46.093  42.422  25.636  1.00  0.00     0.030 H 
ATOM     56  C   UNL     1     -44.178  44.272  26.192  1.00  0.00     0.048 C 
ATOM     57  H   UNL     1     -43.782  43.712  24.154  1.00  0.00     0.029 H 
ATOM     58  H   UNL     1     -45.410  44.381  24.392  1.00  0.00     0.029 H 
ATOM     59  H   UNL     1     -45.020  44.660  26.775  1.00  0.00     0.057 H 
ATOM     60  H   UNL     1     -43.419  45.054  26.112  1.00  0.00     0.057 H 
ENDBRANCH  41  49
BRANCH  45  61
ATOM     61  N   UNL     1     -41.650  41.664  28.467  1.00  0.00    -0.383 N 
ATOM     62  H   UNL     1     -40.826  41.232  28.071  1.00  0.00     0.158 HD
ATOM     63  H   UNL     1     -41.476  42.390  29.164  1.00  0.00     0.158 HD
ENDBRANCH  45  61
ENDBRANCH  30  38
ENDBRANCH   1  26
TORSDOF 9
ENDMDL
MODEL 6
REMARK VINA RESULT:      -9.0      4.047     12.541
REMARK SMILES CNc1ccc2ccc(OC[C@H]3O[C@@H](n4cc([C@H]5CCCO5)c5c(N)ncnc54)[C@@H](F)[C@@H]3O)cc2n1
REMARK SMILES IDX 11 1 10 4 9 5 3 6 4 7 36 8 5 9 35 11 6 12 34 14 7 15 8 17
REMARK SMILES IDX 2 20 1 22 12 26 13 27 32 28 14 30 30 31 31 34 33 36 15 38
REMARK SMILES IDX 16 39 29 40 17 41 23 43 28 44 24 45 27 46 26 47 18 49 19 50
REMARK SMILES IDX 22 51 20 53 21 56 25 61
REMARK H PARENT 11 2 11 3 4 10 5 13 34 16 7 18 8 19 2 21 1 23 1 24 1 25 12 29
REMARK H PARENT 32 32 14 33 30 35 33 37 16 42 27 48 18 52 19 54 19 55 20 57
REMARK H PARENT 20 58 21 59 21 60 25 62 25 63
REMARK Flexibility Score: inf
ROOT
ATOM      1  C   UNL     1     -47.221  31.864  25.368  1.00  0.00     0.117 C 
ATOM      2  H   UNL     1     -47.939  32.623  25.038  1.00  0.00     0.073 H 
ATOM      3  H   UNL     1     -47.853  31.065  25.777  1.00  0.00     0.073 H 
ENDROOT
BRANCH   1   4
ATOM      4  O   UNL     1     -46.406  32.479  26.365  1.00  0.00    -0.491 OA
BRANCH   4   5
ATOM      5  C   UNL     1     -46.682  33.763  26.743  1.00  0.00     0.121 A 
ATOM      6  C   UNL     1     -45.658  38.037  28.570  1.00  0.00     0.126 A 
ATOM      7  C   UNL     1     -46.947  38.500  28.335  1.00  0.00    -0.019 A 
ATOM      8  N   UNL     1     -45.285  36.786  28.232  1.00  0.00    -0.231 NA
ATOM      9  C   UNL     1     -47.883  37.651  27.755  1.00  0.00    -0.049 A 
ATOM     10  H   UNL     1     -47.220  39.519  28.588  1.00  0.00     0.066 H 
ATOM     11  C   UNL     1     -46.183  35.958  27.670  1.00  0.00     0.076 A 
ATOM     12  C   UNL     1     -47.510  36.350  27.411  1.00  0.00     0.001 A 
ATOM     13  H   UNL     1     -48.891  38.012  27.570  1.00  0.00     0.063 H 
ATOM     14  C   UNL     1     -45.794  34.666  27.328  1.00  0.00     0.007 A 
ATOM     15  C   UNL     1     -48.412  35.451  26.822  1.00  0.00    -0.049 A 
ATOM     16  H   UNL     1     -44.763  34.401  27.536  1.00  0.00     0.069 H 
ATOM     17  C   UNL     1     -47.994  34.165  26.490  1.00  0.00    -0.019 A 
ATOM     18  H   UNL     1     -49.438  35.747  26.618  1.00  0.00     0.063 H 
ATOM     19  H   UNL     1     -48.694  33.470  26.035  1.00  0.00     0.066 H 
BRANCH   6  20
ATOM     20  N   UNL     1     -44.730  38.934  29.132  1.00  0.00    -0.373 N 
ATOM     21  H   UNL     1     -45.181  39.834  29.262  1.00  0.00     0.161 HD
BRANCH  20  22
ATOM     22  C   UNL     1     -44.107  38.458  30.357  1.00  0.00     0.005 C 
ATOM     23  H   UNL     1     -43.894  37.384  30.309  1.00  0.00     0.045 H 
ATOM     24  H   UNL     1     -43.151  38.973  30.492  1.00  0.00     0.045 H 
ATOM     25  H   UNL     1     -44.726  38.673  31.234  1.00  0.00     0.045 H 
ENDBRANCH  20  22
ENDBRANCH   6  20
ENDBRANCH   4   5
ENDBRANCH   1   4
BRANCH   1  26
ATOM     26  C   UNL     1     -46.396  31.382  24.166  1.00  0.00     0.123 C 
ATOM     27  O   UNL     1     -46.667  29.975  23.970  1.00  0.00    -0.345 OA
ATOM     28  C   UNL     1     -46.750  32.106  22.861  1.00  0.00     0.119 C 
ATOM     29  H   UNL     1     -45.327  31.485  24.376  1.00  0.00     0.067 H 
ATOM     30  C   UNL     1     -47.317  29.830  22.685  1.00  0.00     0.169 C 
ATOM     31  C   UNL     1     -47.811  31.209  22.270  1.00  0.00     0.173 C 
ATOM     32  H   UNL     1     -47.086  33.133  23.023  1.00  0.00     0.066 H 
ATOM     33  H   UNL     1     -46.553  29.455  21.994  1.00  0.00     0.088 H 
ATOM     34  F   UNL     1     -49.000  31.510  22.861  1.00  0.00    -0.239 F 
ATOM     35  H   UNL     1     -47.931  31.307  21.186  1.00  0.00     0.074 H 
BRANCH  28  36
ATOM     36  O   UNL     1     -45.612  32.142  21.991  1.00  0.00    -0.387 OA
ATOM     37  H   UNL     1     -45.108  31.319  22.128  1.00  0.00     0.211 HD
ENDBRANCH  28  36
BRANCH  30  38
ATOM     38  N   UNL     1     -48.368  28.829  22.758  1.00  0.00    -0.303 N 
ATOM     39  C   UNL     1     -48.791  28.140  23.868  1.00  0.00     0.015 A 
ATOM     40  C   UNL     1     -49.096  28.428  21.667  1.00  0.00     0.148 A 
ATOM     41  C   UNL     1     -49.822  27.289  23.501  1.00  0.00     0.012 A 
ATOM     42  H   UNL     1     -48.321  28.310  24.829  1.00  0.00     0.082 H 
ATOM     43  C   UNL     1     -50.007  27.468  22.086  1.00  0.00     0.067 A 
ATOM     44  N   UNL     1     -48.937  28.897  20.417  1.00  0.00    -0.218 NA
ATOM     45  C   UNL     1     -50.841  26.930  21.091  1.00  0.00     0.136 A 
ATOM     46  C   UNL     1     -49.790  28.309  19.562  1.00  0.00     0.120 A 
ATOM     47  N   UNL     1     -50.720  27.373  19.824  1.00  0.00    -0.219 NA
ATOM     48  H   UNL     1     -49.724  28.628  18.527  1.00  0.00     0.106 H 
BRANCH  41  49
ATOM     49  C   UNL     1     -50.576  26.331  24.376  1.00  0.00     0.085 C 
ATOM     50  C   UNL     1     -50.105  26.264  25.826  1.00  0.00    -0.020 C 
ATOM     51  O   UNL     1     -51.988  26.656  24.439  1.00  0.00    -0.373 OA
ATOM     52  H   UNL     1     -50.511  25.332  23.928  1.00  0.00     0.066 H 
ATOM     53  C   UNL     1     -51.345  25.788  26.539  1.00  0.00    -0.027 C 
ATOM     54  H   UNL     1     -49.245  25.601  25.961  1.00  0.00     0.030 H 
ATOM     55  H   UNL     1     -49.832  27.255  26.207  1.00  0.00     0.030 H 
ATOM     56  C   UNL     1     -52.424  26.542  25.801  1.00  0.00     0.048 C 
ATOM     57  H   UNL     1     -51.468  24.708  26.390  1.00  0.00     0.029 H 
ATOM     58  H   UNL     1     -51.339  25.990  27.614  1.00  0.00     0.029 H 
ATOM     59  H   UNL     1     -52.545  27.555  26.199  1.00  0.00     0.057 H 
ATOM     60  H   UNL     1     -53.392  26.036  25.836  1.00  0.00     0.057 H 
ENDBRANCH  41  49
BRANCH  45  61
ATOM     61  N   UNL     1     -51.813  25.968  21.339  1.00  0.00    -0.383 N 
ATOM     62  H   UNL     1     -51.429  25.040  21.223  1.00  0.00     0.158 HD
ATOM     63  H   UNL     1     -52.677  26.155  20.828  1.00  0.00     0.158 HD
ENDBRANCH  45  61
ENDBRANCH  30  38
ENDBRANCH   1  26
TORSDOF 9
ENDMDL
MODEL 7
REMARK VINA RESULT:      -8.9      3.737      8.258
REMARK SMILES CNc1ccc2ccc(OC[C@H]3O[C@@H](n4cc([C@H]5CCCO5)c5c(N)ncnc54)[C@@H](F)[C@@H]3O)cc2n1
REMARK SMILES IDX 11 1 10 4 9 5 3 6 4 7 36 8 5 9 35 11 6 12 34 14 7 15 8 17
REMARK SMILES IDX 2 20 1 22 12 26 13 27 32 28 14 30 30 31 31 34 33 36 15 38
REMARK SMILES IDX 16 39 29 40 17 41 23 43 28 44 24 45 27 46 26 47 18 49 19 50
REMARK SMILES IDX 22 51 20 53 21 56 25 61
REMARK H PARENT 11 2 11 3 4 10 5 13 34 16 7 18 8 19 2 21 1 23 1 24 1 25 12 29
REMARK H PARENT 32 32 14 33 30 35 33 37 16 42 27 48 18 52 19 54 19 55 20 57
REMARK H PARENT 20 58 21 59 21 60 25 62 25 63
REMARK Flexibility Score: inf
ROOT
ATOM      1  C   UNL     1     -44.960  36.128  28.626  1.00  0.00     0.117 C 
ATOM      2  H   UNL     1     -44.263  35.623  29.304  1.00  0.00     0.073 H 
ATOM      3  H   UNL     1     -44.368  36.297  27.718  1.00  0.00     0.073 H 
ENDROOT
BRANCH   1   4
ATOM      4  O   UNL     1     -45.340  37.347  29.264  1.00  0.00    -0.491 OA
BRANCH   4   5
ATOM      5  C   UNL     1     -44.630  38.482  28.992  1.00  0.00     0.121 A 
ATOM      6  C   UNL     1     -43.381  42.269  26.393  1.00  0.00     0.126 A 
ATOM      7  C   UNL     1     -42.456  42.679  27.347  1.00  0.00    -0.019 A 
ATOM      8  N   UNL     1     -44.133  41.164  26.569  1.00  0.00    -0.231 NA
ATOM      9  C   UNL     1     -42.285  41.924  28.502  1.00  0.00    -0.049 A 
ATOM     10  H   UNL     1     -41.881  43.587  27.200  1.00  0.00     0.066 H 
ATOM     11  C   UNL     1     -43.975  40.428  27.683  1.00  0.00     0.076 A 
ATOM     12  C   UNL     1     -43.051  40.771  28.688  1.00  0.00     0.001 A 
ATOM     13  H   UNL     1     -41.563  42.244  29.248  1.00  0.00     0.063 H 
ATOM     14  C   UNL     1     -44.750  39.285  27.857  1.00  0.00     0.007 A 
ATOM     15  C   UNL     1     -42.922  39.973  29.834  1.00  0.00    -0.049 A 
ATOM     16  H   UNL     1     -45.455  39.054  27.065  1.00  0.00     0.069 H 
ATOM     17  C   UNL     1     -43.712  38.835  29.981  1.00  0.00    -0.019 A 
ATOM     18  H   UNL     1     -42.212  40.232  30.615  1.00  0.00     0.063 H 
ATOM     19  H   UNL     1     -43.609  38.217  30.869  1.00  0.00     0.066 H 
BRANCH   6  20
ATOM     20  N   UNL     1     -43.547  43.074  25.251  1.00  0.00    -0.373 N 
ATOM     21  H   UNL     1     -42.972  42.705  24.502  1.00  0.00     0.161 HD
BRANCH  20  22
ATOM     22  C   UNL     1     -44.931  43.244  24.837  1.00  0.00     0.005 C 
ATOM     23  H   UNL     1     -45.627  42.884  25.604  1.00  0.00     0.045 H 
ATOM     24  H   UNL     1     -45.130  44.310  24.692  1.00  0.00     0.045 H 
ATOM     25  H   UNL     1     -45.133  42.737  23.887  1.00  0.00     0.045 H 
ENDBRANCH  20  22
ENDBRANCH   6  20
ENDBRANCH   4   5
ENDBRANCH   1   4
BRANCH   1  26
ATOM     26  C   UNL     1     -46.167  35.217  28.360  1.00  0.00     0.123 C 
ATOM     27  O   UNL     1     -47.347  35.869  28.885  1.00  0.00    -0.345 OA
ATOM     28  C   UNL     1     -46.411  34.957  26.868  1.00  0.00     0.119 C 
ATOM     29  H   UNL     1     -46.050  34.269  28.894  1.00  0.00     0.067 H 
ATOM     30  C   UNL     1     -48.217  36.165  27.768  1.00  0.00     0.169 C 
ATOM     31  C   UNL     1     -47.379  36.055  26.500  1.00  0.00     0.173 C 
ATOM     32  H   UNL     1     -45.489  34.971  26.279  1.00  0.00     0.066 H 
ATOM     33  H   UNL     1     -49.012  35.411  27.787  1.00  0.00     0.088 H 
ATOM     34  F   UNL     1     -46.667  37.193  26.275  1.00  0.00    -0.239 F 
ATOM     35  H   UNL     1     -47.982  35.845  25.612  1.00  0.00     0.074 H 
BRANCH  28  36
ATOM     36  O   UNL     1     -47.037  33.681  26.684  1.00  0.00    -0.387 OA
ATOM     37  H   UNL     1     -47.219  33.311  27.567  1.00  0.00     0.211 HD
ENDBRANCH  28  36
BRANCH  30  38
ATOM     38  N   UNL     1     -48.844  37.464  27.943  1.00  0.00    -0.303 N 
ATOM     39  C   UNL     1     -48.336  38.691  27.596  1.00  0.00     0.015 A 
ATOM     40  C   UNL     1     -50.081  37.626  28.513  1.00  0.00     0.148 A 
ATOM     41  C   UNL     1     -49.262  39.670  27.928  1.00  0.00     0.012 A 
ATOM     42  H   UNL     1     -47.356  38.770  27.144  1.00  0.00     0.082 H 
ATOM     43  C   UNL     1     -50.375  38.983  28.527  1.00  0.00     0.067 A 
ATOM     44  N   UNL     1     -50.857  36.629  28.972  1.00  0.00    -0.218 NA
ATOM     45  C   UNL     1     -51.611  39.343  29.089  1.00  0.00     0.136 A 
ATOM     46  C   UNL     1     -52.008  37.100  29.481  1.00  0.00     0.120 A 
ATOM     47  N   UNL     1     -52.425  38.377  29.559  1.00  0.00    -0.219 NA
ATOM     48  H   UNL     1     -52.692  36.357  29.880  1.00  0.00     0.106 H 
BRANCH  41  49
ATOM     49  C   UNL     1     -49.131  41.154  27.751  1.00  0.00     0.085 C 
ATOM     50  C   UNL     1     -47.922  41.610  26.940  1.00  0.00    -0.020 C 
ATOM     51  O   UNL     1     -50.286  41.721  27.083  1.00  0.00    -0.373 OA
ATOM     52  H   UNL     1     -49.095  41.617  28.746  1.00  0.00     0.066 H 
ATOM     53  C   UNL     1     -48.381  42.944  26.411  1.00  0.00    -0.027 C 
ATOM     54  H   UNL     1     -47.008  41.670  27.539  1.00  0.00     0.030 H 
ATOM     55  H   UNL     1     -47.727  40.938  26.095  1.00  0.00     0.030 H 
ATOM     56  C   UNL     1     -49.831  42.661  26.100  1.00  0.00     0.048 C 
ATOM     57  H   UNL     1     -48.305  43.703  27.200  1.00  0.00     0.029 H 
ATOM     58  H   UNL     1     -47.816  43.291  25.542  1.00  0.00     0.029 H 
ATOM     59  H   UNL     1     -49.943  42.197  25.115  1.00  0.00     0.057 H 
ATOM     60  H   UNL     1     -50.452  43.560  26.135  1.00  0.00     0.057 H 
ENDBRANCH  41  49
BRANCH  45  61
ATOM     61  N   UNL     1     -52.066  40.654  29.174  1.00  0.00    -0.383 N 
ATOM     62  H   UNL     1     -53.040  40.708  28.909  1.00  0.00     0.158 HD
ATOM     63  H   UNL     1     -51.441  41.308  28.699  1.00  0.00     0.158 HD
ENDBRANCH  45  61
ENDBRANCH  30  38
ENDBRANCH   1  26
TORSDOF 9
ENDMDL
