MODEL 1
REMARK VINA RESULT:      -9.9      0.000      0.000
REMARK SMILES CN(C)C(=O)c1cn([C@@H]2O[C@H](COc3ccc4ccc(N5CCC5)nc4c3)[C@@H](O)[C@@H]2F)c2ncnc(N)c12
REMARK SMILES IDX 9 1 10 2 11 3 28 4 30 5 31 6 8 11 6 12 7 13 38 14 32 16
REMARK SMILES IDX 36 17 33 18 35 19 34 20 4 22 2 23 5 24 1 25 3 29 37 33 12 36
REMARK SMILES IDX 13 39 14 40 15 41 27 42 16 43 26 45 17 47 25 49 18 50 20 51
REMARK SMILES IDX 19 52 21 55 22 56 24 57 23 58 29 65
REMARK H PARENT 9 7 11 8 28 9 30 10 7 15 34 21 1 26 1 27 1 28 3 30 3 31 3 32
REMARK H PARENT 37 34 37 35 12 37 12 38 15 44 27 46 16 48 18 53 19 54 22 59
REMARK H PARENT 22 60 24 61 24 62 23 63 23 64 29 66
REMARK Flexibility Score: inf
ROOT
ATOM      1  C   UNL     1     -45.298  38.372  28.775  1.00  0.00     0.169 C 
ATOM      2  O   UNL     1     -45.150  37.180  27.963  1.00  0.00    -0.345 OA
ATOM      3  C   UNL     1     -46.447  36.556  27.863  1.00  0.00     0.123 C 
ATOM      4  C   UNL     1     -47.446  37.688  28.032  1.00  0.00     0.119 C 
ATOM      5  C   UNL     1     -46.780  38.507  29.116  1.00  0.00     0.173 C 
ATOM      6  F   UNL     1     -47.245  39.779  29.068  1.00  0.00    -0.239 F 
ATOM      7  H   UNL     1     -44.692  38.230  29.676  1.00  0.00     0.088 H 
ATOM      8  H   UNL     1     -46.526  35.841  28.690  1.00  0.00     0.067 H 
ATOM      9  H   UNL     1     -47.552  38.280  27.114  1.00  0.00     0.066 H 
ATOM     10  H   UNL     1     -47.001  38.103  30.109  1.00  0.00     0.074 H 
ENDROOT
BRANCH   1  11
ATOM     11  N   UNL     1     -44.757  39.514  28.051  1.00  0.00    -0.302 N 
ATOM     12  C   UNL     1     -44.433  41.139  26.545  1.00  0.00     0.071 A 
ATOM     13  C   UNL     1     -45.193  40.019  26.852  1.00  0.00     0.022 A 
ATOM     14  C   UNL     1     -43.452  41.271  27.580  1.00  0.00     0.074 A 
ATOM     15  H   UNL     1     -45.999  39.551  26.301  1.00  0.00     0.083 H 
ATOM     16  C   UNL     1     -43.695  40.259  28.500  1.00  0.00     0.148 A 
ATOM     17  C   UNL     1     -42.366  42.117  27.860  1.00  0.00     0.137 A 
ATOM     18  N   UNL     1     -43.016  40.027  29.637  1.00  0.00    -0.218 NA
ATOM     19  N   UNL     1     -41.654  41.916  28.986  1.00  0.00    -0.219 NA
ATOM     20  C   UNL     1     -42.015  40.906  29.800  1.00  0.00     0.120 A 
ATOM     21  H   UNL     1     -41.417  40.788  30.699  1.00  0.00     0.106 H 
BRANCH  12  22
ATOM     22  C   UNL     1     -44.605  41.929  25.334  1.00  0.00     0.255 C 
ATOM     23  N   UNL     1     -45.426  43.056  25.395  1.00  0.00    -0.345 N 
ATOM     24  O   UNL     1     -44.024  41.603  24.300  1.00  0.00    -0.269 OA
BRANCH  23  25
ATOM     25  C   UNL     1     -46.472  43.252  26.392  1.00  0.00     0.009 C 
ATOM     26  H   UNL     1     -45.997  43.378  27.370  1.00  0.00     0.046 H 
ATOM     27  H   UNL     1     -47.086  44.133  26.208  1.00  0.00     0.046 H 
ATOM     28  H   UNL     1     -47.107  42.361  26.415  1.00  0.00     0.046 H 
ENDBRANCH  23  25
BRANCH  23  29
ATOM     29  C   UNL     1     -45.518  43.896  24.214  1.00  0.00     0.009 C 
ATOM     30  H   UNL     1     -44.589  44.465  24.113  1.00  0.00     0.046 H 
ATOM     31  H   UNL     1     -45.662  43.263  23.333  1.00  0.00     0.046 H 
ATOM     32  H   UNL     1     -46.357  44.592  24.286  1.00  0.00     0.046 H 
ENDBRANCH  23  29
ENDBRANCH  12  22
BRANCH  17  33
ATOM     33  N   UNL     1     -41.957  43.159  27.042  1.00  0.00    -0.383 N 
ATOM     34  H   UNL     1     -42.429  44.041  27.195  1.00  0.00     0.158 HD
ATOM     35  H   UNL     1     -41.875  42.851  26.080  1.00  0.00     0.158 HD
ENDBRANCH  17  33
ENDBRANCH   1  11
BRANCH   3  36
ATOM     36  C   UNL     1     -46.606  35.832  26.524  1.00  0.00     0.117 C 
ATOM     37  H   UNL     1     -45.723  35.207  26.351  1.00  0.00     0.073 H 
ATOM     38  H   UNL     1     -46.667  36.518  25.671  1.00  0.00     0.073 H 
BRANCH  36  39
ATOM     39  O   UNL     1     -47.716  34.929  26.551  1.00  0.00    -0.491 OA
BRANCH  39  40
ATOM     40  C   UNL     1     -47.625  33.752  25.861  1.00  0.00     0.121 A 
ATOM     41  C   UNL     1     -46.411  33.567  25.201  1.00  0.00    -0.019 A 
ATOM     42  C   UNL     1     -48.604  32.759  25.778  1.00  0.00     0.007 A 
ATOM     43  C   UNL     1     -46.180  32.409  24.463  1.00  0.00    -0.049 A 
ATOM     44  H   UNL     1     -45.641  34.333  25.263  1.00  0.00     0.066 H 
ATOM     45  C   UNL     1     -48.400  31.592  25.050  1.00  0.00     0.076 A 
ATOM     46  H   UNL     1     -49.561  32.856  26.282  1.00  0.00     0.069 H 
ATOM     47  C   UNL     1     -47.171  31.420  24.385  1.00  0.00     0.001 A 
ATOM     48  H   UNL     1     -45.228  32.285  23.953  1.00  0.00     0.063 H 
ATOM     49  N   UNL     1     -49.376  30.668  25.007  1.00  0.00    -0.231 NA
ATOM     50  C   UNL     1     -46.983  30.245  23.655  1.00  0.00    -0.049 A 
ATOM     51  C   UNL     1     -49.184  29.528  24.304  1.00  0.00     0.129 A 
ATOM     52  C   UNL     1     -47.999  29.295  23.613  1.00  0.00    -0.019 A 
ATOM     53  H   UNL     1     -46.058  30.062  23.116  1.00  0.00     0.063 H 
ATOM     54  H   UNL     1     -47.866  28.386  23.036  1.00  0.00     0.066 H 
BRANCH  51  55
ATOM     55  N   UNL     1     -50.222  28.580  24.259  1.00  0.00    -0.356 N 
ATOM     56  C   UNL     1     -50.112  27.294  23.628  1.00  0.00     0.021 C 
ATOM     57  C   UNL     1     -51.547  28.789  23.752  1.00  0.00     0.021 C 
ATOM     58  C   UNL     1     -51.645  27.265  23.626  1.00  0.00    -0.018 C 
ATOM     59  H   UNL     1     -49.621  26.543  24.252  1.00  0.00     0.049 H 
ATOM     60  H   UNL     1     -49.651  27.339  22.636  1.00  0.00     0.049 H 
ATOM     61  H   UNL     1     -51.561  29.334  22.802  1.00  0.00     0.049 H 
ATOM     62  H   UNL     1     -52.225  29.250  24.474  1.00  0.00     0.049 H 
ATOM     63  H   UNL     1     -52.088  26.768  24.496  1.00  0.00     0.030 H 
ATOM     64  H   UNL     1     -52.113  26.891  22.712  1.00  0.00     0.030 H 
ENDBRANCH  51  55
ENDBRANCH  39  40
ENDBRANCH  36  39
ENDBRANCH   3  36
BRANCH   4  65
ATOM     65  O   UNL     1     -48.730  37.215  28.410  1.00  0.00    -0.387 OA
ATOM     66  H   UNL     1     -49.389  37.765  27.948  1.00  0.00     0.211 HD
ENDBRANCH   4  65
TORSDOF 10
ENDMDL
MODEL 2
REMARK VINA RESULT:      -9.7      1.452      2.183
REMARK SMILES CN(C)C(=O)c1cn([C@@H]2O[C@H](COc3ccc4ccc(N5CCC5)nc4c3)[C@@H](O)[C@@H]2F)c2ncnc(N)c12
REMARK SMILES IDX 9 1 10 2 11 3 28 4 30 5 31 6 8 11 6 12 7 13 38 14 32 16
REMARK SMILES IDX 36 17 33 18 35 19 34 20 4 22 2 23 5 24 1 25 3 29 37 33 12 36
REMARK SMILES IDX 13 39 14 40 15 41 27 42 16 43 26 45 17 47 25 49 18 50 20 51
REMARK SMILES IDX 19 52 21 55 22 56 24 57 23 58 29 65
REMARK H PARENT 9 7 11 8 28 9 30 10 7 15 34 21 1 26 1 27 1 28 3 30 3 31 3 32
REMARK H PARENT 37 34 37 35 12 37 12 38 15 44 27 46 16 48 18 53 19 54 22 59
REMARK H PARENT 22 60 24 61 24 62 23 63 23 64 29 66
REMARK Flexibility Score: inf
ROOT
ATOM      1  C   UNL     1     -45.214  38.593  29.371  1.00  0.00     0.169 C 
ATOM      2  O   UNL     1     -44.745  37.273  28.998  1.00  0.00    -0.345 OA
ATOM      3  C   UNL     1     -45.904  36.435  28.809  1.00  0.00     0.123 C 
ATOM      4  C   UNL     1     -47.022  37.386  28.417  1.00  0.00     0.119 C 
ATOM      5  C   UNL     1     -46.740  38.561  29.328  1.00  0.00     0.173 C 
ATOM      6  F   UNL     1     -47.303  39.678  28.808  1.00  0.00    -0.239 F 
ATOM      7  H   UNL     1     -44.847  38.796  30.382  1.00  0.00     0.088 H 
ATOM      8  H   UNL     1     -46.118  35.958  29.773  1.00  0.00     0.067 H 
ATOM      9  H   UNL     1     -46.949  37.690  27.366  1.00  0.00     0.066 H 
ATOM     10  H   UNL     1     -47.165  38.399  30.324  1.00  0.00     0.074 H 
ENDROOT
BRANCH   1  11
ATOM     11  N   UNL     1     -44.624  39.580  28.477  1.00  0.00    -0.302 N 
ATOM     12  C   UNL     1     -44.255  40.961  26.754  1.00  0.00     0.071 A 
ATOM     13  C   UNL     1     -45.083  39.960  27.241  1.00  0.00     0.022 A 
ATOM     14  C   UNL     1     -43.210  41.142  27.718  1.00  0.00     0.074 A 
ATOM     15  H   UNL     1     -45.953  39.496  26.793  1.00  0.00     0.083 H 
ATOM     16  C   UNL     1     -43.483  40.282  28.775  1.00  0.00     0.148 A 
ATOM     17  C   UNL     1     -42.047  41.920  27.834  1.00  0.00     0.137 A 
ATOM     18  N   UNL     1     -42.764  40.143  29.902  1.00  0.00    -0.218 NA
ATOM     19  N   UNL     1     -41.293  41.806  28.944  1.00  0.00    -0.219 NA
ATOM     20  C   UNL     1     -41.688  40.946  29.902  1.00  0.00     0.120 A 
ATOM     21  H   UNL     1     -41.053  40.895  30.782  1.00  0.00     0.106 H 
BRANCH  12  22
ATOM     22  C   UNL     1     -44.428  41.599  25.456  1.00  0.00     0.255 C 
ATOM     23  N   UNL     1     -44.864  42.924  25.428  1.00  0.00    -0.345 N 
ATOM     24  O   UNL     1     -44.180  40.974  24.426  1.00  0.00    -0.269 OA
BRANCH  23  25
ATOM     25  C   UNL     1     -45.593  43.568  26.515  1.00  0.00     0.009 C 
ATOM     26  H   UNL     1     -46.613  43.168  26.530  1.00  0.00     0.046 H 
ATOM     27  H   UNL     1     -45.155  43.389  27.497  1.00  0.00     0.046 H 
ATOM     28  H   UNL     1     -45.634  44.644  26.323  1.00  0.00     0.046 H 
ENDBRANCH  23  25
BRANCH  23  29
ATOM     29  C   UNL     1     -44.943  43.587  24.139  1.00  0.00     0.009 C 
ATOM     30  H   UNL     1     -44.516  42.929  23.377  1.00  0.00     0.046 H 
ATOM     31  H   UNL     1     -45.992  43.793  23.904  1.00  0.00     0.046 H 
ATOM     32  H   UNL     1     -44.394  44.533  24.144  1.00  0.00     0.046 H 
ENDBRANCH  23  29
ENDBRANCH  12  22
BRANCH  17  33
ATOM     33  N   UNL     1     -41.601  42.807  26.867  1.00  0.00    -0.383 N 
ATOM     34  H   UNL     1     -42.200  42.902  26.057  1.00  0.00     0.158 HD
ATOM     35  H   UNL     1     -40.612  42.675  26.685  1.00  0.00     0.158 HD
ENDBRANCH  17  33
ENDBRANCH   1  11
BRANCH   3  36
ATOM     36  C   UNL     1     -45.643  35.369  27.742  1.00  0.00     0.117 C 
ATOM     37  H   UNL     1     -45.816  34.379  28.178  1.00  0.00     0.073 H 
ATOM     38  H   UNL     1     -44.607  35.369  27.383  1.00  0.00     0.073 H 
BRANCH  36  39
ATOM     39  O   UNL     1     -46.573  35.480  26.660  1.00  0.00    -0.491 OA
BRANCH  39  40
ATOM     40  C   UNL     1     -47.149  34.341  26.168  1.00  0.00     0.121 A 
ATOM     41  C   UNL     1     -48.514  34.229  26.432  1.00  0.00    -0.019 A 
ATOM     42  C   UNL     1     -46.511  33.332  25.443  1.00  0.00     0.007 A 
ATOM     43  C   UNL     1     -49.229  33.120  25.985  1.00  0.00    -0.049 A 
ATOM     44  H   UNL     1     -49.021  35.011  26.993  1.00  0.00     0.066 H 
ATOM     45  C   UNL     1     -47.200  32.216  24.982  1.00  0.00     0.076 A 
ATOM     46  H   UNL     1     -45.452  33.381  25.207  1.00  0.00     0.069 H 
ATOM     47  C   UNL     1     -48.576  32.113  25.260  1.00  0.00     0.001 A 
ATOM     48  H   UNL     1     -50.291  33.050  26.204  1.00  0.00     0.063 H 
ATOM     49  N   UNL     1     -46.535  31.276  24.287  1.00  0.00    -0.231 NA
ATOM     50  C   UNL     1     -49.253  30.985  24.794  1.00  0.00    -0.049 A 
ATOM     51  C   UNL     1     -47.199  30.190  23.832  1.00  0.00     0.129 A 
ATOM     52  C   UNL     1     -48.557  30.016  24.078  1.00  0.00    -0.019 A 
ATOM     53  H   UNL     1     -50.314  30.849  24.985  1.00  0.00     0.063 H 
ATOM     54  H   UNL     1     -49.074  29.129  23.726  1.00  0.00     0.066 H 
BRANCH  51  55
ATOM     55  N   UNL     1     -46.483  29.210  23.119  1.00  0.00    -0.356 N 
ATOM     56  C   UNL     1     -46.126  27.925  23.652  1.00  0.00     0.021 C 
ATOM     57  C   UNL     1     -45.207  29.377  22.488  1.00  0.00     0.021 C 
ATOM     58  C   UNL     1     -45.085  27.850  22.530  1.00  0.00    -0.018 C 
ATOM     59  H   UNL     1     -46.936  27.193  23.602  1.00  0.00     0.049 H 
ATOM     60  H   UNL     1     -45.711  27.979  24.663  1.00  0.00     0.049 H 
ATOM     61  H   UNL     1     -44.488  29.916  23.113  1.00  0.00     0.049 H 
ATOM     62  H   UNL     1     -45.266  29.821  21.491  1.00  0.00     0.049 H 
ATOM     63  H   UNL     1     -45.434  27.344  21.623  1.00  0.00     0.030 H 
ATOM     64  H   UNL     1     -44.105  27.458  22.814  1.00  0.00     0.030 H 
ENDBRANCH  51  55
ENDBRANCH  39  40
ENDBRANCH  36  39
ENDBRANCH   3  36
BRANCH   4  65
ATOM     65  O   UNL     1     -48.305  36.818  28.632  1.00  0.00    -0.387 OA
ATOM     66  H   UNL     1     -48.943  37.340  28.110  1.00  0.00     0.211 HD
ENDBRANCH   4  65
TORSDOF 10
ENDMDL
MODEL 3
REMARK VINA RESULT:      -9.3      2.703     11.550
REMARK SMILES CN(C)C(=O)c1cn([C@@H]2O[C@H](COc3ccc4ccc(N5CCC5)nc4c3)[C@@H](O)[C@@H]2F)c2ncnc(N)c12
REMARK SMILES IDX 9 1 10 2 11 3 28 4 30 5 31 6 8 11 6 12 7 13 38 14 32 16
REMARK SMILES IDX 36 17 33 18 35 19 34 20 4 22 2 23 5 24 1 25 3 29 37 33 12 36
REMARK SMILES IDX 13 39 14 40 15 41 27 42 16 43 26 45 17 47 25 49 18 50 20 51
REMARK SMILES IDX 19 52 21 55 22 56 24 57 23 58 29 65
REMARK H PARENT 9 7 11 8 28 9 30 10 7 15 34 21 1 26 1 27 1 28 3 30 3 31 3 32
REMARK H PARENT 37 34 37 35 12 37 12 38 15 44 27 46 16 48 18 53 19 54 22 59
REMARK H PARENT 22 60 24 61 24 62 23 63 23 64 29 66
REMARK Flexibility Score: inf
ROOT
ATOM      1  C   UNL     1     -48.098  31.471  26.214  1.00  0.00     0.169 C 
ATOM      2  O   UNL     1     -48.842  32.569  26.802  1.00  0.00    -0.345 OA
ATOM      3  C   UNL     1     -47.972  33.719  26.833  1.00  0.00     0.123 C 
ATOM      4  C   UNL     1     -46.991  33.505  25.693  1.00  0.00     0.119 C 
ATOM      5  C   UNL     1     -46.733  32.018  25.803  1.00  0.00     0.173 C 
ATOM      6  F   UNL     1     -46.285  31.550  24.613  1.00  0.00    -0.239 F 
ATOM      7  H   UNL     1     -48.004  30.695  26.979  1.00  0.00     0.088 H 
ATOM      8  H   UNL     1     -47.455  33.706  27.800  1.00  0.00     0.067 H 
ATOM      9  H   UNL     1     -47.436  33.747  24.720  1.00  0.00     0.066 H 
ATOM     10  H   UNL     1     -45.972  31.804  26.560  1.00  0.00     0.074 H 
ENDROOT
BRANCH   1  11
ATOM     11  N   UNL     1     -48.864  30.914  25.107  1.00  0.00    -0.302 N 
ATOM     12  C   UNL     1     -50.021  30.682  23.205  1.00  0.00     0.071 A 
ATOM     13  C   UNL     1     -49.427  31.599  24.060  1.00  0.00     0.022 A 
ATOM     14  C   UNL     1     -49.861  29.390  23.805  1.00  0.00     0.074 A 
ATOM     15  H   UNL     1     -49.374  32.678  23.995  1.00  0.00     0.083 H 
ATOM     16  C   UNL     1     -49.127  29.574  24.970  1.00  0.00     0.148 A 
ATOM     17  C   UNL     1     -50.256  28.072  23.521  1.00  0.00     0.137 A 
ATOM     18  N   UNL     1     -48.736  28.620  25.832  1.00  0.00    -0.218 NA
ATOM     19  N   UNL     1     -49.892  27.086  24.363  1.00  0.00    -0.219 NA
ATOM     20  C   UNL     1     -49.160  27.405  25.447  1.00  0.00     0.120 A 
ATOM     21  H   UNL     1     -48.884  26.576  26.091  1.00  0.00     0.106 H 
BRANCH  12  22
ATOM     22  C   UNL     1     -50.733  31.048  21.988  1.00  0.00     0.255 C 
ATOM     23  N   UNL     1     -50.179  30.669  20.764  1.00  0.00    -0.345 N 
ATOM     24  O   UNL     1     -51.795  31.663  22.058  1.00  0.00    -0.269 OA
BRANCH  23  25
ATOM     25  C   UNL     1     -48.766  30.366  20.565  1.00  0.00     0.009 C 
ATOM     26  H   UNL     1     -48.584  30.261  19.490  1.00  0.00     0.046 H 
ATOM     27  H   UNL     1     -48.099  31.142  20.938  1.00  0.00     0.046 H 
ATOM     28  H   UNL     1     -48.537  29.417  21.060  1.00  0.00     0.046 H 
ENDBRANCH  23  25
BRANCH  23  29
ATOM     29  C   UNL     1     -50.937  30.951  19.558  1.00  0.00     0.009 C 
ATOM     30  H   UNL     1     -50.274  30.852  18.694  1.00  0.00     0.046 H 
ATOM     31  H   UNL     1     -51.761  30.235  19.476  1.00  0.00     0.046 H 
ATOM     32  H   UNL     1     -51.352  31.962  19.576  1.00  0.00     0.046 H 
ENDBRANCH  23  29
ENDBRANCH  12  22
BRANCH  17  33
ATOM     33  N   UNL     1     -51.018  27.705  22.422  1.00  0.00    -0.383 N 
ATOM     34  H   UNL     1     -50.996  28.352  21.644  1.00  0.00     0.158 HD
ATOM     35  H   UNL     1     -51.933  27.377  22.711  1.00  0.00     0.158 HD
ENDBRANCH  17  33
ENDBRANCH   1  11
BRANCH   3  36
ATOM     36  C   UNL     1     -48.770  35.016  26.680  1.00  0.00     0.117 C 
ATOM     37  H   UNL     1     -49.828  34.767  26.534  1.00  0.00     0.073 H 
ATOM     38  H   UNL     1     -48.469  35.603  25.805  1.00  0.00     0.073 H 
BRANCH  36  39
ATOM     39  O   UNL     1     -48.723  35.798  27.878  1.00  0.00    -0.491 OA
BRANCH  39  40
ATOM     40  C   UNL     1     -47.671  36.652  28.066  1.00  0.00     0.121 A 
ATOM     41  C   UNL     1     -46.939  36.412  29.228  1.00  0.00    -0.019 A 
ATOM     42  C   UNL     1     -47.282  37.692  27.218  1.00  0.00     0.007 A 
ATOM     43  C   UNL     1     -45.837  37.204  29.542  1.00  0.00    -0.049 A 
ATOM     44  H   UNL     1     -47.231  35.603  29.893  1.00  0.00     0.066 H 
ATOM     45  C   UNL     1     -46.185  38.497  27.505  1.00  0.00     0.076 A 
ATOM     46  H   UNL     1     -47.817  37.910  26.299  1.00  0.00     0.069 H 
ATOM     47  C   UNL     1     -45.458  38.246  28.685  1.00  0.00     0.001 A 
ATOM     48  H   UNL     1     -45.281  37.003  30.454  1.00  0.00     0.063 H 
ATOM     49  N   UNL     1     -45.854  39.482  26.652  1.00  0.00    -0.231 NA
ATOM     50  C   UNL     1     -44.362  39.066  28.961  1.00  0.00    -0.049 A 
ATOM     51  C   UNL     1     -44.787  40.267  26.923  1.00  0.00     0.129 A 
ATOM     52  C   UNL     1     -44.027  40.085  28.074  1.00  0.00    -0.019 A 
ATOM     53  H   UNL     1     -43.768  38.924  29.859  1.00  0.00     0.063 H 
ATOM     54  H   UNL     1     -43.186  40.735  28.290  1.00  0.00     0.066 H 
BRANCH  51  55
ATOM     55  N   UNL     1     -44.465  41.302  26.025  1.00  0.00    -0.356 N 
ATOM     56  C   UNL     1     -43.401  42.245  26.230  1.00  0.00     0.021 C 
ATOM     57  C   UNL     1     -45.355  42.312  25.534  1.00  0.00     0.021 C 
ATOM     58  C   UNL     1     -44.102  43.125  25.190  1.00  0.00    -0.018 C 
ATOM     59  H   UNL     1     -42.418  41.861  25.947  1.00  0.00     0.049 H 
ATOM     60  H   UNL     1     -43.381  42.657  27.245  1.00  0.00     0.049 H 
ATOM     61  H   UNL     1     -45.986  42.745  26.317  1.00  0.00     0.049 H 
ATOM     62  H   UNL     1     -45.959  41.988  24.683  1.00  0.00     0.049 H 
ATOM     63  H   UNL     1     -43.741  42.986  24.164  1.00  0.00     0.030 H 
ATOM     64  H   UNL     1     -44.147  44.192  25.421  1.00  0.00     0.030 H 
ENDBRANCH  51  55
ENDBRANCH  39  40
ENDBRANCH  36  39
ENDBRANCH   3  36
BRANCH   4  65
ATOM     65  O   UNL     1     -45.812  34.281  25.852  1.00  0.00    -0.387 OA
ATOM     66  H   UNL     1     -45.412  34.029  26.706  1.00  0.00     0.211 HD
ENDBRANCH   4  65
TORSDOF 10
ENDMDL
MODEL 4
REMARK VINA RESULT:      -9.0      3.308     12.014
REMARK SMILES CN(C)C(=O)c1cn([C@@H]2O[C@H](COc3ccc4ccc(N5CCC5)nc4c3)[C@@H](O)[C@@H]2F)c2ncnc(N)c12
REMARK SMILES IDX 9 1 10 2 11 3 28 4 30 5 31 6 8 11 6 12 7 13 38 14 32 16
REMARK SMILES IDX 36 17 33 18 35 19 34 20 4 22 2 23 5 24 1 25 3 29 37 33 12 36
REMARK SMILES IDX 13 39 14 40 15 41 27 42 16 43 26 45 17 47 25 49 18 50 20 51
REMARK SMILES IDX 19 52 21 55 22 56 24 57 23 58 29 65
REMARK H PARENT 9 7 11 8 28 9 30 10 7 15 34 21 1 26 1 27 1 28 3 30 3 31 3 32
REMARK H PARENT 37 34 37 35 12 37 12 38 15 44 27 46 16 48 18 53 19 54 22 59
REMARK H PARENT 22 60 24 61 24 62 23 63 23 64 29 66
REMARK Flexibility Score: inf
ROOT
ATOM      1  C   UNL     1     -47.900  31.434  23.928  1.00  0.00     0.169 C 
ATOM      2  O   UNL     1     -46.838  32.182  24.574  1.00  0.00    -0.345 OA
ATOM      3  C   UNL     1     -47.453  33.110  25.491  1.00  0.00     0.123 C 
ATOM      4  C   UNL     1     -48.775  32.469  25.876  1.00  0.00     0.119 C 
ATOM      5  C   UNL     1     -49.217  31.890  24.550  1.00  0.00     0.173 C 
ATOM      6  F   UNL     1     -50.101  30.886  24.770  1.00  0.00    -0.239 F 
ATOM      7  H   UNL     1     -47.860  31.668  22.860  1.00  0.00     0.088 H 
ATOM      8  H   UNL     1     -47.618  34.045  24.943  1.00  0.00     0.067 H 
ATOM      9  H   UNL     1     -48.643  31.672  26.618  1.00  0.00     0.066 H 
ATOM     10  H   UNL     1     -49.712  32.647  23.933  1.00  0.00     0.074 H 
ENDROOT
BRANCH   1  11
ATOM     11  N   UNL     1     -47.641  30.009  24.080  1.00  0.00    -0.302 N 
ATOM     12  C   UNL     1     -47.816  27.846  24.633  1.00  0.00     0.071 A 
ATOM     13  C   UNL     1     -48.384  29.102  24.793  1.00  0.00     0.022 A 
ATOM     14  C   UNL     1     -46.637  28.023  23.837  1.00  0.00     0.074 A 
ATOM     15  H   UNL     1     -49.253  29.406  25.364  1.00  0.00     0.083 H 
ATOM     16  C   UNL     1     -46.573  29.370  23.502  1.00  0.00     0.148 A 
ATOM     17  C   UNL     1     -45.593  27.213  23.359  1.00  0.00     0.137 A 
ATOM     18  N   UNL     1     -45.633  29.965  22.749  1.00  0.00    -0.218 NA
ATOM     19  N   UNL     1     -44.626  27.771  22.606  1.00  0.00    -0.219 NA
ATOM     20  C   UNL     1     -44.701  29.089  22.341  1.00  0.00     0.120 A 
ATOM     21  H   UNL     1     -43.904  29.492  21.723  1.00  0.00     0.106 H 
BRANCH  12  22
ATOM     22  C   UNL     1     -48.330  26.636  25.259  1.00  0.00     0.255 C 
ATOM     23  N   UNL     1     -47.695  26.173  26.413  1.00  0.00    -0.345 N 
ATOM     24  O   UNL     1     -49.303  26.060  24.776  1.00  0.00    -0.269 OA
BRANCH  23  25
ATOM     25  C   UNL     1     -46.322  26.501  26.778  1.00  0.00     0.009 C 
ATOM     26  H   UNL     1     -45.651  26.038  26.047  1.00  0.00     0.046 H 
ATOM     27  H   UNL     1     -46.118  27.572  26.780  1.00  0.00     0.046 H 
ATOM     28  H   UNL     1     -46.113  26.087  27.769  1.00  0.00     0.046 H 
ENDBRANCH  23  25
BRANCH  23  29
ATOM     29  C   UNL     1     -48.268  25.023  27.089  1.00  0.00     0.009 C 
ATOM     30  H   UNL     1     -49.242  25.305  27.500  1.00  0.00     0.046 H 
ATOM     31  H   UNL     1     -48.391  24.208  26.370  1.00  0.00     0.046 H 
ATOM     32  H   UNL     1     -47.623  24.678  27.902  1.00  0.00     0.046 H 
ENDBRANCH  23  29
ENDBRANCH  12  22
BRANCH  17  33
ATOM     33  N   UNL     1     -45.476  25.856  23.619  1.00  0.00    -0.383 N 
ATOM     34  H   UNL     1     -45.904  25.541  24.480  1.00  0.00     0.158 HD
ATOM     35  H   UNL     1     -44.531  25.536  23.440  1.00  0.00     0.158 HD
ENDBRANCH  17  33
ENDBRANCH   1  11
BRANCH   3  36
ATOM     36  C   UNL     1     -46.552  33.362  26.702  1.00  0.00     0.117 C 
ATOM     37  H   UNL     1     -45.708  33.990  26.394  1.00  0.00     0.073 H 
ATOM     38  H   UNL     1     -46.117  32.443  27.111  1.00  0.00     0.073 H 
BRANCH  36  39
ATOM     39  O   UNL     1     -47.237  34.111  27.711  1.00  0.00    -0.491 OA
BRANCH  39  40
ATOM     40  C   UNL     1     -47.164  35.476  27.683  1.00  0.00     0.121 A 
ATOM     41  C   UNL     1     -48.400  36.116  27.617  1.00  0.00    -0.019 A 
ATOM     42  C   UNL     1     -45.999  36.248  27.725  1.00  0.00     0.007 A 
ATOM     43  C   UNL     1     -48.473  37.507  27.587  1.00  0.00    -0.049 A 
ATOM     44  H   UNL     1     -49.313  35.525  27.588  1.00  0.00     0.066 H 
ATOM     45  C   UNL     1     -46.042  37.637  27.698  1.00  0.00     0.076 A 
ATOM     46  H   UNL     1     -45.015  35.793  27.784  1.00  0.00     0.069 H 
ATOM     47  C   UNL     1     -47.298  38.270  27.626  1.00  0.00     0.001 A 
ATOM     48  H   UNL     1     -49.447  37.987  27.532  1.00  0.00     0.063 H 
ATOM     49  N   UNL     1     -44.891  38.329  27.743  1.00  0.00    -0.231 NA
ATOM     50  C   UNL     1     -47.324  39.665  27.597  1.00  0.00    -0.049 A 
ATOM     51  C   UNL     1     -44.924  39.681  27.721  1.00  0.00     0.129 A 
ATOM     52  C   UNL     1     -46.128  40.374  27.641  1.00  0.00    -0.019 A 
ATOM     53  H   UNL     1     -48.264  40.207  27.535  1.00  0.00     0.063 H 
ATOM     54  H   UNL     1     -46.140  41.458  27.603  1.00  0.00     0.066 H 
BRANCH  51  55
ATOM     55  N   UNL     1     -43.707  40.388  27.754  1.00  0.00    -0.356 N 
ATOM     56  C   UNL     1     -42.986  40.694  28.958  1.00  0.00     0.021 C 
ATOM     57  C   UNL     1     -43.459  41.685  27.197  1.00  0.00     0.021 C 
ATOM     58  C   UNL     1     -42.253  41.762  28.139  1.00  0.00    -0.018 C 
ATOM     59  H   UNL     1     -42.372  39.866  29.320  1.00  0.00     0.049 H 
ATOM     60  H   UNL     1     -43.626  41.083  29.756  1.00  0.00     0.049 H 
ATOM     61  H   UNL     1     -44.259  42.402  27.408  1.00  0.00     0.049 H 
ATOM     62  H   UNL     1     -43.227  41.665  26.129  1.00  0.00     0.049 H 
ATOM     63  H   UNL     1     -41.311  41.424  27.695  1.00  0.00     0.030 H 
ATOM     64  H   UNL     1     -42.099  42.722  28.638  1.00  0.00     0.030 H 
ENDBRANCH  51  55
ENDBRANCH  39  40
ENDBRANCH  36  39
ENDBRANCH   3  36
BRANCH   4  65
ATOM     65  O   UNL     1     -49.696  33.417  26.397  1.00  0.00    -0.387 OA
ATOM     66  H   UNL     1     -49.949  33.115  27.289  1.00  0.00     0.211 HD
ENDBRANCH   4  65
TORSDOF 10
ENDMDL
MODEL 5
REMARK VINA RESULT:      -8.7      2.441      3.775
REMARK SMILES CN(C)C(=O)c1cn([C@@H]2O[C@H](COc3ccc4ccc(N5CCC5)nc4c3)[C@@H](O)[C@@H]2F)c2ncnc(N)c12
REMARK SMILES IDX 9 1 10 2 11 3 28 4 30 5 31 6 8 11 6 12 7 13 38 14 32 16
REMARK SMILES IDX 36 17 33 18 35 19 34 20 4 22 2 23 5 24 1 25 3 29 37 33 12 36
REMARK SMILES IDX 13 39 14 40 15 41 27 42 16 43 26 45 17 47 25 49 18 50 20 51
REMARK SMILES IDX 19 52 21 55 22 56 24 57 23 58 29 65
REMARK H PARENT 9 7 11 8 28 9 30 10 7 15 34 21 1 26 1 27 1 28 3 30 3 31 3 32
REMARK H PARENT 37 34 37 35 12 37 12 38 15 44 27 46 16 48 18 53 19 54 22 59
REMARK H PARENT 22 60 24 61 24 62 23 63 23 64 29 66
REMARK Flexibility Score: inf
ROOT
ATOM      1  C   UNL     1     -46.121  38.714  26.810  1.00  0.00     0.169 C 
ATOM      2  O   UNL     1     -46.809  37.453  26.610  1.00  0.00    -0.345 OA
ATOM      3  C   UNL     1     -46.351  36.540  27.629  1.00  0.00     0.123 C 
ATOM      4  C   UNL     1     -45.930  37.421  28.792  1.00  0.00     0.119 C 
ATOM      5  C   UNL     1     -45.262  38.567  28.064  1.00  0.00     0.173 C 
ATOM      6  F   UNL     1     -45.254  39.663  28.861  1.00  0.00    -0.239 F 
ATOM      7  H   UNL     1     -45.506  38.895  25.923  1.00  0.00     0.088 H 
ATOM      8  H   UNL     1     -45.490  36.001  27.215  1.00  0.00     0.067 H 
ATOM      9  H   UNL     1     -46.793  37.782  29.365  1.00  0.00     0.066 H 
ATOM     10  H   UNL     1     -44.224  38.324  27.812  1.00  0.00     0.074 H 
ENDROOT
BRANCH   1  11
ATOM     11  N   UNL     1     -47.103  39.786  26.895  1.00  0.00    -0.302 N 
ATOM     12  C   UNL     1     -48.963  40.960  27.314  1.00  0.00     0.071 A 
ATOM     13  C   UNL     1     -48.391  39.696  27.358  1.00  0.00     0.022 A 
ATOM     14  C   UNL     1     -47.989  41.836  26.734  1.00  0.00     0.074 A 
ATOM     15  H   UNL     1     -48.813  38.752  27.679  1.00  0.00     0.083 H 
ATOM     16  C   UNL     1     -46.848  41.077  26.505  1.00  0.00     0.148 A 
ATOM     17  C   UNL     1     -47.923  43.187  26.355  1.00  0.00     0.137 A 
ATOM     18  N   UNL     1     -45.687  41.510  25.986  1.00  0.00    -0.218 NA
ATOM     19  N   UNL     1     -46.780  43.661  25.824  1.00  0.00    -0.219 NA
ATOM     20  C   UNL     1     -45.742  42.816  25.678  1.00  0.00     0.120 A 
ATOM     21  H   UNL     1     -44.839  43.246  25.254  1.00  0.00     0.106 H 
BRANCH  12  22
ATOM     22  C   UNL     1     -50.333  41.246  27.716  1.00  0.00     0.255 C 
ATOM     23  N   UNL     1     -50.534  42.056  28.836  1.00  0.00    -0.345 N 
ATOM     24  O   UNL     1     -51.273  40.788  27.068  1.00  0.00    -0.269 OA
BRANCH  23  25
ATOM     25  C   UNL     1     -49.545  42.252  29.890  1.00  0.00     0.009 C 
ATOM     26  H   UNL     1     -48.679  42.765  29.459  1.00  0.00     0.046 H 
ATOM     27  H   UNL     1     -49.909  42.860  30.718  1.00  0.00     0.046 H 
ATOM     28  H   UNL     1     -49.231  41.273  30.264  1.00  0.00     0.046 H 
ENDBRANCH  23  25
BRANCH  23  29
ATOM     29  C   UNL     1     -51.897  42.418  29.178  1.00  0.00     0.009 C 
ATOM     30  H   UNL     1     -52.517  41.516  29.160  1.00  0.00     0.046 H 
ATOM     31  H   UNL     1     -51.912  42.858  30.179  1.00  0.00     0.046 H 
ATOM     32  H   UNL     1     -52.304  43.146  28.470  1.00  0.00     0.046 H 
ENDBRANCH  23  29
ENDBRANCH  12  22
BRANCH  17  33
ATOM     33  N   UNL     1     -48.972  44.085  26.480  1.00  0.00    -0.383 N 
ATOM     34  H   UNL     1     -48.731  45.056  26.329  1.00  0.00     0.158 HD
ATOM     35  H   UNL     1     -49.526  43.880  27.304  1.00  0.00     0.158 HD
ENDBRANCH  17  33
ENDBRANCH   1  11
BRANCH   3  36
ATOM     36  C   UNL     1     -47.455  35.552  28.014  1.00  0.00     0.117 C 
ATOM     37  H   UNL     1     -48.134  36.036  28.725  1.00  0.00     0.073 H 
ATOM     38  H   UNL     1     -47.070  34.658  28.519  1.00  0.00     0.073 H 
BRANCH  36  39
ATOM     39  O   UNL     1     -48.263  35.209  26.884  1.00  0.00    -0.491 OA
BRANCH  39  40
ATOM     40  C   UNL     1     -47.956  34.082  26.173  1.00  0.00     0.121 A 
ATOM     41  C   UNL     1     -46.757  34.159  25.466  1.00  0.00    -0.019 A 
ATOM     42  C   UNL     1     -48.710  32.907  26.110  1.00  0.00     0.007 A 
ATOM     43  C   UNL     1     -46.320  33.080  24.701  1.00  0.00    -0.049 A 
ATOM     44  H   UNL     1     -46.161  35.068  25.511  1.00  0.00     0.066 H 
ATOM     45  C   UNL     1     -48.297  31.814  25.356  1.00  0.00     0.076 A 
ATOM     46  H   UNL     1     -49.645  32.800  26.650  1.00  0.00     0.069 H 
ATOM     47  C   UNL     1     -47.086  31.908  24.643  1.00  0.00     0.001 A 
ATOM     48  H   UNL     1     -45.384  33.161  24.154  1.00  0.00     0.063 H 
ATOM     49  N   UNL     1     -49.060  30.708  25.334  1.00  0.00    -0.231 NA
ATOM     50  C   UNL     1     -46.687  30.803  23.889  1.00  0.00    -0.049 A 
ATOM     51  C   UNL     1     -48.663  29.639  24.607  1.00  0.00     0.129 A 
ATOM     52  C   UNL     1     -47.484  29.662  23.869  1.00  0.00    -0.019 A 
ATOM     53  H   UNL     1     -45.766  30.821  23.313  1.00  0.00     0.063 H 
ATOM     54  H   UNL     1     -47.188  28.806  23.272  1.00  0.00     0.066 H 
BRANCH  51  55
ATOM     55  N   UNL     1     -49.483  28.495  24.584  1.00  0.00    -0.356 N 
ATOM     56  C   UNL     1     -49.522  27.511  25.629  1.00  0.00     0.021 C 
ATOM     57  C   UNL     1     -49.530  27.500  23.553  1.00  0.00     0.021 C 
ATOM     58  C   UNL     1     -50.162  26.574  24.598  1.00  0.00    -0.018 C 
ATOM     59  H   UNL     1     -50.155  27.796  26.472  1.00  0.00     0.049 H 
ATOM     60  H   UNL     1     -48.528  27.208  25.972  1.00  0.00     0.049 H 
ATOM     61  H   UNL     1     -48.537  27.196  23.206  1.00  0.00     0.049 H 
ATOM     62  H   UNL     1     -50.171  27.771  22.711  1.00  0.00     0.049 H 
ATOM     63  H   UNL     1     -51.257  26.579  24.602  1.00  0.00     0.030 H 
ATOM     64  H   UNL     1     -49.800  25.543  24.602  1.00  0.00     0.030 H 
ENDBRANCH  51  55
ENDBRANCH  39  40
ENDBRANCH  36  39
ENDBRANCH   3  36
BRANCH   4  65
ATOM     65  O   UNL     1     -45.051  36.747  29.681  1.00  0.00    -0.387 OA
ATOM     66  H   UNL     1     -45.455  36.782  30.568  1.00  0.00     0.211 HD
ENDBRANCH   4  65
TORSDOF 10
ENDMDL
MODEL 6
REMARK VINA RESULT:      -8.5      2.435      4.497
REMARK SMILES CN(C)C(=O)c1cn([C@@H]2O[C@H](COc3ccc4ccc(N5CCC5)nc4c3)[C@@H](O)[C@@H]2F)c2ncnc(N)c12
REMARK SMILES IDX 9 1 10 2 11 3 28 4 30 5 31 6 8 11 6 12 7 13 38 14 32 16
REMARK SMILES IDX 36 17 33 18 35 19 34 20 4 22 2 23 5 24 1 25 3 29 37 33 12 36
REMARK SMILES IDX 13 39 14 40 15 41 27 42 16 43 26 45 17 47 25 49 18 50 20 51
REMARK SMILES IDX 19 52 21 55 22 56 24 57 23 58 29 65
REMARK H PARENT 9 7 11 8 28 9 30 10 7 15 34 21 1 26 1 27 1 28 3 30 3 31 3 32
REMARK H PARENT 37 34 37 35 12 37 12 38 15 44 27 46 16 48 18 53 19 54 22 59
REMARK H PARENT 22 60 24 61 24 62 23 63 23 64 29 66
REMARK Flexibility Score: inf
ROOT
ATOM      1  C   UNL     1     -44.122  41.011  26.095  1.00  0.00     0.169 C 
ATOM      2  O   UNL     1     -44.851  39.757  26.132  1.00  0.00    -0.345 OA
ATOM      3  C   UNL     1     -44.582  39.133  27.404  1.00  0.00     0.123 C 
ATOM      4  C   UNL     1     -44.263  40.279  28.349  1.00  0.00     0.119 C 
ATOM      5  C   UNL     1     -43.441  41.178  27.451  1.00  0.00     0.173 C 
ATOM      6  F   UNL     1     -43.473  42.444  27.933  1.00  0.00    -0.239 F 
ATOM      7  H   UNL     1     -43.389  40.938  25.286  1.00  0.00     0.088 H 
ATOM      8  H   UNL     1     -43.708  38.485  27.267  1.00  0.00     0.067 H 
ATOM      9  H   UNL     1     -45.169  40.796  28.684  1.00  0.00     0.066 H 
ATOM     10  H   UNL     1     -42.396  40.855  27.417  1.00  0.00     0.074 H 
ENDROOT
BRANCH   1  11
ATOM     11  N   UNL     1     -45.044  42.089  25.765  1.00  0.00    -0.302 N 
ATOM     12  C   UNL     1     -46.846  43.415  25.671  1.00  0.00     0.071 A 
ATOM     13  C   UNL     1     -46.349  42.218  26.168  1.00  0.00     0.022 A 
ATOM     14  C   UNL     1     -45.805  43.998  24.877  1.00  0.00     0.074 A 
ATOM     15  H   UNL     1     -46.834  41.459  26.769  1.00  0.00     0.083 H 
ATOM     16  C   UNL     1     -44.703  43.158  24.974  1.00  0.00     0.148 A 
ATOM     17  C   UNL     1     -45.650  45.135  24.067  1.00  0.00     0.137 A 
ATOM     18  N   UNL     1     -43.503  43.338  24.395  1.00  0.00    -0.218 NA
ATOM     19  N   UNL     1     -44.466  45.350  23.462  1.00  0.00    -0.219 NA
ATOM     20  C   UNL     1     -43.474  44.461  23.661  1.00  0.00     0.120 A 
ATOM     21  H   UNL     1     -42.536  44.681  23.161  1.00  0.00     0.106 H 
BRANCH  12  22
ATOM     22  C   UNL     1     -48.209  43.881  25.886  1.00  0.00     0.255 C 
ATOM     23  N   UNL     1     -48.394  45.058  26.611  1.00  0.00    -0.345 N 
ATOM     24  O   UNL     1     -49.155  43.247  25.423  1.00  0.00    -0.269 OA
BRANCH  23  25
ATOM     25  C   UNL     1     -47.419  45.602  27.550  1.00  0.00     0.009 C 
ATOM     26  H   UNL     1     -47.365  44.934  28.416  1.00  0.00     0.046 H 
ATOM     27  H   UNL     1     -46.415  45.683  27.134  1.00  0.00     0.046 H 
ATOM     28  H   UNL     1     -47.760  46.588  27.880  1.00  0.00     0.046 H 
ENDBRANCH  23  25
BRANCH  23  29
ATOM     29  C   UNL     1     -49.746  45.572  26.742  1.00  0.00     0.009 C 
ATOM     30  H   UNL     1     -49.900  46.352  25.990  1.00  0.00     0.046 H 
ATOM     31  H   UNL     1     -50.457  44.756  26.581  1.00  0.00     0.046 H 
ATOM     32  H   UNL     1     -49.917  45.994  27.736  1.00  0.00     0.046 H 
ENDBRANCH  23  29
ENDBRANCH  12  22
BRANCH  17  33
ATOM     33  N   UNL     1     -46.649  46.067  23.829  1.00  0.00    -0.383 N 
ATOM     34  H   UNL     1     -46.351  46.911  23.356  1.00  0.00     0.158 HD
ATOM     35  H   UNL     1     -47.230  46.191  24.651  1.00  0.00     0.158 HD
ENDBRANCH  17  33
ENDBRANCH   1  11
BRANCH   3  36
ATOM     36  C   UNL     1     -45.781  38.306  27.874  1.00  0.00     0.117 C 
ATOM     37  H   UNL     1     -46.565  38.351  27.110  1.00  0.00     0.073 H 
ATOM     38  H   UNL     1     -46.230  38.690  28.797  1.00  0.00     0.073 H 
BRANCH  36  39
ATOM     39  O   UNL     1     -45.441  36.921  27.993  1.00  0.00    -0.491 OA
BRANCH  39  40
ATOM     40  C   UNL     1     -46.289  35.986  27.466  1.00  0.00     0.121 A 
ATOM     41  C   UNL     1     -47.639  36.236  27.707  1.00  0.00    -0.019 A 
ATOM     42  C   UNL     1     -45.927  34.857  26.727  1.00  0.00     0.007 A 
ATOM     43  C   UNL     1     -48.614  35.367  27.223  1.00  0.00    -0.049 A 
ATOM     44  H   UNL     1     -47.931  37.115  28.278  1.00  0.00     0.066 H 
ATOM     45  C   UNL     1     -46.879  33.974  26.230  1.00  0.00     0.076 A 
ATOM     46  H   UNL     1     -44.889  34.627  26.508  1.00  0.00     0.069 H 
ATOM     47  C   UNL     1     -48.238  34.236  26.485  1.00  0.00     0.001 A 
ATOM     48  H   UNL     1     -49.661  35.579  27.425  1.00  0.00     0.063 H 
ATOM     49  N   UNL     1     -46.474  32.904  25.523  1.00  0.00    -0.231 NA
ATOM     50  C   UNL     1     -49.181  33.338  25.982  1.00  0.00    -0.049 A 
ATOM     51  C   UNL     1     -47.393  32.042  25.033  1.00  0.00     0.129 A 
ATOM     52  C   UNL     1     -48.754  32.232  25.254  1.00  0.00    -0.019 A 
ATOM     53  H   UNL     1     -50.243  33.486  26.155  1.00  0.00     0.063 H 
ATOM     54  H   UNL     1     -49.480  31.522  24.874  1.00  0.00     0.066 H 
BRANCH  51  55
ATOM     55  N   UNL     1     -46.950  30.921  24.308  1.00  0.00    -0.356 N 
ATOM     56  C   UNL     1     -46.044  30.987  23.195  1.00  0.00     0.021 C 
ATOM     57  C   UNL     1     -47.774  29.941  23.664  1.00  0.00     0.021 C 
ATOM     58  C   UNL     1     -46.544  29.587  22.821  1.00  0.00    -0.018 C 
ATOM     59  H   UNL     1     -44.994  31.056  23.491  1.00  0.00     0.049 H 
ATOM     60  H   UNL     1     -46.300  31.774  22.478  1.00  0.00     0.049 H 
ATOM     61  H   UNL     1     -48.606  30.382  23.105  1.00  0.00     0.049 H 
ATOM     62  H   UNL     1     -48.129  29.157  24.337  1.00  0.00     0.049 H 
ATOM     63  H   UNL     1     -45.939  28.769  23.227  1.00  0.00     0.030 H 
ATOM     64  H   UNL     1     -46.728  29.415  21.758  1.00  0.00     0.030 H 
ENDBRANCH  51  55
ENDBRANCH  39  40
ENDBRANCH  36  39
ENDBRANCH   3  36
BRANCH   4  65
ATOM     65  O   UNL     1     -43.546  39.842  29.494  1.00  0.00    -0.387 OA
ATOM     66  H   UNL     1     -43.149  40.632  29.906  1.00  0.00     0.211 HD
ENDBRANCH   4  65
TORSDOF 10
ENDMDL
MODEL 7
REMARK VINA RESULT:      -8.4      3.350      6.337
REMARK SMILES CN(C)C(=O)c1cn([C@@H]2O[C@H](COc3ccc4ccc(N5CCC5)nc4c3)[C@@H](O)[C@@H]2F)c2ncnc(N)c12
REMARK SMILES IDX 9 1 10 2 11 3 28 4 30 5 31 6 8 11 6 12 7 13 38 14 32 16
REMARK SMILES IDX 36 17 33 18 35 19 34 20 4 22 2 23 5 24 1 25 3 29 37 33 12 36
REMARK SMILES IDX 13 39 14 40 15 41 27 42 16 43 26 45 17 47 25 49 18 50 20 51
REMARK SMILES IDX 19 52 21 55 22 56 24 57 23 58 29 65
REMARK H PARENT 9 7 11 8 28 9 30 10 7 15 34 21 1 26 1 27 1 28 3 30 3 31 3 32
REMARK H PARENT 37 34 37 35 12 37 12 38 15 44 27 46 16 48 18 53 19 54 22 59
REMARK H PARENT 22 60 24 61 24 62 23 63 23 64 29 66
REMARK Flexibility Score: inf
ROOT
ATOM      1  C   UNL     1     -43.788  42.565  25.343  1.00  0.00     0.169 C 
ATOM      2  O   UNL     1     -44.051  41.214  25.799  1.00  0.00    -0.345 OA
ATOM      3  C   UNL     1     -43.276  40.997  26.996  1.00  0.00     0.123 C 
ATOM      4  C   UNL     1     -43.094  42.377  27.606  1.00  0.00     0.119 C 
ATOM      5  C   UNL     1     -42.862  43.216  26.368  1.00  0.00     0.173 C 
ATOM      6  F   UNL     1     -43.159  44.509  26.639  1.00  0.00    -0.239 F 
ATOM      7  H   UNL     1     -43.308  42.491  24.362  1.00  0.00     0.088 H 
ATOM      8  H   UNL     1     -42.312  40.578  26.684  1.00  0.00     0.067 H 
ATOM      9  H   UNL     1     -43.996  42.712  28.133  1.00  0.00     0.066 H 
ATOM     10  H   UNL     1     -41.815  43.168  26.049  1.00  0.00     0.074 H 
ENDROOT
BRANCH   1  11
ATOM     11  N   UNL     1     -45.052  43.265  25.168  1.00  0.00    -0.302 N 
ATOM     12  C   UNL     1     -47.172  43.951  25.396  1.00  0.00     0.071 A 
ATOM     13  C   UNL     1     -46.232  43.025  25.826  1.00  0.00     0.022 A 
ATOM     14  C   UNL     1     -46.540  44.743  24.383  1.00  0.00     0.074 A 
ATOM     15  H   UNL     1     -46.327  42.218  26.542  1.00  0.00     0.083 H 
ATOM     16  C   UNL     1     -45.227  44.300  24.283  1.00  0.00     0.148 A 
ATOM     17  C   UNL     1     -46.912  45.784  23.515  1.00  0.00     0.137 A 
ATOM     18  N   UNL     1     -44.277  44.783  23.464  1.00  0.00    -0.218 NA
ATOM     19  N   UNL     1     -45.992  46.292  22.672  1.00  0.00    -0.219 NA
ATOM     20  C   UNL     1     -44.747  45.779  22.697  1.00  0.00     0.120 A 
ATOM     21  H   UNL     1     -44.039  46.226  22.006  1.00  0.00     0.106 H 
BRANCH  12  22
ATOM     22  C   UNL     1     -48.549  43.991  25.868  1.00  0.00     0.255 C 
ATOM     23  N   UNL     1     -48.898  44.979  26.791  1.00  0.00    -0.345 N 
ATOM     24  O   UNL     1     -49.368  43.177  25.446  1.00  0.00    -0.269 OA
BRANCH  23  25
ATOM     25  C   UNL     1     -47.945  45.659  27.660  1.00  0.00     0.009 C 
ATOM     26  H   UNL     1     -47.822  45.063  28.570  1.00  0.00     0.046 H 
ATOM     27  H   UNL     1     -46.960  45.782  27.211  1.00  0.00     0.046 H 
ATOM     28  H   UNL     1     -48.351  46.640  27.927  1.00  0.00     0.046 H 
ENDBRANCH  23  25
BRANCH  23  29
ATOM     29  C   UNL     1     -50.292  45.077  27.187  1.00  0.00     0.009 C 
ATOM     30  H   UNL     1     -50.918  45.001  26.293  1.00  0.00     0.046 H 
ATOM     31  H   UNL     1     -50.528  44.261  27.875  1.00  0.00     0.046 H 
ATOM     32  H   UNL     1     -50.497  46.027  27.687  1.00  0.00     0.046 H 
ENDBRANCH  23  29
ENDBRANCH  12  22
BRANCH  17  33
ATOM     33  N   UNL     1     -48.184  46.331  23.452  1.00  0.00    -0.383 N 
ATOM     34  H   UNL     1     -48.718  46.286  24.311  1.00  0.00     0.158 HD
ATOM     35  H   UNL     1     -48.662  46.036  22.608  1.00  0.00     0.158 HD
ENDBRANCH  17  33
ENDBRANCH   1  11
BRANCH   3  36
ATOM     36  C   UNL     1     -43.988  40.029  27.943  1.00  0.00     0.117 C 
ATOM     37  H   UNL     1     -43.606  40.180  28.960  1.00  0.00     0.073 H 
ATOM     38  H   UNL     1     -43.802  38.977  27.699  1.00  0.00     0.073 H 
BRANCH  36  39
ATOM     39  O   UNL     1     -45.390  40.311  28.015  1.00  0.00    -0.491 OA
BRANCH  39  40
ATOM     40  C   UNL     1     -46.277  39.283  27.857  1.00  0.00     0.121 A 
ATOM     41  C   UNL     1     -47.579  39.582  28.256  1.00  0.00    -0.019 A 
ATOM     42  C   UNL     1     -45.999  38.016  27.338  1.00  0.00     0.007 A 
ATOM     43  C   UNL     1     -48.587  38.627  28.146  1.00  0.00    -0.049 A 
ATOM     44  H   UNL     1     -47.807  40.566  28.658  1.00  0.00     0.066 H 
ATOM     45  C   UNL     1     -46.985  37.044  27.214  1.00  0.00     0.076 A 
ATOM     46  H   UNL     1     -45.002  37.741  27.006  1.00  0.00     0.069 H 
ATOM     47  C   UNL     1     -48.294  37.358  27.626  1.00  0.00     0.001 A 
ATOM     48  H   UNL     1     -49.595  38.879  28.466  1.00  0.00     0.063 H 
ATOM     49  N   UNL     1     -46.662  35.842  26.705  1.00  0.00    -0.231 NA
ATOM     50  C   UNL     1     -49.273  36.371  27.499  1.00  0.00    -0.049 A 
ATOM     51  C   UNL     1     -47.616  34.893  26.578  1.00  0.00     0.129 A 
ATOM     52  C   UNL     1     -48.929  35.129  26.974  1.00  0.00    -0.019 A 
ATOM     53  H   UNL     1     -50.298  36.555  27.808  1.00  0.00     0.063 H 
ATOM     54  H   UNL     1     -49.681  34.352  26.887  1.00  0.00     0.066 H 
BRANCH  51  55
ATOM     55  N   UNL     1     -47.255  33.637  26.057  1.00  0.00    -0.356 N 
ATOM     56  C   UNL     1     -46.286  33.445  25.014  1.00  0.00     0.021 C 
ATOM     57  C   UNL     1     -48.142  32.655  25.505  1.00  0.00     0.021 C 
ATOM     58  C   UNL     1     -46.911  32.060  24.813  1.00  0.00    -0.018 C 
ATOM     59  H   UNL     1     -45.254  33.455  25.371  1.00  0.00     0.049 H 
ATOM     60  H   UNL     1     -46.417  34.135  24.174  1.00  0.00     0.049 H 
ATOM     61  H   UNL     1     -48.890  33.085  24.831  1.00  0.00     0.049 H 
ATOM     62  H   UNL     1     -48.616  32.021  26.258  1.00  0.00     0.049 H 
ATOM     63  H   UNL     1     -46.421  31.257  25.376  1.00  0.00     0.030 H 
ATOM     64  H   UNL     1     -47.053  31.747  23.776  1.00  0.00     0.030 H 
ENDBRANCH  51  55
ENDBRANCH  39  40
ENDBRANCH  36  39
ENDBRANCH   3  36
BRANCH   4  65
ATOM     65  O   UNL     1     -42.002  42.419  28.513  1.00  0.00    -0.387 OA
ATOM     66  H   UNL     1     -41.615  41.524  28.541  1.00  0.00     0.211 HD
ENDBRANCH   4  65
TORSDOF 10
ENDMDL
