MODEL 1
REMARK VINA RESULT:      -7.4      0.000      0.000
REMARK SMILES Nc1ncnc2c1ncn2C[C@H]1OC[C@@H](N)[C@H](O)[C@@H]1O
REMARK SMILES IDX 11 1 10 4 2 5 3 6 7 7 4 8 6 9 8 10 5 11 9 13 1 15 12 18
REMARK SMILES IDX 13 19 19 20 14 22 17 23 15 25 20 30 18 32 16 34
REMARK H PARENT 11 2 11 3 4 12 9 14 1 16 1 17 12 21 19 24 14 26 14 27 17 28
REMARK H PARENT 15 29 20 31 18 33 16 35 16 36
REMARK Flexibility Score: inf
ROOT
ATOM      1  C   UNL     1     -45.029  38.329  29.012  1.00  0.00     0.054 C 
ATOM      2  H   UNL     1     -45.499  38.719  29.922  1.00  0.00     0.053 H 
ATOM      3  H   UNL     1     -44.169  37.715  29.308  1.00  0.00     0.053 H 
ENDROOT
BRANCH   1   4
ATOM      4  N   UNL     1     -44.500  39.463  28.277  1.00  0.00    -0.312 N 
ATOM      5  C   UNL     1     -42.311  42.149  27.804  1.00  0.00     0.155 A 
ATOM      6  N   UNL     1     -41.531  42.092  28.908  1.00  0.00    -0.217 NA
ATOM      7  C   UNL     1     -43.326  41.190  27.650  1.00  0.00     0.150 A 
ATOM      8  C   UNL     1     -41.784  41.130  29.822  1.00  0.00     0.120 A 
ATOM      9  C   UNL     1     -43.461  40.260  28.668  1.00  0.00     0.165 A 
ATOM     10  N   UNL     1     -44.252  40.961  26.649  1.00  0.00    -0.231 NA
ATOM     11  N   UNL     1     -42.730  40.170  29.790  1.00  0.00    -0.217 NA
ATOM     12  H   UNL     1     -41.140  41.131  30.697  1.00  0.00     0.106 H 
ATOM     13  C   UNL     1     -44.946  39.923  27.068  1.00  0.00     0.097 A 
ATOM     14  H   UNL     1     -45.779  39.469  26.544  1.00  0.00     0.104 H 
BRANCH   5  15
ATOM     15  N   UNL     1     -42.055  43.144  26.868  1.00  0.00    -0.382 N 
ATOM     16  H   UNL     1     -42.907  43.521  26.476  1.00  0.00     0.158 HD
ATOM     17  H   UNL     1     -41.342  43.798  27.167  1.00  0.00     0.158 HD
ENDBRANCH   5  15
ENDBRANCH   1   4
BRANCH   1  18
ATOM     18  C   UNL     1     -46.020  37.518  28.174  1.00  0.00     0.104 C 
ATOM     19  O   UNL     1     -45.543  36.170  28.049  1.00  0.00    -0.372 OA
ATOM     20  C   UNL     1     -47.406  37.501  28.847  1.00  0.00     0.109 C 
ATOM     21  H   UNL     1     -46.084  37.966  27.173  1.00  0.00     0.065 H 
ATOM     22  C   UNL     1     -46.287  35.421  27.075  1.00  0.00     0.065 C 
ATOM     23  C   UNL     1     -48.167  36.202  28.530  1.00  0.00     0.100 C 
ATOM     24  H   UNL     1     -47.326  37.596  29.937  1.00  0.00     0.066 H 
ATOM     25  C   UNL     1     -47.805  35.704  27.120  1.00  0.00     0.057 C 
ATOM     26  H   UNL     1     -45.886  35.636  26.078  1.00  0.00     0.058 H 
ATOM     27  H   UNL     1     -46.083  34.364  27.281  1.00  0.00     0.058 H 
ATOM     28  H   UNL     1     -47.898  35.436  29.269  1.00  0.00     0.065 H 
ATOM     29  H   UNL     1     -48.034  36.498  26.397  1.00  0.00     0.052 H 
BRANCH  20  30
ATOM     30  O   UNL     1     -48.161  38.631  28.396  1.00  0.00    -0.388 OA
ATOM     31  H   UNL     1     -49.027  38.258  28.124  1.00  0.00     0.211 HD
ENDBRANCH  20  30
BRANCH  23  32
ATOM     32  O   UNL     1     -49.578  36.440  28.647  1.00  0.00    -0.389 OA
ATOM     33  H   UNL     1     -49.981  35.551  28.609  1.00  0.00     0.211 HD
ENDBRANCH  23  32
BRANCH  25  34
ATOM     34  N   UNL     1     -48.625  34.538  26.733  1.00  0.00    -0.323 NA
ATOM     35  H   UNL     1     -48.009  33.778  26.437  1.00  0.00     0.119 HD
ATOM     36  H   UNL     1     -49.159  34.780  25.897  1.00  0.00     0.119 HD
ENDBRANCH  25  34
ENDBRANCH   1  18
TORSDOF 6
ENDMDL
MODEL 2
REMARK VINA RESULT:      -7.3      5.056      9.735
REMARK SMILES Nc1ncnc2c1ncn2C[C@H]1OC[C@@H](N)[C@H](O)[C@@H]1O
REMARK SMILES IDX 11 1 10 4 2 5 3 6 7 7 4 8 6 9 8 10 5 11 9 13 1 15 12 18
REMARK SMILES IDX 13 19 19 20 14 22 17 23 15 25 20 30 18 32 16 34
REMARK H PARENT 11 2 11 3 4 12 9 14 1 16 1 17 12 21 19 24 14 26 14 27 17 28
REMARK H PARENT 15 29 20 31 18 33 16 35 16 36
REMARK Flexibility Score: inf
ROOT
ATOM      1  C   UNL     1     -48.617  31.717  25.893  1.00  0.00     0.054 C 
ATOM      2  H   UNL     1     -47.947  30.944  26.287  1.00  0.00     0.053 H 
ATOM      3  H   UNL     1     -49.580  31.630  26.411  1.00  0.00     0.053 H 
ENDROOT
BRANCH   1   4
ATOM      4  N   UNL     1     -48.864  31.405  24.497  1.00  0.00    -0.312 N 
ATOM      5  C   UNL     1     -47.899  30.398  21.290  1.00  0.00     0.155 A 
ATOM      6  N   UNL     1     -46.574  30.172  21.438  1.00  0.00    -0.217 NA
ATOM      7  C   UNL     1     -48.637  30.821  22.409  1.00  0.00     0.150 A 
ATOM      8  C   UNL     1     -46.018  30.392  22.650  1.00  0.00     0.120 A 
ATOM      9  C   UNL     1     -47.930  30.996  23.588  1.00  0.00     0.165 A 
ATOM     10  N   UNL     1     -49.977  31.102  22.594  1.00  0.00    -0.231 NA
ATOM     11  N   UNL     1     -46.616  30.806  23.784  1.00  0.00    -0.217 NA
ATOM     12  H   UNL     1     -44.949  30.208  22.717  1.00  0.00     0.106 H 
ATOM     13  C   UNL     1     -50.073  31.461  23.857  1.00  0.00     0.097 A 
ATOM     14  H   UNL     1     -50.982  31.773  24.357  1.00  0.00     0.104 H 
BRANCH   5  15
ATOM     15  N   UNL     1     -48.469  30.180  20.042  1.00  0.00    -0.382 N 
ATOM     16  H   UNL     1     -48.130  29.327  19.616  1.00  0.00     0.158 HD
ATOM     17  H   UNL     1     -49.468  30.352  20.024  1.00  0.00     0.158 HD
ENDBRANCH   5  15
ENDBRANCH   1   4
BRANCH   1  18
ATOM     18  C   UNL     1     -48.023  33.116  26.069  1.00  0.00     0.104 C 
ATOM     19  O   UNL     1     -48.897  33.902  26.894  1.00  0.00    -0.372 OA
ATOM     20  C   UNL     1     -46.639  33.031  26.741  1.00  0.00     0.109 C 
ATOM     21  H   UNL     1     -47.943  33.592  25.082  1.00  0.00     0.065 H 
ATOM     22  C   UNL     1     -48.533  35.291  26.896  1.00  0.00     0.065 C 
ATOM     23  C   UNL     1     -46.349  34.285  27.586  1.00  0.00     0.100 C 
ATOM     24  H   UNL     1     -46.559  32.152  27.391  1.00  0.00     0.066 H 
ATOM     25  C   UNL     1     -47.006  35.520  26.948  1.00  0.00     0.057 C 
ATOM     26  H   UNL     1     -48.963  35.774  26.011  1.00  0.00     0.058 H 
ATOM     27  H   UNL     1     -49.021  35.733  27.772  1.00  0.00     0.058 H 
ATOM     28  H   UNL     1     -46.750  34.138  28.598  1.00  0.00     0.065 H 
ATOM     29  H   UNL     1     -46.634  35.627  25.921  1.00  0.00     0.052 H 
BRANCH  20  30
ATOM     30  O   UNL     1     -45.635  32.882  25.730  1.00  0.00    -0.388 OA
ATOM     31  H   UNL     1     -45.654  33.730  25.235  1.00  0.00     0.211 HD
ENDBRANCH  20  30
BRANCH  23  32
ATOM     32  O   UNL     1     -44.928  34.457  27.703  1.00  0.00    -0.389 OA
ATOM     33  H   UNL     1     -44.656  33.800  28.373  1.00  0.00     0.211 HD
ENDBRANCH  23  32
BRANCH  25  34
ATOM     34  N   UNL     1     -46.629  36.759  27.659  1.00  0.00    -0.323 NA
ATOM     35  H   UNL     1     -45.869  36.554  28.310  1.00  0.00     0.119 HD
ATOM     36  H   UNL     1     -47.410  37.043  28.253  1.00  0.00     0.119 HD
ENDBRANCH  25  34
ENDBRANCH   1  18
TORSDOF 6
ENDMDL
MODEL 3
REMARK VINA RESULT:      -7.1      3.272      8.447
REMARK SMILES Nc1ncnc2c1ncn2C[C@H]1OC[C@@H](N)[C@H](O)[C@@H]1O
REMARK SMILES IDX 11 1 10 4 2 5 3 6 7 7 4 8 6 9 8 10 5 11 9 13 1 15 12 18
REMARK SMILES IDX 13 19 19 20 14 22 17 23 15 25 20 30 18 32 16 34
REMARK H PARENT 11 2 11 3 4 12 9 14 1 16 1 17 12 21 19 24 14 26 14 27 17 28
REMARK H PARENT 15 29 20 31 18 33 16 35 16 36
REMARK Flexibility Score: inf
ROOT
ATOM      1  C   UNL     1     -48.048  34.756  26.557  1.00  0.00     0.054 C 
ATOM      2  H   UNL     1     -48.682  34.328  27.341  1.00  0.00     0.053 H 
ATOM      3  H   UNL     1     -48.698  35.259  25.830  1.00  0.00     0.053 H 
ENDROOT
BRANCH   1   4
ATOM      4  N   UNL     1     -47.417  33.651  25.860  1.00  0.00    -0.312 N 
ATOM      5  C   UNL     1     -47.437  30.606  24.139  1.00  0.00     0.155 A 
ATOM      6  N   UNL     1     -48.754  30.297  24.101  1.00  0.00    -0.217 NA
ATOM      7  C   UNL     1     -47.046  31.801  24.767  1.00  0.00     0.150 A 
ATOM      8  C   UNL     1     -49.627  31.142  24.692  1.00  0.00     0.120 A 
ATOM      9  C   UNL     1     -48.056  32.569  25.323  1.00  0.00     0.165 A 
ATOM     10  N   UNL     1     -45.816  32.404  24.946  1.00  0.00    -0.231 NA
ATOM     11  N   UNL     1     -49.372  32.302  25.330  1.00  0.00    -0.217 NA
ATOM     12  H   UNL     1     -50.672  30.847  24.646  1.00  0.00     0.106 H 
ATOM     13  C   UNL     1     -46.078  33.506  25.616  1.00  0.00     0.097 A 
ATOM     14  H   UNL     1     -45.344  34.229  25.954  1.00  0.00     0.104 H 
BRANCH   5  15
ATOM     15  N   UNL     1     -46.539  29.733  23.537  1.00  0.00    -0.382 N 
ATOM     16  H   UNL     1     -46.999  28.909  23.175  1.00  0.00     0.158 HD
ATOM     17  H   UNL     1     -45.869  30.202  22.939  1.00  0.00     0.158 HD
ENDBRANCH   5  15
ENDBRANCH   1   4
BRANCH   1  18
ATOM     18  C   UNL     1     -47.018  35.727  27.137  1.00  0.00     0.104 C 
ATOM     19  O   UNL     1     -47.449  37.075  26.896  1.00  0.00    -0.372 OA
ATOM     20  C   UNL     1     -46.871  35.511  28.656  1.00  0.00     0.109 C 
ATOM     21  H   UNL     1     -46.057  35.566  26.631  1.00  0.00     0.065 H 
ATOM     22  C   UNL     1     -46.419  38.033  27.188  1.00  0.00     0.065 C 
ATOM     23  C   UNL     1     -46.496  36.820  29.375  1.00  0.00     0.100 C 
ATOM     24  H   UNL     1     -47.797  35.127  29.100  1.00  0.00     0.066 H 
ATOM     25  C   UNL     1     -45.617  37.694  28.464  1.00  0.00     0.057 C 
ATOM     26  H   UNL     1     -45.749  38.111  26.324  1.00  0.00     0.058 H 
ATOM     27  H   UNL     1     -46.922  39.001  27.292  1.00  0.00     0.058 H 
ATOM     28  H   UNL     1     -47.414  37.365  29.632  1.00  0.00     0.065 H 
ATOM     29  H   UNL     1     -44.728  37.118  28.175  1.00  0.00     0.052 H 
BRANCH  20  30
ATOM     30  O   UNL     1     -45.865  34.519  28.893  1.00  0.00    -0.388 OA
ATOM     31  H   UNL     1     -46.317  33.831  29.429  1.00  0.00     0.211 HD
ENDBRANCH  20  30
BRANCH  23  32
ATOM     32  O   UNL     1     -45.819  36.507  30.602  1.00  0.00    -0.389 OA
ATOM     33  H   UNL     1     -45.831  37.343  31.108  1.00  0.00     0.211 HD
ENDBRANCH  23  32
BRANCH  25  34
ATOM     34  N   UNL     1     -45.126  38.890  29.176  1.00  0.00    -0.323 NA
ATOM     35  H   UNL     1     -44.384  38.616  29.823  1.00  0.00     0.119 HD
ATOM     36  H   UNL     1     -45.876  39.242  29.775  1.00  0.00     0.119 HD
ENDBRANCH  25  34
ENDBRANCH   1  18
TORSDOF 6
ENDMDL
MODEL 4
REMARK VINA RESULT:      -7.0      4.888      7.406
REMARK SMILES Nc1ncnc2c1ncn2C[C@H]1OC[C@@H](N)[C@H](O)[C@@H]1O
REMARK SMILES IDX 11 1 10 4 2 5 3 6 7 7 4 8 6 9 8 10 5 11 9 13 1 15 12 18
REMARK SMILES IDX 13 19 19 20 14 22 17 23 15 25 20 30 18 32 16 34
REMARK H PARENT 11 2 11 3 4 12 9 14 1 16 1 17 12 21 19 24 14 26 14 27 17 28
REMARK H PARENT 15 29 20 31 18 33 16 35 16 36
REMARK Flexibility Score: inf
ROOT
ATOM      1  C   UNL     1     -46.603  33.419  25.011  1.00  0.00     0.054 C 
ATOM      2  H   UNL     1     -45.676  33.674  24.484  1.00  0.00     0.053 H 
ATOM      3  H   UNL     1     -47.403  34.063  24.623  1.00  0.00     0.053 H 
ENDROOT
BRANCH   1   4
ATOM      4  N   UNL     1     -46.420  33.773  26.406  1.00  0.00    -0.312 N 
ATOM      5  C   UNL     1     -46.320  36.016  29.086  1.00  0.00     0.155 A 
ATOM      6  N   UNL     1     -46.623  37.195  28.496  1.00  0.00    -0.217 NA
ATOM      7  C   UNL     1     -46.275  34.859  28.290  1.00  0.00     0.150 A 
ATOM      8  C   UNL     1     -46.841  37.206  27.162  1.00  0.00     0.120 A 
ATOM      9  C   UNL     1     -46.528  35.026  26.938  1.00  0.00     0.165 A 
ATOM     10  N   UNL     1     -46.031  33.531  28.584  1.00  0.00    -0.231 NA
ATOM     11  N   UNL     1     -46.814  36.172  26.299  1.00  0.00    -0.217 NA
ATOM     12  H   UNL     1     -47.069  38.177  26.731  1.00  0.00     0.106 H 
ATOM     13  C   UNL     1     -46.116  32.911  27.425  1.00  0.00     0.097 A 
ATOM     14  H   UNL     1     -45.962  31.851  27.265  1.00  0.00     0.104 H 
BRANCH   5  15
ATOM     15  N   UNL     1     -46.089  36.007  30.457  1.00  0.00    -0.382 N 
ATOM     16  H   UNL     1     -45.510  36.784  30.747  1.00  0.00     0.158 HD
ATOM     17  H   UNL     1     -46.921  35.808  31.000  1.00  0.00     0.158 HD
ENDBRANCH   5  15
ENDBRANCH   1   4
BRANCH   1  18
ATOM     18  C   UNL     1     -46.957  31.941  24.837  1.00  0.00     0.104 C 
ATOM     19  O   UNL     1     -48.369  31.765  25.031  1.00  0.00    -0.372 OA
ATOM     20  C   UNL     1     -46.580  31.459  23.423  1.00  0.00     0.109 C 
ATOM     21  H   UNL     1     -46.419  31.358  25.598  1.00  0.00     0.065 H 
ATOM     22  C   UNL     1     -48.732  30.379  25.132  1.00  0.00     0.065 C 
ATOM     23  C   UNL     1     -47.518  30.337  22.944  1.00  0.00     0.100 C 
ATOM     24  H   UNL     1     -46.622  32.278  22.694  1.00  0.00     0.066 H 
ATOM     25  C   UNL     1     -47.969  29.476  24.136  1.00  0.00     0.057 C 
ATOM     26  H   UNL     1     -48.567  30.040  26.161  1.00  0.00     0.058 H 
ATOM     27  H   UNL     1     -49.812  30.332  24.948  1.00  0.00     0.058 H 
ATOM     28  H   UNL     1     -48.397  30.783  22.461  1.00  0.00     0.065 H 
ATOM     29  H   UNL     1     -47.079  29.077  24.640  1.00  0.00     0.052 H 
BRANCH  20  30
ATOM     30  O   UNL     1     -45.225  30.992  23.432  1.00  0.00    -0.388 OA
ATOM     31  H   UNL     1     -44.832  31.388  24.240  1.00  0.00     0.211 HD
ENDBRANCH  20  30
BRANCH  23  32
ATOM     32  O   UNL     1     -46.838  29.541  21.960  1.00  0.00    -0.389 OA
ATOM     33  H   UNL     1     -47.369  28.723  21.898  1.00  0.00     0.211 HD
ENDBRANCH  23  32
BRANCH  25  34
ATOM     34  N   UNL     1     -48.756  28.309  23.691  1.00  0.00    -0.323 NA
ATOM     35  H   UNL     1     -49.548  28.631  23.132  1.00  0.00     0.119 HD
ATOM     36  H   UNL     1     -49.178  27.870  24.512  1.00  0.00     0.119 HD
ENDBRANCH  25  34
ENDBRANCH   1  18
TORSDOF 6
ENDMDL
MODEL 5
REMARK VINA RESULT:      -6.9      3.701      8.070
REMARK SMILES Nc1ncnc2c1ncn2C[C@H]1OC[C@@H](N)[C@H](O)[C@@H]1O
REMARK SMILES IDX 11 1 10 4 2 5 3 6 7 7 4 8 6 9 8 10 5 11 9 13 1 15 12 18
REMARK SMILES IDX 13 19 19 20 14 22 17 23 15 25 20 30 18 32 16 34
REMARK H PARENT 11 2 11 3 4 12 9 14 1 16 1 17 12 21 19 24 14 26 14 27 17 28
REMARK H PARENT 15 29 20 31 18 33 16 35 16 36
REMARK Flexibility Score: inf
ROOT
ATOM      1  C   UNL     1     -46.617  35.466  26.063  1.00  0.00     0.054 C 
ATOM      2  H   UNL     1     -46.886  36.121  25.226  1.00  0.00     0.053 H 
ATOM      3  H   UNL     1     -45.595  35.103  25.898  1.00  0.00     0.053 H 
ENDROOT
BRANCH   1   4
ATOM      4  N   UNL     1     -47.488  34.307  26.003  1.00  0.00    -0.312 N 
ATOM      5  C   UNL     1     -48.390  31.116  24.893  1.00  0.00     0.155 A 
ATOM      6  N   UNL     1     -47.360  30.784  24.081  1.00  0.00    -0.217 NA
ATOM      7  C   UNL     1     -48.361  32.365  25.537  1.00  0.00     0.150 A 
ATOM      8  C   UNL     1     -46.365  31.682  23.908  1.00  0.00     0.120 A 
ATOM      9  C   UNL     1     -47.271  33.176  25.268  1.00  0.00     0.165 A 
ATOM     10  N   UNL     1     -49.220  32.977  26.429  1.00  0.00    -0.231 NA
ATOM     11  N   UNL     1     -46.235  32.905  24.458  1.00  0.00    -0.217 NA
ATOM     12  H   UNL     1     -45.567  31.376  23.239  1.00  0.00     0.106 H 
ATOM     13  C   UNL     1     -48.668  34.146  26.677  1.00  0.00     0.097 A 
ATOM     14  H   UNL     1     -49.077  34.912  27.326  1.00  0.00     0.104 H 
BRANCH   5  15
ATOM     15  N   UNL     1     -49.417  30.195  25.064  1.00  0.00    -0.382 N 
ATOM     16  H   UNL     1     -50.151  30.555  25.659  1.00  0.00     0.158 HD
ATOM     17  H   UNL     1     -49.689  29.738  24.203  1.00  0.00     0.158 HD
ENDBRANCH   5  15
ENDBRANCH   1   4
BRANCH   1  18
ATOM     18  C   UNL     1     -46.730  36.197  27.403  1.00  0.00     0.104 C 
ATOM     19  O   UNL     1     -46.062  35.433  28.418  1.00  0.00    -0.372 OA
ATOM     20  C   UNL     1     -46.079  37.590  27.312  1.00  0.00     0.109 C 
ATOM     21  H   UNL     1     -47.793  36.285  27.667  1.00  0.00     0.065 H 
ATOM     22  C   UNL     1     -46.340  35.927  29.738  1.00  0.00     0.065 C 
ATOM     23  C   UNL     1     -45.503  38.029  28.670  1.00  0.00     0.100 C 
ATOM     24  H   UNL     1     -45.270  37.610  26.572  1.00  0.00     0.066 H 
ATOM     25  C   UNL     1     -46.360  37.470  29.818  1.00  0.00     0.057 C 
ATOM     26  H   UNL     1     -47.295  35.512  30.080  1.00  0.00     0.058 H 
ATOM     27  H   UNL     1     -45.561  35.515  30.389  1.00  0.00     0.058 H 
ATOM     28  H   UNL     1     -44.475  37.654  28.764  1.00  0.00     0.065 H 
ATOM     29  H   UNL     1     -47.395  37.813  29.684  1.00  0.00     0.052 H 
BRANCH  20  30
ATOM     30  O   UNL     1     -47.058  38.538  26.869  1.00  0.00    -0.388 OA
ATOM     31  H   UNL     1     -47.655  38.656  27.640  1.00  0.00     0.211 HD
ENDBRANCH  20  30
BRANCH  23  32
ATOM     32  O   UNL     1     -45.447  39.463  28.719  1.00  0.00    -0.389 OA
ATOM     33  H   UNL     1     -45.050  39.664  29.589  1.00  0.00     0.211 HD
ENDBRANCH  23  32
BRANCH  25  34
ATOM     34  N   UNL     1     -45.915  37.989  31.127  1.00  0.00    -0.323 NA
ATOM     35  H   UNL     1     -45.060  38.534  30.998  1.00  0.00     0.119 HD
ATOM     36  H   UNL     1     -45.634  37.199  31.711  1.00  0.00     0.119 HD
ENDBRANCH  25  34
ENDBRANCH   1  18
TORSDOF 6
ENDMDL
MODEL 6
REMARK VINA RESULT:      -6.8      3.491      7.506
REMARK SMILES Nc1ncnc2c1ncn2C[C@H]1OC[C@@H](N)[C@H](O)[C@@H]1O
REMARK SMILES IDX 11 1 10 4 2 5 3 6 7 7 4 8 6 9 8 10 5 11 9 13 1 15 12 18
REMARK SMILES IDX 13 19 19 20 14 22 17 23 15 25 20 30 18 32 16 34
REMARK H PARENT 11 2 11 3 4 12 9 14 1 16 1 17 12 21 19 24 14 26 14 27 17 28
REMARK H PARENT 15 29 20 31 18 33 16 35 16 36
REMARK Flexibility Score: inf
ROOT
ATOM      1  C   UNL     1     -48.736  35.713  27.375  1.00  0.00     0.054 C 
ATOM      2  H   UNL     1     -49.525  35.059  27.763  1.00  0.00     0.053 H 
ATOM      3  H   UNL     1     -49.201  36.447  26.704  1.00  0.00     0.053 H 
ENDROOT
BRANCH   1   4
ATOM      4  N   UNL     1     -47.860  34.895  26.557  1.00  0.00    -0.312 N 
ATOM      5  C   UNL     1     -46.951  31.943  24.918  1.00  0.00     0.155 A 
ATOM      6  N   UNL     1     -47.988  31.119  25.197  1.00  0.00    -0.217 NA
ATOM      7  C   UNL     1     -46.981  33.253  25.424  1.00  0.00     0.150 A 
ATOM      8  C   UNL     1     -48.990  31.591  25.972  1.00  0.00     0.120 A 
ATOM      9  C   UNL     1     -48.078  33.595  26.198  1.00  0.00     0.165 A 
ATOM     10  N   UNL     1     -46.115  34.323  25.300  1.00  0.00    -0.231 NA
ATOM     11  N   UNL     1     -49.121  32.815  26.520  1.00  0.00    -0.217 NA
ATOM     12  H   UNL     1     -49.794  30.890  26.178  1.00  0.00     0.106 H 
ATOM     13  C   UNL     1     -46.671  35.287  26.003  1.00  0.00     0.097 A 
ATOM     14  H   UNL     1     -46.259  36.279  26.150  1.00  0.00     0.104 H 
BRANCH   5  15
ATOM     15  N   UNL     1     -45.918  31.455  24.128  1.00  0.00    -0.382 N 
ATOM     16  H   UNL     1     -45.019  31.550  24.581  1.00  0.00     0.158 HD
ATOM     17  H   UNL     1     -46.135  30.567  23.691  1.00  0.00     0.158 HD
ENDBRANCH   5  15
ENDBRANCH   1   4
BRANCH   1  18
ATOM     18  C   UNL     1     -47.977  36.409  28.507  1.00  0.00     0.104 C 
ATOM     19  O   UNL     1     -46.839  35.614  28.873  1.00  0.00    -0.372 OA
ATOM     20  C   UNL     1     -47.494  37.800  28.056  1.00  0.00     0.109 C 
ATOM     21  H   UNL     1     -48.644  36.495  29.376  1.00  0.00     0.065 H 
ATOM     22  C   UNL     1     -46.226  36.073  30.088  1.00  0.00     0.065 C 
ATOM     23  C   UNL     1     -46.190  38.199  28.769  1.00  0.00     0.100 C 
ATOM     24  H   UNL     1     -47.320  37.836  26.974  1.00  0.00     0.066 H 
ATOM     25  C   UNL     1     -46.160  37.614  30.191  1.00  0.00     0.057 C 
ATOM     26  H   UNL     1     -46.770  35.655  30.942  1.00  0.00     0.058 H 
ATOM     27  H   UNL     1     -45.220  35.640  30.105  1.00  0.00     0.058 H 
ATOM     28  H   UNL     1     -45.334  37.816  28.197  1.00  0.00     0.065 H 
ATOM     29  H   UNL     1     -47.046  37.965  30.735  1.00  0.00     0.052 H 
BRANCH  20  30
ATOM     30  O   UNL     1     -48.517  38.765  28.335  1.00  0.00    -0.388 OA
ATOM     31  H   UNL     1     -48.028  39.586  28.557  1.00  0.00     0.211 HD
ENDBRANCH  20  30
BRANCH  23  32
ATOM     32  O   UNL     1     -46.086  39.631  28.798  1.00  0.00    -0.389 OA
ATOM     33  H   UNL     1     -45.238  39.824  28.352  1.00  0.00     0.211 HD
ENDBRANCH  23  32
BRANCH  25  34
ATOM     34  N   UNL     1     -44.987  38.095  30.948  1.00  0.00    -0.323 NA
ATOM     35  H   UNL     1     -45.214  38.112  31.944  1.00  0.00     0.119 HD
ATOM     36  H   UNL     1     -44.821  39.073  30.702  1.00  0.00     0.119 HD
ENDBRANCH  25  34
ENDBRANCH   1  18
TORSDOF 6
ENDMDL
MODEL 7
REMARK VINA RESULT:      -6.7      1.972      2.755
REMARK SMILES Nc1ncnc2c1ncn2C[C@H]1OC[C@@H](N)[C@H](O)[C@@H]1O
REMARK SMILES IDX 11 1 10 4 2 5 3 6 7 7 4 8 6 9 8 10 5 11 9 13 1 15 12 18
REMARK SMILES IDX 13 19 19 20 14 22 17 23 15 25 20 30 18 32 16 34
REMARK H PARENT 11 2 11 3 4 12 9 14 1 16 1 17 12 21 19 24 14 26 14 27 17 28
REMARK H PARENT 15 29 20 31 18 33 16 35 16 36
REMARK Flexibility Score: inf
ROOT
ATOM      1  C   UNL     1     -45.921  38.309  28.756  1.00  0.00     0.054 C 
ATOM      2  H   UNL     1     -46.363  38.617  29.711  1.00  0.00     0.053 H 
ATOM      3  H   UNL     1     -44.838  38.210  28.898  1.00  0.00     0.053 H 
ENDROOT
BRANCH   1   4
ATOM      4  N   UNL     1     -46.122  39.396  27.816  1.00  0.00    -0.312 N 
ATOM      5  C   UNL     1     -45.048  42.074  25.839  1.00  0.00     0.155 A 
ATOM      6  N   UNL     1     -43.718  42.107  26.085  1.00  0.00    -0.217 NA
ATOM      7  C   UNL     1     -45.824  41.091  26.477  1.00  0.00     0.150 A 
ATOM      8  C   UNL     1     -43.205  41.209  26.954  1.00  0.00     0.120 A 
ATOM      9  C   UNL     1     -45.155  40.234  27.337  1.00  0.00     0.165 A 
ATOM     10  N   UNL     1     -47.168  40.777  26.418  1.00  0.00    -0.231 NA
ATOM     11  N   UNL     1     -43.846  40.235  27.631  1.00  0.00    -0.217 NA
ATOM     12  H   UNL     1     -42.135  41.282  27.129  1.00  0.00     0.106 H 
ATOM     13  C   UNL     1     -47.311  39.762  27.244  1.00  0.00     0.097 A 
ATOM     14  H   UNL     1     -48.244  39.259  27.470  1.00  0.00     0.104 H 
BRANCH   5  15
ATOM     15  N   UNL     1     -45.577  43.003  24.951  1.00  0.00    -0.382 N 
ATOM     16  H   UNL     1     -46.231  42.579  24.307  1.00  0.00     0.158 HD
ATOM     17  H   UNL     1     -45.848  43.871  25.398  1.00  0.00     0.158 HD
ENDBRANCH   5  15
ENDBRANCH   1   4
BRANCH   1  18
ATOM     18  C   UNL     1     -46.532  36.999  28.254  1.00  0.00     0.104 C 
ATOM     19  O   UNL     1     -46.416  36.939  26.824  1.00  0.00    -0.372 OA
ATOM     20  C   UNL     1     -45.796  35.793  28.868  1.00  0.00     0.109 C 
ATOM     21  H   UNL     1     -47.596  36.980  28.525  1.00  0.00     0.065 H 
ATOM     22  C   UNL     1     -47.186  35.864  26.264  1.00  0.00     0.065 C 
ATOM     23  C   UNL     1     -45.815  34.582  27.919  1.00  0.00     0.100 C 
ATOM     24  H   UNL     1     -44.752  36.033  29.100  1.00  0.00     0.066 H 
ATOM     25  C   UNL     1     -47.117  34.566  27.101  1.00  0.00     0.057 C 
ATOM     26  H   UNL     1     -48.225  36.191  26.148  1.00  0.00     0.058 H 
ATOM     27  H   UNL     1     -46.789  35.696  25.257  1.00  0.00     0.058 H 
ATOM     28  H   UNL     1     -44.955  34.645  27.237  1.00  0.00     0.065 H 
ATOM     29  H   UNL     1     -47.968  34.554  27.795  1.00  0.00     0.052 H 
BRANCH  20  30
ATOM     30  O   UNL     1     -46.419  35.447  30.111  1.00  0.00    -0.388 OA
ATOM     31  H   UNL     1     -47.074  34.755  29.876  1.00  0.00     0.211 HD
ENDBRANCH  20  30
BRANCH  23  32
ATOM     32  O   UNL     1     -45.672  33.377  28.687  1.00  0.00    -0.389 OA
ATOM     33  H   UNL     1     -46.489  32.872  28.505  1.00  0.00     0.211 HD
ENDBRANCH  23  32
BRANCH  25  34
ATOM     34  N   UNL     1     -47.226  33.342  26.284  1.00  0.00    -0.323 NA
ATOM     35  H   UNL     1     -47.060  32.526  26.876  1.00  0.00     0.119 HD
ATOM     36  H   UNL     1     -46.460  33.333  25.608  1.00  0.00     0.119 HD
ENDBRANCH  25  34
ENDBRANCH   1  18
TORSDOF 6
ENDMDL
