MODEL 1
REMARK VINA RESULT:     -10.7      0.000      0.000
REMARK SMILES Nc1ncnc2c1ccn2[C@@H]1C[C@H](CCc2ccc3[nH]c(=O)[nH]c3c2)[C@@H](O)[C@H]1O
REMARK SMILES IDX 11 1 12 2 13 3 26 4 28 5 10 12 2 13 3 14 7 15 4 16 6 17 8 18
REMARK SMILES IDX 5 19 9 21 1 24 29 27 14 29 15 32 16 35 17 36 25 37 18 38
REMARK SMILES IDX 24 40 19 42 23 44 20 45 21 46 22 49 27 50
REMARK H PARENT 11 6 12 7 12 8 13 9 26 10 28 11 4 20 8 22 9 23 1 25 1 26 29 28
REMARK H PARENT 14 30 14 31 15 33 15 34 17 39 25 41 18 43 23 47 20 48 27 51
REMARK Flexibility Score: inf
ROOT
ATOM      1  C   UNL     1     -45.647  39.232  28.404  1.00  0.00     0.064 C 
ATOM      2  C   UNL     1     -45.373  37.725  28.191  1.00  0.00    -0.024 C 
ATOM      3  C   UNL     1     -46.755  37.070  28.242  1.00  0.00    -0.010 C 
ATOM      4  C   UNL     1     -47.621  38.104  27.521  1.00  0.00     0.085 C 
ATOM      5  C   UNL     1     -47.159  39.427  28.155  1.00  0.00     0.101 C 
ATOM      6  H   UNL     1     -45.428  39.480  29.453  1.00  0.00     0.056 H 
ATOM      7  H   UNL     1     -44.883  37.557  27.228  1.00  0.00     0.029 H 
ATOM      8  H   UNL     1     -44.711  37.326  28.968  1.00  0.00     0.029 H 
ATOM      9  H   UNL     1     -47.084  37.036  29.292  1.00  0.00     0.033 H 
ATOM     10  H   UNL     1     -47.441  38.099  26.445  1.00  0.00     0.063 H 
ATOM     11  H   UNL     1     -47.426  40.295  27.548  1.00  0.00     0.065 H 
ENDROOT
BRANCH   1  12
ATOM     12  N   UNL     1     -44.765  40.068  27.604  1.00  0.00    -0.327 N 
ATOM     13  C   UNL     1     -41.837  42.007  27.156  1.00  0.00     0.136 A 
ATOM     14  N   UNL     1     -41.200  41.831  28.330  1.00  0.00    -0.219 NA
ATOM     15  C   UNL     1     -43.069  41.372  26.949  1.00  0.00     0.061 A 
ATOM     16  C   UNL     1     -41.786  41.055  29.259  1.00  0.00     0.120 A 
ATOM     17  C   UNL     1     -43.560  40.602  27.996  1.00  0.00     0.145 A 
ATOM     18  C   UNL     1     -44.023  41.296  25.897  1.00  0.00    -0.031 A 
ATOM     19  N   UNL     1     -42.963  40.410  29.183  1.00  0.00    -0.218 NA
ATOM     20  H   UNL     1     -41.237  40.933  30.188  1.00  0.00     0.106 H 
ATOM     21  C   UNL     1     -45.054  40.488  26.325  1.00  0.00     0.007 A 
ATOM     22  H   UNL     1     -43.964  41.786  24.934  1.00  0.00     0.065 H 
ATOM     23  H   UNL     1     -45.967  40.183  25.828  1.00  0.00     0.082 H 
BRANCH  13  24
ATOM     24  N   UNL     1     -41.213  42.804  26.206  1.00  0.00    -0.383 N 
ATOM     25  H   UNL     1     -41.654  42.799  25.297  1.00  0.00     0.158 HD
ATOM     26  H   UNL     1     -40.211  42.654  26.218  1.00  0.00     0.158 HD
ENDBRANCH  13  24
ENDBRANCH   1  12
BRANCH   5  27
ATOM     27  O   UNL     1     -47.826  39.604  29.421  1.00  0.00    -0.388 OA
ATOM     28  H   UNL     1     -48.783  39.541  29.223  1.00  0.00     0.211 HD
ENDBRANCH   5  27
BRANCH   3  29
ATOM     29  C   UNL     1     -46.859  35.622  27.743  1.00  0.00    -0.044 C 
ATOM     30  H   UNL     1     -47.754  35.156  28.176  1.00  0.00     0.027 H 
ATOM     31  H   UNL     1     -46.011  35.076  28.179  1.00  0.00     0.027 H 
BRANCH  29  32
ATOM     32  C   UNL     1     -46.803  35.353  26.234  1.00  0.00    -0.027 C 
ATOM     33  H   UNL     1     -47.440  36.077  25.714  1.00  0.00     0.032 H 
ATOM     34  H   UNL     1     -45.784  35.572  25.886  1.00  0.00     0.032 H 
BRANCH  32  35
ATOM     35  C   UNL     1     -47.124  33.950  25.780  1.00  0.00    -0.046 A 
ATOM     36  C   UNL     1     -48.360  33.360  26.161  1.00  0.00    -0.057 A 
ATOM     37  C   UNL     1     -46.241  33.245  24.942  1.00  0.00    -0.033 A 
ATOM     38  C   UNL     1     -48.726  32.077  25.738  1.00  0.00    -0.036 A 
ATOM     39  H   UNL     1     -49.049  33.911  26.801  1.00  0.00     0.063 H 
ATOM     40  C   UNL     1     -46.619  31.982  24.552  1.00  0.00     0.066 A 
ATOM     41  H   UNL     1     -45.301  33.674  24.614  1.00  0.00     0.065 H 
ATOM     42  C   UNL     1     -47.828  31.412  24.940  1.00  0.00     0.066 A 
ATOM     43  H   UNL     1     -49.670  31.637  26.035  1.00  0.00     0.065 H 
ATOM     44  N   UNL     1     -45.951  31.062  23.750  1.00  0.00    -0.306 N 
ATOM     45  N   UNL     1     -47.905  30.142  24.381  1.00  0.00    -0.306 N 
ATOM     46  C   UNL     1     -46.743  29.911  23.630  1.00  0.00     0.323 A 
ATOM     47  H   UNL     1     -45.057  31.178  23.302  1.00  0.00     0.171 HD
ATOM     48  H   UNL     1     -48.663  29.484  24.458  1.00  0.00     0.171 HD
ATOM     49  O   UNL     1     -46.473  28.906  23.000  1.00  0.00    -0.248 OA
ENDBRANCH  32  35
ENDBRANCH  29  32
ENDBRANCH   3  29
BRANCH   4  50
ATOM     50  O   UNL     1     -49.007  37.885  27.767  1.00  0.00    -0.390 OA
ATOM     51  H   UNL     1     -49.101  37.761  28.730  1.00  0.00     0.211 HD
ENDBRANCH   4  50
TORSDOF 7
ENDMDL
MODEL 2
REMARK VINA RESULT:     -10.0      2.362      9.850
REMARK SMILES Nc1ncnc2c1ccn2[C@@H]1C[C@H](CCc2ccc3[nH]c(=O)[nH]c3c2)[C@@H](O)[C@H]1O
REMARK SMILES IDX 11 1 12 2 13 3 26 4 28 5 10 12 2 13 3 14 7 15 4 16 6 17 8 18
REMARK SMILES IDX 5 19 9 21 1 24 29 27 14 29 15 32 16 35 17 36 25 37 18 38
REMARK SMILES IDX 24 40 19 42 23 44 20 45 21 46 22 49 27 50
REMARK H PARENT 11 6 12 7 12 8 13 9 26 10 28 11 4 20 8 22 9 23 1 25 1 26 29 28
REMARK H PARENT 14 30 14 31 15 33 15 34 17 39 25 41 18 43 23 47 20 48 27 51
REMARK Flexibility Score: inf
ROOT
ATOM      1  C   UNL     1     -48.160  32.347  26.041  1.00  0.00     0.064 C 
ATOM      2  C   UNL     1     -48.821  33.731  26.239  1.00  0.00    -0.024 C 
ATOM      3  C   UNL     1     -47.752  34.573  26.937  1.00  0.00    -0.010 C 
ATOM      4  C   UNL     1     -46.473  34.098  26.247  1.00  0.00     0.085 C 
ATOM      5  C   UNL     1     -46.644  32.568  26.245  1.00  0.00     0.101 C 
ATOM      6  H   UNL     1     -48.526  31.671  26.828  1.00  0.00     0.056 H 
ATOM      7  H   UNL     1     -49.106  34.161  25.274  1.00  0.00     0.029 H 
ATOM      8  H   UNL     1     -49.731  33.656  26.844  1.00  0.00     0.029 H 
ATOM      9  H   UNL     1     -47.696  34.260  27.991  1.00  0.00     0.033 H 
ATOM     10  H   UNL     1     -46.396  34.486  25.230  1.00  0.00     0.063 H 
ATOM     11  H   UNL     1     -45.996  32.078  25.514  1.00  0.00     0.065 H 
ENDROOT
BRANCH   1  12
ATOM     12  N   UNL     1     -48.541  31.734  24.778  1.00  0.00    -0.327 N 
ATOM     13  C   UNL     1     -47.777  30.232  21.664  1.00  0.00     0.136 A 
ATOM     14  N   UNL     1     -46.433  30.157  21.710  1.00  0.00    -0.219 NA
ATOM     15  C   UNL     1     -48.464  30.783  22.754  1.00  0.00     0.061 A 
ATOM     16  C   UNL     1     -45.808  30.627  22.805  1.00  0.00     0.120 A 
ATOM     17  C   UNL     1     -47.694  31.234  23.818  1.00  0.00     0.145 A 
ATOM     18  C   UNL     1     -49.823  31.032  23.093  1.00  0.00    -0.031 A 
ATOM     19  N   UNL     1     -46.354  31.186  23.899  1.00  0.00    -0.218 NA
ATOM     20  H   UNL     1     -44.725  30.541  22.806  1.00  0.00     0.106 H 
ATOM     21  C   UNL     1     -49.842  31.615  24.341  1.00  0.00     0.007 A 
ATOM     22  H   UNL     1     -50.691  30.814  22.486  1.00  0.00     0.065 H 
ATOM     23  H   UNL     1     -50.670  31.958  24.950  1.00  0.00     0.082 H 
BRANCH  13  24
ATOM     24  N   UNL     1     -48.404  29.734  20.530  1.00  0.00    -0.383 N 
ATOM     25  H   UNL     1     -47.837  29.749  19.694  1.00  0.00     0.158 HD
ATOM     26  H   UNL     1     -49.339  30.117  20.445  1.00  0.00     0.158 HD
ENDBRANCH  13  24
ENDBRANCH   1  12
BRANCH   5  27
ATOM     27  O   UNL     1     -46.261  32.047  27.533  1.00  0.00    -0.388 OA
ATOM     28  H   UNL     1     -46.326  32.804  28.151  1.00  0.00     0.211 HD
ENDBRANCH   5  27
BRANCH   3  29
ATOM     29  C   UNL     1     -47.980  36.091  26.985  1.00  0.00    -0.044 C 
ATOM     30  H   UNL     1     -49.030  36.304  26.751  1.00  0.00     0.027 H 
ATOM     31  H   UNL     1     -47.406  36.523  26.152  1.00  0.00     0.027 H 
BRANCH  29  32
ATOM     32  C   UNL     1     -47.550  36.865  28.238  1.00  0.00    -0.027 C 
ATOM     33  H   UNL     1     -48.436  37.294  28.720  1.00  0.00     0.032 H 
ATOM     34  H   UNL     1     -47.153  36.144  28.965  1.00  0.00     0.032 H 
BRANCH  32  35
ATOM     35  C   UNL     1     -46.489  37.923  28.054  1.00  0.00    -0.046 A 
ATOM     36  C   UNL     1     -46.464  38.683  26.853  1.00  0.00    -0.057 A 
ATOM     37  C   UNL     1     -45.565  38.200  29.077  1.00  0.00    -0.033 A 
ATOM     38  C   UNL     1     -45.527  39.702  26.644  1.00  0.00    -0.036 A 
ATOM     39  H   UNL     1     -47.188  38.476  26.066  1.00  0.00     0.063 H 
ATOM     40  C   UNL     1     -44.647  39.196  28.841  1.00  0.00     0.066 A 
ATOM     41  H   UNL     1     -45.569  37.655  30.014  1.00  0.00     0.065 H 
ATOM     42  C   UNL     1     -44.628  39.927  27.656  1.00  0.00     0.066 A 
ATOM     43  H   UNL     1     -45.518  40.274  25.725  1.00  0.00     0.065 H 
ATOM     44  N   UNL     1     -43.621  39.670  29.652  1.00  0.00    -0.306 N 
ATOM     45  N   UNL     1     -43.590  40.849  27.736  1.00  0.00    -0.306 N 
ATOM     46  C   UNL     1     -42.956  40.704  28.978  1.00  0.00     0.323 A 
ATOM     47  H   UNL     1     -43.381  39.358  30.578  1.00  0.00     0.171 HD
ATOM     48  H   UNL     1     -43.327  41.536  27.049  1.00  0.00     0.171 HD
ATOM     49  O   UNL     1     -42.009  41.349  29.390  1.00  0.00    -0.248 OA
ENDBRANCH  32  35
ENDBRANCH  29  32
ENDBRANCH   3  29
BRANCH   4  50
ATOM     50  O   UNL     1     -45.312  34.472  26.982  1.00  0.00    -0.390 OA
ATOM     51  H   UNL     1     -44.906  35.216  26.499  1.00  0.00     0.211 HD
ENDBRANCH   4  50
TORSDOF 7
ENDMDL
MODEL 3
REMARK VINA RESULT:      -9.8      2.555     10.373
REMARK SMILES Nc1ncnc2c1ccn2[C@@H]1C[C@H](CCc2ccc3[nH]c(=O)[nH]c3c2)[C@@H](O)[C@H]1O
REMARK SMILES IDX 11 1 12 2 13 3 26 4 28 5 10 12 2 13 3 14 7 15 4 16 6 17 8 18
REMARK SMILES IDX 5 19 9 21 1 24 29 27 14 29 15 32 16 35 17 36 25 37 18 38
REMARK SMILES IDX 24 40 19 42 23 44 20 45 21 46 22 49 27 50
REMARK H PARENT 11 6 12 7 12 8 13 9 26 10 28 11 4 20 8 22 9 23 1 25 1 26 29 28
REMARK H PARENT 14 30 14 31 15 33 15 34 17 39 25 41 18 43 23 47 20 48 27 51
REMARK Flexibility Score: inf
ROOT
ATOM      1  C   UNL     1     -48.071  31.887  26.184  1.00  0.00     0.064 C 
ATOM      2  C   UNL     1     -48.922  33.178  26.225  1.00  0.00    -0.024 C 
ATOM      3  C   UNL     1     -47.983  34.240  26.800  1.00  0.00    -0.010 C 
ATOM      4  C   UNL     1     -46.649  33.869  26.153  1.00  0.00     0.085 C 
ATOM      5  C   UNL     1     -46.602  32.342  26.336  1.00  0.00     0.101 C 
ATOM      6  H   UNL     1     -48.339  31.267  27.052  1.00  0.00     0.056 H 
ATOM      7  H   UNL     1     -49.263  33.444  25.220  1.00  0.00     0.029 H 
ATOM      8  H   UNL     1     -49.812  33.050  26.849  1.00  0.00     0.029 H 
ATOM      9  H   UNL     1     -47.886  34.068  27.883  1.00  0.00     0.033 H 
ATOM     10  H   UNL     1     -46.625  34.138  25.096  1.00  0.00     0.063 H 
ATOM     11  H   UNL     1     -45.890  31.863  25.660  1.00  0.00     0.065 H 
ENDROOT
BRANCH   1  12
ATOM     12  N   UNL     1     -48.360  31.078  25.009  1.00  0.00    -0.327 N 
ATOM     13  C   UNL     1     -49.036  27.987  23.421  1.00  0.00     0.136 A 
ATOM     14  N   UNL     1     -49.101  27.141  24.467  1.00  0.00    -0.219 NA
ATOM     15  C   UNL     1     -48.780  29.345  23.659  1.00  0.00     0.061 A 
ATOM     16  C   UNL     1     -48.906  27.641  25.700  1.00  0.00     0.120 A 
ATOM     17  C   UNL     1     -48.595  29.724  24.982  1.00  0.00     0.145 A 
ATOM     18  C   UNL     1     -48.643  30.518  22.869  1.00  0.00    -0.031 A 
ATOM     19  N   UNL     1     -48.642  28.912  26.051  1.00  0.00    -0.218 NA
ATOM     20  H   UNL     1     -48.974  26.928  26.517  1.00  0.00     0.106 H 
ATOM     21  C   UNL     1     -48.386  31.569  23.723  1.00  0.00     0.007 A 
ATOM     22  H   UNL     1     -48.717  30.586  21.792  1.00  0.00     0.065 H 
ATOM     23  H   UNL     1     -48.216  32.620  23.522  1.00  0.00     0.082 H 
BRANCH  13  24
ATOM     24  N   UNL     1     -49.248  27.455  22.156  1.00  0.00    -0.383 N 
ATOM     25  H   UNL     1     -50.219  27.388  21.885  1.00  0.00     0.158 HD
ATOM     26  H   UNL     1     -48.687  26.621  22.023  1.00  0.00     0.158 HD
ENDBRANCH  13  24
ENDBRANCH   1  12
BRANCH   5  27
ATOM     27  O   UNL     1     -46.152  32.039  27.672  1.00  0.00    -0.388 OA
ATOM     28  H   UNL     1     -45.414  32.660  27.846  1.00  0.00     0.211 HD
ENDBRANCH   5  27
BRANCH   3  29
ATOM     29  C   UNL     1     -48.423  35.706  26.669  1.00  0.00    -0.044 C 
ATOM     30  H   UNL     1     -49.444  35.740  26.267  1.00  0.00     0.027 H 
ATOM     31  H   UNL     1     -47.792  36.156  25.890  1.00  0.00     0.027 H 
BRANCH  29  32
ATOM     32  C   UNL     1     -48.306  36.626  27.891  1.00  0.00    -0.027 C 
ATOM     33  H   UNL     1     -49.239  37.187  28.012  1.00  0.00     0.032 H 
ATOM     34  H   UNL     1     -48.235  35.995  28.788  1.00  0.00     0.032 H 
BRANCH  32  35
ATOM     35  C   UNL     1     -47.122  37.563  27.926  1.00  0.00    -0.046 A 
ATOM     36  C   UNL     1     -46.883  38.424  26.821  1.00  0.00    -0.057 A 
ATOM     37  C   UNL     1     -46.292  37.631  29.059  1.00  0.00    -0.033 A 
ATOM     38  C   UNL     1     -45.824  39.339  26.815  1.00  0.00    -0.036 A 
ATOM     39  H   UNL     1     -47.534  38.380  25.948  1.00  0.00     0.063 H 
ATOM     40  C   UNL     1     -45.252  38.528  29.022  1.00  0.00     0.066 A 
ATOM     41  H   UNL     1     -46.460  37.004  29.928  1.00  0.00     0.065 H 
ATOM     42  C   UNL     1     -45.022  39.360  27.929  1.00  0.00     0.066 A 
ATOM     43  H   UNL     1     -45.650  39.990  25.967  1.00  0.00     0.065 H 
ATOM     44  N   UNL     1     -44.276  38.798  29.976  1.00  0.00    -0.306 N 
ATOM     45  N   UNL     1     -43.906  40.139  28.208  1.00  0.00    -0.306 N 
ATOM     46  C   UNL     1     -43.432  39.804  29.485  1.00  0.00     0.323 A 
ATOM     47  H   UNL     1     -44.175  38.374  30.883  1.00  0.00     0.171 HD
ATOM     48  H   UNL     1     -43.496  40.852  27.627  1.00  0.00     0.171 HD
ATOM     49  O   UNL     1     -42.472  40.290  30.054  1.00  0.00    -0.248 OA
ENDBRANCH  32  35
ENDBRANCH  29  32
ENDBRANCH   3  29
BRANCH   4  50
ATOM     50  O   UNL     1     -45.554  34.489  26.820  1.00  0.00    -0.390 OA
ATOM     51  H   UNL     1     -45.497  34.076  27.702  1.00  0.00     0.211 HD
ENDBRANCH   4  50
TORSDOF 7
ENDMDL
MODEL 4
REMARK VINA RESULT:      -9.6      1.320      2.280
REMARK SMILES Nc1ncnc2c1ccn2[C@@H]1C[C@H](CCc2ccc3[nH]c(=O)[nH]c3c2)[C@@H](O)[C@H]1O
REMARK SMILES IDX 11 1 12 2 13 3 26 4 28 5 10 12 2 13 3 14 7 15 4 16 6 17 8 18
REMARK SMILES IDX 5 19 9 21 1 24 29 27 14 29 15 32 16 35 17 36 25 37 18 38
REMARK SMILES IDX 24 40 19 42 23 44 20 45 21 46 22 49 27 50
REMARK H PARENT 11 6 12 7 12 8 13 9 26 10 28 11 4 20 8 22 9 23 1 25 1 26 29 28
REMARK H PARENT 14 30 14 31 15 33 15 34 17 39 25 41 18 43 23 47 20 48 27 51
REMARK Flexibility Score: inf
ROOT
ATOM      1  C   UNL     1     -44.910  38.027  29.075  1.00  0.00     0.064 C 
ATOM      2  C   UNL     1     -45.005  37.190  27.779  1.00  0.00    -0.024 C 
ATOM      3  C   UNL     1     -46.420  36.607  27.799  1.00  0.00    -0.010 C 
ATOM      4  C   UNL     1     -47.232  37.767  28.375  1.00  0.00     0.085 C 
ATOM      5  C   UNL     1     -46.364  38.227  29.559  1.00  0.00     0.101 C 
ATOM      6  H   UNL     1     -44.367  37.439  29.830  1.00  0.00     0.056 H 
ATOM      7  H   UNL     1     -44.843  37.822  26.902  1.00  0.00     0.029 H 
ATOM      8  H   UNL     1     -44.247  36.400  27.757  1.00  0.00     0.029 H 
ATOM      9  H   UNL     1     -46.447  35.786  28.532  1.00  0.00     0.033 H 
ATOM     10  H   UNL     1     -47.361  38.569  27.646  1.00  0.00     0.063 H 
ATOM     11  H   UNL     1     -46.613  39.238  29.889  1.00  0.00     0.065 H 
ENDROOT
BRANCH   1  12
ATOM     12  N   UNL     1     -44.137  39.245  28.885  1.00  0.00    -0.327 N 
ATOM     13  C   UNL     1     -43.224  42.123  27.036  1.00  0.00     0.136 A 
ATOM     14  N   UNL     1     -44.076  42.070  25.994  1.00  0.00    -0.219 NA
ATOM     15  C   UNL     1     -43.286  41.122  28.016  1.00  0.00     0.061 A 
ATOM     16  C   UNL     1     -44.947  41.046  25.938  1.00  0.00     0.120 A 
ATOM     17  C   UNL     1     -44.231  40.122  27.831  1.00  0.00     0.145 A 
ATOM     18  C   UNL     1     -42.600  40.824  29.225  1.00  0.00    -0.031 A 
ATOM     19  N   UNL     1     -45.090  40.027  26.803  1.00  0.00    -0.218 NA
ATOM     20  H   UNL     1     -45.621  41.044  25.086  1.00  0.00     0.106 H 
ATOM     21  C   UNL     1     -43.143  39.667  29.740  1.00  0.00     0.007 A 
ATOM     22  H   UNL     1     -41.791  41.391  29.667  1.00  0.00     0.065 H 
ATOM     23  H   UNL     1     -42.902  39.109  30.636  1.00  0.00     0.082 H 
BRANCH  13  24
ATOM     24  N   UNL     1     -42.339  43.191  27.082  1.00  0.00    -0.383 N 
ATOM     25  H   UNL     1     -41.445  43.015  26.646  1.00  0.00     0.158 HD
ATOM     26  H   UNL     1     -42.312  43.591  28.014  1.00  0.00     0.158 HD
ENDBRANCH  13  24
ENDBRANCH   1  12
BRANCH   5  27
ATOM     27  O   UNL     1     -46.608  37.366  30.688  1.00  0.00    -0.388 OA
ATOM     28  H   UNL     1     -45.767  36.887  30.840  1.00  0.00     0.211 HD
ENDBRANCH   5  27
BRANCH   3  29
ATOM     29  C   UNL     1     -46.939  35.990  26.492  1.00  0.00    -0.044 C 
ATOM     30  H   UNL     1     -46.087  35.649  25.892  1.00  0.00     0.027 H 
ATOM     31  H   UNL     1     -47.390  36.809  25.914  1.00  0.00     0.027 H 
BRANCH  29  32
ATOM     32  C   UNL     1     -48.007  34.890  26.566  1.00  0.00    -0.027 C 
ATOM     33  H   UNL     1     -48.254  34.696  27.616  1.00  0.00     0.032 H 
ATOM     34  H   UNL     1     -48.932  35.282  26.124  1.00  0.00     0.032 H 
BRANCH  32  35
ATOM     35  C   UNL     1     -47.700  33.596  25.852  1.00  0.00    -0.046 A 
ATOM     36  C   UNL     1     -46.459  33.452  25.173  1.00  0.00    -0.057 A 
ATOM     37  C   UNL     1     -48.601  32.517  25.900  1.00  0.00    -0.033 A 
ATOM     38  C   UNL     1     -46.106  32.262  24.527  1.00  0.00    -0.036 A 
ATOM     39  H   UNL     1     -45.756  34.284  25.147  1.00  0.00     0.063 H 
ATOM     40  C   UNL     1     -48.235  31.364  25.246  1.00  0.00     0.066 A 
ATOM     41  H   UNL     1     -49.546  32.585  26.427  1.00  0.00     0.065 H 
ATOM     42  C   UNL     1     -47.021  31.239  24.576  1.00  0.00     0.066 A 
ATOM     43  H   UNL     1     -45.158  32.163  24.012  1.00  0.00     0.065 H 
ATOM     44  N   UNL     1     -48.921  30.162  25.112  1.00  0.00    -0.306 N 
ATOM     45  N   UNL     1     -46.960  29.963  24.030  1.00  0.00    -0.306 N 
ATOM     46  C   UNL     1     -48.137  29.276  24.361  1.00  0.00     0.323 A 
ATOM     47  H   UNL     1     -49.823  29.928  25.494  1.00  0.00     0.171 HD
ATOM     48  H   UNL     1     -46.203  29.558  23.503  1.00  0.00     0.171 HD
ATOM     49  O   UNL     1     -48.423  28.134  24.052  1.00  0.00    -0.248 OA
ENDBRANCH  32  35
ENDBRANCH  29  32
ENDBRANCH   3  29
BRANCH   4  50
ATOM     50  O   UNL     1     -48.511  37.335  28.828  1.00  0.00    -0.390 OA
ATOM     51  H   UNL     1     -49.158  37.641  28.165  1.00  0.00     0.211 HD
ENDBRANCH   4  50
TORSDOF 7
ENDMDL
MODEL 5
REMARK VINA RESULT:      -9.6      2.182      2.850
REMARK SMILES Nc1ncnc2c1ccn2[C@@H]1C[C@H](CCc2ccc3[nH]c(=O)[nH]c3c2)[C@@H](O)[C@H]1O
REMARK SMILES IDX 11 1 12 2 13 3 26 4 28 5 10 12 2 13 3 14 7 15 4 16 6 17 8 18
REMARK SMILES IDX 5 19 9 21 1 24 29 27 14 29 15 32 16 35 17 36 25 37 18 38
REMARK SMILES IDX 24 40 19 42 23 44 20 45 21 46 22 49 27 50
REMARK H PARENT 11 6 12 7 12 8 13 9 26 10 28 11 4 20 8 22 9 23 1 25 1 26 29 28
REMARK H PARENT 14 30 14 31 15 33 15 34 17 39 25 41 18 43 23 47 20 48 27 51
REMARK Flexibility Score: inf
ROOT
ATOM      1  C   UNL     1     -45.540  38.413  27.848  1.00  0.00     0.064 C 
ATOM      2  C   UNL     1     -46.000  37.121  27.132  1.00  0.00    -0.024 C 
ATOM      3  C   UNL     1     -45.917  36.035  28.206  1.00  0.00    -0.010 C 
ATOM      4  C   UNL     1     -46.392  36.784  29.452  1.00  0.00     0.085 C 
ATOM      5  C   UNL     1     -45.615  38.109  29.361  1.00  0.00     0.101 C 
ATOM      6  H   UNL     1     -44.491  38.605  27.579  1.00  0.00     0.056 H 
ATOM      7  H   UNL     1     -47.019  37.236  26.752  1.00  0.00     0.029 H 
ATOM      8  H   UNL     1     -45.357  36.889  26.277  1.00  0.00     0.029 H 
ATOM      9  H   UNL     1     -44.858  35.776  28.358  1.00  0.00     0.033 H 
ATOM     10  H   UNL     1     -47.469  36.958  29.431  1.00  0.00     0.063 H 
ATOM     11  H   UNL     1     -46.059  38.895  29.976  1.00  0.00     0.065 H 
ENDROOT
BRANCH   1  12
ATOM     12  N   UNL     1     -46.287  39.581  27.404  1.00  0.00    -0.327 N 
ATOM     13  C   UNL     1     -46.516  42.742  25.826  1.00  0.00     0.136 A 
ATOM     14  N   UNL     1     -45.263  42.917  25.364  1.00  0.00    -0.219 NA
ATOM     15  C   UNL     1     -46.825  41.566  26.525  1.00  0.00     0.061 A 
ATOM     16  C   UNL     1     -44.357  41.952  25.604  1.00  0.00     0.120 A 
ATOM     17  C   UNL     1     -45.792  40.655  26.705  1.00  0.00     0.145 A 
ATOM     18  C   UNL     1     -47.977  41.013  27.148  1.00  0.00    -0.031 A 
ATOM     19  N   UNL     1     -44.529  40.796  26.269  1.00  0.00    -0.218 NA
ATOM     20  H   UNL     1     -43.362  42.128  25.208  1.00  0.00     0.106 H 
ATOM     21  C   UNL     1     -47.620  39.793  27.679  1.00  0.00     0.007 A 
ATOM     22  H   UNL     1     -48.959  41.462  27.207  1.00  0.00     0.065 H 
ATOM     23  H   UNL     1     -48.200  39.064  28.231  1.00  0.00     0.082 H 
BRANCH  13  24
ATOM     24  N   UNL     1     -47.440  43.743  25.561  1.00  0.00    -0.383 N 
ATOM     25  H   UNL     1     -48.284  43.428  25.106  1.00  0.00     0.158 HD
ATOM     26  H   UNL     1     -46.982  44.548  25.148  1.00  0.00     0.158 HD
ENDBRANCH  13  24
ENDBRANCH   1  12
BRANCH   5  27
ATOM     27  O   UNL     1     -44.280  37.910  29.868  1.00  0.00    -0.388 OA
ATOM     28  H   UNL     1     -44.125  36.944  29.826  1.00  0.00     0.211 HD
ENDBRANCH   5  27
BRANCH   3  29
ATOM     29  C   UNL     1     -46.614  34.700  27.903  1.00  0.00    -0.044 C 
ATOM     30  H   UNL     1     -47.104  34.335  28.815  1.00  0.00     0.027 H 
ATOM     31  H   UNL     1     -45.820  33.971  27.691  1.00  0.00     0.027 H 
BRANCH  29  32
ATOM     32  C   UNL     1     -47.584  34.625  26.717  1.00  0.00    -0.027 C 
ATOM     33  H   UNL     1     -48.603  34.816  27.070  1.00  0.00     0.032 H 
ATOM     34  H   UNL     1     -47.358  35.458  26.038  1.00  0.00     0.032 H 
BRANCH  32  35
ATOM     35  C   UNL     1     -47.544  33.365  25.885  1.00  0.00    -0.046 A 
ATOM     36  C   UNL     1     -48.644  32.465  25.931  1.00  0.00    -0.057 A 
ATOM     37  C   UNL     1     -46.461  33.103  25.028  1.00  0.00    -0.033 A 
ATOM     38  C   UNL     1     -48.678  31.302  25.153  1.00  0.00    -0.036 A 
ATOM     39  H   UNL     1     -49.489  32.675  26.586  1.00  0.00     0.063 H 
ATOM     40  C   UNL     1     -46.513  31.948  24.285  1.00  0.00     0.066 A 
ATOM     41  H   UNL     1     -45.616  33.779  24.952  1.00  0.00     0.065 H 
ATOM     42  C   UNL     1     -47.592  31.070  24.346  1.00  0.00     0.066 A 
ATOM     43  H   UNL     1     -49.521  30.624  25.196  1.00  0.00     0.065 H 
ATOM     44  N   UNL     1     -45.594  31.430  23.379  1.00  0.00    -0.306 N 
ATOM     45  N   UNL     1     -47.337  30.013  23.481  1.00  0.00    -0.306 N 
ATOM     46  C   UNL     1     -46.095  30.226  22.865  1.00  0.00     0.323 A 
ATOM     47  H   UNL     1     -44.715  31.836  23.103  1.00  0.00     0.171 HD
ATOM     48  H   UNL     1     -47.932  29.224  23.284  1.00  0.00     0.171 HD
ATOM     49  O   UNL     1     -45.556  29.504  22.047  1.00  0.00    -0.248 OA
ENDBRANCH  32  35
ENDBRANCH  29  32
ENDBRANCH   3  29
BRANCH   4  50
ATOM     50  O   UNL     1     -46.053  36.083  30.644  1.00  0.00    -0.390 OA
ATOM     51  H   UNL     1     -46.876  36.004  31.163  1.00  0.00     0.211 HD
ENDBRANCH   4  50
TORSDOF 7
ENDMDL
MODEL 6
REMARK VINA RESULT:      -9.5      2.474      9.958
REMARK SMILES Nc1ncnc2c1ccn2[C@@H]1C[C@H](CCc2ccc3[nH]c(=O)[nH]c3c2)[C@@H](O)[C@H]1O
REMARK SMILES IDX 11 1 12 2 13 3 26 4 28 5 10 12 2 13 3 14 7 15 4 16 6 17 8 18
REMARK SMILES IDX 5 19 9 21 1 24 29 27 14 29 15 32 16 35 17 36 25 37 18 38
REMARK SMILES IDX 24 40 19 42 23 44 20 45 21 46 22 49 27 50
REMARK H PARENT 11 6 12 7 12 8 13 9 26 10 28 11 4 20 8 22 9 23 1 25 1 26 29 28
REMARK H PARENT 14 30 14 31 15 33 15 34 17 39 25 41 18 43 23 47 20 48 27 51
REMARK Flexibility Score: inf
ROOT
ATOM      1  C   UNL     1     -47.568  32.281  25.965  1.00  0.00     0.064 C 
ATOM      2  C   UNL     1     -48.432  33.563  25.982  1.00  0.00    -0.024 C 
ATOM      3  C   UNL     1     -47.699  34.510  26.935  1.00  0.00    -0.010 C 
ATOM      4  C   UNL     1     -46.234  34.221  26.603  1.00  0.00     0.085 C 
ATOM      5  C   UNL     1     -46.200  32.684  26.557  1.00  0.00     0.101 C 
ATOM      6  H   UNL     1     -48.035  31.539  26.630  1.00  0.00     0.056 H 
ATOM      7  H   UNL     1     -48.511  33.986  24.976  1.00  0.00     0.029 H 
ATOM      8  H   UNL     1     -49.450  33.355  26.329  1.00  0.00     0.029 H 
ATOM      9  H   UNL     1     -47.878  34.171  27.967  1.00  0.00     0.033 H 
ATOM     10  H   UNL     1     -45.948  34.650  25.641  1.00  0.00     0.063 H 
ATOM     11  H   UNL     1     -45.326  32.303  26.022  1.00  0.00     0.065 H 
ENDROOT
BRANCH   1  12
ATOM     12  N   UNL     1     -47.527  31.666  24.647  1.00  0.00    -0.327 N 
ATOM     13  C   UNL     1     -49.006  29.878  21.972  1.00  0.00     0.136 A 
ATOM     14  N   UNL     1     -50.279  29.748  22.391  1.00  0.00    -0.219 NA
ATOM     15  C   UNL     1     -48.088  30.555  22.788  1.00  0.00     0.061 A 
ATOM     16  C   UNL     1     -50.611  30.270  23.586  1.00  0.00     0.120 A 
ATOM     17  C   UNL     1     -48.565  31.040  23.998  1.00  0.00     0.145 A 
ATOM     18  C   UNL     1     -46.710  30.900  22.718  1.00  0.00    -0.031 A 
ATOM     19  N   UNL     1     -49.822  30.923  24.456  1.00  0.00    -0.218 NA
ATOM     20  H   UNL     1     -51.649  30.151  23.883  1.00  0.00     0.106 H 
ATOM     21  C   UNL     1     -46.391  31.583  23.871  1.00  0.00     0.007 A 
ATOM     22  H   UNL     1     -46.025  30.668  21.913  1.00  0.00     0.065 H 
ATOM     23  H   UNL     1     -45.454  32.011  24.205  1.00  0.00     0.082 H 
BRANCH  13  24
ATOM     24  N   UNL     1     -48.684  29.341  20.734  1.00  0.00    -0.383 N 
ATOM     25  H   UNL     1     -48.011  29.878  20.204  1.00  0.00     0.158 HD
ATOM     26  H   UNL     1     -49.523  29.060  20.239  1.00  0.00     0.158 HD
ENDBRANCH  13  24
ENDBRANCH   1  12
BRANCH   5  27
ATOM     27  O   UNL     1     -46.099  32.172  27.901  1.00  0.00    -0.388 OA
ATOM     28  H   UNL     1     -45.585  32.842  28.398  1.00  0.00     0.211 HD
ENDBRANCH   5  27
BRANCH   3  29
ATOM     29  C   UNL     1     -48.126  35.985  26.919  1.00  0.00    -0.044 C 
ATOM     30  H   UNL     1     -49.188  36.048  26.649  1.00  0.00     0.027 H 
ATOM     31  H   UNL     1     -47.588  36.461  26.088  1.00  0.00     0.027 H 
BRANCH  29  32
ATOM     32  C   UNL     1     -47.843  36.850  28.155  1.00  0.00    -0.027 C 
ATOM     33  H   UNL     1     -48.777  37.309  28.497  1.00  0.00     0.032 H 
ATOM     34  H   UNL     1     -47.538  36.185  28.974  1.00  0.00     0.032 H 
BRANCH  32  35
ATOM     35  C   UNL     1     -46.763  37.895  28.020  1.00  0.00    -0.046 A 
ATOM     36  C   UNL     1     -45.759  37.993  29.021  1.00  0.00    -0.057 A 
ATOM     37  C   UNL     1     -46.709  38.732  26.890  1.00  0.00    -0.033 A 
ATOM     38  C   UNL     1     -44.712  38.918  28.929  1.00  0.00    -0.036 A 
ATOM     39  H   UNL     1     -45.794  37.336  29.890  1.00  0.00     0.063 H 
ATOM     40  C   UNL     1     -45.679  39.640  26.831  1.00  0.00     0.066 A 
ATOM     41  H   UNL     1     -47.446  38.669  26.098  1.00  0.00     0.065 H 
ATOM     42  C   UNL     1     -44.706  39.732  27.823  1.00  0.00     0.066 A 
ATOM     43  H   UNL     1     -43.953  38.984  29.698  1.00  0.00     0.065 H 
ATOM     44  N   UNL     1     -45.386  40.590  25.858  1.00  0.00    -0.306 N 
ATOM     45  N   UNL     1     -43.817  40.738  27.463  1.00  0.00    -0.306 N 
ATOM     46  C   UNL     1     -44.225  41.279  26.235  1.00  0.00     0.323 A 
ATOM     47  H   UNL     1     -45.891  40.766  25.005  1.00  0.00     0.171 HD
ATOM     48  H   UNL     1     -42.994  41.035  27.962  1.00  0.00     0.171 HD
ATOM     49  O   UNL     1     -43.678  42.175  25.619  1.00  0.00    -0.248 OA
ENDBRANCH  32  35
ENDBRANCH  29  32
ENDBRANCH   3  29
BRANCH   4  50
ATOM     50  O   UNL     1     -45.363  34.714  27.615  1.00  0.00    -0.390 OA
ATOM     51  H   UNL     1     -44.659  35.210  27.157  1.00  0.00     0.211 HD
ENDBRANCH   4  50
TORSDOF 7
ENDMDL
MODEL 7
REMARK VINA RESULT:      -9.5      1.793      2.674
REMARK SMILES Nc1ncnc2c1ccn2[C@@H]1C[C@H](CCc2ccc3[nH]c(=O)[nH]c3c2)[C@@H](O)[C@H]1O
REMARK SMILES IDX 11 1 12 2 13 3 26 4 28 5 10 12 2 13 3 14 7 15 4 16 6 17 8 18
REMARK SMILES IDX 5 19 9 21 1 24 29 27 14 29 15 32 16 35 17 36 25 37 18 38
REMARK SMILES IDX 24 40 19 42 23 44 20 45 21 46 22 49 27 50
REMARK H PARENT 11 6 12 7 12 8 13 9 26 10 28 11 4 20 8 22 9 23 1 25 1 26 29 28
REMARK H PARENT 14 30 14 31 15 33 15 34 17 39 25 41 18 43 23 47 20 48 27 51
REMARK Flexibility Score: inf
ROOT
ATOM      1  C   UNL     1     -46.592  37.040  28.275  1.00  0.00     0.064 C 
ATOM      2  C   UNL     1     -45.825  35.755  27.885  1.00  0.00    -0.024 C 
ATOM      3  C   UNL     1     -46.920  34.724  27.603  1.00  0.00    -0.010 C 
ATOM      4  C   UNL     1     -47.986  35.574  26.912  1.00  0.00     0.085 C 
ATOM      5  C   UNL     1     -48.048  36.823  27.808  1.00  0.00     0.101 C 
ATOM      6  H   UNL     1     -46.584  37.130  29.371  1.00  0.00     0.056 H 
ATOM      7  H   UNL     1     -45.203  35.933  27.004  1.00  0.00     0.029 H 
ATOM      8  H   UNL     1     -45.162  35.425  28.692  1.00  0.00     0.029 H 
ATOM      9  H   UNL     1     -47.336  34.387  28.565  1.00  0.00     0.033 H 
ATOM     10  H   UNL     1     -47.695  35.835  25.893  1.00  0.00     0.063 H 
ATOM     11  H   UNL     1     -48.511  37.675  27.303  1.00  0.00     0.065 H 
ENDROOT
BRANCH   1  12
ATOM     12  N   UNL     1     -45.942  38.240  27.771  1.00  0.00    -0.327 N 
ATOM     13  C   UNL     1     -43.591  40.875  28.025  1.00  0.00     0.136 A 
ATOM     14  N   UNL     1     -42.939  40.562  29.161  1.00  0.00    -0.219 NA
ATOM     15  C   UNL     1     -44.623  40.037  27.580  1.00  0.00     0.061 A 
ATOM     16  C   UNL     1     -43.319  39.456  29.826  1.00  0.00     0.120 A 
ATOM     17  C   UNL     1     -44.913  38.930  28.367  1.00  0.00     0.145 A 
ATOM     18  C   UNL     1     -45.519  40.007  26.477  1.00  0.00    -0.031 A 
ATOM     19  N   UNL     1     -44.295  38.589  29.509  1.00  0.00    -0.218 NA
ATOM     20  H   UNL     1     -42.763  39.235  30.733  1.00  0.00     0.106 H 
ATOM     21  C   UNL     1     -46.318  38.893  26.617  1.00  0.00     0.007 A 
ATOM     22  H   UNL     1     -45.578  40.727  25.671  1.00  0.00     0.065 H 
ATOM     23  H   UNL     1     -47.121  38.515  25.997  1.00  0.00     0.082 H 
BRANCH  13  24
ATOM     24  N   UNL     1     -43.180  42.015  27.348  1.00  0.00    -0.383 N 
ATOM     25  H   UNL     1     -43.804  42.804  27.435  1.00  0.00     0.158 HD
ATOM     26  H   UNL     1     -42.881  41.781  26.407  1.00  0.00     0.158 HD
ENDBRANCH  13  24
ENDBRANCH   1  12
BRANCH   5  27
ATOM     27  O   UNL     1     -48.875  36.542  28.955  1.00  0.00    -0.388 OA
ATOM     28  H   UNL     1     -49.771  36.858  28.716  1.00  0.00     0.211 HD
ENDBRANCH   5  27
BRANCH   3  29
ATOM     29  C   UNL     1     -46.496  33.437  26.880  1.00  0.00    -0.044 C 
ATOM     30  H   UNL     1     -47.059  32.590  27.292  1.00  0.00     0.027 H 
ATOM     31  H   UNL     1     -45.449  33.249  27.157  1.00  0.00     0.027 H 
BRANCH  29  32
ATOM     32  C   UNL     1     -46.539  33.402  25.346  1.00  0.00    -0.027 C 
ATOM     33  H   UNL     1     -47.187  34.207  24.984  1.00  0.00     0.032 H 
ATOM     34  H   UNL     1     -45.537  33.653  24.971  1.00  0.00     0.032 H 
BRANCH  32  35
ATOM     35  C   UNL     1     -46.924  32.090  24.706  1.00  0.00    -0.046 A 
ATOM     36  C   UNL     1     -46.160  31.596  23.614  1.00  0.00    -0.057 A 
ATOM     37  C   UNL     1     -47.992  31.328  25.214  1.00  0.00    -0.033 A 
ATOM     38  C   UNL     1     -46.449  30.369  23.007  1.00  0.00    -0.036 A 
ATOM     39  H   UNL     1     -45.325  32.181  23.229  1.00  0.00     0.063 H 
ATOM     40  C   UNL     1     -48.263  30.133  24.591  1.00  0.00     0.066 A 
ATOM     41  H   UNL     1     -48.582  31.664  26.059  1.00  0.00     0.065 H 
ATOM     42  C   UNL     1     -47.512  29.665  23.516  1.00  0.00     0.066 A 
ATOM     43  H   UNL     1     -45.860  30.003  22.175  1.00  0.00     0.065 H 
ATOM     44  N   UNL     1     -49.251  29.193  24.862  1.00  0.00    -0.306 N 
ATOM     45  N   UNL     1     -48.038  28.441  23.123  1.00  0.00    -0.306 N 
ATOM     46  C   UNL     1     -49.121  28.129  23.958  1.00  0.00     0.323 A 
ATOM     47  H   UNL     1     -49.947  29.231  25.589  1.00  0.00     0.171 HD
ATOM     48  H   UNL     1     -47.707  27.839  22.387  1.00  0.00     0.171 HD
ATOM     49  O   UNL     1     -49.816  27.131  23.906  1.00  0.00    -0.248 OA
ENDBRANCH  32  35
ENDBRANCH  29  32
ENDBRANCH   3  29
BRANCH   4  50
ATOM     50  O   UNL     1     -49.246  34.911  26.885  1.00  0.00    -0.390 OA
ATOM     51  H   UNL     1     -49.081  33.990  27.162  1.00  0.00     0.211 HD
ENDBRANCH   4  50
TORSDOF 7
ENDMDL
