MODEL 1
REMARK VINA RESULT:     -11.3      0.000      0.000
REMARK SMILES Nc1ncnc2c1c(-n1cccn1)cn2[C@@H]1C[C@@H](COc2ccc3ccc(NC4CCC4)nc3c2)[C@@H](O)[C@H]1F
REMARK SMILES IDX 19 1 18 4 16 5 17 6 38 7 36 11 39 12 15 16 2 17 3 18 7 19
REMARK SMILES IDX 4 20 6 21 8 22 5 23 14 25 1 27 9 30 10 31 13 32 11 33 12 35
REMARK SMILES IDX 37 38 20 40 21 41 22 42 35 43 23 44 34 46 24 48 33 50 25 51
REMARK SMILES IDX 27 52 26 53 28 56 29 58 30 59 32 60 31 62
REMARK H PARENT 19 2 19 3 16 8 17 9 17 10 38 13 18 14 36 15 4 24 14 26 1 28
REMARK H PARENT 1 29 10 34 11 36 12 37 37 39 22 45 35 47 23 49 25 54 26 55
REMARK H PARENT 28 57 29 61 30 63 30 64 32 65 32 66 31 67 31 68
REMARK Flexibility Score: inf
ROOT
ATOM      1  C   UNL     1     -48.274  35.767  27.175  1.00  0.00     0.094 C 
ATOM      2  H   UNL     1     -49.346  35.805  27.409  1.00  0.00     0.071 H 
ATOM      3  H   UNL     1     -48.216  35.824  26.082  1.00  0.00     0.071 H 
ENDROOT
BRANCH   1   4
ATOM      4  C   UNL     1     -47.506  36.922  27.808  1.00  0.00     0.024 C 
ATOM      5  C   UNL     1     -45.301  37.864  28.274  1.00  0.00     0.069 C 
ATOM      6  C   UNL     1     -46.122  37.141  27.183  1.00  0.00    -0.021 C 
ATOM      7  C   UNL     1     -46.189  37.884  29.526  1.00  0.00     0.147 C 
ATOM      8  H   UNL     1     -44.399  37.272  28.481  1.00  0.00     0.057 H 
ATOM      9  H   UNL     1     -46.190  37.691  26.238  1.00  0.00     0.029 H 
ATOM     10  H   UNL     1     -45.648  36.178  26.959  1.00  0.00     0.029 H 
ATOM     11  C   UNL     1     -47.189  36.752  29.294  1.00  0.00     0.093 C 
ATOM     12  F   UNL     1     -45.453  37.628  30.641  1.00  0.00    -0.242 F 
ATOM     13  H   UNL     1     -46.706  38.837  29.676  1.00  0.00     0.071 H 
ATOM     14  H   UNL     1     -48.091  37.843  27.707  1.00  0.00     0.037 H 
ATOM     15  H   UNL     1     -48.069  36.830  29.938  1.00  0.00     0.064 H 
BRANCH   5  16
ATOM     16  N   UNL     1     -44.838  39.187  27.880  1.00  0.00    -0.324 N 
ATOM     17  C   UNL     1     -42.790  42.033  28.408  1.00  0.00     0.138 A 
ATOM     18  N   UNL     1     -42.039  41.629  29.455  1.00  0.00    -0.219 NA
ATOM     19  C   UNL     1     -43.731  41.143  27.856  1.00  0.00     0.087 A 
ATOM     20  C   UNL     1     -42.250  40.404  29.962  1.00  0.00     0.120 A 
ATOM     21  C   UNL     1     -43.848  39.912  28.496  1.00  0.00     0.148 A 
ATOM     22  C   UNL     1     -44.663  41.116  26.769  1.00  0.00     0.095 A 
ATOM     23  N   UNL     1     -43.132  39.483  29.548  1.00  0.00    -0.218 NA
ATOM     24  H   UNL     1     -41.632  40.128  30.812  1.00  0.00     0.106 H 
ATOM     25  C   UNL     1     -45.345  39.910  26.828  1.00  0.00     0.033 A 
ATOM     26  H   UNL     1     -46.126  39.499  26.202  1.00  0.00     0.084 H 
BRANCH  17  27
ATOM     27  N   UNL     1     -42.579  43.323  27.959  1.00  0.00    -0.383 N 
ATOM     28  H   UNL     1     -41.782  43.428  27.328  1.00  0.00     0.158 HD
ATOM     29  H   UNL     1     -42.698  44.016  28.684  1.00  0.00     0.158 HD
ENDBRANCH  17  27
BRANCH  22  30
ATOM     30  N   UNL     1     -44.864  42.125  25.780  1.00  0.00    -0.239 N 
ATOM     31  C   UNL     1     -44.138  42.269  24.610  1.00  0.00     0.031 A 
ATOM     32  N   UNL     1     -45.791  43.116  25.888  1.00  0.00    -0.176 NA
ATOM     33  C   UNL     1     -44.631  43.367  23.948  1.00  0.00    -0.024 A 
ATOM     34  H   UNL     1     -43.350  41.579  24.352  1.00  0.00     0.084 H 
ATOM     35  C   UNL     1     -45.647  43.846  24.781  1.00  0.00     0.049 A 
ATOM     36  H   UNL     1     -44.298  43.762  22.999  1.00  0.00     0.066 H 
ATOM     37  H   UNL     1     -46.292  44.703  24.631  1.00  0.00     0.086 H 
ENDBRANCH  22  30
ENDBRANCH   5  16
BRANCH  11  38
ATOM     38  O   UNL     1     -46.557  35.492  29.532  1.00  0.00    -0.390 OA
ATOM     39  H   UNL     1     -45.595  35.650  29.462  1.00  0.00     0.211 HD
ENDBRANCH  11  38
ENDBRANCH   1   4
BRANCH   1  40
ATOM     40  O   UNL     1     -47.704  34.509  27.547  1.00  0.00    -0.493 OA
BRANCH  40  41
ATOM     41  C   UNL     1     -47.518  33.560  26.580  1.00  0.00     0.121 A 
ATOM     42  C   UNL     1     -46.600  33.913  25.592  1.00  0.00    -0.019 A 
ATOM     43  C   UNL     1     -48.135  32.309  26.518  1.00  0.00     0.007 A 
ATOM     44  C   UNL     1     -46.309  33.030  24.554  1.00  0.00    -0.049 A 
ATOM     45  H   UNL     1     -46.112  34.883  25.629  1.00  0.00     0.066 H 
ATOM     46  C   UNL     1     -47.854  31.404  25.502  1.00  0.00     0.076 A 
ATOM     47  H   UNL     1     -48.851  31.988  27.268  1.00  0.00     0.069 H 
ATOM     48  C   UNL     1     -46.933  31.773  24.506  1.00  0.00     0.001 A 
ATOM     49  H   UNL     1     -45.595  33.325  23.789  1.00  0.00     0.063 H 
ATOM     50  N   UNL     1     -48.467  30.207  25.508  1.00  0.00    -0.231 NA
ATOM     51  C   UNL     1     -46.676  30.855  23.487  1.00  0.00    -0.049 A 
ATOM     52  C   UNL     1     -48.205  29.320  24.531  1.00  0.00     0.126 A 
ATOM     53  C   UNL     1     -47.323  29.622  23.498  1.00  0.00    -0.019 A 
ATOM     54  H   UNL     1     -45.985  31.089  22.682  1.00  0.00     0.063 H 
ATOM     55  H   UNL     1     -47.144  28.911  22.699  1.00  0.00     0.066 H 
BRANCH  52  56
ATOM     56  N   UNL     1     -48.860  28.065  24.493  1.00  0.00    -0.367 N 
ATOM     57  H   UNL     1     -49.138  27.888  23.531  1.00  0.00     0.162 HD
BRANCH  56  58
ATOM     58  C   UNL     1     -48.462  26.843  25.133  1.00  0.00     0.028 C 
ATOM     59  C   UNL     1     -46.952  26.536  25.137  1.00  0.00    -0.033 C 
ATOM     60  C   UNL     1     -48.422  26.839  26.674  1.00  0.00    -0.033 C 
ATOM     61  H   UNL     1     -49.057  26.010  24.737  1.00  0.00     0.053 H 
ATOM     62  C   UNL     1     -47.149  25.970  26.561  1.00  0.00    -0.049 C 
ATOM     63  H   UNL     1     -46.622  25.807  24.391  1.00  0.00     0.029 H 
ATOM     64  H   UNL     1     -46.277  27.394  25.101  1.00  0.00     0.029 H 
ATOM     65  H   UNL     1     -49.271  26.350  27.159  1.00  0.00     0.029 H 
ATOM     66  H   UNL     1     -48.249  27.796  27.175  1.00  0.00     0.029 H 
ATOM     67  H   UNL     1     -46.353  26.199  27.274  1.00  0.00     0.027 H 
ATOM     68  H   UNL     1     -47.349  24.892  26.582  1.00  0.00     0.027 H 
ENDBRANCH  56  58
ENDBRANCH  52  56
ENDBRANCH  40  41
ENDBRANCH   1  40
TORSDOF 9
ENDMDL
MODEL 2
REMARK VINA RESULT:     -10.5      1.530      2.453
REMARK SMILES Nc1ncnc2c1c(-n1cccn1)cn2[C@@H]1C[C@@H](COc2ccc3ccc(NC4CCC4)nc3c2)[C@@H](O)[C@H]1F
REMARK SMILES IDX 19 1 18 4 16 5 17 6 38 7 36 11 39 12 15 16 2 17 3 18 7 19
REMARK SMILES IDX 4 20 6 21 8 22 5 23 14 25 1 27 9 30 10 31 13 32 11 33 12 35
REMARK SMILES IDX 37 38 20 40 21 41 22 42 35 43 23 44 34 46 24 48 33 50 25 51
REMARK SMILES IDX 27 52 26 53 28 56 29 58 30 59 32 60 31 62
REMARK H PARENT 19 2 19 3 16 8 17 9 17 10 38 13 18 14 36 15 4 24 14 26 1 28
REMARK H PARENT 1 29 10 34 11 36 12 37 37 39 22 45 35 47 23 49 25 54 26 55
REMARK H PARENT 28 57 29 61 30 63 30 64 32 65 32 66 31 67 31 68
REMARK Flexibility Score: inf
ROOT
ATOM      1  C   UNL     1     -48.308  35.445  27.335  1.00  0.00     0.094 C 
ATOM      2  H   UNL     1     -49.225  35.249  27.906  1.00  0.00     0.071 H 
ATOM      3  H   UNL     1     -48.621  35.464  26.284  1.00  0.00     0.071 H 
ENDROOT
BRANCH   1   4
ATOM      4  C   UNL     1     -47.664  36.773  27.720  1.00  0.00     0.024 C 
ATOM      5  C   UNL     1     -45.637  38.133  27.632  1.00  0.00     0.069 C 
ATOM      6  C   UNL     1     -46.511  37.177  26.791  1.00  0.00    -0.021 C 
ATOM      7  C   UNL     1     -46.229  38.110  29.049  1.00  0.00     0.147 C 
ATOM      8  H   UNL     1     -44.614  37.734  27.664  1.00  0.00     0.057 H 
ATOM      9  H   UNL     1     -46.882  37.616  25.858  1.00  0.00     0.029 H 
ATOM     10  H   UNL     1     -45.917  36.297  26.517  1.00  0.00     0.029 H 
ATOM     11  C   UNL     1     -47.016  36.801  29.104  1.00  0.00     0.093 C 
ATOM     12  F   UNL     1     -45.241  38.095  29.983  1.00  0.00    -0.242 F 
ATOM     13  H   UNL     1     -46.880  38.965  29.261  1.00  0.00     0.071 H 
ATOM     14  H   UNL     1     -48.426  37.562  27.704  1.00  0.00     0.037 H 
ATOM     15  H   UNL     1     -47.740  36.780  29.924  1.00  0.00     0.064 H 
BRANCH   5  16
ATOM     16  N   UNL     1     -45.533  39.475  27.078  1.00  0.00    -0.324 N 
ATOM     17  C   UNL     1     -47.024  42.532  26.073  1.00  0.00     0.138 A 
ATOM     18  N   UNL     1     -48.299  42.351  26.478  1.00  0.00    -0.219 NA
ATOM     19  C   UNL     1     -46.073  41.525  26.332  1.00  0.00     0.087 A 
ATOM     20  C   UNL     1     -48.625  41.194  27.076  1.00  0.00     0.120 A 
ATOM     21  C   UNL     1     -46.562  40.376  26.947  1.00  0.00     0.148 A 
ATOM     22  C   UNL     1     -44.670  41.310  26.143  1.00  0.00     0.095 A 
ATOM     23  N   UNL     1     -47.824  40.154  27.349  1.00  0.00    -0.218 NA
ATOM     24  H   UNL     1     -49.665  41.089  27.373  1.00  0.00     0.106 H 
ATOM     25  C   UNL     1     -44.376  40.031  26.589  1.00  0.00     0.033 A 
ATOM     26  H   UNL     1     -43.445  39.481  26.621  1.00  0.00     0.084 H 
BRANCH  17  27
ATOM     27  N   UNL     1     -46.750  43.712  25.408  1.00  0.00    -0.383 N 
ATOM     28  H   UNL     1     -47.563  44.312  25.256  1.00  0.00     0.158 HD
ATOM     29  H   UNL     1     -46.105  43.591  24.640  1.00  0.00     0.158 HD
ENDBRANCH  17  27
BRANCH  22  30
ATOM     30  N   UNL     1     -43.720  42.233  25.611  1.00  0.00    -0.239 N 
ATOM     31  C   UNL     1     -42.568  42.664  26.243  1.00  0.00     0.031 A 
ATOM     32  N   UNL     1     -43.856  42.844  24.402  1.00  0.00    -0.176 NA
ATOM     33  C   UNL     1     -41.944  43.557  25.407  1.00  0.00    -0.024 A 
ATOM     34  H   UNL     1     -42.292  42.295  27.219  1.00  0.00     0.084 H 
ATOM     35  C   UNL     1     -42.782  43.627  24.289  1.00  0.00     0.049 A 
ATOM     36  H   UNL     1     -41.016  44.083  25.584  1.00  0.00     0.066 H 
ATOM     37  H   UNL     1     -42.659  44.220  23.390  1.00  0.00     0.086 H 
ENDBRANCH  22  30
ENDBRANCH   5  16
BRANCH  11  38
ATOM     38  O   UNL     1     -46.116  35.702  29.260  1.00  0.00    -0.390 OA
ATOM     39  H   UNL     1     -45.439  35.802  28.562  1.00  0.00     0.211 HD
ENDBRANCH  11  38
ENDBRANCH   1   4
BRANCH   1  40
ATOM     40  O   UNL     1     -47.375  34.369  27.462  1.00  0.00    -0.493 OA
BRANCH  40  41
ATOM     41  C   UNL     1     -47.354  33.401  26.496  1.00  0.00     0.121 A 
ATOM     42  C   UNL     1     -46.528  33.685  25.409  1.00  0.00    -0.019 A 
ATOM     43  C   UNL     1     -48.050  32.190  26.521  1.00  0.00     0.007 A 
ATOM     44  C   UNL     1     -46.407  32.774  24.361  1.00  0.00    -0.049 A 
ATOM     45  H   UNL     1     -45.980  34.623  25.378  1.00  0.00     0.066 H 
ATOM     46  C   UNL     1     -47.938  31.260  25.497  1.00  0.00     0.076 A 
ATOM     47  H   UNL     1     -48.699  31.923  27.349  1.00  0.00     0.069 H 
ATOM     48  C   UNL     1     -47.109  31.560  24.401  1.00  0.00     0.001 A 
ATOM     49  H   UNL     1     -45.763  33.016  23.519  1.00  0.00     0.063 H 
ATOM     50  N   UNL     1     -48.620  30.104  25.588  1.00  0.00    -0.231 NA
ATOM     51  C   UNL     1     -47.022  30.617  23.377  1.00  0.00    -0.049 A 
ATOM     52  C   UNL     1     -48.521  29.193  24.604  1.00  0.00     0.126 A 
ATOM     53  C   UNL     1     -47.739  29.428  23.477  1.00  0.00    -0.019 A 
ATOM     54  H   UNL     1     -46.408  30.799  22.498  1.00  0.00     0.063 H 
ATOM     55  H   UNL     1     -47.692  28.699  22.675  1.00  0.00     0.066 H 
BRANCH  52  56
ATOM     56  N   UNL     1     -49.252  27.982  24.657  1.00  0.00    -0.367 N 
ATOM     57  H   UNL     1     -49.889  27.967  23.865  1.00  0.00     0.162 HD
BRANCH  56  58
ATOM     58  C   UNL     1     -48.755  26.662  24.925  1.00  0.00     0.028 C 
ATOM     59  C   UNL     1     -47.652  26.553  25.996  1.00  0.00    -0.033 C 
ATOM     60  C   UNL     1     -49.633  25.746  25.800  1.00  0.00    -0.033 C 
ATOM     61  H   UNL     1     -48.470  26.177  23.982  1.00  0.00     0.053 H 
ATOM     62  C   UNL     1     -48.324  25.236  26.445  1.00  0.00    -0.049 C 
ATOM     63  H   UNL     1     -46.635  26.446  25.610  1.00  0.00     0.029 H 
ATOM     64  H   UNL     1     -47.646  27.323  26.773  1.00  0.00     0.029 H 
ATOM     65  H   UNL     1     -50.201  24.987  25.254  1.00  0.00     0.029 H 
ATOM     66  H   UNL     1     -50.308  26.227  26.514  1.00  0.00     0.029 H 
ATOM     67  H   UNL     1     -48.360  25.068  27.524  1.00  0.00     0.027 H 
ATOM     68  H   UNL     1     -47.911  24.345  25.957  1.00  0.00     0.027 H 
ENDBRANCH  56  58
ENDBRANCH  52  56
ENDBRANCH  40  41
ENDBRANCH   1  40
TORSDOF 9
ENDMDL
MODEL 3
REMARK VINA RESULT:     -10.4      1.714      2.398
REMARK SMILES Nc1ncnc2c1c(-n1cccn1)cn2[C@@H]1C[C@@H](COc2ccc3ccc(NC4CCC4)nc3c2)[C@@H](O)[C@H]1F
REMARK SMILES IDX 19 1 18 4 16 5 17 6 38 7 36 11 39 12 15 16 2 17 3 18 7 19
REMARK SMILES IDX 4 20 6 21 8 22 5 23 14 25 1 27 9 30 10 31 13 32 11 33 12 35
REMARK SMILES IDX 37 38 20 40 21 41 22 42 35 43 23 44 34 46 24 48 33 50 25 51
REMARK SMILES IDX 27 52 26 53 28 56 29 58 30 59 32 60 31 62
REMARK H PARENT 19 2 19 3 16 8 17 9 17 10 38 13 18 14 36 15 4 24 14 26 1 28
REMARK H PARENT 1 29 10 34 11 36 12 37 37 39 22 45 35 47 23 49 25 54 26 55
REMARK H PARENT 28 57 29 61 30 63 30 64 32 65 32 66 31 67 31 68
REMARK Flexibility Score: inf
ROOT
ATOM      1  C   UNL     1     -48.628  36.136  27.309  1.00  0.00     0.094 C 
ATOM      2  H   UNL     1     -49.677  36.263  27.607  1.00  0.00     0.071 H 
ATOM      3  H   UNL     1     -48.631  36.190  26.214  1.00  0.00     0.071 H 
ENDROOT
BRANCH   1   4
ATOM      4  C   UNL     1     -47.730  37.223  27.892  1.00  0.00     0.024 C 
ATOM      5  C   UNL     1     -45.435  38.018  28.155  1.00  0.00     0.069 C 
ATOM      6  C   UNL     1     -46.405  37.381  27.135  1.00  0.00    -0.021 C 
ATOM      7  C   UNL     1     -46.190  38.049  29.491  1.00  0.00     0.147 C 
ATOM      8  H   UNL     1     -44.556  37.368  28.253  1.00  0.00     0.057 H 
ATOM      9  H   UNL     1     -46.533  37.964  26.216  1.00  0.00     0.029 H 
ATOM     10  H   UNL     1     -46.017  36.399  26.838  1.00  0.00     0.029 H 
ATOM     11  C   UNL     1     -47.277  36.986  29.332  1.00  0.00     0.093 C 
ATOM     12  F   UNL     1     -45.364  37.713  30.518  1.00  0.00    -0.242 F 
ATOM     13  H   UNL     1     -46.631  39.025  29.718  1.00  0.00     0.071 H 
ATOM     14  H   UNL     1     -48.265  38.180  27.875  1.00  0.00     0.037 H 
ATOM     15  H   UNL     1     -48.082  37.095  30.065  1.00  0.00     0.064 H 
BRANCH   5  16
ATOM     16  N   UNL     1     -44.933  39.323  27.751  1.00  0.00    -0.324 N 
ATOM     17  C   UNL     1     -42.811  42.117  28.266  1.00  0.00     0.138 A 
ATOM     18  N   UNL     1     -42.079  41.703  29.323  1.00  0.00    -0.219 NA
ATOM     19  C   UNL     1     -43.773  41.247  27.716  1.00  0.00     0.087 A 
ATOM     20  C   UNL     1     -42.328  40.489  29.841  1.00  0.00     0.120 A 
ATOM     21  C   UNL     1     -43.928  40.027  28.368  1.00  0.00     0.148 A 
ATOM     22  C   UNL     1     -44.697  41.235  26.623  1.00  0.00     0.095 A 
ATOM     23  N   UNL     1     -43.232  39.589  29.429  1.00  0.00    -0.218 NA
ATOM     24  H   UNL     1     -41.724  40.206  30.698  1.00  0.00     0.106 H 
ATOM     25  C   UNL     1     -45.412  40.050  26.688  1.00  0.00     0.033 A 
ATOM     26  H   UNL     1     -46.200  39.653  26.061  1.00  0.00     0.084 H 
BRANCH  17  27
ATOM     27  N   UNL     1     -42.561  43.396  27.806  1.00  0.00    -0.383 N 
ATOM     28  H   UNL     1     -41.855  43.452  27.069  1.00  0.00     0.158 HD
ATOM     29  H   UNL     1     -42.520  44.080  28.548  1.00  0.00     0.158 HD
ENDBRANCH  17  27
BRANCH  22  30
ATOM     30  N   UNL     1     -44.862  42.239  25.622  1.00  0.00    -0.239 N 
ATOM     31  C   UNL     1     -44.106  42.368  24.470  1.00  0.00     0.031 A 
ATOM     32  N   UNL     1     -45.782  43.240  25.700  1.00  0.00    -0.176 NA
ATOM     33  C   UNL     1     -44.570  43.466  23.788  1.00  0.00    -0.024 A 
ATOM     34  H   UNL     1     -43.318  41.669  24.237  1.00  0.00     0.084 H 
ATOM     35  C   UNL     1     -45.603  43.961  24.592  1.00  0.00     0.049 A 
ATOM     36  H   UNL     1     -44.210  43.852  22.845  1.00  0.00     0.066 H 
ATOM     37  H   UNL     1     -46.236  44.823  24.420  1.00  0.00     0.086 H 
ENDBRANCH  22  30
ENDBRANCH   5  16
BRANCH  11  38
ATOM     38  O   UNL     1     -46.704  35.684  29.471  1.00  0.00    -0.390 OA
ATOM     39  H   UNL     1     -47.400  35.049  29.208  1.00  0.00     0.211 HD
ENDBRANCH  11  38
ENDBRANCH   1   4
BRANCH   1  40
ATOM     40  O   UNL     1     -48.143  34.835  27.651  1.00  0.00    -0.493 OA
BRANCH  40  41
ATOM     41  C   UNL     1     -47.822  33.968  26.643  1.00  0.00     0.121 A 
ATOM     42  C   UNL     1     -46.476  33.975  26.279  1.00  0.00    -0.019 A 
ATOM     43  C   UNL     1     -48.698  33.097  25.990  1.00  0.00     0.007 A 
ATOM     44  C   UNL     1     -46.015  33.129  25.273  1.00  0.00    -0.049 A 
ATOM     45  H   UNL     1     -45.785  34.648  26.780  1.00  0.00     0.066 H 
ATOM     46  C   UNL     1     -48.263  32.234  24.993  1.00  0.00     0.076 A 
ATOM     47  H   UNL     1     -49.752  33.051  26.244  1.00  0.00     0.069 H 
ATOM     48  C   UNL     1     -46.905  32.256  24.628  1.00  0.00     0.001 A 
ATOM     49  H   UNL     1     -44.963  33.154  24.998  1.00  0.00     0.063 H 
ATOM     50  N   UNL     1     -49.150  31.406  24.415  1.00  0.00    -0.231 NA
ATOM     51  C   UNL     1     -46.492  31.390  23.614  1.00  0.00    -0.049 A 
ATOM     52  C   UNL     1     -48.744  30.564  23.448  1.00  0.00     0.126 A 
ATOM     53  C   UNL     1     -47.422  30.543  23.016  1.00  0.00    -0.019 A 
ATOM     54  H   UNL     1     -45.458  31.371  23.279  1.00  0.00     0.063 H 
ATOM     55  H   UNL     1     -47.113  29.882  22.213  1.00  0.00     0.066 H 
BRANCH  52  56
ATOM     56  N   UNL     1     -49.663  29.704  22.799  1.00  0.00    -0.367 N 
ATOM     57  H   UNL     1     -50.348  29.401  23.487  1.00  0.00     0.162 HD
BRANCH  56  58
ATOM     58  C   UNL     1     -50.284  29.884  21.518  1.00  0.00     0.028 C 
ATOM     59  C   UNL     1     -50.245  31.310  20.935  1.00  0.00    -0.033 C 
ATOM     60  C   UNL     1     -49.497  29.405  20.282  1.00  0.00    -0.033 C 
ATOM     61  H   UNL     1     -51.301  29.470  21.540  1.00  0.00     0.053 H 
ATOM     62  C   UNL     1     -50.034  30.657  19.551  1.00  0.00    -0.049 C 
ATOM     63  H   UNL     1     -51.171  31.883  21.040  1.00  0.00     0.029 H 
ATOM     64  H   UNL     1     -49.411  31.944  21.247  1.00  0.00     0.029 H 
ATOM     65  H   UNL     1     -49.827  28.451  19.862  1.00  0.00     0.029 H 
ATOM     66  H   UNL     1     -48.406  29.384  20.358  1.00  0.00     0.029 H 
ATOM     67  H   UNL     1     -49.324  31.164  18.893  1.00  0.00     0.027 H 
ATOM     68  H   UNL     1     -50.967  30.479  19.002  1.00  0.00     0.027 H 
ENDBRANCH  56  58
ENDBRANCH  52  56
ENDBRANCH  40  41
ENDBRANCH   1  40
TORSDOF 9
ENDMDL
MODEL 4
REMARK VINA RESULT:     -10.1      2.072     11.880
REMARK SMILES Nc1ncnc2c1c(-n1cccn1)cn2[C@@H]1C[C@@H](COc2ccc3ccc(NC4CCC4)nc3c2)[C@@H](O)[C@H]1F
REMARK SMILES IDX 19 1 18 4 16 5 17 6 38 7 36 11 39 12 15 16 2 17 3 18 7 19
REMARK SMILES IDX 4 20 6 21 8 22 5 23 14 25 1 27 9 30 10 31 13 32 11 33 12 35
REMARK SMILES IDX 37 38 20 40 21 41 22 42 35 43 23 44 34 46 24 48 33 50 25 51
REMARK SMILES IDX 27 52 26 53 28 56 29 58 30 59 32 60 31 62
REMARK H PARENT 19 2 19 3 16 8 17 9 17 10 38 13 18 14 36 15 4 24 14 26 1 28
REMARK H PARENT 1 29 10 34 11 36 12 37 37 39 22 45 35 47 23 49 25 54 26 55
REMARK H PARENT 28 57 29 61 30 63 30 64 32 65 32 66 31 67 31 68
REMARK Flexibility Score: inf
ROOT
ATOM      1  C   UNL     1     -45.444  35.181  27.741  1.00  0.00     0.094 C 
ATOM      2  H   UNL     1     -44.646  34.691  28.314  1.00  0.00     0.071 H 
ATOM      3  H   UNL     1     -44.946  35.610  26.863  1.00  0.00     0.071 H 
ENDROOT
BRANCH   1   4
ATOM      4  C   UNL     1     -46.528  34.199  27.309  1.00  0.00     0.024 C 
ATOM      5  C   UNL     1     -47.800  33.296  25.430  1.00  0.00     0.069 C 
ATOM      6  C   UNL     1     -46.383  33.742  25.851  1.00  0.00    -0.021 C 
ATOM      7  C   UNL     1     -48.724  33.664  26.600  1.00  0.00     0.147 C 
ATOM      8  H   UNL     1     -48.098  33.871  24.542  1.00  0.00     0.057 H 
ATOM      9  H   UNL     1     -45.620  32.963  25.748  1.00  0.00     0.029 H 
ATOM     10  H   UNL     1     -46.070  34.582  25.219  1.00  0.00     0.029 H 
ATOM     11  C   UNL     1     -47.955  34.745  27.358  1.00  0.00     0.093 C 
ATOM     12  F   UNL     1     -49.900  34.170  26.143  1.00  0.00    -0.242 F 
ATOM     13  H   UNL     1     -48.953  32.817  27.255  1.00  0.00     0.071 H 
ATOM     14  H   UNL     1     -46.497  33.318  27.962  1.00  0.00     0.037 H 
ATOM     15  H   UNL     1     -48.329  34.893  28.375  1.00  0.00     0.064 H 
BRANCH   5  16
ATOM     16  N   UNL     1     -47.887  31.893  25.053  1.00  0.00    -0.324 N 
ATOM     17  C   UNL     1     -47.098  29.224  22.856  1.00  0.00     0.138 A 
ATOM     18  N   UNL     1     -46.248  29.829  21.998  1.00  0.00    -0.219 NA
ATOM     19  C   UNL     1     -47.623  29.962  23.935  1.00  0.00     0.087 A 
ATOM     20  C   UNL     1     -45.968  31.129  22.181  1.00  0.00     0.120 A 
ATOM     21  C   UNL     1     -47.253  31.302  23.987  1.00  0.00     0.148 A 
ATOM     22  C   UNL     1     -48.474  29.738  25.065  1.00  0.00     0.095 A 
ATOM     23  N   UNL     1     -46.425  31.941  23.144  1.00  0.00    -0.218 NA
ATOM     24  H   UNL     1     -45.290  31.575  21.459  1.00  0.00     0.106 H 
ATOM     25  C   UNL     1     -48.635  30.951  25.716  1.00  0.00     0.033 A 
ATOM     26  H   UNL     1     -49.197  31.218  26.602  1.00  0.00     0.084 H 
BRANCH  17  27
ATOM     27  N   UNL     1     -47.404  27.903  22.592  1.00  0.00    -0.383 N 
ATOM     28  H   UNL     1     -47.802  27.736  21.665  1.00  0.00     0.158 HD
ATOM     29  H   UNL     1     -47.830  27.432  23.377  1.00  0.00     0.158 HD
ENDBRANCH  17  27
BRANCH  22  30
ATOM     30  N   UNL     1     -49.050  28.501  25.479  1.00  0.00    -0.239 N 
ATOM     31  C   UNL     1     -48.638  27.734  26.554  1.00  0.00     0.031 A 
ATOM     32  N   UNL     1     -50.078  27.890  24.827  1.00  0.00    -0.176 NA
ATOM     33  C   UNL     1     -49.436  26.617  26.600  1.00  0.00    -0.024 A 
ATOM     34  H   UNL     1     -47.826  28.052  27.190  1.00  0.00     0.084 H 
ATOM     35  C   UNL     1     -50.304  26.769  25.514  1.00  0.00     0.049 A 
ATOM     36  H   UNL     1     -49.393  25.809  27.317  1.00  0.00     0.066 H 
ATOM     37  H   UNL     1     -51.097  26.106  25.187  1.00  0.00     0.086 H 
ENDBRANCH  22  30
ENDBRANCH   5  16
BRANCH  11  38
ATOM     38  O   UNL     1     -48.042  35.986  26.654  1.00  0.00    -0.390 OA
ATOM     39  H   UNL     1     -48.616  35.821  25.880  1.00  0.00     0.211 HD
ENDBRANCH  11  38
ENDBRANCH   1   4
BRANCH   1  40
ATOM     40  O   UNL     1     -46.008  36.278  28.465  1.00  0.00    -0.493 OA
BRANCH  40  41
ATOM     41  C   UNL     1     -45.392  37.497  28.397  1.00  0.00     0.121 A 
ATOM     42  C   UNL     1     -44.550  37.782  29.471  1.00  0.00    -0.019 A 
ATOM     43  C   UNL     1     -45.519  38.432  27.367  1.00  0.00     0.007 A 
ATOM     44  C   UNL     1     -43.852  38.987  29.518  1.00  0.00    -0.049 A 
ATOM     45  H   UNL     1     -44.442  37.062  30.278  1.00  0.00     0.066 H 
ATOM     46  C   UNL     1     -44.825  39.635  27.382  1.00  0.00     0.076 A 
ATOM     47  H   UNL     1     -46.157  38.251  26.508  1.00  0.00     0.069 H 
ATOM     48  C   UNL     1     -43.986  39.916  28.474  1.00  0.00     0.001 A 
ATOM     49  H   UNL     1     -43.205  39.194  30.367  1.00  0.00     0.063 H 
ATOM     50  N   UNL     1     -44.975  40.486  26.352  1.00  0.00    -0.231 NA
ATOM     51  C   UNL     1     -43.308  41.137  28.475  1.00  0.00    -0.049 A 
ATOM     52  C   UNL     1     -44.309  41.655  26.351  1.00  0.00     0.126 A 
ATOM     53  C   UNL     1     -43.478  42.014  27.408  1.00  0.00    -0.019 A 
ATOM     54  H   UNL     1     -42.657  41.415  29.299  1.00  0.00     0.063 H 
ATOM     55  H   UNL     1     -42.972  42.974  27.411  1.00  0.00     0.066 H 
BRANCH  52  56
ATOM     56  N   UNL     1     -44.473  42.586  25.296  1.00  0.00    -0.367 N 
ATOM     57  H   UNL     1     -44.673  43.493  25.709  1.00  0.00     0.162 HD
BRANCH  56  58
ATOM     58  C   UNL     1     -43.663  42.737  24.121  1.00  0.00     0.028 C 
ATOM     59  C   UNL     1     -44.158  43.757  23.077  1.00  0.00    -0.033 C 
ATOM     60  C   UNL     1     -42.374  43.571  24.259  1.00  0.00    -0.033 C 
ATOM     61  H   UNL     1     -43.466  41.751  23.680  1.00  0.00     0.053 H 
ATOM     62  C   UNL     1     -42.676  44.129  22.850  1.00  0.00    -0.049 C 
ATOM     63  H   UNL     1     -44.667  43.328  22.209  1.00  0.00     0.029 H 
ATOM     64  H   UNL     1     -44.761  44.588  23.452  1.00  0.00     0.029 H 
ATOM     65  H   UNL     1     -41.450  42.990  24.335  1.00  0.00     0.029 H 
ATOM     66  H   UNL     1     -42.355  44.342  25.035  1.00  0.00     0.029 H 
ATOM     67  H   UNL     1     -42.473  45.193  22.707  1.00  0.00     0.027 H 
ATOM     68  H   UNL     1     -42.200  43.562  22.041  1.00  0.00     0.027 H 
ENDBRANCH  56  58
ENDBRANCH  52  56
ENDBRANCH  40  41
ENDBRANCH   1  40
TORSDOF 9
ENDMDL
MODEL 5
REMARK VINA RESULT:      -9.8      2.188      2.996
REMARK SMILES Nc1ncnc2c1c(-n1cccn1)cn2[C@@H]1C[C@@H](COc2ccc3ccc(NC4CCC4)nc3c2)[C@@H](O)[C@H]1F
REMARK SMILES IDX 19 1 18 4 16 5 17 6 38 7 36 11 39 12 15 16 2 17 3 18 7 19
REMARK SMILES IDX 4 20 6 21 8 22 5 23 14 25 1 27 9 30 10 31 13 32 11 33 12 35
REMARK SMILES IDX 37 38 20 40 21 41 22 42 35 43 23 44 34 46 24 48 33 50 25 51
REMARK SMILES IDX 27 52 26 53 28 56 29 58 30 59 32 60 31 62
REMARK H PARENT 19 2 19 3 16 8 17 9 17 10 38 13 18 14 36 15 4 24 14 26 1 28
REMARK H PARENT 1 29 10 34 11 36 12 37 37 39 22 45 35 47 23 49 25 54 26 55
REMARK H PARENT 28 57 29 61 30 63 30 64 32 65 32 66 31 67 31 68
REMARK Flexibility Score: inf
ROOT
ATOM      1  C   UNL     1     -47.858  34.759  27.119  1.00  0.00     0.094 C 
ATOM      2  H   UNL     1     -47.810  34.010  27.921  1.00  0.00     0.071 H 
ATOM      3  H   UNL     1     -48.880  34.695  26.727  1.00  0.00     0.071 H 
ENDROOT
BRANCH   1   4
ATOM      4  C   UNL     1     -47.572  36.167  27.630  1.00  0.00     0.024 C 
ATOM      5  C   UNL     1     -46.174  38.156  27.390  1.00  0.00     0.069 C 
ATOM      6  C   UNL     1     -46.912  37.069  26.578  1.00  0.00    -0.021 C 
ATOM      7  C   UNL     1     -46.304  37.743  28.864  1.00  0.00     0.147 C 
ATOM      8  H   UNL     1     -45.113  38.143  27.106  1.00  0.00     0.057 H 
ATOM      9  H   UNL     1     -47.647  37.464  25.869  1.00  0.00     0.029 H 
ATOM     10  H   UNL     1     -46.179  36.499  25.995  1.00  0.00     0.029 H 
ATOM     11  C   UNL     1     -46.600  36.245  28.808  1.00  0.00     0.093 C 
ATOM     12  F   UNL     1     -45.137  37.958  29.528  1.00  0.00    -0.242 F 
ATOM     13  H   UNL     1     -47.098  38.277  29.395  1.00  0.00     0.071 H 
ATOM     14  H   UNL     1     -48.511  36.630  27.955  1.00  0.00     0.037 H 
ATOM     15  H   UNL     1     -47.020  35.864  29.743  1.00  0.00     0.064 H 
BRANCH   5  16
ATOM     16  N   UNL     1     -46.649  39.507  27.131  1.00  0.00    -0.324 N 
ATOM     17  C   UNL     1     -46.113  42.799  25.928  1.00  0.00     0.138 A 
ATOM     18  N   UNL     1     -44.875  42.690  25.400  1.00  0.00    -0.219 NA
ATOM     19  C   UNL     1     -46.721  41.659  26.490  1.00  0.00     0.087 A 
ATOM     20  C   UNL     1     -44.248  41.505  25.471  1.00  0.00     0.120 A 
ATOM     21  C   UNL     1     -45.944  40.505  26.505  1.00  0.00     0.148 A 
ATOM     22  C   UNL     1     -47.972  41.305  27.089  1.00  0.00     0.095 A 
ATOM     23  N   UNL     1     -44.705  40.364  26.006  1.00  0.00    -0.218 NA
ATOM     24  H   UNL     1     -43.249  41.469  25.045  1.00  0.00     0.106 H 
ATOM     25  C   UNL     1     -47.886  39.982  27.494  1.00  0.00     0.033 A 
ATOM     26  H   UNL     1     -48.601  39.336  27.987  1.00  0.00     0.084 H 
BRANCH  17  27
ATOM     27  N   UNL     1     -46.693  44.052  25.885  1.00  0.00    -0.383 N 
ATOM     28  H   UNL     1     -46.463  44.599  25.053  1.00  0.00     0.158 HD
ATOM     29  H   UNL     1     -46.675  44.525  26.777  1.00  0.00     0.158 HD
ENDBRANCH  17  27
BRANCH  22  30
ATOM     30  N   UNL     1     -49.123  42.136  27.238  1.00  0.00    -0.239 N 
ATOM     31  C   UNL     1     -50.360  41.920  26.657  1.00  0.00     0.031 A 
ATOM     32  N   UNL     1     -49.132  43.291  27.959  1.00  0.00    -0.176 NA
ATOM     33  C   UNL     1     -51.182  42.953  27.034  1.00  0.00    -0.024 A 
ATOM     34  H   UNL     1     -50.545  41.055  26.039  1.00  0.00     0.084 H 
ATOM     35  C   UNL     1     -50.373  43.765  27.836  1.00  0.00     0.049 A 
ATOM     36  H   UNL     1     -52.219  43.097  26.764  1.00  0.00     0.066 H 
ATOM     37  H   UNL     1     -50.633  44.689  28.338  1.00  0.00     0.086 H 
ENDBRANCH  22  30
ENDBRANCH   5  16
BRANCH  11  38
ATOM     38  O   UNL     1     -45.400  35.525  28.517  1.00  0.00    -0.390 OA
ATOM     39  H   UNL     1     -45.578  34.591  28.747  1.00  0.00     0.211 HD
ENDBRANCH  11  38
ENDBRANCH   1   4
BRANCH   1  40
ATOM     40  O   UNL     1     -46.985  34.421  26.037  1.00  0.00    -0.493 OA
BRANCH  40  41
ATOM     41  C   UNL     1     -47.098  33.184  25.464  1.00  0.00     0.121 A 
ATOM     42  C   UNL     1     -46.283  32.986  24.350  1.00  0.00    -0.019 A 
ATOM     43  C   UNL     1     -47.916  32.140  25.901  1.00  0.00     0.007 A 
ATOM     44  C   UNL     1     -46.293  31.765  23.680  1.00  0.00    -0.049 A 
ATOM     45  H   UNL     1     -45.641  33.790  24.001  1.00  0.00     0.066 H 
ATOM     46  C   UNL     1     -47.936  30.909  25.260  1.00  0.00     0.076 A 
ATOM     47  H   UNL     1     -48.562  32.246  26.767  1.00  0.00     0.069 H 
ATOM     48  C   UNL     1     -47.117  30.722  24.132  1.00  0.00     0.001 A 
ATOM     49  H   UNL     1     -45.656  31.631  22.809  1.00  0.00     0.063 H 
ATOM     50  N   UNL     1     -48.732  29.937  25.740  1.00  0.00    -0.231 NA
ATOM     51  C   UNL     1     -47.163  29.482  23.495  1.00  0.00    -0.049 A 
ATOM     52  C   UNL     1     -48.762  28.738  25.130  1.00  0.00     0.126 A 
ATOM     53  C   UNL     1     -47.998  28.485  23.995  1.00  0.00    -0.019 A 
ATOM     54  H   UNL     1     -46.563  29.283  22.610  1.00  0.00     0.063 H 
ATOM     55  H   UNL     1     -48.054  27.525  23.493  1.00  0.00     0.066 H 
BRANCH  52  56
ATOM     56  N   UNL     1     -49.614  27.707  25.593  1.00  0.00    -0.367 N 
ATOM     57  H   UNL     1     -50.177  27.391  24.807  1.00  0.00     0.162 HD
BRANCH  56  58
ATOM     58  C   UNL     1     -49.279  26.602  26.445  1.00  0.00     0.028 C 
ATOM     59  C   UNL     1     -49.045  25.248  25.748  1.00  0.00    -0.033 C 
ATOM     60  C   UNL     1     -47.829  26.533  26.966  1.00  0.00    -0.033 C 
ATOM     61  H   UNL     1     -50.010  26.531  27.261  1.00  0.00     0.053 H 
ATOM     62  C   UNL     1     -47.914  25.002  26.771  1.00  0.00    -0.049 C 
ATOM     63  H   UNL     1     -49.881  24.544  25.803  1.00  0.00     0.029 H 
ATOM     64  H   UNL     1     -48.694  25.283  24.714  1.00  0.00     0.029 H 
ATOM     65  H   UNL     1     -47.692  26.857  28.002  1.00  0.00     0.029 H 
ATOM     66  H   UNL     1     -47.053  27.004  26.356  1.00  0.00     0.029 H 
ATOM     67  H   UNL     1     -47.015  24.523  26.375  1.00  0.00     0.027 H 
ATOM     68  H   UNL     1     -48.243  24.462  27.667  1.00  0.00     0.027 H 
ENDBRANCH  56  58
ENDBRANCH  52  56
ENDBRANCH  40  41
ENDBRANCH   1  40
TORSDOF 9
ENDMDL
