MODEL 1
REMARK VINA RESULT:     -10.6      0.000      0.000
REMARK SMILES Nc1ccc2ccc(OCc3cccc(-n4cc(Cl)c5c(N)ncnc54)c3)cc2n1
REMARK SMILES IDX 10 1 9 4 8 5 2 6 3 7 30 8 4 9 29 11 5 12 28 14 6 15 7 17
REMARK SMILES IDX 1 20 11 23 12 24 27 25 13 26 15 28 14 30 16 33 17 34 26 35
REMARK SMILES IDX 18 36 20 38 25 39 19 40 21 41 24 42 23 43 22 45
REMARK H PARENT 10 2 10 3 3 10 4 13 28 16 6 18 7 19 1 21 1 22 12 27 27 29
REMARK H PARENT 13 31 14 32 17 37 24 44 22 46 22 47
REMARK Flexibility Score: inf
ROOT
ATOM      1  C   UNL     1     -46.033  34.599  27.445  1.00  0.00     0.113 C 
ATOM      2  H   UNL     1     -45.906  33.728  28.100  1.00  0.00     0.076 H 
ATOM      3  H   UNL     1     -45.256  34.515  26.675  1.00  0.00     0.076 H 
ENDROOT
BRANCH   1   4
ATOM      4  O   UNL     1     -47.338  34.487  26.868  1.00  0.00    -0.489 OA
BRANCH   4   5
ATOM      5  C   UNL     1     -47.587  33.453  26.009  1.00  0.00     0.122 A 
ATOM      6  C   UNL     1     -46.461  30.239  22.702  1.00  0.00     0.124 A 
ATOM      7  C   UNL     1     -47.753  29.744  22.646  1.00  0.00    -0.019 A 
ATOM      8  N   UNL     1     -46.097  31.248  23.510  1.00  0.00    -0.231 NA
ATOM      9  C   UNL     1     -48.718  30.308  23.473  1.00  0.00    -0.049 A 
ATOM     10  H   UNL     1     -48.010  28.942  21.963  1.00  0.00     0.066 H 
ATOM     11  C   UNL     1     -47.028  31.801  24.310  1.00  0.00     0.076 A 
ATOM     12  C   UNL     1     -48.365  31.356  24.327  1.00  0.00     0.001 A 
ATOM     13  H   UNL     1     -49.737  29.932  23.438  1.00  0.00     0.063 H 
ATOM     14  C   UNL     1     -46.665  32.848  25.152  1.00  0.00     0.007 A 
ATOM     15  C   UNL     1     -49.301  31.963  25.177  1.00  0.00    -0.049 A 
ATOM     16  H   UNL     1     -45.635  33.179  25.101  1.00  0.00     0.069 H 
ATOM     17  C   UNL     1     -48.908  33.007  26.012  1.00  0.00    -0.019 A 
ATOM     18  H   UNL     1     -50.336  31.629  25.194  1.00  0.00     0.063 H 
ATOM     19  H   UNL     1     -49.637  33.476  26.670  1.00  0.00     0.066 H 
BRANCH   6  20
ATOM     20  N   UNL     1     -45.469  29.715  21.877  1.00  0.00    -0.384 N 
ATOM     21  H   UNL     1     -45.117  30.409  21.229  1.00  0.00     0.158 HD
ATOM     22  H   UNL     1     -45.879  28.919  21.394  1.00  0.00     0.158 HD
ENDBRANCH   6  20
ENDBRANCH   4   5
ENDBRANCH   1   4
BRANCH   1  23
ATOM     23  C   UNL     1     -45.861  35.835  28.302  1.00  0.00    -0.009 A 
ATOM     24  C   UNL     1     -46.215  35.794  29.655  1.00  0.00    -0.055 A 
ATOM     25  C   UNL     1     -45.405  37.047  27.753  1.00  0.00    -0.031 A 
ATOM     26  C   UNL     1     -46.090  36.934  30.445  1.00  0.00    -0.060 A 
ATOM     27  H   UNL     1     -46.586  34.876  30.104  1.00  0.00     0.063 H 
ATOM     28  C   UNL     1     -45.271  38.204  28.541  1.00  0.00     0.047 A 
ATOM     29  H   UNL     1     -45.179  37.056  26.690  1.00  0.00     0.065 H 
ATOM     30  C   UNL     1     -45.620  38.130  29.894  1.00  0.00    -0.038 A 
ATOM     31  H   UNL     1     -46.354  36.894  31.499  1.00  0.00     0.062 H 
ATOM     32  H   UNL     1     -45.518  38.974  30.568  1.00  0.00     0.064 H 
BRANCH  28  33
ATOM     33  N   UNL     1     -44.778  39.424  27.961  1.00  0.00    -0.300 N 
ATOM     34  C   UNL     1     -45.265  39.998  26.796  1.00  0.00     0.030 A 
ATOM     35  C   UNL     1     -43.750  40.250  28.428  1.00  0.00     0.151 A 
ATOM     36  C   UNL     1     -44.558  41.144  26.525  1.00  0.00     0.072 A 
ATOM     37  H   UNL     1     -46.055  39.540  26.222  1.00  0.00     0.084 H 
ATOM     38  C   UNL     1     -43.597  41.319  27.544  1.00  0.00     0.080 A 
ATOM     39  N   UNL     1     -43.030  40.082  29.556  1.00  0.00    -0.218 NA
ATOM     40  Cl  UNL     1     -44.810  42.169  25.191  1.00  0.00    -0.082 Cl
ATOM     41  C   UNL     1     -42.603  42.262  27.846  1.00  0.00     0.137 A 
ATOM     42  C   UNL     1     -42.120  41.046  29.744  1.00  0.00     0.120 A 
ATOM     43  N   UNL     1     -41.874  42.111  28.966  1.00  0.00    -0.219 NA
ATOM     44  H   UNL     1     -41.507  40.958  30.637  1.00  0.00     0.106 H 
BRANCH  41  45
ATOM     45  N   UNL     1     -42.321  43.370  27.065  1.00  0.00    -0.383 N 
ATOM     46  H   UNL     1     -42.879  44.195  27.245  1.00  0.00     0.158 HD
ATOM     47  H   UNL     1     -41.325  43.500  26.940  1.00  0.00     0.158 HD
ENDBRANCH  41  45
ENDBRANCH  28  33
ENDBRANCH   1  23
TORSDOF 6
ENDMDL
MODEL 2
REMARK VINA RESULT:     -10.4      1.662      2.245
REMARK SMILES Nc1ccc2ccc(OCc3cccc(-n4cc(Cl)c5c(N)ncnc54)c3)cc2n1
REMARK SMILES IDX 10 1 9 4 8 5 2 6 3 7 30 8 4 9 29 11 5 12 28 14 6 15 7 17
REMARK SMILES IDX 1 20 11 23 12 24 27 25 13 26 15 28 14 30 16 33 17 34 26 35
REMARK SMILES IDX 18 36 20 38 25 39 19 40 21 41 24 42 23 43 22 45
REMARK H PARENT 10 2 10 3 3 10 4 13 28 16 6 18 7 19 1 21 1 22 12 27 27 29
REMARK H PARENT 13 31 14 32 17 37 24 44 22 46 22 47
REMARK Flexibility Score: inf
ROOT
ATOM      1  C   UNL     1     -46.243  34.396  27.098  1.00  0.00     0.113 C 
ATOM      2  H   UNL     1     -45.544  34.049  27.868  1.00  0.00     0.076 H 
ATOM      3  H   UNL     1     -45.701  34.333  26.146  1.00  0.00     0.076 H 
ENDROOT
BRANCH   1   4
ATOM      4  O   UNL     1     -47.350  33.490  27.117  1.00  0.00    -0.489 OA
BRANCH   4   5
ATOM      5  C   UNL     1     -47.498  32.615  26.077  1.00  0.00     0.122 A 
ATOM      6  C   UNL     1     -46.536  30.831  21.785  1.00  0.00     0.124 A 
ATOM      7  C   UNL     1     -47.495  29.840  21.906  1.00  0.00    -0.019 A 
ATOM      8  N   UNL     1     -46.299  31.743  22.741  1.00  0.00    -0.231 NA
ATOM      9  C   UNL     1     -48.242  29.776  23.079  1.00  0.00    -0.049 A 
ATOM     10  H   UNL     1     -47.671  29.136  21.101  1.00  0.00     0.066 H 
ATOM     11  C   UNL     1     -47.021  31.689  23.876  1.00  0.00     0.076 A 
ATOM     12  C   UNL     1     -48.011  30.710  24.092  1.00  0.00     0.001 A 
ATOM     13  H   UNL     1     -49.000  29.006  23.188  1.00  0.00     0.063 H 
ATOM     14  C   UNL     1     -46.786  32.628  24.876  1.00  0.00     0.007 A 
ATOM     15  C   UNL     1     -48.738  30.694  25.291  1.00  0.00    -0.049 A 
ATOM     16  H   UNL     1     -46.031  33.379  24.671  1.00  0.00     0.069 H 
ATOM     17  C   UNL     1     -48.479  31.644  26.276  1.00  0.00    -0.019 A 
ATOM     18  H   UNL     1     -49.508  29.945  25.465  1.00  0.00     0.063 H 
ATOM     19  H   UNL     1     -49.046  31.629  27.204  1.00  0.00     0.066 H 
BRANCH   6  20
ATOM     20  N   UNL     1     -45.781  30.941  20.620  1.00  0.00    -0.384 N 
ATOM     21  H   UNL     1     -46.368  30.968  19.795  1.00  0.00     0.158 HD
ATOM     22  H   UNL     1     -45.145  30.147  20.606  1.00  0.00     0.158 HD
ENDBRANCH   6  20
ENDBRANCH   4   5
ENDBRANCH   1   4
BRANCH   1  23
ATOM     23  C   UNL     1     -46.626  35.818  27.448  1.00  0.00    -0.009 A 
ATOM     24  C   UNL     1     -47.978  36.165  27.557  1.00  0.00    -0.055 A 
ATOM     25  C   UNL     1     -45.651  36.819  27.611  1.00  0.00    -0.031 A 
ATOM     26  C   UNL     1     -48.342  37.477  27.848  1.00  0.00    -0.060 A 
ATOM     27  H   UNL     1     -48.755  35.417  27.421  1.00  0.00     0.063 H 
ATOM     28  C   UNL     1     -46.005  38.147  27.908  1.00  0.00     0.047 A 
ATOM     29  H   UNL     1     -44.613  36.525  27.477  1.00  0.00     0.065 H 
ATOM     30  C   UNL     1     -47.364  38.461  28.024  1.00  0.00    -0.038 A 
ATOM     31  H   UNL     1     -49.393  37.739  27.945  1.00  0.00     0.062 H 
ATOM     32  H   UNL     1     -47.711  39.457  28.277  1.00  0.00     0.064 H 
BRANCH  28  33
ATOM     33  N   UNL     1     -44.988  39.145  28.094  1.00  0.00    -0.300 N 
ATOM     34  C   UNL     1     -44.076  39.160  29.139  1.00  0.00     0.030 A 
ATOM     35  C   UNL     1     -44.717  40.263  27.298  1.00  0.00     0.151 A 
ATOM     36  C   UNL     1     -43.262  40.258  29.017  1.00  0.00     0.072 A 
ATOM     37  H   UNL     1     -44.087  38.410  29.915  1.00  0.00     0.084 H 
ATOM     38  C   UNL     1     -43.653  40.968  27.860  1.00  0.00     0.080 A 
ATOM     39  N   UNL     1     -45.344  40.610  26.155  1.00  0.00    -0.218 NA
ATOM     40  Cl  UNL     1     -42.002  40.680  30.079  1.00  0.00    -0.082 Cl
ATOM     41  C   UNL     1     -43.233  42.131  27.198  1.00  0.00     0.137 A 
ATOM     42  C   UNL     1     -44.854  41.729  25.608  1.00  0.00     0.120 A 
ATOM     43  N   UNL     1     -43.847  42.494  26.058  1.00  0.00    -0.219 NA
ATOM     44  H   UNL     1     -45.326  42.059  24.687  1.00  0.00     0.106 H 
BRANCH  41  45
ATOM     45  N   UNL     1     -42.201  42.944  27.634  1.00  0.00    -0.383 N 
ATOM     46  H   UNL     1     -41.489  42.495  28.196  1.00  0.00     0.158 HD
ATOM     47  H   UNL     1     -41.890  43.581  26.911  1.00  0.00     0.158 HD
ENDBRANCH  41  45
ENDBRANCH  28  33
ENDBRANCH   1  23
TORSDOF 6
ENDMDL
MODEL 3
REMARK VINA RESULT:     -10.2      2.836     10.183
REMARK SMILES Nc1ccc2ccc(OCc3cccc(-n4cc(Cl)c5c(N)ncnc54)c3)cc2n1
REMARK SMILES IDX 10 1 9 4 8 5 2 6 3 7 30 8 4 9 29 11 5 12 28 14 6 15 7 17
REMARK SMILES IDX 1 20 11 23 12 24 27 25 13 26 15 28 14 30 16 33 17 34 26 35
REMARK SMILES IDX 18 36 20 38 25 39 19 40 21 41 24 42 23 43 22 45
REMARK H PARENT 10 2 10 3 3 10 4 13 28 16 6 18 7 19 1 21 1 22 12 27 27 29
REMARK H PARENT 13 31 14 32 17 37 24 44 22 46 22 47
REMARK Flexibility Score: inf
ROOT
ATOM      1  C   UNL     1     -47.898  36.511  27.340  1.00  0.00     0.113 C 
ATOM      2  H   UNL     1     -48.976  36.484  27.540  1.00  0.00     0.076 H 
ATOM      3  H   UNL     1     -47.773  37.105  26.427  1.00  0.00     0.076 H 
ENDROOT
BRANCH   1   4
ATOM      4  O   UNL     1     -47.294  37.164  28.462  1.00  0.00    -0.489 OA
BRANCH   4   5
ATOM      5  C   UNL     1     -46.334  38.110  28.230  1.00  0.00     0.122 A 
ATOM      6  C   UNL     1     -42.532  40.737  29.313  1.00  0.00     0.124 A 
ATOM      7  C   UNL     1     -42.573  41.416  28.107  1.00  0.00    -0.019 A 
ATOM      8  N   UNL     1     -43.418  39.785  29.649  1.00  0.00    -0.231 NA
ATOM      9  C   UNL     1     -43.570  41.090  27.193  1.00  0.00    -0.049 A 
ATOM     10  H   UNL     1     -41.851  42.193  27.884  1.00  0.00     0.066 H 
ATOM     11  C   UNL     1     -44.388  39.469  28.771  1.00  0.00     0.076 A 
ATOM     12  C   UNL     1     -44.502  40.100  27.516  1.00  0.00     0.001 A 
ATOM     13  H   UNL     1     -43.617  41.616  26.244  1.00  0.00     0.063 H 
ATOM     14  C   UNL     1     -45.313  38.485  29.106  1.00  0.00     0.007 A 
ATOM     15  C   UNL     1     -45.529  39.737  26.633  1.00  0.00    -0.049 A 
ATOM     16  H   UNL     1     -45.209  38.033  30.085  1.00  0.00     0.069 H 
ATOM     17  C   UNL     1     -46.439  38.746  26.993  1.00  0.00    -0.019 A 
ATOM     18  H   UNL     1     -45.627  40.222  25.664  1.00  0.00     0.063 H 
ATOM     19  H   UNL     1     -47.235  38.468  26.307  1.00  0.00     0.066 H 
BRANCH   6  20
ATOM     20  N   UNL     1     -41.562  41.046  30.263  1.00  0.00    -0.384 N 
ATOM     21  H   UNL     1     -41.219  41.993  30.153  1.00  0.00     0.158 HD
ATOM     22  H   UNL     1     -40.819  40.359  30.158  1.00  0.00     0.158 HD
ENDBRANCH   6  20
ENDBRANCH   4   5
ENDBRANCH   1   4
BRANCH   1  23
ATOM     23  C   UNL     1     -47.438  35.080  27.162  1.00  0.00    -0.009 A 
ATOM     24  C   UNL     1     -46.443  34.562  27.999  1.00  0.00    -0.055 A 
ATOM     25  C   UNL     1     -47.950  34.271  26.131  1.00  0.00    -0.031 A 
ATOM     26  C   UNL     1     -45.991  33.256  27.823  1.00  0.00    -0.060 A 
ATOM     27  H   UNL     1     -46.016  35.168  28.794  1.00  0.00     0.063 H 
ATOM     28  C   UNL     1     -47.505  32.950  25.945  1.00  0.00     0.047 A 
ATOM     29  H   UNL     1     -48.690  34.718  25.473  1.00  0.00     0.065 H 
ATOM     30  C   UNL     1     -46.518  32.455  26.806  1.00  0.00    -0.038 A 
ATOM     31  H   UNL     1     -45.227  32.854  28.484  1.00  0.00     0.062 H 
ATOM     32  H   UNL     1     -46.145  31.438  26.739  1.00  0.00     0.064 H 
BRANCH  28  33
ATOM     33  N   UNL     1     -48.062  32.136  24.900  1.00  0.00    -0.300 N 
ATOM     34  C   UNL     1     -49.417  31.903  24.717  1.00  0.00     0.030 A 
ATOM     35  C   UNL     1     -47.386  31.438  23.893  1.00  0.00     0.151 A 
ATOM     36  C   UNL     1     -49.594  31.073  23.638  1.00  0.00     0.072 A 
ATOM     37  H   UNL     1     -50.161  32.314  25.382  1.00  0.00     0.084 H 
ATOM     38  C   UNL     1     -48.322  30.768  23.105  1.00  0.00     0.080 A 
ATOM     39  N   UNL     1     -46.055  31.422  23.678  1.00  0.00    -0.218 NA
ATOM     40  Cl  UNL     1     -51.091  30.517  23.051  1.00  0.00    -0.082 Cl
ATOM     41  C   UNL     1     -47.831  30.005  22.035  1.00  0.00     0.137 A 
ATOM     42  C   UNL     1     -45.704  30.670  22.627  1.00  0.00     0.120 A 
ATOM     43  N   UNL     1     -46.506  29.975  21.806  1.00  0.00    -0.219 NA
ATOM     44  H   UNL     1     -44.641  30.617  22.410  1.00  0.00     0.106 H 
BRANCH  41  45
ATOM     45  N   UNL     1     -48.628  29.275  21.171  1.00  0.00    -0.383 N 
ATOM     46  H   UNL     1     -49.608  29.528  21.149  1.00  0.00     0.158 HD
ATOM     47  H   UNL     1     -48.170  29.111  20.283  1.00  0.00     0.158 HD
ENDBRANCH  41  45
ENDBRANCH  28  33
ENDBRANCH   1  23
TORSDOF 6
ENDMDL
MODEL 4
REMARK VINA RESULT:     -10.2      2.093      2.612
REMARK SMILES Nc1ccc2ccc(OCc3cccc(-n4cc(Cl)c5c(N)ncnc54)c3)cc2n1
REMARK SMILES IDX 10 1 9 4 8 5 2 6 3 7 30 8 4 9 29 11 5 12 28 14 6 15 7 17
REMARK SMILES IDX 1 20 11 23 12 24 27 25 13 26 15 28 14 30 16 33 17 34 26 35
REMARK SMILES IDX 18 36 20 38 25 39 19 40 21 41 24 42 23 43 22 45
REMARK H PARENT 10 2 10 3 3 10 4 13 28 16 6 18 7 19 1 21 1 22 12 27 27 29
REMARK H PARENT 13 31 14 32 17 37 24 44 22 46 22 47
REMARK Flexibility Score: inf
ROOT
ATOM      1  C   UNL     1     -46.993  34.390  25.841  1.00  0.00     0.113 C 
ATOM      2  H   UNL     1     -45.913  34.228  25.932  1.00  0.00     0.076 H 
ATOM      3  H   UNL     1     -47.196  34.488  24.767  1.00  0.00     0.076 H 
ENDROOT
BRANCH   1   4
ATOM      4  O   UNL     1     -47.626  33.223  26.376  1.00  0.00    -0.489 OA
BRANCH   4   5
ATOM      5  C   UNL     1     -47.682  32.096  25.602  1.00  0.00     0.122 A 
ATOM      6  C   UNL     1     -49.363  27.853  24.298  1.00  0.00     0.124 A 
ATOM      7  C   UNL     1     -48.455  27.736  23.259  1.00  0.00    -0.019 A 
ATOM      8  N   UNL     1     -49.405  28.915  25.120  1.00  0.00    -0.231 NA
ATOM      9  C   UNL     1     -47.550  28.771  23.047  1.00  0.00    -0.049 A 
ATOM     10  H   UNL     1     -48.440  26.852  22.632  1.00  0.00     0.066 H 
ATOM     11  C   UNL     1     -48.529  29.918  24.922  1.00  0.00     0.076 A 
ATOM     12  C   UNL     1     -47.575  29.890  23.885  1.00  0.00     0.001 A 
ATOM     13  H   UNL     1     -46.829  28.693  22.238  1.00  0.00     0.063 H 
ATOM     14  C   UNL     1     -48.561  31.023  25.766  1.00  0.00     0.007 A 
ATOM     15  C   UNL     1     -46.683  30.958  23.718  1.00  0.00    -0.049 A 
ATOM     16  H   UNL     1     -49.293  31.005  26.565  1.00  0.00     0.069 H 
ATOM     17  C   UNL     1     -46.740  32.054  24.575  1.00  0.00    -0.019 A 
ATOM     18  H   UNL     1     -45.941  30.943  22.923  1.00  0.00     0.063 H 
ATOM     19  H   UNL     1     -46.045  32.880  24.443  1.00  0.00     0.066 H 
BRANCH   6  20
ATOM     20  N   UNL     1     -50.274  26.831  24.556  1.00  0.00    -0.384 N 
ATOM     21  H   UNL     1     -50.409  26.694  25.550  1.00  0.00     0.158 HD
ATOM     22  H   UNL     1     -49.912  25.994  24.104  1.00  0.00     0.158 HD
ENDBRANCH   6  20
ENDBRANCH   4   5
ENDBRANCH   1   4
BRANCH   1  23
ATOM     23  C   UNL     1     -47.324  35.654  26.606  1.00  0.00    -0.009 A 
ATOM     24  C   UNL     1     -48.578  35.788  27.214  1.00  0.00    -0.055 A 
ATOM     25  C   UNL     1     -46.417  36.727  26.671  1.00  0.00    -0.031 A 
ATOM     26  C   UNL     1     -48.904  36.958  27.894  1.00  0.00    -0.060 A 
ATOM     27  H   UNL     1     -49.306  34.982  27.167  1.00  0.00     0.063 H 
ATOM     28  C   UNL     1     -46.733  37.913  27.357  1.00  0.00     0.047 A 
ATOM     29  H   UNL     1     -45.470  36.607  26.152  1.00  0.00     0.065 H 
ATOM     30  C   UNL     1     -47.988  38.013  27.967  1.00  0.00    -0.038 A 
ATOM     31  H   UNL     1     -49.873  37.053  28.376  1.00  0.00     0.062 H 
ATOM     32  H   UNL     1     -48.291  38.886  28.535  1.00  0.00     0.064 H 
BRANCH  28  33
ATOM     33  N   UNL     1     -45.778  38.985  27.430  1.00  0.00    -0.300 N 
ATOM     34  C   UNL     1     -45.685  40.025  26.517  1.00  0.00     0.030 A 
ATOM     35  C   UNL     1     -44.785  39.195  28.393  1.00  0.00     0.151 A 
ATOM     36  C   UNL     1     -44.657  40.859  26.881  1.00  0.00     0.072 A 
ATOM     37  H   UNL     1     -46.331  40.085  25.654  1.00  0.00     0.084 H 
ATOM     38  C   UNL     1     -44.077  40.351  28.064  1.00  0.00     0.080 A 
ATOM     39  N   UNL     1     -44.549  38.440  29.486  1.00  0.00    -0.218 NA
ATOM     40  Cl  UNL     1     -44.178  42.262  26.046  1.00  0.00    -0.082 Cl
ATOM     41  C   UNL     1     -43.030  40.727  28.919  1.00  0.00     0.137 A 
ATOM     42  C   UNL     1     -43.535  38.900  30.230  1.00  0.00     0.120 A 
ATOM     43  N   UNL     1     -42.778  39.985  30.012  1.00  0.00    -0.219 NA
ATOM     44  H   UNL     1     -43.297  38.326  31.121  1.00  0.00     0.106 H 
BRANCH  41  45
ATOM     45  N   UNL     1     -42.229  41.839  28.723  1.00  0.00    -0.383 N 
ATOM     46  H   UNL     1     -42.661  42.736  28.905  1.00  0.00     0.158 HD
ATOM     47  H   UNL     1     -41.291  41.694  29.075  1.00  0.00     0.158 HD
ENDBRANCH  41  45
ENDBRANCH  28  33
ENDBRANCH   1  23
TORSDOF 6
ENDMDL
MODEL 5
REMARK VINA RESULT:     -10.2      2.880     10.248
REMARK SMILES Nc1ccc2ccc(OCc3cccc(-n4cc(Cl)c5c(N)ncnc54)c3)cc2n1
REMARK SMILES IDX 10 1 9 4 8 5 2 6 3 7 30 8 4 9 29 11 5 12 28 14 6 15 7 17
REMARK SMILES IDX 1 20 11 23 12 24 27 25 13 26 15 28 14 30 16 33 17 34 26 35
REMARK SMILES IDX 18 36 20 38 25 39 19 40 21 41 24 42 23 43 22 45
REMARK H PARENT 10 2 10 3 3 10 4 13 28 16 6 18 7 19 1 21 1 22 12 27 27 29
REMARK H PARENT 13 31 14 32 17 37 24 44 22 46 22 47
REMARK Flexibility Score: inf
ROOT
ATOM      1  C   UNL     1     -46.744  37.063  26.770  1.00  0.00     0.113 C 
ATOM      2  H   UNL     1     -47.722  37.242  26.308  1.00  0.00     0.076 H 
ATOM      3  H   UNL     1     -46.001  37.478  26.077  1.00  0.00     0.076 H 
ENDROOT
BRANCH   1   4
ATOM      4  O   UNL     1     -46.743  37.778  28.009  1.00  0.00    -0.489 OA
BRANCH   4   5
ATOM      5  C   UNL     1     -45.653  38.541  28.325  1.00  0.00     0.122 A 
ATOM      6  C   UNL     1     -42.449  41.970  27.613  1.00  0.00     0.124 A 
ATOM      7  C   UNL     1     -41.780  41.684  28.791  1.00  0.00    -0.019 A 
ATOM      8  N   UNL     1     -43.534  41.292  27.201  1.00  0.00    -0.231 NA
ATOM      9  C   UNL     1     -42.259  40.655  29.595  1.00  0.00    -0.049 A 
ATOM     10  H   UNL     1     -40.895  42.241  29.075  1.00  0.00     0.066 H 
ATOM     11  C   UNL     1     -43.999  40.292  27.974  1.00  0.00     0.076 A 
ATOM     12  C   UNL     1     -43.389  39.937  29.193  1.00  0.00     0.001 A 
ATOM     13  H   UNL     1     -41.744  40.416  30.521  1.00  0.00     0.063 H 
ATOM     14  C   UNL     1     -45.121  39.582  27.560  1.00  0.00     0.007 A 
ATOM     15  C   UNL     1     -43.910  38.887  29.964  1.00  0.00    -0.049 A 
ATOM     16  H   UNL     1     -45.555  39.867  26.609  1.00  0.00     0.069 H 
ATOM     17  C   UNL     1     -45.037  38.195  29.527  1.00  0.00    -0.019 A 
ATOM     18  H   UNL     1     -43.443  38.603  30.904  1.00  0.00     0.063 H 
ATOM     19  H   UNL     1     -45.437  37.381  30.127  1.00  0.00     0.066 H 
BRANCH   6  20
ATOM     20  N   UNL     1     -41.991  42.980  26.770  1.00  0.00    -0.384 N 
ATOM     21  H   UNL     1     -41.883  43.858  27.264  1.00  0.00     0.158 HD
ATOM     22  H   UNL     1     -42.663  43.054  26.009  1.00  0.00     0.158 HD
ENDBRANCH   6  20
ENDBRANCH   4   5
ENDBRANCH   1   4
BRANCH   1  23
ATOM     23  C   UNL     1     -46.595  35.566  26.942  1.00  0.00    -0.009 A 
ATOM     24  C   UNL     1     -46.168  35.049  28.170  1.00  0.00    -0.055 A 
ATOM     25  C   UNL     1     -46.821  34.681  25.872  1.00  0.00    -0.031 A 
ATOM     26  C   UNL     1     -45.999  33.676  28.330  1.00  0.00    -0.060 A 
ATOM     27  H   UNL     1     -45.970  35.709  29.011  1.00  0.00     0.063 H 
ATOM     28  C   UNL     1     -46.656  33.293  26.021  1.00  0.00     0.047 A 
ATOM     29  H   UNL     1     -47.109  35.119  24.920  1.00  0.00     0.065 H 
ATOM     30  C   UNL     1     -46.242  32.804  27.265  1.00  0.00    -0.038 A 
ATOM     31  H   UNL     1     -45.680  33.278  29.290  1.00  0.00     0.062 H 
ATOM     32  H   UNL     1     -46.120  31.744  27.461  1.00  0.00     0.064 H 
BRANCH  28  33
ATOM     33  N   UNL     1     -46.918  32.408  24.919  1.00  0.00    -0.300 N 
ATOM     34  C   UNL     1     -45.945  31.853  24.102  1.00  0.00     0.030 A 
ATOM     35  C   UNL     1     -48.155  31.944  24.457  1.00  0.00     0.151 A 
ATOM     36  C   UNL     1     -46.545  31.073  23.145  1.00  0.00     0.072 A 
ATOM     37  H   UNL     1     -44.897  32.073  24.234  1.00  0.00     0.084 H 
ATOM     38  C   UNL     1     -47.941  31.119  23.353  1.00  0.00     0.080 A 
ATOM     39  N   UNL     1     -49.366  32.209  24.989  1.00  0.00    -0.218 NA
ATOM     40  Cl  UNL     1     -45.737  30.203  21.926  1.00  0.00    -0.082 Cl
ATOM     41  C   UNL     1     -49.073  30.555  22.745  1.00  0.00     0.137 A 
ATOM     42  C   UNL     1     -50.368  31.611  24.334  1.00  0.00     0.120 A 
ATOM     43  N   UNL     1     -50.289  30.810  23.261  1.00  0.00    -0.219 NA
ATOM     44  H   UNL     1     -51.368  31.795  24.717  1.00  0.00     0.106 H 
BRANCH  41  45
ATOM     45  N   UNL     1     -49.028  29.726  21.637  1.00  0.00    -0.383 N 
ATOM     46  H   UNL     1     -48.402  28.934  21.700  1.00  0.00     0.158 HD
ATOM     47  H   UNL     1     -49.950  29.562  21.252  1.00  0.00     0.158 HD
ENDBRANCH  41  45
ENDBRANCH  28  33
ENDBRANCH   1  23
TORSDOF 6
ENDMDL
MODEL 6
REMARK VINA RESULT:     -10.1      2.648      4.743
REMARK SMILES Nc1ccc2ccc(OCc3cccc(-n4cc(Cl)c5c(N)ncnc54)c3)cc2n1
REMARK SMILES IDX 10 1 9 4 8 5 2 6 3 7 30 8 4 9 29 11 5 12 28 14 6 15 7 17
REMARK SMILES IDX 1 20 11 23 12 24 27 25 13 26 15 28 14 30 16 33 17 34 26 35
REMARK SMILES IDX 18 36 20 38 25 39 19 40 21 41 24 42 23 43 22 45
REMARK H PARENT 10 2 10 3 3 10 4 13 28 16 6 18 7 19 1 21 1 22 12 27 27 29
REMARK H PARENT 13 31 14 32 17 37 24 44 22 46 22 47
REMARK Flexibility Score: inf
ROOT
ATOM      1  C   UNL     1     -44.624  38.664  29.264  1.00  0.00     0.113 C 
ATOM      2  H   UNL     1     -44.936  38.662  30.315  1.00  0.00     0.076 H 
ATOM      3  H   UNL     1     -44.161  37.686  29.083  1.00  0.00     0.076 H 
ENDROOT
BRANCH   1   4
ATOM      4  O   UNL     1     -45.816  38.817  28.487  1.00  0.00    -0.489 OA
BRANCH   4   5
ATOM      5  C   UNL     1     -46.424  37.696  27.993  1.00  0.00     0.122 A 
ATOM      6  C   UNL     1     -46.550  33.435  25.905  1.00  0.00     0.124 A 
ATOM      7  C   UNL     1     -47.931  33.366  25.974  1.00  0.00    -0.019 A 
ATOM      8  N   UNL     1     -45.844  34.483  26.362  1.00  0.00    -0.231 NA
ATOM      9  C   UNL     1     -48.622  34.426  26.553  1.00  0.00    -0.049 A 
ATOM     10  H   UNL     1     -48.464  32.512  25.574  1.00  0.00     0.066 H 
ATOM     11  C   UNL     1     -46.507  35.513  26.920  1.00  0.00     0.076 A 
ATOM     12  C   UNL     1     -47.911  35.526  27.041  1.00  0.00     0.001 A 
ATOM     13  H   UNL     1     -49.706  34.388  26.612  1.00  0.00     0.063 H 
ATOM     14  C   UNL     1     -45.789  36.604  27.397  1.00  0.00     0.007 A 
ATOM     15  C   UNL     1     -48.559  36.621  27.630  1.00  0.00    -0.049 A 
ATOM     16  H   UNL     1     -44.713  36.572  27.271  1.00  0.00     0.069 H 
ATOM     17  C   UNL     1     -47.814  37.699  28.102  1.00  0.00    -0.019 A 
ATOM     18  H   UNL     1     -49.642  36.642  27.724  1.00  0.00     0.063 H 
ATOM     19  H   UNL     1     -48.320  38.548  28.558  1.00  0.00     0.066 H 
BRANCH   6  20
ATOM     20  N   UNL     1     -45.821  32.405  25.316  1.00  0.00    -0.384 N 
ATOM     21  H   UNL     1     -46.319  31.524  25.358  1.00  0.00     0.158 HD
ATOM     22  H   UNL     1     -44.930  32.360  25.803  1.00  0.00     0.158 HD
ENDBRANCH   6  20
ENDBRANCH   4   5
ENDBRANCH   1   4
BRANCH   1  23
ATOM     23  C   UNL     1     -43.644  39.804  29.088  1.00  0.00    -0.009 A 
ATOM     24  C   UNL     1     -42.561  39.929  29.965  1.00  0.00    -0.055 A 
ATOM     25  C   UNL     1     -43.830  40.780  28.092  1.00  0.00    -0.031 A 
ATOM     26  C   UNL     1     -41.670  40.991  29.831  1.00  0.00    -0.060 A 
ATOM     27  H   UNL     1     -42.399  39.199  30.755  1.00  0.00     0.063 H 
ATOM     28  C   UNL     1     -42.937  41.857  27.945  1.00  0.00     0.047 A 
ATOM     29  H   UNL     1     -44.705  40.678  27.456  1.00  0.00     0.065 H 
ATOM     30  C   UNL     1     -41.855  41.947  28.828  1.00  0.00    -0.038 A 
ATOM     31  H   UNL     1     -40.823  41.076  30.507  1.00  0.00     0.062 H 
ATOM     32  H   UNL     1     -41.112  42.735  28.758  1.00  0.00     0.064 H 
BRANCH  28  33
ATOM     33  N   UNL     1     -43.136  42.827  26.903  1.00  0.00    -0.300 N 
ATOM     34  C   UNL     1     -42.683  42.693  25.599  1.00  0.00     0.030 A 
ATOM     35  C   UNL     1     -43.798  44.058  26.982  1.00  0.00     0.151 A 
ATOM     36  C   UNL     1     -43.033  43.807  24.879  1.00  0.00     0.072 A 
ATOM     37  H   UNL     1     -42.115  41.832  25.280  1.00  0.00     0.084 H 
ATOM     38  C   UNL     1     -43.737  44.681  25.736  1.00  0.00     0.080 A 
ATOM     39  N   UNL     1     -44.424  44.568  28.062  1.00  0.00    -0.218 NA
ATOM     40  Cl  UNL     1     -42.678  44.076  23.237  1.00  0.00    -0.082 Cl
ATOM     41  C   UNL     1     -44.350  45.937  25.617  1.00  0.00     0.137 A 
ATOM     42  C   UNL     1     -44.978  45.764  27.829  1.00  0.00     0.120 A 
ATOM     43  N   UNL     1     -44.978  46.464  26.684  1.00  0.00    -0.219 NA
ATOM     44  H   UNL     1     -45.493  46.225  28.667  1.00  0.00     0.106 H 
BRANCH  41  45
ATOM     45  N   UNL     1     -44.367  46.687  24.453  1.00  0.00    -0.383 N 
ATOM     46  H   UNL     1     -45.023  47.456  24.430  1.00  0.00     0.158 HD
ATOM     47  H   UNL     1     -43.433  46.860  24.103  1.00  0.00     0.158 HD
ENDBRANCH  41  45
ENDBRANCH  28  33
ENDBRANCH   1  23
TORSDOF 6
ENDMDL
MODEL 7
REMARK VINA RESULT:     -10.0      3.526     10.626
REMARK SMILES Nc1ccc2ccc(OCc3cccc(-n4cc(Cl)c5c(N)ncnc54)c3)cc2n1
REMARK SMILES IDX 10 1 9 4 8 5 2 6 3 7 30 8 4 9 29 11 5 12 28 14 6 15 7 17
REMARK SMILES IDX 1 20 11 23 12 24 27 25 13 26 15 28 14 30 16 33 17 34 26 35
REMARK SMILES IDX 18 36 20 38 25 39 19 40 21 41 24 42 23 43 22 45
REMARK H PARENT 10 2 10 3 3 10 4 13 28 16 6 18 7 19 1 21 1 22 12 27 27 29
REMARK H PARENT 13 31 14 32 17 37 24 44 22 46 22 47
REMARK Flexibility Score: inf
ROOT
ATOM      1  C   UNL     1     -49.043  35.171  27.048  1.00  0.00     0.113 C 
ATOM      2  H   UNL     1     -49.964  34.631  27.297  1.00  0.00     0.076 H 
ATOM      3  H   UNL     1     -49.349  36.020  26.424  1.00  0.00     0.076 H 
ENDROOT
BRANCH   1   4
ATOM      4  O   UNL     1     -48.489  35.622  28.288  1.00  0.00    -0.489 OA
BRANCH   4   5
ATOM      5  C   UNL     1     -47.535  36.602  28.262  1.00  0.00     0.122 A 
ATOM      6  C   UNL     1     -45.472  40.555  26.636  1.00  0.00     0.124 A 
ATOM      7  C   UNL     1     -44.435  40.471  27.548  1.00  0.00    -0.019 A 
ATOM      8  N   UNL     1     -46.467  39.655  26.570  1.00  0.00    -0.231 NA
ATOM      9  C   UNL     1     -44.425  39.411  28.450  1.00  0.00    -0.049 A 
ATOM     10  H   UNL     1     -43.639  41.207  27.553  1.00  0.00     0.066 H 
ATOM     11  C   UNL     1     -46.461  38.625  27.438  1.00  0.00     0.076 A 
ATOM     12  C   UNL     1     -45.451  38.463  28.407  1.00  0.00     0.001 A 
ATOM     13  H   UNL     1     -43.617  39.330  29.170  1.00  0.00     0.063 H 
ATOM     14  C   UNL     1     -47.485  37.685  27.382  1.00  0.00     0.007 A 
ATOM     15  C   UNL     1     -45.487  37.374  29.289  1.00  0.00    -0.049 A 
ATOM     16  H   UNL     1     -48.236  37.828  26.613  1.00  0.00     0.069 H 
ATOM     17  C   UNL     1     -46.527  36.450  29.213  1.00  0.00    -0.019 A 
ATOM     18  H   UNL     1     -44.710  37.239  30.038  1.00  0.00     0.063 H 
ATOM     19  H   UNL     1     -46.551  35.606  29.898  1.00  0.00     0.066 H 
BRANCH   6  20
ATOM     20  N   UNL     1     -45.509  41.590  25.704  1.00  0.00    -0.384 N 
ATOM     21  H   UNL     1     -44.687  42.178  25.767  1.00  0.00     0.158 HD
ATOM     22  H   UNL     1     -46.363  42.113  25.879  1.00  0.00     0.158 HD
ENDBRANCH   6  20
ENDBRANCH   4   5
ENDBRANCH   1   4
BRANCH   1  23
ATOM     23  C   UNL     1     -48.143  34.207  26.306  1.00  0.00    -0.009 A 
ATOM     24  C   UNL     1     -46.824  34.574  26.015  1.00  0.00    -0.055 A 
ATOM     25  C   UNL     1     -48.622  32.966  25.848  1.00  0.00    -0.031 A 
ATOM     26  C   UNL     1     -45.997  33.706  25.305  1.00  0.00    -0.060 A 
ATOM     27  H   UNL     1     -46.430  35.533  26.342  1.00  0.00     0.063 H 
ATOM     28  C   UNL     1     -47.796  32.080  25.133  1.00  0.00     0.047 A 
ATOM     29  H   UNL     1     -49.663  32.730  26.053  1.00  0.00     0.065 H 
ATOM     30  C   UNL     1     -46.477  32.468  24.869  1.00  0.00    -0.038 A 
ATOM     31  H   UNL     1     -44.969  33.990  25.094  1.00  0.00     0.062 H 
ATOM     32  H   UNL     1     -45.776  31.826  24.347  1.00  0.00     0.064 H 
BRANCH  28  33
ATOM     33  N   UNL     1     -48.303  30.807  24.698  1.00  0.00    -0.300 N 
ATOM     34  C   UNL     1     -48.783  29.817  25.542  1.00  0.00     0.030 A 
ATOM     35  C   UNL     1     -48.411  30.320  23.390  1.00  0.00     0.151 A 
ATOM     36  C   UNL     1     -49.171  28.732  24.795  1.00  0.00     0.072 A 
ATOM     37  H   UNL     1     -48.788  29.935  26.614  1.00  0.00     0.084 H 
ATOM     38  C   UNL     1     -48.942  29.031  23.434  1.00  0.00     0.080 A 
ATOM     39  N   UNL     1     -48.091  30.976  22.257  1.00  0.00    -0.218 NA
ATOM     40  Cl  UNL     1     -49.817  27.285  25.413  1.00  0.00    -0.082 Cl
ATOM     41  C   UNL     1     -49.125  28.371  22.209  1.00  0.00     0.137 A 
ATOM     42  C   UNL     1     -48.315  30.253  21.152  1.00  0.00     0.120 A 
ATOM     43  N   UNL     1     -48.810  29.009  21.068  1.00  0.00    -0.219 NA
ATOM     44  H   UNL     1     -48.070  30.732  20.209  1.00  0.00     0.106 H 
BRANCH  41  45
ATOM     45  N   UNL     1     -49.630  27.088  22.086  1.00  0.00    -0.383 N 
ATOM     46  H   UNL     1     -49.509  26.484  22.888  1.00  0.00     0.158 HD
ATOM     47  H   UNL     1     -50.534  27.081  21.630  1.00  0.00     0.158 HD
ENDBRANCH  41  45
ENDBRANCH  28  33
ENDBRANCH   1  23
TORSDOF 6
ENDMDL
