MODEL 1
REMARK VINA RESULT:     -10.9      0.000      0.000
REMARK SMILES O=C(NCc1ccc2cc(CNC[C@H]3C[C@H]4CC[C@@H]3O4)[nH]c2c1)c1cc(=O)n2ccccc2n1
REMARK SMILES IDX 5 1 6 2 7 3 8 4 9 5 10 6 21 7 22 8 23 9 4 15 3 18 1 19 2 20
REMARK SMILES IDX 24 22 25 23 34 24 26 25 33 27 27 28 28 29 32 30 29 31 31 32
REMARK SMILES IDX 30 34 11 38 12 41 13 43 14 46 15 47 19 48 16 50 18 53 20 54
REMARK SMILES IDX 17 56
REMARK H PARENT 6 10 7 11 9 12 21 13 23 14 4 16 4 17 3 21 25 26 32 33 29 35
REMARK H PARENT 31 36 30 37 11 39 11 40 12 42 13 44 13 45 14 49 15 51 15 52
REMARK H PARENT 19 55 16 57 18 58 18 59 17 60 17 61
REMARK Flexibility Score: inf
ROOT
ATOM      1  C   UNL     1     -48.029  34.565  26.652  1.00  0.00    -0.027 A 
ATOM      2  C   UNL     1     -46.700  34.609  26.209  1.00  0.00    -0.057 A 
ATOM      3  C   UNL     1     -46.208  33.665  25.297  1.00  0.00    -0.052 A 
ATOM      4  C   UNL     1     -47.068  32.662  24.814  1.00  0.00    -0.000 A 
ATOM      5  C   UNL     1     -46.911  31.578  23.908  1.00  0.00    -0.032 A 
ATOM      6  C   UNL     1     -48.119  30.913  23.817  1.00  0.00     0.030 A 
ATOM      7  N   UNL     1     -49.003  31.571  24.640  1.00  0.00    -0.357 N 
ATOM      8  C   UNL     1     -48.388  32.637  25.257  1.00  0.00     0.046 A 
ATOM      9  C   UNL     1     -48.898  33.571  26.167  1.00  0.00    -0.033 A 
ATOM     10  H   UNL     1     -46.029  35.385  26.571  1.00  0.00     0.063 H 
ATOM     11  H   UNL     1     -45.175  33.710  24.967  1.00  0.00     0.063 H 
ATOM     12  H   UNL     1     -46.007  31.301  23.381  1.00  0.00     0.065 H 
ATOM     13  H   UNL     1     -49.970  31.316  24.781  1.00  0.00     0.166 HD
ATOM     14  H   UNL     1     -49.934  33.534  26.488  1.00  0.00     0.065 H 
ENDROOT
BRANCH   1  15
ATOM     15  C   UNL     1     -48.545  35.608  27.607  1.00  0.00     0.043 C 
ATOM     16  H   UNL     1     -49.513  36.000  27.270  1.00  0.00     0.054 H 
ATOM     17  H   UNL     1     -48.708  35.180  28.603  1.00  0.00     0.054 H 
BRANCH  15  18
ATOM     18  N   UNL     1     -47.609  36.694  27.732  1.00  0.00    -0.347 N 
ATOM     19  O   UNL     1     -46.808  36.083  29.794  1.00  0.00    -0.268 OA
ATOM     20  C   UNL     1     -46.771  36.812  28.810  1.00  0.00     0.270 C 
ATOM     21  H   UNL     1     -47.425  37.299  26.937  1.00  0.00     0.164 HD
BRANCH  20  22
ATOM     22  C   UNL     1     -45.781  37.940  28.650  1.00  0.00     0.136 A 
ATOM     23  C   UNL     1     -44.895  38.098  29.635  1.00  0.00     0.035 A 
ATOM     24  N   UNL     1     -45.846  38.722  27.519  1.00  0.00    -0.225 NA
ATOM     25  C   UNL     1     -43.914  39.184  29.521  1.00  0.00     0.258 A 
ATOM     26  H   UNL     1     -44.854  37.475  30.520  1.00  0.00     0.071 H 
ATOM     27  C   UNL     1     -44.975  39.679  27.421  1.00  0.00     0.140 A 
ATOM     28  O   UNL     1     -43.095  39.340  30.425  1.00  0.00    -0.269 OA
ATOM     29  N   UNL     1     -44.000  39.957  28.372  1.00  0.00    -0.268 N 
ATOM     30  C   UNL     1     -45.008  40.552  26.212  1.00  0.00    -0.019 A 
ATOM     31  C   UNL     1     -43.102  41.004  28.191  1.00  0.00     0.014 A 
ATOM     32  C   UNL     1     -44.123  41.548  26.083  1.00  0.00    -0.057 A 
ATOM     33  H   UNL     1     -45.765  40.344  25.466  1.00  0.00     0.066 H 
ATOM     34  C   UNL     1     -43.137  41.783  27.103  1.00  0.00    -0.045 A 
ATOM     35  H   UNL     1     -42.365  41.163  28.975  1.00  0.00     0.082 H 
ATOM     36  H   UNL     1     -44.131  42.193  25.211  1.00  0.00     0.062 H 
ATOM     37  H   UNL     1     -42.431  42.597  26.972  1.00  0.00     0.064 H 
ENDBRANCH  20  22
ENDBRANCH  15  18
ENDBRANCH   1  15
BRANCH   6  38
ATOM     38  C   UNL     1     -48.518  29.720  23.018  1.00  0.00     0.036 C 
ATOM     39  H   UNL     1     -48.383  29.945  21.954  1.00  0.00     0.049 H 
ATOM     40  H   UNL     1     -49.579  29.496  23.182  1.00  0.00     0.049 H 
BRANCH  38  41
ATOM     41  N   UNL     1     -47.690  28.586  23.406  1.00  0.00    -0.311 NA
ATOM     42  H   UNL     1     -47.149  28.833  24.234  1.00  0.00     0.123 HD
BRANCH  41  43
ATOM     43  C   UNL     1     -48.493  27.388  23.646  1.00  0.00     0.001 C 
ATOM     44  H   UNL     1     -47.933  26.498  23.332  1.00  0.00     0.043 H 
ATOM     45  H   UNL     1     -49.408  27.440  23.045  1.00  0.00     0.043 H 
BRANCH  43  46
ATOM     46  C   UNL     1     -48.833  27.261  25.129  1.00  0.00     0.000 C 
ATOM     47  C   UNL     1     -49.521  25.945  25.536  1.00  0.00    -0.020 C 
ATOM     48  C   UNL     1     -47.625  27.283  26.080  1.00  0.00     0.062 C 
ATOM     49  H   UNL     1     -49.499  28.088  25.416  1.00  0.00     0.034 H 
ATOM     50  C   UNL     1     -48.650  25.478  26.703  1.00  0.00     0.058 C 
ATOM     51  H   UNL     1     -50.537  26.161  25.883  1.00  0.00     0.030 H 
ATOM     52  H   UNL     1     -49.581  25.200  24.736  1.00  0.00     0.030 H 
ATOM     53  C   UNL     1     -46.586  26.205  25.780  1.00  0.00    -0.024 C 
ATOM     54  O   UNL     1     -48.230  26.736  27.279  1.00  0.00    -0.375 OA
ATOM     55  H   UNL     1     -47.208  28.278  26.253  1.00  0.00     0.061 H 
ATOM     56  C   UNL     1     -47.321  24.928  26.188  1.00  0.00    -0.024 C 
ATOM     57  H   UNL     1     -49.161  24.835  27.423  1.00  0.00     0.060 H 
ATOM     58  H   UNL     1     -46.233  26.194  24.747  1.00  0.00     0.029 H 
ATOM     59  H   UNL     1     -45.711  26.336  26.429  1.00  0.00     0.029 H 
ATOM     60  H   UNL     1     -46.770  24.428  26.992  1.00  0.00     0.029 H 
ATOM     61  H   UNL     1     -47.442  24.221  25.363  1.00  0.00     0.029 H 
ENDBRANCH  43  46
ENDBRANCH  41  43
ENDBRANCH  38  41
ENDBRANCH   6  38
TORSDOF 7
ENDMDL
MODEL 2
REMARK VINA RESULT:     -10.5      1.741      2.391
REMARK SMILES O=C(NCc1ccc2cc(CNC[C@H]3C[C@H]4CC[C@@H]3O4)[nH]c2c1)c1cc(=O)n2ccccc2n1
REMARK SMILES IDX 5 1 6 2 7 3 8 4 9 5 10 6 21 7 22 8 23 9 4 15 3 18 1 19 2 20
REMARK SMILES IDX 24 22 25 23 34 24 26 25 33 27 27 28 28 29 32 30 29 31 31 32
REMARK SMILES IDX 30 34 11 38 12 41 13 43 14 46 15 47 19 48 16 50 18 53 20 54
REMARK SMILES IDX 17 56
REMARK H PARENT 6 10 7 11 9 12 21 13 23 14 4 16 4 17 3 21 25 26 32 33 29 35
REMARK H PARENT 31 36 30 37 11 39 11 40 12 42 13 44 13 45 14 49 15 51 15 52
REMARK H PARENT 19 55 16 57 18 58 18 59 17 60 17 61
REMARK Flexibility Score: inf
ROOT
ATOM      1  C   UNL     1     -46.534  34.402  27.074  1.00  0.00    -0.027 A 
ATOM      2  C   UNL     1     -47.918  34.614  27.022  1.00  0.00    -0.057 A 
ATOM      3  C   UNL     1     -48.748  33.790  26.250  1.00  0.00    -0.052 A 
ATOM      4  C   UNL     1     -48.181  32.729  25.522  1.00  0.00    -0.000 A 
ATOM      5  C   UNL     1     -48.707  31.726  24.664  1.00  0.00    -0.032 A 
ATOM      6  C   UNL     1     -47.659  30.940  24.223  1.00  0.00     0.030 A 
ATOM      7  N   UNL     1     -46.514  31.440  24.799  1.00  0.00    -0.357 N 
ATOM      8  C   UNL     1     -46.805  32.527  25.591  1.00  0.00     0.046 A 
ATOM      9  C   UNL     1     -45.959  33.338  26.357  1.00  0.00    -0.033 A 
ATOM     10  H   UNL     1     -48.368  35.428  27.587  1.00  0.00     0.063 H 
ATOM     11  H   UNL     1     -49.819  33.969  26.217  1.00  0.00     0.063 H 
ATOM     12  H   UNL     1     -49.744  31.592  24.384  1.00  0.00     0.065 H 
ATOM     13  H   UNL     1     -45.583  31.070  24.663  1.00  0.00     0.166 HD
ATOM     14  H   UNL     1     -44.890  33.152  26.401  1.00  0.00     0.065 H 
ENDROOT
BRANCH   1  15
ATOM     15  C   UNL     1     -45.664  35.280  27.935  1.00  0.00     0.043 C 
ATOM     16  H   UNL     1     -45.938  35.182  28.993  1.00  0.00     0.054 H 
ATOM     17  H   UNL     1     -44.611  34.989  27.853  1.00  0.00     0.054 H 
BRANCH  15  18
ATOM     18  N   UNL     1     -45.782  36.659  27.540  1.00  0.00    -0.347 N 
ATOM     19  O   UNL     1     -44.930  37.537  29.482  1.00  0.00    -0.268 OA
ATOM     20  C   UNL     1     -45.350  37.684  28.341  1.00  0.00     0.270 C 
ATOM     21  H   UNL     1     -46.025  36.894  26.582  1.00  0.00     0.164 HD
BRANCH  20  22
ATOM     22  C   UNL     1     -45.440  39.027  27.657  1.00  0.00     0.136 A 
ATOM     23  C   UNL     1     -46.652  39.408  27.251  1.00  0.00     0.035 A 
ATOM     24  N   UNL     1     -44.290  39.767  27.498  1.00  0.00    -0.225 NA
ATOM     25  C   UNL     1     -46.785  40.707  26.580  1.00  0.00     0.258 A 
ATOM     26  H   UNL     1     -47.550  38.817  27.383  1.00  0.00     0.071 H 
ATOM     27  C   UNL     1     -44.412  40.915  26.906  1.00  0.00     0.140 A 
ATOM     28  O   UNL     1     -47.899  41.065  26.199  1.00  0.00    -0.269 OA
ATOM     29  N   UNL     1     -45.613  41.433  26.432  1.00  0.00    -0.268 N 
ATOM     30  C   UNL     1     -43.193  41.751  26.712  1.00  0.00    -0.019 A 
ATOM     31  C   UNL     1     -45.659  42.675  25.808  1.00  0.00     0.014 A 
ATOM     32  C   UNL     1     -43.288  42.940  26.104  1.00  0.00    -0.057 A 
ATOM     33  H   UNL     1     -42.253  41.356  27.076  1.00  0.00     0.066 H 
ATOM     34  C   UNL     1     -44.560  43.420  25.637  1.00  0.00    -0.045 A 
ATOM     35  H   UNL     1     -46.632  43.018  25.462  1.00  0.00     0.082 H 
ATOM     36  H   UNL     1     -42.411  43.562  25.954  1.00  0.00     0.062 H 
ATOM     37  H   UNL     1     -44.608  44.388  25.148  1.00  0.00     0.064 H 
ENDBRANCH  20  22
ENDBRANCH  15  18
ENDBRANCH   1  15
BRANCH   6  38
ATOM     38  C   UNL     1     -47.640  29.758  23.317  1.00  0.00     0.036 C 
ATOM     39  H   UNL     1     -47.534  30.105  22.283  1.00  0.00     0.049 H 
ATOM     40  H   UNL     1     -48.589  29.213  23.392  1.00  0.00     0.049 H 
BRANCH  38  41
ATOM     41  N   UNL     1     -46.525  28.894  23.680  1.00  0.00    -0.311 NA
ATOM     42  H   UNL     1     -45.950  29.363  24.379  1.00  0.00     0.123 HD
BRANCH  41  43
ATOM     43  C   UNL     1     -46.984  27.595  24.169  1.00  0.00     0.001 C 
ATOM     44  H   UNL     1     -46.250  27.185  24.874  1.00  0.00     0.043 H 
ATOM     45  H   UNL     1     -47.068  26.900  23.326  1.00  0.00     0.043 H 
BRANCH  43  46
ATOM     46  C   UNL     1     -48.328  27.737  24.881  1.00  0.00     0.000 C 
ATOM     47  C   UNL     1     -49.423  26.759  24.420  1.00  0.00    -0.020 C 
ATOM     48  C   UNL     1     -48.295  27.471  26.395  1.00  0.00     0.062 C 
ATOM     49  H   UNL     1     -48.707  28.759  24.730  1.00  0.00     0.034 H 
ATOM     50  C   UNL     1     -49.896  26.161  25.747  1.00  0.00     0.058 C 
ATOM     51  H   UNL     1     -50.234  27.322  23.946  1.00  0.00     0.030 H 
ATOM     52  H   UNL     1     -49.080  25.994  23.717  1.00  0.00     0.030 H 
ATOM     53  C   UNL     1     -47.752  26.093  26.767  1.00  0.00    -0.024 C 
ATOM     54  O   UNL     1     -49.709  27.273  26.653  1.00  0.00    -0.375 OA
ATOM     55  H   UNL     1     -47.886  28.293  26.987  1.00  0.00     0.061 H 
ATOM     56  C   UNL     1     -48.866  25.166  26.279  1.00  0.00    -0.024 C 
ATOM     57  H   UNL     1     -50.924  25.793  25.739  1.00  0.00     0.060 H 
ATOM     58  H   UNL     1     -46.775  25.863  26.338  1.00  0.00     0.029 H 
ATOM     59  H   UNL     1     -47.666  26.005  27.856  1.00  0.00     0.029 H 
ATOM     60  H   UNL     1     -49.272  24.603  27.126  1.00  0.00     0.029 H 
ATOM     61  H   UNL     1     -48.529  24.453  25.521  1.00  0.00     0.029 H 
ENDBRANCH  43  46
ENDBRANCH  41  43
ENDBRANCH  38  41
ENDBRANCH   6  38
TORSDOF 7
ENDMDL
MODEL 3
REMARK VINA RESULT:     -10.4      1.795      2.844
REMARK SMILES O=C(NCc1ccc2cc(CNC[C@H]3C[C@H]4CC[C@@H]3O4)[nH]c2c1)c1cc(=O)n2ccccc2n1
REMARK SMILES IDX 5 1 6 2 7 3 8 4 9 5 10 6 21 7 22 8 23 9 4 15 3 18 1 19 2 20
REMARK SMILES IDX 24 22 25 23 34 24 26 25 33 27 27 28 28 29 32 30 29 31 31 32
REMARK SMILES IDX 30 34 11 38 12 41 13 43 14 46 15 47 19 48 16 50 18 53 20 54
REMARK SMILES IDX 17 56
REMARK H PARENT 6 10 7 11 9 12 21 13 23 14 4 16 4 17 3 21 25 26 32 33 29 35
REMARK H PARENT 31 36 30 37 11 39 11 40 12 42 13 44 13 45 14 49 15 51 15 52
REMARK H PARENT 19 55 16 57 18 58 18 59 17 60 17 61
REMARK Flexibility Score: inf
ROOT
ATOM      1  C   UNL     1     -46.317  36.081  28.167  1.00  0.00    -0.027 A 
ATOM      2  C   UNL     1     -47.682  36.270  27.914  1.00  0.00    -0.057 A 
ATOM      3  C   UNL     1     -48.379  35.430  27.035  1.00  0.00    -0.052 A 
ATOM      4  C   UNL     1     -47.696  34.374  26.404  1.00  0.00    -0.000 A 
ATOM      5  C   UNL     1     -48.077  33.360  25.485  1.00  0.00    -0.032 A 
ATOM      6  C   UNL     1     -46.964  32.589  25.206  1.00  0.00     0.030 A 
ATOM      7  N   UNL     1     -45.922  33.109  25.937  1.00  0.00    -0.357 N 
ATOM      8  C   UNL     1     -46.341  34.195  26.673  1.00  0.00     0.046 A 
ATOM      9  C   UNL     1     -45.628  35.023  27.548  1.00  0.00    -0.033 A 
ATOM     10  H   UNL     1     -48.221  37.079  28.401  1.00  0.00     0.063 H 
ATOM     11  H   UNL     1     -49.436  35.591  26.846  1.00  0.00     0.063 H 
ATOM     12  H   UNL     1     -49.061  33.208  25.059  1.00  0.00     0.065 H 
ATOM     13  H   UNL     1     -44.976  32.755  25.941  1.00  0.00     0.166 HD
ATOM     14  H   UNL     1     -44.574  34.854  27.747  1.00  0.00     0.065 H 
ENDROOT
BRANCH   1  15
ATOM     15  C   UNL     1     -45.594  36.977  29.138  1.00  0.00     0.043 C 
ATOM     16  H   UNL     1     -46.292  37.397  29.872  1.00  0.00     0.054 H 
ATOM     17  H   UNL     1     -44.842  36.415  29.704  1.00  0.00     0.054 H 
BRANCH  15  18
ATOM     18  N   UNL     1     -44.929  38.048  28.446  1.00  0.00    -0.347 N 
ATOM     19  O   UNL     1     -46.672  39.535  28.575  1.00  0.00    -0.268 OA
ATOM     20  C   UNL     1     -45.517  39.273  28.265  1.00  0.00     0.270 C 
ATOM     21  H   UNL     1     -43.938  37.977  28.232  1.00  0.00     0.164 HD
BRANCH  20  22
ATOM     22  C   UNL     1     -44.576  40.279  27.647  1.00  0.00     0.136 A 
ATOM     23  C   UNL     1     -43.451  40.532  28.319  1.00  0.00     0.035 A 
ATOM     24  N   UNL     1     -44.923  40.861  26.448  1.00  0.00    -0.225 NA
ATOM     25  C   UNL     1     -42.507  41.504  27.754  1.00  0.00     0.258 A 
ATOM     26  H   UNL     1     -43.189  40.066  29.260  1.00  0.00     0.071 H 
ATOM     27  C   UNL     1     -44.085  41.718  25.951  1.00  0.00     0.140 A 
ATOM     28  O   UNL     1     -41.470  41.747  28.368  1.00  0.00    -0.269 OA
ATOM     29  N   UNL     1     -42.880  42.077  26.546  1.00  0.00    -0.268 N 
ATOM     30  C   UNL     1     -44.419  42.374  24.655  1.00  0.00    -0.019 A 
ATOM     31  C   UNL     1     -42.035  43.006  25.948  1.00  0.00     0.014 A 
ATOM     32  C   UNL     1     -43.574  43.263  24.119  1.00  0.00    -0.057 A 
ATOM     33  H   UNL     1     -45.356  42.103  24.185  1.00  0.00     0.066 H 
ATOM     34  C   UNL     1     -42.342  43.591  24.783  1.00  0.00    -0.045 A 
ATOM     35  H   UNL     1     -41.109  43.238  26.468  1.00  0.00     0.082 H 
ATOM     36  H   UNL     1     -43.801  43.750  23.176  1.00  0.00     0.062 H 
ATOM     37  H   UNL     1     -41.675  44.314  24.325  1.00  0.00     0.064 H 
ENDBRANCH  20  22
ENDBRANCH  15  18
ENDBRANCH   1  15
BRANCH   6  38
ATOM     38  C   UNL     1     -46.796  31.403  24.320  1.00  0.00     0.036 C 
ATOM     39  H   UNL     1     -46.074  30.718  24.778  1.00  0.00     0.049 H 
ATOM     40  H   UNL     1     -46.394  31.714  23.348  1.00  0.00     0.049 H 
BRANCH  38  41
ATOM     41  N   UNL     1     -48.085  30.745  24.152  1.00  0.00    -0.311 NA
ATOM     42  H   UNL     1     -48.095  30.249  23.262  1.00  0.00     0.123 HD
BRANCH  41  43
ATOM     43  C   UNL     1     -48.374  29.834  25.258  1.00  0.00     0.001 C 
ATOM     44  H   UNL     1     -49.269  30.173  25.793  1.00  0.00     0.043 H 
ATOM     45  H   UNL     1     -47.535  29.843  25.964  1.00  0.00     0.043 H 
BRANCH  43  46
ATOM     46  C   UNL     1     -48.617  28.419  24.736  1.00  0.00     0.000 C 
ATOM     47  C   UNL     1     -47.353  27.643  24.325  1.00  0.00    -0.020 C 
ATOM     48  C   UNL     1     -49.256  27.452  25.746  1.00  0.00     0.062 C 
ATOM     49  H   UNL     1     -49.278  28.469  23.859  1.00  0.00     0.034 H 
ATOM     50  C   UNL     1     -47.518  26.331  25.094  1.00  0.00     0.058 C 
ATOM     51  H   UNL     1     -47.378  27.457  23.246  1.00  0.00     0.030 H 
ATOM     52  H   UNL     1     -46.413  28.151  24.564  1.00  0.00     0.030 H 
ATOM     53  C   UNL     1     -48.464  27.305  27.044  1.00  0.00    -0.024 C 
ATOM     54  O   UNL     1     -48.957  26.182  25.113  1.00  0.00    -0.375 OA
ATOM     55  H   UNL     1     -50.330  27.593  25.886  1.00  0.00     0.061 H 
ATOM     56  C   UNL     1     -47.222  26.544  26.578  1.00  0.00    -0.024 C 
ATOM     57  H   UNL     1     -47.011  25.474  24.647  1.00  0.00     0.060 H 
ATOM     58  H   UNL     1     -48.235  28.249  27.542  1.00  0.00     0.029 H 
ATOM     59  H   UNL     1     -49.019  26.680  27.754  1.00  0.00     0.029 H 
ATOM     60  H   UNL     1     -47.161  25.585  27.103  1.00  0.00     0.029 H 
ATOM     61  H   UNL     1     -46.292  27.092  26.754  1.00  0.00     0.029 H 
ENDBRANCH  43  46
ENDBRANCH  41  43
ENDBRANCH  38  41
ENDBRANCH   6  38
TORSDOF 7
ENDMDL
MODEL 4
REMARK VINA RESULT:     -10.3      1.611      2.227
REMARK SMILES O=C(NCc1ccc2cc(CNC[C@H]3C[C@H]4CC[C@@H]3O4)[nH]c2c1)c1cc(=O)n2ccccc2n1
REMARK SMILES IDX 5 1 6 2 7 3 8 4 9 5 10 6 21 7 22 8 23 9 4 15 3 18 1 19 2 20
REMARK SMILES IDX 24 22 25 23 34 24 26 25 33 27 27 28 28 29 32 30 29 31 31 32
REMARK SMILES IDX 30 34 11 38 12 41 13 43 14 46 15 47 19 48 16 50 18 53 20 54
REMARK SMILES IDX 17 56
REMARK H PARENT 6 10 7 11 9 12 21 13 23 14 4 16 4 17 3 21 25 26 32 33 29 35
REMARK H PARENT 31 36 30 37 11 39 11 40 12 42 13 44 13 45 14 49 15 51 15 52
REMARK H PARENT 19 55 16 57 18 58 18 59 17 60 17 61
REMARK Flexibility Score: inf
ROOT
ATOM      1  C   UNL     1     -47.702  34.694  26.691  1.00  0.00    -0.027 A 
ATOM      2  C   UNL     1     -46.429  34.542  26.126  1.00  0.00    -0.057 A 
ATOM      3  C   UNL     1     -46.155  33.499  25.231  1.00  0.00    -0.052 A 
ATOM      4  C   UNL     1     -47.178  32.596  24.890  1.00  0.00    -0.000 A 
ATOM      5  C   UNL     1     -47.252  31.460  24.040  1.00  0.00    -0.032 A 
ATOM      6  C   UNL     1     -48.538  30.957  24.100  1.00  0.00     0.030 A 
ATOM      7  N   UNL     1     -49.244  31.765  24.960  1.00  0.00    -0.357 N 
ATOM      8  C   UNL     1     -48.440  32.767  25.454  1.00  0.00     0.046 A 
ATOM      9  C   UNL     1     -48.734  33.803  26.349  1.00  0.00    -0.033 A 
ATOM     10  H   UNL     1     -45.632  35.237  26.377  1.00  0.00     0.063 H 
ATOM     11  H   UNL     1     -45.162  33.390  24.804  1.00  0.00     0.063 H 
ATOM     12  H   UNL     1     -46.447  31.040  23.449  1.00  0.00     0.065 H 
ATOM     13  H   UNL     1     -50.217  31.647  25.206  1.00  0.00     0.166 HD
ATOM     14  H   UNL     1     -49.730  33.919  26.766  1.00  0.00     0.065 H 
ENDROOT
BRANCH   1  15
ATOM     15  C   UNL     1     -47.984  35.841  27.626  1.00  0.00     0.043 C 
ATOM     16  H   UNL     1     -48.977  36.265  27.433  1.00  0.00     0.054 H 
ATOM     17  H   UNL     1     -47.982  35.505  28.670  1.00  0.00     0.054 H 
BRANCH  15  18
ATOM     18  N   UNL     1     -46.990  36.871  27.484  1.00  0.00    -0.347 N 
ATOM     19  O   UNL     1     -48.402  38.627  27.920  1.00  0.00    -0.268 OA
ATOM     20  C   UNL     1     -47.279  38.195  27.695  1.00  0.00     0.270 C 
ATOM     21  H   UNL     1     -46.009  36.623  27.395  1.00  0.00     0.164 HD
BRANCH  20  22
ATOM     22  C   UNL     1     -46.050  39.070  27.633  1.00  0.00     0.136 A 
ATOM     23  C   UNL     1     -45.909  39.821  26.540  1.00  0.00     0.035 A 
ATOM     24  N   UNL     1     -45.166  39.045  28.689  1.00  0.00    -0.225 NA
ATOM     25  C   UNL     1     -44.728  40.687  26.438  1.00  0.00     0.258 A 
ATOM     26  H   UNL     1     -46.613  39.833  25.717  1.00  0.00     0.071 H 
ATOM     27  C   UNL     1     -44.124  39.813  28.595  1.00  0.00     0.140 A 
ATOM     28  O   UNL     1     -44.589  41.381  25.432  1.00  0.00    -0.269 OA
ATOM     29  N   UNL     1     -43.853  40.645  27.513  1.00  0.00    -0.268 N 
ATOM     30  C   UNL     1     -43.139  39.819  29.714  1.00  0.00    -0.019 A 
ATOM     31  C   UNL     1     -42.712  41.439  27.490  1.00  0.00     0.014 A 
ATOM     32  C   UNL     1     -42.055  40.601  29.646  1.00  0.00    -0.057 A 
ATOM     33  H   UNL     1     -43.341  39.175  30.561  1.00  0.00     0.066 H 
ATOM     34  C   UNL     1     -41.832  41.439  28.499  1.00  0.00    -0.045 A 
ATOM     35  H   UNL     1     -42.564  42.065  26.613  1.00  0.00     0.082 H 
ATOM     36  H   UNL     1     -41.327  40.619  30.450  1.00  0.00     0.062 H 
ATOM     37  H   UNL     1     -40.944  42.064  28.470  1.00  0.00     0.064 H 
ENDBRANCH  20  22
ENDBRANCH  15  18
ENDBRANCH   1  15
BRANCH   6  38
ATOM     38  C   UNL     1     -49.162  29.791  23.415  1.00  0.00     0.036 C 
ATOM     39  H   UNL     1     -48.372  29.181  22.963  1.00  0.00     0.049 H 
ATOM     40  H   UNL     1     -49.821  30.137  22.609  1.00  0.00     0.049 H 
BRANCH  38  41
ATOM     41  N   UNL     1     -49.913  29.008  24.388  1.00  0.00    -0.311 NA
ATOM     42  H   UNL     1     -50.439  28.283  23.901  1.00  0.00     0.123 HD
BRANCH  41  43
ATOM     43  C   UNL     1     -49.038  28.424  25.403  1.00  0.00     0.001 C 
ATOM     44  H   UNL     1     -49.631  28.122  26.274  1.00  0.00     0.043 H 
ATOM     45  H   UNL     1     -48.313  29.178  25.732  1.00  0.00     0.043 H 
BRANCH  43  46
ATOM     46  C   UNL     1     -48.317  27.198  24.845  1.00  0.00     0.000 C 
ATOM     47  C   UNL     1     -46.806  27.372  24.615  1.00  0.00    -0.020 C 
ATOM     48  C   UNL     1     -48.349  25.956  25.751  1.00  0.00     0.062 C 
ATOM     49  H   UNL     1     -48.773  26.922  23.883  1.00  0.00     0.034 H 
ATOM     50  C   UNL     1     -46.229  26.159  25.347  1.00  0.00     0.058 C 
ATOM     51  H   UNL     1     -46.594  27.304  23.542  1.00  0.00     0.030 H 
ATOM     52  H   UNL     1     -46.396  28.316  24.986  1.00  0.00     0.030 H 
ATOM     53  C   UNL     1     -47.778  26.196  27.147  1.00  0.00    -0.024 C 
ATOM     54  O   UNL     1     -47.276  25.178  25.161  1.00  0.00    -0.375 OA
ATOM     55  H   UNL     1     -49.298  25.414  25.737  1.00  0.00     0.061 H 
ATOM     56  C   UNL     1     -46.287  26.373  26.858  1.00  0.00    -0.024 C 
ATOM     57  H   UNL     1     -45.262  25.818  24.972  1.00  0.00     0.060 H 
ATOM     58  H   UNL     1     -48.223  27.042  27.676  1.00  0.00     0.029 H 
ATOM     59  H   UNL     1     -47.918  25.304  27.769  1.00  0.00     0.029 H 
ATOM     60  H   UNL     1     -45.718  25.598  27.382  1.00  0.00     0.029 H 
ATOM     61  H   UNL     1     -45.904  27.350  27.166  1.00  0.00     0.029 H 
ENDBRANCH  43  46
ENDBRANCH  41  43
ENDBRANCH  38  41
ENDBRANCH   6  38
TORSDOF 7
ENDMDL
MODEL 5
REMARK VINA RESULT:     -10.2      2.756      4.057
REMARK SMILES O=C(NCc1ccc2cc(CNC[C@H]3C[C@H]4CC[C@@H]3O4)[nH]c2c1)c1cc(=O)n2ccccc2n1
REMARK SMILES IDX 5 1 6 2 7 3 8 4 9 5 10 6 21 7 22 8 23 9 4 15 3 18 1 19 2 20
REMARK SMILES IDX 24 22 25 23 34 24 26 25 33 27 27 28 28 29 32 30 29 31 31 32
REMARK SMILES IDX 30 34 11 38 12 41 13 43 14 46 15 47 19 48 16 50 18 53 20 54
REMARK SMILES IDX 17 56
REMARK H PARENT 6 10 7 11 9 12 21 13 23 14 4 16 4 17 3 21 25 26 32 33 29 35
REMARK H PARENT 31 36 30 37 11 39 11 40 12 42 13 44 13 45 14 49 15 51 15 52
REMARK H PARENT 19 55 16 57 18 58 18 59 17 60 17 61
REMARK Flexibility Score: inf
ROOT
ATOM      1  C   UNL     1     -46.454  36.402  28.229  1.00  0.00    -0.027 A 
ATOM      2  C   UNL     1     -47.845  36.364  28.063  1.00  0.00    -0.057 A 
ATOM      3  C   UNL     1     -48.447  35.427  27.213  1.00  0.00    -0.052 A 
ATOM      4  C   UNL     1     -47.640  34.505  26.521  1.00  0.00    -0.000 A 
ATOM      5  C   UNL     1     -47.905  33.449  25.608  1.00  0.00    -0.032 A 
ATOM      6  C   UNL     1     -46.700  32.876  25.247  1.00  0.00     0.030 A 
ATOM      7  N   UNL     1     -45.715  33.556  25.924  1.00  0.00    -0.357 N 
ATOM      8  C   UNL     1     -46.260  34.551  26.704  1.00  0.00     0.046 A 
ATOM      9  C   UNL     1     -45.640  35.479  27.549  1.00  0.00    -0.033 A 
ATOM     10  H   UNL     1     -48.479  37.067  28.598  1.00  0.00     0.063 H 
ATOM     11  H   UNL     1     -49.526  35.412  27.091  1.00  0.00     0.063 H 
ATOM     12  H   UNL     1     -48.875  33.140  25.240  1.00  0.00     0.065 H 
ATOM     13  H   UNL     1     -44.725  33.364  25.863  1.00  0.00     0.166 HD
ATOM     14  H   UNL     1     -44.562  35.486  27.681  1.00  0.00     0.065 H 
ENDROOT
BRANCH   1  15
ATOM     15  C   UNL     1     -45.830  37.397  29.172  1.00  0.00     0.043 C 
ATOM     16  H   UNL     1     -46.597  37.893  29.778  1.00  0.00     0.054 H 
ATOM     17  H   UNL     1     -45.149  36.899  29.872  1.00  0.00     0.054 H 
BRANCH  15  18
ATOM     18  N   UNL     1     -45.082  38.388  28.445  1.00  0.00    -0.347 N 
ATOM     19  O   UNL     1     -46.810  39.883  28.233  1.00  0.00    -0.268 OA
ATOM     20  C   UNL     1     -45.632  39.588  28.076  1.00  0.00     0.270 C 
ATOM     21  H   UNL     1     -44.075  38.293  28.345  1.00  0.00     0.164 HD
BRANCH  20  22
ATOM     22  C   UNL     1     -44.619  40.521  27.458  1.00  0.00     0.136 A 
ATOM     23  C   UNL     1     -43.486  40.704  28.139  1.00  0.00     0.035 A 
ATOM     24  N   UNL     1     -44.914  41.114  26.251  1.00  0.00    -0.225 NA
ATOM     25  C   UNL     1     -42.473  41.604  27.576  1.00  0.00     0.258 A 
ATOM     26  H   UNL     1     -43.266  40.231  29.088  1.00  0.00     0.071 H 
ATOM     27  C   UNL     1     -44.015  41.908  25.756  1.00  0.00     0.140 A 
ATOM     28  O   UNL     1     -41.427  41.782  28.198  1.00  0.00    -0.269 OA
ATOM     29  N   UNL     1     -42.794  42.189  26.359  1.00  0.00    -0.268 N 
ATOM     30  C   UNL     1     -44.291  42.573  24.450  1.00  0.00    -0.019 A 
ATOM     31  C   UNL     1     -41.882  43.053  25.761  1.00  0.00     0.014 A 
ATOM     32  C   UNL     1     -43.383  43.396  23.914  1.00  0.00    -0.057 A 
ATOM     33  H   UNL     1     -45.240  42.361  23.972  1.00  0.00     0.066 H 
ATOM     34  C   UNL     1     -42.138  43.646  24.588  1.00  0.00    -0.045 A 
ATOM     35  H   UNL     1     -40.948  43.226  26.289  1.00  0.00     0.082 H 
ATOM     36  H   UNL     1     -43.566  43.889  22.965  1.00  0.00     0.062 H 
ATOM     37  H   UNL     1     -41.419  44.318  24.131  1.00  0.00     0.064 H 
ENDBRANCH  20  22
ENDBRANCH  15  18
ENDBRANCH   1  15
BRANCH   6  38
ATOM     38  C   UNL     1     -46.395  31.743  24.330  1.00  0.00     0.036 C 
ATOM     39  H   UNL     1     -45.344  31.457  24.457  1.00  0.00     0.049 H 
ATOM     40  H   UNL     1     -46.534  32.055  23.288  1.00  0.00     0.049 H 
BRANCH  38  41
ATOM     41  N   UNL     1     -47.268  30.621  24.649  1.00  0.00    -0.311 NA
ATOM     42  H   UNL     1     -48.129  30.973  25.065  1.00  0.00     0.123 HD
BRANCH  41  43
ATOM     43  C   UNL     1     -47.554  29.807  23.469  1.00  0.00     0.001 C 
ATOM     44  H   UNL     1     -47.983  28.846  23.778  1.00  0.00     0.043 H 
ATOM     45  H   UNL     1     -46.619  29.603  22.935  1.00  0.00     0.043 H 
BRANCH  43  46
ATOM     46  C   UNL     1     -48.547  30.522  22.555  1.00  0.00     0.000 C 
ATOM     47  C   UNL     1     -48.139  30.600  21.073  1.00  0.00    -0.020 C 
ATOM     48  C   UNL     1     -49.933  29.864  22.458  1.00  0.00     0.062 C 
ATOM     49  H   UNL     1     -48.690  31.550  22.917  1.00  0.00     0.034 H 
ATOM     50  C   UNL     1     -49.385  30.060  20.370  1.00  0.00     0.058 C 
ATOM     51  H   UNL     1     -47.971  31.647  20.799  1.00  0.00     0.030 H 
ATOM     52  H   UNL     1     -47.238  30.031  20.821  1.00  0.00     0.030 H 
ATOM     53  C   UNL     1     -49.894  28.408  21.999  1.00  0.00    -0.024 C 
ATOM     54  O   UNL     1     -50.438  30.502  21.256  1.00  0.00    -0.375 OA
ATOM     55  H   UNL     1     -50.580  30.050  23.319  1.00  0.00     0.061 H 
ATOM     56  C   UNL     1     -49.474  28.543  20.535  1.00  0.00    -0.024 C 
ATOM     57  H   UNL     1     -49.520  30.415  19.346  1.00  0.00     0.060 H 
ATOM     58  H   UNL     1     -49.230  27.769  22.586  1.00  0.00     0.029 H 
ATOM     59  H   UNL     1     -50.899  27.973  22.043  1.00  0.00     0.029 H 
ATOM     60  H   UNL     1     -50.255  28.127  19.889  1.00  0.00     0.029 H 
ATOM     61  H   UNL     1     -48.533  28.033  20.310  1.00  0.00     0.029 H 
ENDBRANCH  43  46
ENDBRANCH  41  43
ENDBRANCH  38  41
ENDBRANCH   6  38
TORSDOF 7
ENDMDL
MODEL 6
REMARK VINA RESULT:     -10.0      2.018     11.848
REMARK SMILES O=C(NCc1ccc2cc(CNC[C@H]3C[C@H]4CC[C@@H]3O4)[nH]c2c1)c1cc(=O)n2ccccc2n1
REMARK SMILES IDX 5 1 6 2 7 3 8 4 9 5 10 6 21 7 22 8 23 9 4 15 3 18 1 19 2 20
REMARK SMILES IDX 24 22 25 23 34 24 26 25 33 27 27 28 28 29 32 30 29 31 31 32
REMARK SMILES IDX 30 34 11 38 12 41 13 43 14 46 15 47 19 48 16 50 18 53 20 54
REMARK SMILES IDX 17 56
REMARK H PARENT 6 10 7 11 9 12 21 13 23 14 4 16 4 17 3 21 25 26 32 33 29 35
REMARK H PARENT 31 36 30 37 11 39 11 40 12 42 13 44 13 45 14 49 15 51 15 52
REMARK H PARENT 19 55 16 57 18 58 18 59 17 60 17 61
REMARK Flexibility Score: inf
ROOT
ATOM      1  C   UNL     1     -46.859  33.645  25.664  1.00  0.00    -0.027 A 
ATOM      2  C   UNL     1     -48.167  34.023  25.996  1.00  0.00    -0.057 A 
ATOM      3  C   UNL     1     -48.415  34.966  27.003  1.00  0.00    -0.052 A 
ATOM      4  C   UNL     1     -47.330  35.547  27.684  1.00  0.00    -0.000 A 
ATOM      5  C   UNL     1     -47.217  36.508  28.725  1.00  0.00    -0.032 A 
ATOM      6  C   UNL     1     -45.875  36.695  28.998  1.00  0.00     0.030 A 
ATOM      7  N   UNL     1     -45.175  35.875  28.144  1.00  0.00    -0.357 N 
ATOM      8  C   UNL     1     -46.037  35.167  27.337  1.00  0.00     0.046 A 
ATOM      9  C   UNL     1     -45.768  34.228  26.334  1.00  0.00    -0.033 A 
ATOM     10  H   UNL     1     -49.013  33.585  25.471  1.00  0.00     0.063 H 
ATOM     11  H   UNL     1     -49.434  35.246  27.252  1.00  0.00     0.063 H 
ATOM     12  H   UNL     1     -48.031  37.010  29.235  1.00  0.00     0.065 H 
ATOM     13  H   UNL     1     -44.169  35.793  28.107  1.00  0.00     0.166 HD
ATOM     14  H   UNL     1     -44.749  33.957  26.076  1.00  0.00     0.065 H 
ENDROOT
BRANCH   1  15
ATOM     15  C   UNL     1     -46.614  32.653  24.558  1.00  0.00     0.043 C 
ATOM     16  H   UNL     1     -46.974  33.043  23.599  1.00  0.00     0.054 H 
ATOM     17  H   UNL     1     -45.542  32.459  24.437  1.00  0.00     0.054 H 
BRANCH  15  18
ATOM     18  N   UNL     1     -47.269  31.403  24.840  1.00  0.00    -0.347 N 
ATOM     19  O   UNL     1     -48.012  31.036  22.699  1.00  0.00    -0.268 OA
ATOM     20  C   UNL     1     -47.879  30.665  23.859  1.00  0.00     0.270 C 
ATOM     21  H   UNL     1     -47.140  30.954  25.741  1.00  0.00     0.164 HD
BRANCH  20  22
ATOM     22  C   UNL     1     -48.365  29.328  24.362  1.00  0.00     0.136 A 
ATOM     23  C   UNL     1     -49.685  29.128  24.344  1.00  0.00     0.035 A 
ATOM     24  N   UNL     1     -47.438  28.408  24.799  1.00  0.00    -0.225 NA
ATOM     25  C   UNL     1     -50.201  27.841  24.825  1.00  0.00     0.258 A 
ATOM     26  H   UNL     1     -50.404  29.860  23.996  1.00  0.00     0.071 H 
ATOM     27  C   UNL     1     -47.899  27.271  25.222  1.00  0.00     0.140 A 
ATOM     28  O   UNL     1     -51.416  27.650  24.815  1.00  0.00    -0.269 OA
ATOM     29  N   UNL     1     -49.248  26.932  25.260  1.00  0.00    -0.268 N 
ATOM     30  C   UNL     1     -46.932  26.245  25.706  1.00  0.00    -0.019 A 
ATOM     31  C   UNL     1     -49.660  25.690  25.729  1.00  0.00     0.014 A 
ATOM     32  C   UNL     1     -47.377  25.063  26.149  1.00  0.00    -0.057 A 
ATOM     33  H   UNL     1     -45.879  26.499  25.682  1.00  0.00     0.066 H 
ATOM     34  C   UNL     1     -48.785  24.773  26.161  1.00  0.00    -0.045 A 
ATOM     35  H   UNL     1     -50.730  25.493  25.729  1.00  0.00     0.082 H 
ATOM     36  H   UNL     1     -46.688  24.303  26.504  1.00  0.00     0.062 H 
ATOM     37  H   UNL     1     -49.119  23.806  26.525  1.00  0.00     0.064 H 
ENDBRANCH  20  22
ENDBRANCH  15  18
ENDBRANCH   1  15
BRANCH   6  38
ATOM     38  C   UNL     1     -45.194  37.581  29.983  1.00  0.00     0.036 C 
ATOM     39  H   UNL     1     -44.133  37.311  30.028  1.00  0.00     0.049 H 
ATOM     40  H   UNL     1     -45.621  37.430  30.982  1.00  0.00     0.049 H 
BRANCH  38  41
ATOM     41  N   UNL     1     -45.348  38.968  29.566  1.00  0.00    -0.311 NA
ATOM     42  H   UNL     1     -45.507  39.550  30.388  1.00  0.00     0.123 HD
BRANCH  41  43
ATOM     43  C   UNL     1     -44.186  39.438  28.813  1.00  0.00     0.001 C 
ATOM     44  H   UNL     1     -43.375  38.703  28.888  1.00  0.00     0.043 H 
ATOM     45  H   UNL     1     -43.830  40.380  29.247  1.00  0.00     0.043 H 
BRANCH  43  46
ATOM     46  C   UNL     1     -44.545  39.630  27.341  1.00  0.00     0.000 C 
ATOM     47  C   UNL     1     -45.894  40.321  27.077  1.00  0.00    -0.020 C 
ATOM     48  C   UNL     1     -43.580  40.524  26.546  1.00  0.00     0.062 C 
ATOM     49  H   UNL     1     -44.571  38.647  26.848  1.00  0.00     0.034 H 
ATOM     50  C   UNL     1     -45.497  41.438  26.110  1.00  0.00     0.058 C 
ATOM     51  H   UNL     1     -46.572  39.615  26.584  1.00  0.00     0.030 H 
ATOM     52  H   UNL     1     -46.390  40.703  27.975  1.00  0.00     0.030 H 
ATOM     53  C   UNL     1     -43.410  41.923  27.135  1.00  0.00    -0.024 C 
ATOM     54  O   UNL     1     -44.402  40.827  25.389  1.00  0.00    -0.375 OA
ATOM     55  H   UNL     1     -42.644  40.036  26.263  1.00  0.00     0.061 H 
ATOM     56  C   UNL     1     -44.773  42.556  26.859  1.00  0.00    -0.024 C 
ATOM     57  H   UNL     1     -46.299  41.776  25.451  1.00  0.00     0.060 H 
ATOM     58  H   UNL     1     -43.129  41.936  28.191  1.00  0.00     0.029 H 
ATOM     59  H   UNL     1     -42.641  42.474  26.580  1.00  0.00     0.029 H 
ATOM     60  H   UNL     1     -44.646  43.435  26.216  1.00  0.00     0.029 H 
ATOM     61  H   UNL     1     -45.294  42.868  27.769  1.00  0.00     0.029 H 
ENDBRANCH  43  46
ENDBRANCH  41  43
ENDBRANCH  38  41
ENDBRANCH   6  38
TORSDOF 7
ENDMDL
MODEL 7
REMARK VINA RESULT:     -10.0      2.002      3.360
REMARK SMILES O=C(NCc1ccc2cc(CNC[C@H]3C[C@H]4CC[C@@H]3O4)[nH]c2c1)c1cc(=O)n2ccccc2n1
REMARK SMILES IDX 5 1 6 2 7 3 8 4 9 5 10 6 21 7 22 8 23 9 4 15 3 18 1 19 2 20
REMARK SMILES IDX 24 22 25 23 34 24 26 25 33 27 27 28 28 29 32 30 29 31 31 32
REMARK SMILES IDX 30 34 11 38 12 41 13 43 14 46 15 47 19 48 16 50 18 53 20 54
REMARK SMILES IDX 17 56
REMARK H PARENT 6 10 7 11 9 12 21 13 23 14 4 16 4 17 3 21 25 26 32 33 29 35
REMARK H PARENT 31 36 30 37 11 39 11 40 12 42 13 44 13 45 14 49 15 51 15 52
REMARK H PARENT 19 55 16 57 18 58 18 59 17 60 17 61
REMARK Flexibility Score: inf
ROOT
ATOM      1  C   UNL     1     -46.478  35.988  27.880  1.00  0.00    -0.027 A 
ATOM      2  C   UNL     1     -47.873  35.907  27.776  1.00  0.00    -0.057 A 
ATOM      3  C   UNL     1     -48.483  34.955  26.950  1.00  0.00    -0.052 A 
ATOM      4  C   UNL     1     -47.680  34.060  26.219  1.00  0.00    -0.000 A 
ATOM      5  C   UNL     1     -47.953  32.999  25.314  1.00  0.00    -0.032 A 
ATOM      6  C   UNL     1     -46.747  32.465  24.898  1.00  0.00     0.030 A 
ATOM      7  N   UNL     1     -45.755  33.173  25.533  1.00  0.00    -0.357 N 
ATOM      8  C   UNL     1     -46.295  34.148  26.340  1.00  0.00     0.046 A 
ATOM      9  C   UNL     1     -45.667  35.092  27.162  1.00  0.00    -0.033 A 
ATOM     10  H   UNL     1     -48.504  36.590  28.342  1.00  0.00     0.063 H 
ATOM     11  H   UNL     1     -49.566  34.907  26.876  1.00  0.00     0.063 H 
ATOM     12  H   UNL     1     -48.928  32.661  24.988  1.00  0.00     0.065 H 
ATOM     13  H   UNL     1     -44.763  33.011  25.428  1.00  0.00     0.166 HD
ATOM     14  H   UNL     1     -44.585  35.132  27.245  1.00  0.00     0.065 H 
ENDROOT
BRANCH   1  15
ATOM     15  C   UNL     1     -45.843  36.999  28.799  1.00  0.00     0.043 C 
ATOM     16  H   UNL     1     -46.463  37.159  29.689  1.00  0.00     0.054 H 
ATOM     17  H   UNL     1     -44.867  36.648  29.153  1.00  0.00     0.054 H 
BRANCH  15  18
ATOM     18  N   UNL     1     -45.652  38.254  28.121  1.00  0.00    -0.347 N 
ATOM     19  O   UNL     1     -44.032  39.047  29.541  1.00  0.00    -0.268 OA
ATOM     20  C   UNL     1     -44.711  39.164  28.529  1.00  0.00     0.270 C 
ATOM     21  H   UNL     1     -46.089  38.416  27.219  1.00  0.00     0.164 HD
BRANCH  20  22
ATOM     22  C   UNL     1     -44.592  40.334  27.582  1.00  0.00     0.136 A 
ATOM     23  C   UNL     1     -45.727  40.777  27.038  1.00  0.00     0.035 A 
ATOM     24  N   UNL     1     -43.346  40.867  27.341  1.00  0.00    -0.225 NA
ATOM     25  C   UNL     1     -45.658  41.912  26.110  1.00  0.00     0.258 A 
ATOM     26  H   UNL     1     -46.703  40.349  27.237  1.00  0.00     0.071 H 
ATOM     27  C   UNL     1     -43.289  41.871  26.522  1.00  0.00     0.140 A 
ATOM     28  O   UNL     1     -46.699  42.325  25.602  1.00  0.00    -0.269 OA
ATOM     29  N   UNL     1     -44.391  42.431  25.884  1.00  0.00    -0.268 N 
ATOM     30  C   UNL     1     -41.960  42.480  26.230  1.00  0.00    -0.019 A 
ATOM     31  C   UNL     1     -44.246  43.509  25.018  1.00  0.00     0.014 A 
ATOM     32  C   UNL     1     -41.870  43.517  25.389  1.00  0.00    -0.057 A 
ATOM     33  H   UNL     1     -41.095  42.051  26.721  1.00  0.00     0.066 H 
ATOM     34  C   UNL     1     -43.048  44.052  24.762  1.00  0.00    -0.045 A 
ATOM     35  H   UNL     1     -45.150  43.897  24.555  1.00  0.00     0.082 H 
ATOM     36  H   UNL     1     -40.911  43.974  25.165  1.00  0.00     0.062 H 
ATOM     37  H   UNL     1     -42.946  44.893  24.084  1.00  0.00     0.064 H 
ENDBRANCH  20  22
ENDBRANCH  15  18
ENDBRANCH   1  15
BRANCH   6  38
ATOM     38  C   UNL     1     -46.449  31.344  23.964  1.00  0.00     0.036 C 
ATOM     39  H   UNL     1     -46.529  30.397  24.509  1.00  0.00     0.049 H 
ATOM     40  H   UNL     1     -45.421  31.430  23.591  1.00  0.00     0.049 H 
BRANCH  38  41
ATOM     41  N   UNL     1     -47.398  31.375  22.859  1.00  0.00    -0.311 NA
ATOM     42  H   UNL     1     -46.886  31.409  21.978  1.00  0.00     0.123 HD
BRANCH  41  43
ATOM     43  C   UNL     1     -48.303  30.227  22.891  1.00  0.00     0.001 C 
ATOM     44  H   UNL     1     -48.229  29.671  21.949  1.00  0.00     0.043 H 
ATOM     45  H   UNL     1     -49.335  30.583  22.994  1.00  0.00     0.043 H 
BRANCH  43  46
ATOM     46  C   UNL     1     -47.942  29.294  24.046  1.00  0.00     0.000 C 
ATOM     47  C   UNL     1     -48.845  29.404  25.287  1.00  0.00    -0.020 C 
ATOM     48  C   UNL     1     -48.039  27.794  23.726  1.00  0.00     0.062 C 
ATOM     49  H   UNL     1     -46.909  29.502  24.364  1.00  0.00     0.034 H 
ATOM     50  C   UNL     1     -49.237  27.945  25.526  1.00  0.00     0.058 C 
ATOM     51  H   UNL     1     -48.256  29.782  26.130  1.00  0.00     0.030 H 
ATOM     52  H   UNL     1     -49.715  30.054  25.158  1.00  0.00     0.030 H 
ATOM     53  C   UNL     1     -49.416  27.357  23.232  1.00  0.00    -0.024 C 
ATOM     54  O   UNL     1     -48.058  27.244  25.068  1.00  0.00    -0.375 OA
ATOM     55  H   UNL     1     -47.204  27.404  23.139  1.00  0.00     0.061 H 
ATOM     56  C   UNL     1     -50.269  27.496  24.493  1.00  0.00    -0.024 C 
ATOM     57  H   UNL     1     -49.494  27.706  26.560  1.00  0.00     0.060 H 
ATOM     58  H   UNL     1     -49.794  27.933  22.384  1.00  0.00     0.029 H 
ATOM     59  H   UNL     1     -49.391  26.303  22.932  1.00  0.00     0.029 H 
ATOM     60  H   UNL     1     -50.689  26.521  24.761  1.00  0.00     0.029 H 
ATOM     61  H   UNL     1     -51.094  28.206  24.377  1.00  0.00     0.029 H 
ENDBRANCH  43  46
ENDBRANCH  41  43
ENDBRANCH  38  41
ENDBRANCH   6  38
TORSDOF 7
ENDMDL
