MODEL 1
REMARK VINA RESULT:      -9.3      0.000      0.000
REMARK SMILES COc1cnc(C#N)c(-c2cn(Cc3ccc4cc(CNCC5CCC5)[nH]c4c3)nn2)c1
REMARK SMILES IDX 14 1 15 2 16 3 17 4 18 5 19 6 27 7 28 8 29 9 13 15 12 18
REMARK SMILES IDX 10 19 11 20 31 21 30 23 9 24 3 25 4 26 32 27 5 28 6 31 2 32
REMARK SMILES IDX 1 33 7 37 8 38 20 39 21 42 22 44 23 47 24 48 26 49 25 51
REMARK H PARENT 15 10 16 11 18 12 27 13 29 14 13 16 13 17 11 22 4 29 32 30
REMARK H PARENT 1 34 1 35 1 36 20 40 20 41 21 43 22 45 22 46 23 50 24 52 24 53
REMARK H PARENT 26 54 26 55 25 56 25 57
REMARK Flexibility Score: inf
ROOT
ATOM      1  C   UNL     1     -46.651  35.999  28.140  1.00  0.00    -0.024 A 
ATOM      2  C   UNL     1     -48.030  35.907  27.904  1.00  0.00    -0.056 A 
ATOM      3  C   UNL     1     -48.548  34.997  26.975  1.00  0.00    -0.052 A 
ATOM      4  C   UNL     1     -47.667  34.163  26.263  1.00  0.00    -0.000 A 
ATOM      5  C   UNL     1     -47.843  33.156  25.273  1.00  0.00    -0.032 A 
ATOM      6  C   UNL     1     -46.597  32.673  24.930  1.00  0.00     0.030 A 
ATOM      7  N   UNL     1     -45.675  33.358  25.687  1.00  0.00    -0.357 N 
ATOM      8  C   UNL     1     -46.300  34.269  26.505  1.00  0.00     0.046 A 
ATOM      9  C   UNL     1     -45.761  35.174  27.428  1.00  0.00    -0.033 A 
ATOM     10  H   UNL     1     -48.726  36.547  28.448  1.00  0.00     0.063 H 
ATOM     11  H   UNL     1     -49.620  34.937  26.809  1.00  0.00     0.063 H 
ATOM     12  H   UNL     1     -48.786  32.822  24.860  1.00  0.00     0.065 H 
ATOM     13  H   UNL     1     -44.675  33.219  25.609  1.00  0.00     0.166 HD
ATOM     14  H   UNL     1     -44.688  35.230  27.584  1.00  0.00     0.065 H 
ENDROOT
BRANCH   1  15
ATOM     15  C   UNL     1     -46.119  36.988  29.152  1.00  0.00     0.068 C 
ATOM     16  H   UNL     1     -46.820  37.133  29.982  1.00  0.00     0.057 H 
ATOM     17  H   UNL     1     -45.175  36.622  29.571  1.00  0.00     0.057 H 
BRANCH  15  18
ATOM     18  N   UNL     1     -45.895  38.298  28.565  1.00  0.00    -0.247 N 
ATOM     19  C   UNL     1     -45.104  40.071  27.626  1.00  0.00     0.116 A 
ATOM     20  C   UNL     1     -44.750  38.797  28.010  1.00  0.00     0.054 A 
ATOM     21  N   UNL     1     -46.424  40.282  27.911  1.00  0.00    -0.130 NA
ATOM     22  H   UNL     1     -43.827  38.238  27.976  1.00  0.00     0.086 H 
ATOM     23  N   UNL     1     -46.905  39.182  28.474  1.00  0.00    -0.066 NA
BRANCH  19  24
ATOM     24  C   UNL     1     -44.244  41.051  27.003  1.00  0.00     0.044 A 
ATOM     25  C   UNL     1     -43.730  42.482  25.110  1.00  0.00     0.137 A 
ATOM     26  C   UNL     1     -42.630  42.931  25.831  1.00  0.00     0.070 A 
ATOM     27  C   UNL     1     -44.544  41.526  25.713  1.00  0.00    -0.006 A 
ATOM     28  N   UNL     1     -42.301  42.501  27.072  1.00  0.00    -0.241 NA
ATOM     29  H   UNL     1     -41.961  43.677  25.411  1.00  0.00     0.088 H 
ATOM     30  H   UNL     1     -45.426  41.146  25.206  1.00  0.00     0.067 H 
ATOM     31  C   UNL     1     -43.114  41.570  27.641  1.00  0.00     0.150 A 
BRANCH  25  32
ATOM     32  O   UNL     1     -43.900  43.033  23.875  1.00  0.00    -0.495 OA
BRANCH  32  33
ATOM     33  C   UNL     1     -43.248  44.273  23.624  1.00  0.00     0.078 C 
ATOM     34  H   UNL     1     -42.362  44.387  24.255  1.00  0.00     0.067 H 
ATOM     35  H   UNL     1     -42.993  44.376  22.563  1.00  0.00     0.067 H 
ATOM     36  H   UNL     1     -43.946  45.076  23.878  1.00  0.00     0.067 H 
ENDBRANCH  32  33
ENDBRANCH  25  32
BRANCH  31  37
ATOM     37  C   UNL     1     -42.672  41.125  28.939  1.00  0.00     0.120 C 
ATOM     38  N   UNL     1     -42.285  40.767  29.975  1.00  0.00    -0.191 NA
ENDBRANCH  31  37
ENDBRANCH  19  24
ENDBRANCH  15  18
ENDBRANCH   1  15
BRANCH   6  39
ATOM     39  C   UNL     1     -46.179  31.617  23.967  1.00  0.00     0.036 C 
ATOM     40  H   UNL     1     -46.492  31.925  22.964  1.00  0.00     0.049 H 
ATOM     41  H   UNL     1     -45.086  31.526  23.971  1.00  0.00     0.049 H 
BRANCH  39  42
ATOM     42  N   UNL     1     -46.800  30.349  24.350  1.00  0.00    -0.311 NA
ATOM     43  H   UNL     1     -46.080  29.629  24.268  1.00  0.00     0.123 HD
BRANCH  42  44
ATOM     44  C   UNL     1     -47.911  29.985  23.464  1.00  0.00    -0.002 C 
ATOM     45  H   UNL     1     -47.820  30.595  22.557  1.00  0.00     0.043 H 
ATOM     46  H   UNL     1     -48.873  30.253  23.917  1.00  0.00     0.043 H 
BRANCH  44  47
ATOM     47  C   UNL     1     -47.889  28.501  23.092  1.00  0.00    -0.029 C 
ATOM     48  C   UNL     1     -46.968  27.618  23.975  1.00  0.00    -0.049 C 
ATOM     49  C   UNL     1     -49.070  27.625  23.594  1.00  0.00    -0.049 C 
ATOM     50  H   UNL     1     -47.677  28.362  22.024  1.00  0.00     0.032 H 
ATOM     51  C   UNL     1     -48.207  27.250  24.813  1.00  0.00    -0.053 C 
ATOM     52  H   UNL     1     -46.535  26.765  23.438  1.00  0.00     0.027 H 
ATOM     53  H   UNL     1     -46.168  28.133  24.515  1.00  0.00     0.027 H 
ATOM     54  H   UNL     1     -49.290  26.774  22.937  1.00  0.00     0.027 H 
ATOM     55  H   UNL     1     -50.006  28.141  23.823  1.00  0.00     0.027 H 
ATOM     56  H   UNL     1     -48.362  27.898  25.681  1.00  0.00     0.027 H 
ATOM     57  H   UNL     1     -48.268  26.207  25.135  1.00  0.00     0.027 H 
ENDBRANCH  44  47
ENDBRANCH  42  44
ENDBRANCH  39  42
ENDBRANCH   6  39
TORSDOF 10
ENDMDL
MODEL 2
REMARK VINA RESULT:      -9.0      1.513      2.217
REMARK SMILES COc1cnc(C#N)c(-c2cn(Cc3ccc4cc(CNCC5CCC5)[nH]c4c3)nn2)c1
REMARK SMILES IDX 14 1 15 2 16 3 17 4 18 5 19 6 27 7 28 8 29 9 13 15 12 18
REMARK SMILES IDX 10 19 11 20 31 21 30 23 9 24 3 25 4 26 32 27 5 28 6 31 2 32
REMARK SMILES IDX 1 33 7 37 8 38 20 39 21 42 22 44 23 47 24 48 26 49 25 51
REMARK H PARENT 15 10 16 11 18 12 27 13 29 14 13 16 13 17 11 22 4 29 32 30
REMARK H PARENT 1 34 1 35 1 36 20 40 20 41 21 43 22 45 22 46 23 50 24 52 24 53
REMARK H PARENT 26 54 26 55 25 56 25 57
REMARK Flexibility Score: inf
ROOT
ATOM      1  C   UNL     1     -47.906  35.300  26.880  1.00  0.00    -0.024 A 
ATOM      2  C   UNL     1     -46.596  35.228  26.386  1.00  0.00    -0.056 A 
ATOM      3  C   UNL     1     -46.165  34.133  25.629  1.00  0.00    -0.052 A 
ATOM      4  C   UNL     1     -47.062  33.083  25.363  1.00  0.00    -0.000 A 
ATOM      5  C   UNL     1     -46.964  31.855  24.652  1.00  0.00    -0.032 A 
ATOM      6  C   UNL     1     -48.184  31.216  24.733  1.00  0.00     0.030 A 
ATOM      7  N   UNL     1     -49.017  32.025  25.470  1.00  0.00    -0.357 N 
ATOM      8  C   UNL     1     -48.359  33.166  25.865  1.00  0.00     0.046 A 
ATOM      9  C   UNL     1     -48.810  34.252  26.626  1.00  0.00    -0.033 A 
ATOM     10  H   UNL     1     -45.888  36.035  26.583  1.00  0.00     0.063 H 
ATOM     11  H   UNL     1     -45.147  34.097  25.251  1.00  0.00     0.063 H 
ATOM     12  H   UNL     1     -46.089  31.482  24.136  1.00  0.00     0.065 H 
ATOM     13  H   UNL     1     -49.969  31.778  25.707  1.00  0.00     0.166 HD
ATOM     14  H   UNL     1     -49.828  34.276  27.003  1.00  0.00     0.065 H 
ENDROOT
BRANCH   1  15
ATOM     15  C   UNL     1     -48.346  36.496  27.691  1.00  0.00     0.068 C 
ATOM     16  H   UNL     1     -49.158  37.043  27.198  1.00  0.00     0.057 H 
ATOM     17  H   UNL     1     -48.710  36.170  28.672  1.00  0.00     0.057 H 
BRANCH  15  18
ATOM     18  N   UNL     1     -47.266  37.448  27.886  1.00  0.00    -0.247 N 
ATOM     19  C   UNL     1     -45.828  39.050  27.751  1.00  0.00     0.116 A 
ATOM     20  C   UNL     1     -46.911  38.506  27.097  1.00  0.00     0.054 A 
ATOM     21  N   UNL     1     -45.594  38.353  28.903  1.00  0.00    -0.130 NA
ATOM     22  H   UNL     1     -47.417  38.738  26.172  1.00  0.00     0.086 H 
ATOM     23  N   UNL     1     -46.492  37.380  28.985  1.00  0.00    -0.066 NA
BRANCH  19  24
ATOM     24  C   UNL     1     -45.047  40.187  27.321  1.00  0.00     0.044 A 
ATOM     25  C   UNL     1     -44.676  41.992  25.739  1.00  0.00     0.137 A 
ATOM     26  C   UNL     1     -43.587  42.364  26.519  1.00  0.00     0.070 A 
ATOM     27  C   UNL     1     -45.411  40.884  26.153  1.00  0.00    -0.006 A 
ATOM     28  N   UNL     1     -43.198  41.723  27.647  1.00  0.00    -0.241 NA
ATOM     29  H   UNL     1     -42.977  43.221  26.245  1.00  0.00     0.088 H 
ATOM     30  H   UNL     1     -46.280  40.552  25.593  1.00  0.00     0.067 H 
ATOM     31  C   UNL     1     -43.937  40.646  28.033  1.00  0.00     0.150 A 
BRANCH  25  32
ATOM     32  O   UNL     1     -44.912  42.761  24.639  1.00  0.00    -0.495 OA
BRANCH  32  33
ATOM     33  C   UNL     1     -43.824  42.961  23.743  1.00  0.00     0.078 C 
ATOM     34  H   UNL     1     -43.888  43.940  23.259  1.00  0.00     0.067 H 
ATOM     35  H   UNL     1     -42.863  42.837  24.256  1.00  0.00     0.067 H 
ATOM     36  H   UNL     1     -43.887  42.197  22.963  1.00  0.00     0.067 H 
ENDBRANCH  32  33
ENDBRANCH  25  32
BRANCH  31  37
ATOM     37  C   UNL     1     -43.433  39.987  29.212  1.00  0.00     0.120 C 
ATOM     38  N   UNL     1     -43.041  39.476  30.180  1.00  0.00    -0.191 NA
ENDBRANCH  31  37
ENDBRANCH  19  24
ENDBRANCH  15  18
ENDBRANCH   1  15
BRANCH   6  39
ATOM     39  C   UNL     1     -48.658  29.919  24.173  1.00  0.00     0.036 C 
ATOM     40  H   UNL     1     -49.702  29.778  24.476  1.00  0.00     0.049 H 
ATOM     41  H   UNL     1     -48.622  29.956  23.078  1.00  0.00     0.049 H 
BRANCH  39  42
ATOM     42  N   UNL     1     -47.809  28.842  24.679  1.00  0.00    -0.311 NA
ATOM     43  H   UNL     1     -47.490  28.310  23.867  1.00  0.00     0.123 HD
BRANCH  42  44
ATOM     44  C   UNL     1     -48.538  27.928  25.566  1.00  0.00    -0.002 C 
ATOM     45  H   UNL     1     -49.609  28.071  25.372  1.00  0.00     0.043 H 
ATOM     46  H   UNL     1     -48.379  28.198  26.616  1.00  0.00     0.043 H 
BRANCH  44  47
ATOM     47  C   UNL     1     -48.160  26.466  25.324  1.00  0.00    -0.029 C 
ATOM     48  C   UNL     1     -46.637  26.170  25.353  1.00  0.00    -0.049 C 
ATOM     49  C   UNL     1     -48.288  25.491  26.528  1.00  0.00    -0.049 C 
ATOM     50  H   UNL     1     -48.628  26.080  24.410  1.00  0.00     0.032 H 
ATOM     51  C   UNL     1     -46.798  25.744  26.825  1.00  0.00    -0.053 C 
ATOM     52  H   UNL     1     -46.339  25.348  24.691  1.00  0.00     0.027 H 
ATOM     53  H   UNL     1     -45.971  27.020  25.178  1.00  0.00     0.027 H 
ATOM     54  H   UNL     1     -48.503  24.458  26.229  1.00  0.00     0.027 H 
ATOM     55  H   UNL     1     -48.980  25.777  27.323  1.00  0.00     0.027 H 
ATOM     56  H   UNL     1     -46.621  26.553  27.542  1.00  0.00     0.027 H 
ATOM     57  H   UNL     1     -46.220  24.868  27.130  1.00  0.00     0.027 H 
ENDBRANCH  44  47
ENDBRANCH  42  44
ENDBRANCH  39  42
ENDBRANCH   6  39
TORSDOF 10
ENDMDL
MODEL 3
REMARK VINA RESULT:      -9.0      1.922      3.036
REMARK SMILES COc1cnc(C#N)c(-c2cn(Cc3ccc4cc(CNCC5CCC5)[nH]c4c3)nn2)c1
REMARK SMILES IDX 14 1 15 2 16 3 17 4 18 5 19 6 27 7 28 8 29 9 13 15 12 18
REMARK SMILES IDX 10 19 11 20 31 21 30 23 9 24 3 25 4 26 32 27 5 28 6 31 2 32
REMARK SMILES IDX 1 33 7 37 8 38 20 39 21 42 22 44 23 47 24 48 26 49 25 51
REMARK H PARENT 15 10 16 11 18 12 27 13 29 14 13 16 13 17 11 22 4 29 32 30
REMARK H PARENT 1 34 1 35 1 36 20 40 20 41 21 43 22 45 22 46 23 50 24 52 24 53
REMARK H PARENT 26 54 26 55 25 56 25 57
REMARK Flexibility Score: inf
ROOT
ATOM      1  C   UNL     1     -47.923  35.269  26.938  1.00  0.00    -0.024 A 
ATOM      2  C   UNL     1     -46.583  35.204  26.529  1.00  0.00    -0.056 A 
ATOM      3  C   UNL     1     -46.103  34.117  25.791  1.00  0.00    -0.052 A 
ATOM      4  C   UNL     1     -46.979  33.069  25.457  1.00  0.00    -0.000 A 
ATOM      5  C   UNL     1     -46.833  31.848  24.742  1.00  0.00    -0.032 A 
ATOM      6  C   UNL     1     -48.055  31.207  24.737  1.00  0.00     0.030 A 
ATOM      7  N   UNL     1     -48.934  32.008  25.427  1.00  0.00    -0.357 N 
ATOM      8  C   UNL     1     -48.306  33.145  25.875  1.00  0.00     0.046 A 
ATOM      9  C   UNL     1     -48.807  34.223  26.616  1.00  0.00    -0.033 A 
ATOM     10  H   UNL     1     -45.891  36.009  26.779  1.00  0.00     0.063 H 
ATOM     11  H   UNL     1     -45.062  34.086  25.479  1.00  0.00     0.063 H 
ATOM     12  H   UNL     1     -45.926  31.481  24.279  1.00  0.00     0.065 H 
ATOM     13  H   UNL     1     -49.900  31.757  25.599  1.00  0.00     0.166 HD
ATOM     14  H   UNL     1     -49.847  34.242  26.927  1.00  0.00     0.065 H 
ENDROOT
BRANCH   1  15
ATOM     15  C   UNL     1     -48.417  36.457  27.731  1.00  0.00     0.068 C 
ATOM     16  H   UNL     1     -49.264  36.948  27.238  1.00  0.00     0.057 H 
ATOM     17  H   UNL     1     -48.750  36.133  28.723  1.00  0.00     0.057 H 
BRANCH  15  18
ATOM     18  N   UNL     1     -47.388  37.470  27.890  1.00  0.00    -0.247 N 
ATOM     19  C   UNL     1     -46.028  39.133  27.691  1.00  0.00     0.116 A 
ATOM     20  C   UNL     1     -47.074  38.504  27.054  1.00  0.00     0.054 A 
ATOM     21  N   UNL     1     -45.777  38.507  28.880  1.00  0.00    -0.130 NA
ATOM     22  H   UNL     1     -47.577  38.664  26.112  1.00  0.00     0.086 H 
ATOM     23  N   UNL     1     -46.627  37.495  29.000  1.00  0.00    -0.066 NA
BRANCH  19  24
ATOM     24  C   UNL     1     -45.299  40.285  27.214  1.00  0.00     0.044 A 
ATOM     25  C   UNL     1     -43.183  41.420  26.854  1.00  0.00     0.137 A 
ATOM     26  C   UNL     1     -43.910  42.456  26.282  1.00  0.00     0.070 A 
ATOM     27  C   UNL     1     -43.897  40.322  27.327  1.00  0.00    -0.006 A 
ATOM     28  N   UNL     1     -45.258  42.467  26.155  1.00  0.00    -0.241 NA
ATOM     29  H   UNL     1     -43.406  43.339  25.896  1.00  0.00     0.088 H 
ATOM     30  H   UNL     1     -43.384  39.475  27.772  1.00  0.00     0.067 H 
ATOM     31  C   UNL     1     -45.933  41.379  26.619  1.00  0.00     0.150 A 
BRANCH  25  32
ATOM     32  O   UNL     1     -41.831  41.590  26.893  1.00  0.00    -0.495 OA
BRANCH  32  33
ATOM     33  C   UNL     1     -41.207  41.530  28.171  1.00  0.00     0.078 C 
ATOM     34  H   UNL     1     -40.649  42.447  28.379  1.00  0.00     0.067 H 
ATOM     35  H   UNL     1     -41.941  41.326  28.958  1.00  0.00     0.067 H 
ATOM     36  H   UNL     1     -40.494  40.700  28.156  1.00  0.00     0.067 H 
ENDBRANCH  32  33
ENDBRANCH  25  32
BRANCH  31  37
ATOM     37  C   UNL     1     -47.365  41.485  26.496  1.00  0.00     0.120 C 
ATOM     38  N   UNL     1     -48.518  41.600  26.405  1.00  0.00    -0.191 NA
ENDBRANCH  31  37
ENDBRANCH  19  24
ENDBRANCH  15  18
ENDBRANCH   1  15
BRANCH   6  39
ATOM     39  C   UNL     1     -48.489  29.915  24.135  1.00  0.00     0.036 C 
ATOM     40  H   UNL     1     -49.530  29.737  24.426  1.00  0.00     0.049 H 
ATOM     41  H   UNL     1     -48.447  29.986  23.042  1.00  0.00     0.049 H 
BRANCH  39  42
ATOM     42  N   UNL     1     -47.614  28.847  24.615  1.00  0.00    -0.311 NA
ATOM     43  H   UNL     1     -47.352  28.290  23.799  1.00  0.00     0.123 HD
BRANCH  42  44
ATOM     44  C   UNL     1     -48.289  27.963  25.572  1.00  0.00    -0.002 C 
ATOM     45  H   UNL     1     -49.344  28.259  25.602  1.00  0.00     0.043 H 
ATOM     46  H   UNL     1     -47.898  28.119  26.585  1.00  0.00     0.043 H 
BRANCH  44  47
ATOM     47  C   UNL     1     -48.177  26.490  25.176  1.00  0.00    -0.029 C 
ATOM     48  C   UNL     1     -46.842  25.804  25.572  1.00  0.00    -0.049 C 
ATOM     49  C   UNL     1     -48.885  25.452  26.090  1.00  0.00    -0.049 C 
ATOM     50  H   UNL     1     -48.402  26.347  24.111  1.00  0.00     0.032 H 
ATOM     51  C   UNL     1     -47.548  25.270  26.833  1.00  0.00    -0.053 C 
ATOM     52  H   UNL     1     -46.534  25.014  24.877  1.00  0.00     0.027 H 
ATOM     53  H   UNL     1     -45.989  26.464  25.753  1.00  0.00     0.027 H 
ATOM     54  H   UNL     1     -49.212  24.553  25.554  1.00  0.00     0.027 H 
ATOM     55  H   UNL     1     -49.715  25.816  26.700  1.00  0.00     0.027 H 
ATOM     56  H   UNL     1     -47.438  25.918  27.709  1.00  0.00     0.027 H 
ATOM     57  H   UNL     1     -47.299  24.245  27.117  1.00  0.00     0.027 H 
ENDBRANCH  44  47
ENDBRANCH  42  44
ENDBRANCH  39  42
ENDBRANCH   6  39
TORSDOF 10
ENDMDL
MODEL 4
REMARK VINA RESULT:      -8.4      4.004      5.363
REMARK SMILES COc1cnc(C#N)c(-c2cn(Cc3ccc4cc(CNCC5CCC5)[nH]c4c3)nn2)c1
REMARK SMILES IDX 14 1 15 2 16 3 17 4 18 5 19 6 27 7 28 8 29 9 13 15 12 18
REMARK SMILES IDX 10 19 11 20 31 21 30 23 9 24 3 25 4 26 32 27 5 28 6 31 2 32
REMARK SMILES IDX 1 33 7 37 8 38 20 39 21 42 22 44 23 47 24 48 26 49 25 51
REMARK H PARENT 15 10 16 11 18 12 27 13 29 14 13 16 13 17 11 22 4 29 32 30
REMARK H PARENT 1 34 1 35 1 36 20 40 20 41 21 43 22 45 22 46 23 50 24 52 24 53
REMARK H PARENT 26 54 26 55 25 56 25 57
REMARK Flexibility Score: inf
ROOT
ATOM      1  C   UNL     1     -46.859  33.496  25.874  1.00  0.00    -0.024 A 
ATOM      2  C   UNL     1     -48.225  33.489  26.189  1.00  0.00    -0.056 A 
ATOM      3  C   UNL     1     -49.072  32.474  25.729  1.00  0.00    -0.052 A 
ATOM      4  C   UNL     1     -48.541  31.444  24.931  1.00  0.00    -0.000 A 
ATOM      5  C   UNL     1     -49.096  30.292  24.308  1.00  0.00    -0.032 A 
ATOM      6  C   UNL     1     -48.082  29.640  23.636  1.00  0.00     0.030 A 
ATOM      7  N   UNL     1     -46.932  30.366  23.839  1.00  0.00    -0.357 N 
ATOM      8  C   UNL     1     -47.183  31.467  24.622  1.00  0.00     0.046 A 
ATOM      9  C   UNL     1     -46.320  32.474  25.071  1.00  0.00    -0.033 A 
ATOM     10  H   UNL     1     -48.651  34.281  26.808  1.00  0.00     0.063 H 
ATOM     11  H   UNL     1     -50.127  32.484  25.987  1.00  0.00     0.063 H 
ATOM     12  H   UNL     1     -50.130  29.976  24.352  1.00  0.00     0.065 H 
ATOM     13  H   UNL     1     -46.039  30.123  23.427  1.00  0.00     0.166 HD
ATOM     14  H   UNL     1     -45.268  32.458  24.803  1.00  0.00     0.065 H 
ENDROOT
BRANCH   1  15
ATOM     15  C   UNL     1     -45.967  34.602  26.388  1.00  0.00     0.068 C 
ATOM     16  H   UNL     1     -45.148  34.208  27.002  1.00  0.00     0.057 H 
ATOM     17  H   UNL     1     -45.523  35.146  25.547  1.00  0.00     0.057 H 
BRANCH  15  18
ATOM     18  N   UNL     1     -46.694  35.542  27.223  1.00  0.00    -0.247 N 
ATOM     19  C   UNL     1     -47.918  37.126  28.028  1.00  0.00     0.116 A 
ATOM     20  C   UNL     1     -47.506  36.571  26.836  1.00  0.00     0.054 A 
ATOM     21  N   UNL     1     -47.396  36.409  29.068  1.00  0.00    -0.130 NA
ATOM     22  H   UNL     1     -47.675  36.822  25.800  1.00  0.00     0.086 H 
ATOM     23  N   UNL     1     -46.657  35.429  28.563  1.00  0.00    -0.066 NA
BRANCH  19  24
ATOM     24  C   UNL     1     -48.780  38.274  28.189  1.00  0.00     0.044 A 
ATOM     25  C   UNL     1     -49.039  40.662  28.545  1.00  0.00     0.137 A 
ATOM     26  C   UNL     1     -50.411  40.459  28.464  1.00  0.00     0.070 A 
ATOM     27  C   UNL     1     -48.218  39.546  28.405  1.00  0.00    -0.006 A 
ATOM     28  N   UNL     1     -50.997  39.256  28.260  1.00  0.00    -0.241 NA
ATOM     29  H   UNL     1     -51.101  41.294  28.565  1.00  0.00     0.088 H 
ATOM     30  H   UNL     1     -47.137  39.642  28.446  1.00  0.00     0.067 H 
ATOM     31  C   UNL     1     -50.173  38.181  28.121  1.00  0.00     0.150 A 
BRANCH  25  32
ATOM     32  O   UNL     1     -48.637  41.947  28.754  1.00  0.00    -0.495 OA
BRANCH  32  33
ATOM     33  C   UNL     1     -49.549  42.810  29.424  1.00  0.00     0.078 C 
ATOM     34  H   UNL     1     -50.489  42.295  29.644  1.00  0.00     0.067 H 
ATOM     35  H   UNL     1     -49.103  43.224  30.336  1.00  0.00     0.067 H 
ATOM     36  H   UNL     1     -49.773  43.646  28.754  1.00  0.00     0.067 H 
ENDBRANCH  32  33
ENDBRANCH  25  32
BRANCH  31  37
ATOM     37  C   UNL     1     -50.869  36.930  27.958  1.00  0.00     0.120 C 
ATOM     38  N   UNL     1     -51.454  35.936  27.814  1.00  0.00    -0.191 NA
ENDBRANCH  31  37
ENDBRANCH  19  24
ENDBRANCH  15  18
ENDBRANCH   1  15
BRANCH   6  39
ATOM     39  C   UNL     1     -48.079  28.389  22.829  1.00  0.00     0.036 C 
ATOM     40  H   UNL     1     -48.877  28.462  22.082  1.00  0.00     0.049 H 
ATOM     41  H   UNL     1     -47.123  28.295  22.300  1.00  0.00     0.049 H 
BRANCH  39  42
ATOM     42  N   UNL     1     -48.288  27.246  23.718  1.00  0.00    -0.311 NA
ATOM     43  H   UNL     1     -49.132  27.443  24.259  1.00  0.00     0.123 HD
BRANCH  42  44
ATOM     44  C   UNL     1     -47.177  27.063  24.658  1.00  0.00    -0.002 C 
ATOM     45  H   UNL     1     -46.601  27.997  24.669  1.00  0.00     0.043 H 
ATOM     46  H   UNL     1     -46.491  26.285  24.301  1.00  0.00     0.043 H 
BRANCH  44  47
ATOM     47  C   UNL     1     -47.664  26.740  26.072  1.00  0.00    -0.029 C 
ATOM     48  C   UNL     1     -48.623  25.524  26.171  1.00  0.00    -0.049 C 
ATOM     49  C   UNL     1     -46.696  25.947  26.993  1.00  0.00    -0.049 C 
ATOM     50  H   UNL     1     -48.088  27.628  26.558  1.00  0.00     0.032 H 
ATOM     51  C   UNL     1     -47.405  24.656  26.540  1.00  0.00    -0.053 C 
ATOM     52  H   UNL     1     -49.357  25.613  26.982  1.00  0.00     0.027 H 
ATOM     53  H   UNL     1     -49.147  25.238  25.255  1.00  0.00     0.027 H 
ATOM     54  H   UNL     1     -46.833  26.168  28.059  1.00  0.00     0.027 H 
ATOM     55  H   UNL     1     -45.631  26.005  26.758  1.00  0.00     0.027 H 
ATOM     56  H   UNL     1     -46.931  24.171  25.681  1.00  0.00     0.027 H 
ATOM     57  H   UNL     1     -47.574  23.910  27.320  1.00  0.00     0.027 H 
ENDBRANCH  44  47
ENDBRANCH  42  44
ENDBRANCH  39  42
ENDBRANCH   6  39
TORSDOF 10
ENDMDL
MODEL 5
REMARK VINA RESULT:      -8.4      3.296     11.331
REMARK SMILES COc1cnc(C#N)c(-c2cn(Cc3ccc4cc(CNCC5CCC5)[nH]c4c3)nn2)c1
REMARK SMILES IDX 14 1 15 2 16 3 17 4 18 5 19 6 27 7 28 8 29 9 13 15 12 18
REMARK SMILES IDX 10 19 11 20 31 21 30 23 9 24 3 25 4 26 32 27 5 28 6 31 2 32
REMARK SMILES IDX 1 33 7 37 8 38 20 39 21 42 22 44 23 47 24 48 26 49 25 51
REMARK H PARENT 15 10 16 11 18 12 27 13 29 14 13 16 13 17 11 22 4 29 32 30
REMARK H PARENT 1 34 1 35 1 36 20 40 20 41 21 43 22 45 22 46 23 50 24 52 24 53
REMARK H PARENT 26 54 26 55 25 56 25 57
REMARK Flexibility Score: inf
ROOT
ATOM      1  C   UNL     1     -47.524  36.102  27.536  1.00  0.00    -0.024 A 
ATOM      2  C   UNL     1     -46.988  35.755  28.785  1.00  0.00    -0.056 A 
ATOM      3  C   UNL     1     -45.999  36.537  29.392  1.00  0.00    -0.052 A 
ATOM      4  C   UNL     1     -45.532  37.690  28.736  1.00  0.00    -0.000 A 
ATOM      5  C   UNL     1     -44.563  38.683  29.051  1.00  0.00    -0.032 A 
ATOM      6  C   UNL     1     -44.524  39.587  28.010  1.00  0.00     0.030 A 
ATOM      7  N   UNL     1     -45.444  39.170  27.077  1.00  0.00    -0.357 N 
ATOM      8  C   UNL     1     -46.069  38.019  27.493  1.00  0.00     0.046 A 
ATOM      9  C   UNL     1     -47.059  37.249  26.868  1.00  0.00    -0.033 A 
ATOM     10  H   UNL     1     -47.340  34.865  29.307  1.00  0.00     0.063 H 
ATOM     11  H   UNL     1     -45.599  36.255  30.362  1.00  0.00     0.063 H 
ATOM     12  H   UNL     1     -43.960  38.727  29.949  1.00  0.00     0.065 H 
ATOM     13  H   UNL     1     -45.597  39.641  26.194  1.00  0.00     0.166 HD
ATOM     14  H   UNL     1     -47.448  37.537  25.896  1.00  0.00     0.065 H 
ENDROOT
BRANCH   1  15
ATOM     15  C   UNL     1     -48.594  35.242  26.905  1.00  0.00     0.068 C 
ATOM     16  H   UNL     1     -49.371  34.968  27.628  1.00  0.00     0.057 H 
ATOM     17  H   UNL     1     -49.076  35.787  26.086  1.00  0.00     0.057 H 
BRANCH  15  18
ATOM     18  N   UNL     1     -48.055  33.997  26.385  1.00  0.00    -0.247 N 
ATOM     19  C   UNL     1     -47.730  32.028  25.567  1.00  0.00     0.116 A 
ATOM     20  C   UNL     1     -48.732  32.904  25.924  1.00  0.00     0.054 A 
ATOM     21  N   UNL     1     -46.515  32.617  25.774  1.00  0.00    -0.130 NA
ATOM     22  H   UNL     1     -49.810  32.842  25.928  1.00  0.00     0.086 H 
ATOM     23  N   UNL     1     -46.725  33.833  26.264  1.00  0.00    -0.066 NA
BRANCH  19  24
ATOM     24  C   UNL     1     -47.903  30.694  25.038  1.00  0.00     0.044 A 
ATOM     25  C   UNL     1     -48.790  28.447  25.279  1.00  0.00     0.137 A 
ATOM     26  C   UNL     1     -48.259  28.173  24.025  1.00  0.00     0.070 A 
ATOM     27  C   UNL     1     -48.603  29.730  25.787  1.00  0.00    -0.006 A 
ATOM     28  N   UNL     1     -47.576  29.066  23.270  1.00  0.00    -0.241 NA
ATOM     29  H   UNL     1     -48.374  27.188  23.578  1.00  0.00     0.088 H 
ATOM     30  H   UNL     1     -49.007  30.010  26.755  1.00  0.00     0.067 H 
ATOM     31  C   UNL     1     -47.411  30.315  23.787  1.00  0.00     0.150 A 
BRANCH  25  32
ATOM     32  O   UNL     1     -49.447  27.419  25.887  1.00  0.00    -0.495 OA
BRANCH  32  33
ATOM     33  C   UNL     1     -49.174  26.105  25.412  1.00  0.00     0.078 C 
ATOM     34  H   UNL     1     -49.422  25.354  26.168  1.00  0.00     0.067 H 
ATOM     35  H   UNL     1     -49.701  25.908  24.472  1.00  0.00     0.067 H 
ATOM     36  H   UNL     1     -48.100  26.038  25.213  1.00  0.00     0.067 H 
ENDBRANCH  32  33
ENDBRANCH  25  32
BRANCH  31  37
ATOM     37  C   UNL     1     -46.633  31.193  22.950  1.00  0.00     0.120 C 
ATOM     38  N   UNL     1     -45.980  31.898  22.295  1.00  0.00    -0.191 NA
ENDBRANCH  31  37
ENDBRANCH  19  24
ENDBRANCH  15  18
ENDBRANCH   1  15
BRANCH   6  39
ATOM     39  C   UNL     1     -43.717  40.822  27.805  1.00  0.00     0.036 C 
ATOM     40  H   UNL     1     -43.288  41.114  28.769  1.00  0.00     0.049 H 
ATOM     41  H   UNL     1     -42.892  40.611  27.114  1.00  0.00     0.049 H 
BRANCH  39  42
ATOM     42  N   UNL     1     -44.580  41.873  27.268  1.00  0.00    -0.311 NA
ATOM     43  H   UNL     1     -45.098  41.462  26.489  1.00  0.00     0.123 HD
BRANCH  42  44
ATOM     44  C   UNL     1     -43.814  43.014  26.754  1.00  0.00    -0.002 C 
ATOM     45  H   UNL     1     -43.060  43.268  27.509  1.00  0.00     0.043 H 
ATOM     46  H   UNL     1     -44.455  43.898  26.652  1.00  0.00     0.043 H 
BRANCH  44  47
ATOM     47  C   UNL     1     -43.126  42.695  25.424  1.00  0.00    -0.029 C 
ATOM     48  C   UNL     1     -44.047  42.771  24.177  1.00  0.00    -0.049 C 
ATOM     49  C   UNL     1     -42.286  43.826  24.770  1.00  0.00    -0.049 C 
ATOM     50  H   UNL     1     -42.592  41.738  25.473  1.00  0.00     0.032 H 
ATOM     51  C   UNL     1     -43.530  44.204  23.944  1.00  0.00    -0.053 C 
ATOM     52  H   UNL     1     -43.763  42.071  23.382  1.00  0.00     0.027 H 
ATOM     53  H   UNL     1     -45.122  42.680  24.357  1.00  0.00     0.027 H 
ATOM     54  H   UNL     1     -41.455  43.452  24.160  1.00  0.00     0.027 H 
ATOM     55  H   UNL     1     -41.908  44.608  25.433  1.00  0.00     0.027 H 
ATOM     56  H   UNL     1     -44.150  44.978  24.408  1.00  0.00     0.027 H 
ATOM     57  H   UNL     1     -43.344  44.477  22.903  1.00  0.00     0.027 H 
ENDBRANCH  44  47
ENDBRANCH  42  44
ENDBRANCH  39  42
ENDBRANCH   6  39
TORSDOF 10
ENDMDL
MODEL 6
REMARK VINA RESULT:      -8.4      1.462      2.603
REMARK SMILES COc1cnc(C#N)c(-c2cn(Cc3ccc4cc(CNCC5CCC5)[nH]c4c3)nn2)c1
REMARK SMILES IDX 14 1 15 2 16 3 17 4 18 5 19 6 27 7 28 8 29 9 13 15 12 18
REMARK SMILES IDX 10 19 11 20 31 21 30 23 9 24 3 25 4 26 32 27 5 28 6 31 2 32
REMARK SMILES IDX 1 33 7 37 8 38 20 39 21 42 22 44 23 47 24 48 26 49 25 51
REMARK H PARENT 15 10 16 11 18 12 27 13 29 14 13 16 13 17 11 22 4 29 32 30
REMARK H PARENT 1 34 1 35 1 36 20 40 20 41 21 43 22 45 22 46 23 50 24 52 24 53
REMARK H PARENT 26 54 26 55 25 56 25 57
REMARK Flexibility Score: inf
ROOT
ATOM      1  C   UNL     1     -45.718  37.248  28.726  1.00  0.00    -0.024 A 
ATOM      2  C   UNL     1     -46.942  37.704  28.214  1.00  0.00    -0.056 A 
ATOM      3  C   UNL     1     -47.732  36.892  27.392  1.00  0.00    -0.052 A 
ATOM      4  C   UNL     1     -47.287  35.597  27.070  1.00  0.00    -0.000 A 
ATOM      5  C   UNL     1     -47.818  34.537  26.285  1.00  0.00    -0.032 A 
ATOM      6  C   UNL     1     -46.925  33.486  26.327  1.00  0.00     0.030 A 
ATOM      7  N   UNL     1     -45.872  33.882  27.118  1.00  0.00    -0.357 N 
ATOM      8  C   UNL     1     -46.067  35.160  27.582  1.00  0.00     0.046 A 
ATOM      9  C   UNL     1     -45.261  35.957  28.405  1.00  0.00    -0.033 A 
ATOM     10  H   UNL     1     -47.301  38.706  28.455  1.00  0.00     0.063 H 
ATOM     11  H   UNL     1     -48.679  37.261  27.008  1.00  0.00     0.063 H 
ATOM     12  H   UNL     1     -48.757  34.546  25.747  1.00  0.00     0.065 H 
ATOM     13  H   UNL     1     -45.057  33.306  27.292  1.00  0.00     0.166 HD
ATOM     14  H   UNL     1     -44.314  35.581  28.779  1.00  0.00     0.065 H 
ENDROOT
BRANCH   1  15
ATOM     15  C   UNL     1     -44.888  38.144  29.614  1.00  0.00     0.068 C 
ATOM     16  H   UNL     1     -45.473  38.535  30.455  1.00  0.00     0.057 H 
ATOM     17  H   UNL     1     -44.043  37.582  30.028  1.00  0.00     0.057 H 
BRANCH  15  18
ATOM     18  N   UNL     1     -44.375  39.298  28.896  1.00  0.00    -0.247 N 
ATOM     19  C   UNL     1     -43.978  40.905  27.513  1.00  0.00     0.116 A 
ATOM     20  C   UNL     1     -44.832  39.848  27.732  1.00  0.00     0.054 A 
ATOM     21  N   UNL     1     -43.084  40.989  28.544  1.00  0.00    -0.130 NA
ATOM     22  H   UNL     1     -45.660  39.431  27.177  1.00  0.00     0.086 H 
ATOM     23  N   UNL     1     -43.346  40.006  29.396  1.00  0.00    -0.066 NA
BRANCH  19  24
ATOM     24  C   UNL     1     -44.004  41.813  26.389  1.00  0.00     0.044 A 
ATOM     25  C   UNL     1     -42.812  43.194  24.787  1.00  0.00     0.137 A 
ATOM     26  C   UNL     1     -44.048  43.511  24.239  1.00  0.00     0.070 A 
ATOM     27  C   UNL     1     -42.799  42.332  25.881  1.00  0.00    -0.006 A 
ATOM     28  N   UNL     1     -45.232  43.040  24.695  1.00  0.00    -0.241 NA
ATOM     29  H   UNL     1     -44.119  44.179  23.384  1.00  0.00     0.088 H 
ATOM     30  H   UNL     1     -41.863  42.036  26.345  1.00  0.00     0.067 H 
ATOM     31  C   UNL     1     -45.193  42.194  25.762  1.00  0.00     0.150 A 
BRANCH  25  32
ATOM     32  O   UNL     1     -41.729  43.767  24.189  1.00  0.00    -0.495 OA
BRANCH  32  33
ATOM     33  C   UNL     1     -41.663  43.703  22.769  1.00  0.00     0.078 C 
ATOM     34  H   UNL     1     -41.861  42.688  22.412  1.00  0.00     0.067 H 
ATOM     35  H   UNL     1     -42.348  44.424  22.310  1.00  0.00     0.067 H 
ATOM     36  H   UNL     1     -40.646  43.971  22.469  1.00  0.00     0.067 H 
ENDBRANCH  32  33
ENDBRANCH  25  32
BRANCH  31  37
ATOM     37  C   UNL     1     -46.493  41.775  26.222  1.00  0.00     0.120 C 
ATOM     38  N   UNL     1     -47.552  41.466  26.588  1.00  0.00    -0.191 NA
ENDBRANCH  31  37
ENDBRANCH  19  24
ENDBRANCH  15  18
ENDBRANCH   1  15
BRANCH   6  39
ATOM     39  C   UNL     1     -46.964  32.132  25.707  1.00  0.00     0.036 C 
ATOM     40  H   UNL     1     -46.923  31.388  26.510  1.00  0.00     0.049 H 
ATOM     41  H   UNL     1     -47.910  32.001  25.168  1.00  0.00     0.049 H 
BRANCH  39  42
ATOM     42  N   UNL     1     -45.829  31.992  24.795  1.00  0.00    -0.311 NA
ATOM     43  H   UNL     1     -45.520  32.936  24.560  1.00  0.00     0.123 HD
BRANCH  42  44
ATOM     44  C   UNL     1     -46.199  31.310  23.549  1.00  0.00    -0.002 C 
ATOM     45  H   UNL     1     -45.351  30.678  23.259  1.00  0.00     0.043 H 
ATOM     46  H   UNL     1     -46.332  32.034  22.736  1.00  0.00     0.043 H 
BRANCH  44  47
ATOM     47  C   UNL     1     -47.453  30.450  23.711  1.00  0.00    -0.029 C 
ATOM     48  C   UNL     1     -48.571  30.719  22.669  1.00  0.00    -0.049 C 
ATOM     49  C   UNL     1     -47.398  29.001  23.155  1.00  0.00    -0.049 C 
ATOM     50  H   UNL     1     -47.839  30.500  24.737  1.00  0.00     0.032 H 
ATOM     51  C   UNL     1     -48.028  29.531  21.853  1.00  0.00    -0.053 C 
ATOM     52  H   UNL     1     -49.582  30.554  23.061  1.00  0.00     0.027 H 
ATOM     53  H   UNL     1     -48.546  31.690  22.165  1.00  0.00     0.027 H 
ATOM     54  H   UNL     1     -48.045  28.302  23.698  1.00  0.00     0.027 H 
ATOM     55  H   UNL     1     -46.409  28.550  23.048  1.00  0.00     0.027 H 
ATOM     56  H   UNL     1     -47.294  29.816  21.091  1.00  0.00     0.027 H 
ATOM     57  H   UNL     1     -48.782  28.888  21.394  1.00  0.00     0.027 H 
ENDBRANCH  44  47
ENDBRANCH  42  44
ENDBRANCH  39  42
ENDBRANCH   6  39
TORSDOF 10
ENDMDL
MODEL 7
REMARK VINA RESULT:      -8.3      3.918     11.952
REMARK SMILES COc1cnc(C#N)c(-c2cn(Cc3ccc4cc(CNCC5CCC5)[nH]c4c3)nn2)c1
REMARK SMILES IDX 14 1 15 2 16 3 17 4 18 5 19 6 27 7 28 8 29 9 13 15 12 18
REMARK SMILES IDX 10 19 11 20 31 21 30 23 9 24 3 25 4 26 32 27 5 28 6 31 2 32
REMARK SMILES IDX 1 33 7 37 8 38 20 39 21 42 22 44 23 47 24 48 26 49 25 51
REMARK H PARENT 15 10 16 11 18 12 27 13 29 14 13 16 13 17 11 22 4 29 32 30
REMARK H PARENT 1 34 1 35 1 36 20 40 20 41 21 43 22 45 22 46 23 50 24 52 24 53
REMARK H PARENT 26 54 26 55 25 56 25 57
REMARK Flexibility Score: inf
ROOT
ATOM      1  C   UNL     1     -46.906  33.341  25.310  1.00  0.00    -0.024 A 
ATOM      2  C   UNL     1     -48.258  33.456  25.663  1.00  0.00    -0.056 A 
ATOM      3  C   UNL     1     -48.674  34.347  26.660  1.00  0.00    -0.052 A 
ATOM      4  C   UNL     1     -47.716  35.136  27.321  1.00  0.00    -0.000 A 
ATOM      5  C   UNL     1     -47.783  36.113  28.353  1.00  0.00    -0.032 A 
ATOM      6  C   UNL     1     -46.501  36.556  28.606  1.00  0.00     0.030 A 
ATOM      7  N   UNL     1     -45.663  35.876  27.753  1.00  0.00    -0.357 N 
ATOM      8  C   UNL     1     -46.376  35.007  26.963  1.00  0.00     0.046 A 
ATOM      9  C   UNL     1     -45.939  34.122  25.969  1.00  0.00    -0.033 A 
ATOM     10  H   UNL     1     -49.013  32.851  25.159  1.00  0.00     0.063 H 
ATOM     11  H   UNL     1     -49.726  34.425  26.918  1.00  0.00     0.063 H 
ATOM     12  H   UNL     1     -48.679  36.454  28.855  1.00  0.00     0.065 H 
ATOM     13  H   UNL     1     -44.657  35.990  27.751  1.00  0.00     0.166 HD
ATOM     14  H   UNL     1     -44.885  34.047  25.723  1.00  0.00     0.065 H 
ENDROOT
BRANCH   1  15
ATOM     15  C   UNL     1     -46.486  32.375  24.226  1.00  0.00     0.068 C 
ATOM     16  H   UNL     1     -46.411  32.869  23.250  1.00  0.00     0.057 H 
ATOM     17  H   UNL     1     -45.503  31.952  24.463  1.00  0.00     0.057 H 
BRANCH  15  18
ATOM     18  N   UNL     1     -47.436  31.288  24.069  1.00  0.00    -0.247 N 
ATOM     19  C   UNL     1     -48.724  29.573  24.302  1.00  0.00     0.116 A 
ATOM     20  C   UNL     1     -47.812  30.347  24.985  1.00  0.00     0.054 A 
ATOM     21  N   UNL     1     -48.900  30.081  23.045  1.00  0.00    -0.130 NA
ATOM     22  H   UNL     1     -47.388  30.298  25.977  1.00  0.00     0.086 H 
ATOM     23  N   UNL     1     -48.116  31.143  22.917  1.00  0.00    -0.066 NA
BRANCH  19  24
ATOM     24  C   UNL     1     -49.415  28.410  24.809  1.00  0.00     0.044 A 
ATOM     25  C   UNL     1     -49.365  26.319  26.042  1.00  0.00     0.137 A 
ATOM     26  C   UNL     1     -50.729  26.218  25.798  1.00  0.00     0.070 A 
ATOM     27  C   UNL     1     -48.706  27.435  25.534  1.00  0.00    -0.006 A 
ATOM     28  N   UNL     1     -51.453  27.127  25.104  1.00  0.00    -0.241 NA
ATOM     29  H   UNL     1     -51.297  25.368  26.170  1.00  0.00     0.088 H 
ATOM     30  H   UNL     1     -47.642  27.577  25.703  1.00  0.00     0.067 H 
ATOM     31  C   UNL     1     -50.786  28.213  24.622  1.00  0.00     0.150 A 
BRANCH  25  32
ATOM     32  O   UNL     1     -48.811  25.303  26.761  1.00  0.00    -0.495 OA
BRANCH  32  33
ATOM     33  C   UNL     1     -47.462  24.960  26.464  1.00  0.00     0.078 C 
ATOM     34  H   UNL     1     -47.412  24.070  25.830  1.00  0.00     0.067 H 
ATOM     35  H   UNL     1     -46.933  25.803  26.005  1.00  0.00     0.067 H 
ATOM     36  H   UNL     1     -46.960  24.727  27.408  1.00  0.00     0.067 H 
ENDBRANCH  32  33
ENDBRANCH  25  32
BRANCH  31  37
ATOM     37  C   UNL     1     -51.610  29.109  23.852  1.00  0.00     0.120 C 
ATOM     38  N   UNL     1     -52.280  29.850  23.257  1.00  0.00    -0.191 NA
ENDBRANCH  31  37
ENDBRANCH  19  24
ENDBRANCH  15  18
ENDBRANCH   1  15
BRANCH   6  39
ATOM     39  C   UNL     1     -45.978  37.571  29.563  1.00  0.00     0.036 C 
ATOM     40  H   UNL     1     -46.146  37.199  30.580  1.00  0.00     0.049 H 
ATOM     41  H   UNL     1     -44.898  37.691  29.417  1.00  0.00     0.049 H 
BRANCH  39  42
ATOM     42  N   UNL     1     -46.670  38.839  29.340  1.00  0.00    -0.311 NA
ATOM     43  H   UNL     1     -47.662  38.619  29.227  1.00  0.00     0.123 HD
BRANCH  42  44
ATOM     44  C   UNL     1     -46.213  39.515  28.121  1.00  0.00    -0.002 C 
ATOM     45  H   UNL     1     -46.434  40.583  28.237  1.00  0.00     0.043 H 
ATOM     46  H   UNL     1     -46.788  39.177  27.250  1.00  0.00     0.043 H 
BRANCH  44  47
ATOM     47  C   UNL     1     -44.714  39.321  27.881  1.00  0.00    -0.029 C 
ATOM     48  C   UNL     1     -44.163  40.000  26.598  1.00  0.00    -0.049 C 
ATOM     49  C   UNL     1     -43.743  40.233  28.680  1.00  0.00    -0.049 C 
ATOM     50  H   UNL     1     -44.439  38.260  27.925  1.00  0.00     0.032 H 
ATOM     51  C   UNL     1     -43.730  41.191  27.474  1.00  0.00    -0.053 C 
ATOM     52  H   UNL     1     -43.321  39.461  26.147  1.00  0.00     0.027 H 
ATOM     53  H   UNL     1     -44.892  40.229  25.815  1.00  0.00     0.027 H 
ATOM     54  H   UNL     1     -42.770  39.766  28.876  1.00  0.00     0.027 H 
ATOM     55  H   UNL     1     -44.120  40.659  29.613  1.00  0.00     0.027 H 
ATOM     56  H   UNL     1     -44.477  41.989  27.535  1.00  0.00     0.027 H 
ATOM     57  H   UNL     1     -42.761  41.632  27.228  1.00  0.00     0.027 H 
ENDBRANCH  44  47
ENDBRANCH  42  44
ENDBRANCH  39  42
ENDBRANCH   6  39
TORSDOF 10
ENDMDL
