MODEL 1
REMARK VINA RESULT:      -8.2      0.000      0.000
REMARK SMILES CNc1cc(N2CCC3(CC2)CN(c2ccc(CN4CCC(C)(C)CC4)cc2F)CC(=O)N3)ncn1
REMARK SMILES IDX 6 1 7 2 8 3 9 4 10 5 11 6 12 7 13 8 30 9 31 10 32 11 33 12
REMARK SMILES IDX 5 26 3 27 4 28 36 29 35 31 34 32 2 34 1 36 14 40 15 41 28 42
REMARK SMILES IDX 16 43 27 45 29 46 17 47 18 50 19 53 20 54 26 55 21 56 25 59
REMARK SMILES IDX 22 62 23 67 24 71
REMARK H PARENT 7 13 7 14 8 15 8 16 10 17 10 18 11 19 11 20 12 21 12 22 30 23
REMARK H PARENT 30 24 33 25 4 30 35 33 2 35 1 37 1 38 1 39 15 44 16 48 27 49
REMARK H PARENT 18 51 18 52 20 57 20 58 26 60 26 61 21 63 21 64 25 65 25 66
REMARK H PARENT 23 68 23 69 23 70 24 72 24 73 24 74
REMARK Flexibility Score: inf
ROOT
ATOM      1  N   UNL     1     -46.036  46.120  24.832  1.00  0.00    -0.356 N 
ATOM      2  C   UNL     1     -45.134  45.354  23.956  1.00  0.00     0.021 C 
ATOM      3  C   UNL     1     -44.697  44.061  24.634  1.00  0.00    -0.010 C 
ATOM      4  C   UNL     1     -43.907  44.355  25.939  1.00  0.00     0.061 C 
ATOM      5  C   UNL     1     -44.263  45.750  26.506  1.00  0.00    -0.010 C 
ATOM      6  C   UNL     1     -45.729  46.100  26.271  1.00  0.00     0.021 C 
ATOM      7  C   UNL     1     -44.233  43.258  26.999  1.00  0.00     0.042 C 
ATOM      8  N   UNL     1     -43.756  41.953  26.510  1.00  0.00    -0.358 N 
ATOM      9  C   UNL     1     -42.289  41.909  26.262  1.00  0.00     0.097 C 
ATOM     10  C   UNL     1     -41.732  43.172  25.582  1.00  0.00     0.240 C 
ATOM     11  O   UNL     1     -40.626  43.191  25.041  1.00  0.00    -0.273 OA
ATOM     12  N   UNL     1     -42.458  44.335  25.659  1.00  0.00    -0.347 N 
ATOM     13  H   UNL     1     -45.568  45.148  22.970  1.00  0.00     0.049 H 
ATOM     14  H   UNL     1     -44.252  45.975  23.747  1.00  0.00     0.049 H 
ATOM     15  H   UNL     1     -45.593  43.467  24.855  1.00  0.00     0.031 H 
ATOM     16  H   UNL     1     -44.095  43.468  23.935  1.00  0.00     0.031 H 
ATOM     17  H   UNL     1     -43.641  46.523  26.033  1.00  0.00     0.031 H 
ATOM     18  H   UNL     1     -44.032  45.803  27.578  1.00  0.00     0.031 H 
ATOM     19  H   UNL     1     -45.923  47.089  26.701  1.00  0.00     0.049 H 
ATOM     20  H   UNL     1     -46.361  45.376  26.802  1.00  0.00     0.049 H 
ATOM     21  H   UNL     1     -43.732  43.504  27.945  1.00  0.00     0.052 H 
ATOM     22  H   UNL     1     -45.316  43.236  27.173  1.00  0.00     0.052 H 
ATOM     23  H   UNL     1     -41.750  41.791  27.209  1.00  0.00     0.060 H 
ATOM     24  H   UNL     1     -42.042  41.072  25.600  1.00  0.00     0.060 H 
ATOM     25  H   UNL     1     -42.047  45.091  25.123  1.00  0.00     0.164 HD
ENDROOT
BRANCH   1  26
ATOM     26  C   UNL     1     -47.412  45.970  24.560  1.00  0.00     0.134 A 
ATOM     27  C   UNL     1     -49.440  44.751  24.750  1.00  0.00     0.131 A 
ATOM     28  C   UNL     1     -48.095  44.862  25.040  1.00  0.00     0.023 A 
ATOM     29  N   UNL     1     -50.087  45.658  24.013  1.00  0.00    -0.219 NA
ATOM     30  H   UNL     1     -47.593  44.106  25.626  1.00  0.00     0.070 H 
ATOM     31  C   UNL     1     -49.356  46.700  23.602  1.00  0.00     0.120 A 
ATOM     32  N   UNL     1     -48.056  46.907  23.848  1.00  0.00    -0.219 NA
ATOM     33  H   UNL     1     -49.867  47.452  23.011  1.00  0.00     0.106 H 
BRANCH  27  34
ATOM     34  N   UNL     1     -50.209  43.662  25.178  1.00  0.00    -0.373 N 
ATOM     35  H   UNL     1     -49.552  42.882  25.184  1.00  0.00     0.161 HD
BRANCH  34  36
ATOM     36  C   UNL     1     -51.358  43.379  24.335  1.00  0.00     0.005 C 
ATOM     37  H   UNL     1     -51.009  42.939  23.395  1.00  0.00     0.045 H 
ATOM     38  H   UNL     1     -51.913  44.291  24.090  1.00  0.00     0.045 H 
ATOM     39  H   UNL     1     -52.034  42.655  24.802  1.00  0.00     0.045 H 
ENDBRANCH  34  36
ENDBRANCH  27  34
ENDBRANCH   1  26
BRANCH   8  40
ATOM     40  C   UNL     1     -44.228  40.799  27.173  1.00  0.00     0.073 A 
ATOM     41  C   UNL     1     -45.242  40.041  26.560  1.00  0.00    -0.035 A 
ATOM     42  C   UNL     1     -43.779  40.347  28.427  1.00  0.00     0.146 A 
ATOM     43  C   UNL     1     -45.771  38.891  27.160  1.00  0.00    -0.055 A 
ATOM     44  H   UNL     1     -45.657  40.363  25.607  1.00  0.00     0.065 H 
ATOM     45  C   UNL     1     -44.297  39.200  29.032  1.00  0.00    -0.020 A 
ATOM     46  F   UNL     1     -42.803  40.996  29.084  1.00  0.00    -0.205 F 
ATOM     47  C   UNL     1     -45.304  38.459  28.404  1.00  0.00    -0.031 A 
ATOM     48  H   UNL     1     -46.560  38.344  26.647  1.00  0.00     0.063 H 
ATOM     49  H   UNL     1     -43.914  38.897  30.002  1.00  0.00     0.066 H 
BRANCH  47  50
ATOM     50  C   UNL     1     -45.864  37.214  29.058  1.00  0.00     0.023 C 
ATOM     51  H   UNL     1     -45.123  36.766  29.733  1.00  0.00     0.048 H 
ATOM     52  H   UNL     1     -46.695  37.548  29.696  1.00  0.00     0.048 H 
BRANCH  50  53
ATOM     53  N   UNL     1     -46.347  36.220  28.089  1.00  0.00    -0.299 NA
ATOM     54  C   UNL     1     -45.628  34.939  28.206  1.00  0.00    -0.001 C 
ATOM     55  C   UNL     1     -47.793  36.037  28.180  1.00  0.00    -0.001 C 
ATOM     56  C   UNL     1     -46.434  33.725  27.718  1.00  0.00    -0.035 C 
ATOM     57  H   UNL     1     -44.703  35.005  27.620  1.00  0.00     0.043 H 
ATOM     58  H   UNL     1     -45.333  34.738  29.243  1.00  0.00     0.043 H 
ATOM     59  C   UNL     1     -48.313  35.237  26.976  1.00  0.00    -0.035 C 
ATOM     60  H   UNL     1     -48.309  37.005  28.180  1.00  0.00     0.043 H 
ATOM     61  H   UNL     1     -48.067  35.536  29.118  1.00  0.00     0.043 H 
ATOM     62  C   UNL     1     -47.390  34.062  26.558  1.00  0.00    -0.033 C 
ATOM     63  H   UNL     1     -45.743  32.923  27.432  1.00  0.00     0.029 H 
ATOM     64  H   UNL     1     -47.021  33.336  28.562  1.00  0.00     0.029 H 
ATOM     65  H   UNL     1     -49.315  34.869  27.233  1.00  0.00     0.029 H 
ATOM     66  H   UNL     1     -48.456  35.918  26.126  1.00  0.00     0.029 H 
BRANCH  62  67
ATOM     67  C   UNL     1     -48.242  32.826  26.222  1.00  0.00    -0.060 C 
ATOM     68  H   UNL     1     -47.735  31.901  26.523  1.00  0.00     0.024 H 
ATOM     69  H   UNL     1     -48.439  32.760  25.146  1.00  0.00     0.024 H 
ATOM     70  H   UNL     1     -49.208  32.858  26.738  1.00  0.00     0.024 H 
ENDBRANCH  62  67
BRANCH  62  71
ATOM     71  C   UNL     1     -46.587  34.441  25.296  1.00  0.00    -0.060 C 
ATOM     72  H   UNL     1     -47.212  34.459  24.398  1.00  0.00     0.024 H 
ATOM     73  H   UNL     1     -45.778  33.724  25.116  1.00  0.00     0.024 H 
ATOM     74  H   UNL     1     -46.131  35.432  25.404  1.00  0.00     0.024 H 
ENDBRANCH  62  71
ENDBRANCH  50  53
ENDBRANCH  47  50
ENDBRANCH   8  40
TORSDOF 8
ENDMDL
MODEL 2
REMARK VINA RESULT:      -8.1      2.611      3.596
REMARK SMILES CNc1cc(N2CCC3(CC2)CN(c2ccc(CN4CCC(C)(C)CC4)cc2F)CC(=O)N3)ncn1
REMARK SMILES IDX 6 1 7 2 8 3 9 4 10 5 11 6 12 7 13 8 30 9 31 10 32 11 33 12
REMARK SMILES IDX 5 26 3 27 4 28 36 29 35 31 34 32 2 34 1 36 14 40 15 41 28 42
REMARK SMILES IDX 16 43 27 45 29 46 17 47 18 50 19 53 20 54 26 55 21 56 25 59
REMARK SMILES IDX 22 62 23 67 24 71
REMARK H PARENT 7 13 7 14 8 15 8 16 10 17 10 18 11 19 11 20 12 21 12 22 30 23
REMARK H PARENT 30 24 33 25 4 30 35 33 2 35 1 37 1 38 1 39 15 44 16 48 27 49
REMARK H PARENT 18 51 18 52 20 57 20 58 26 60 26 61 21 63 21 64 25 65 25 66
REMARK H PARENT 23 68 23 69 23 70 24 72 24 73 24 74
REMARK Flexibility Score: inf
ROOT
ATOM      1  N   UNL     1     -43.019  44.811  25.045  1.00  0.00    -0.356 N 
ATOM      2  C   UNL     1     -41.991  43.789  25.306  1.00  0.00     0.021 C 
ATOM      3  C   UNL     1     -42.605  42.573  25.988  1.00  0.00    -0.010 C 
ATOM      4  C   UNL     1     -43.214  42.953  27.365  1.00  0.00     0.061 C 
ATOM      5  C   UNL     1     -43.568  44.458  27.425  1.00  0.00    -0.010 C 
ATOM      6  C   UNL     1     -44.056  44.978  26.076  1.00  0.00     0.021 C 
ATOM      7  C   UNL     1     -44.496  42.102  27.617  1.00  0.00     0.042 C 
ATOM      8  N   UNL     1     -44.125  40.678  27.705  1.00  0.00    -0.358 N 
ATOM      9  C   UNL     1     -43.170  40.378  28.806  1.00  0.00     0.097 C 
ATOM     10  C   UNL     1     -42.048  41.419  28.961  1.00  0.00     0.240 C 
ATOM     11  O   UNL     1     -41.023  41.187  29.603  1.00  0.00    -0.273 OA
ATOM     12  N   UNL     1     -42.236  42.674  28.436  1.00  0.00    -0.347 N 
ATOM     13  H   UNL     1     -41.444  43.493  24.403  1.00  0.00     0.049 H 
ATOM     14  H   UNL     1     -41.229  44.231  25.961  1.00  0.00     0.049 H 
ATOM     15  H   UNL     1     -43.380  42.161  25.328  1.00  0.00     0.031 H 
ATOM     16  H   UNL     1     -41.843  41.792  26.097  1.00  0.00     0.031 H 
ATOM     17  H   UNL     1     -42.687  45.044  27.725  1.00  0.00     0.031 H 
ATOM     18  H   UNL     1     -44.325  44.648  28.197  1.00  0.00     0.031 H 
ATOM     19  H   UNL     1     -44.300  46.042  26.182  1.00  0.00     0.049 H 
ATOM     20  H   UNL     1     -44.979  44.451  25.800  1.00  0.00     0.049 H 
ATOM     21  H   UNL     1     -44.968  42.419  28.556  1.00  0.00     0.052 H 
ATOM     22  H   UNL     1     -45.206  42.268  26.796  1.00  0.00     0.052 H 
ATOM     23  H   UNL     1     -43.702  40.336  29.764  1.00  0.00     0.060 H 
ATOM     24  H   UNL     1     -42.674  39.418  28.627  1.00  0.00     0.060 H 
ATOM     25  H   UNL     1     -41.418  43.264  28.524  1.00  0.00     0.164 HD
ENDROOT
BRANCH   1  26
ATOM     26  C   UNL     1     -43.538  44.825  23.734  1.00  0.00     0.134 A 
ATOM     27  C   UNL     1     -45.379  44.820  22.236  1.00  0.00     0.131 A 
ATOM     28  C   UNL     1     -44.910  44.809  23.534  1.00  0.00     0.023 A 
ATOM     29  N   UNL     1     -44.557  44.824  21.182  1.00  0.00    -0.219 NA
ATOM     30  H   UNL     1     -45.597  44.791  24.368  1.00  0.00     0.070 H 
ATOM     31  C   UNL     1     -43.250  44.852  21.466  1.00  0.00     0.120 A 
ATOM     32  N   UNL     1     -42.700  44.864  22.687  1.00  0.00    -0.219 NA
ATOM     33  H   UNL     1     -42.567  44.867  20.623  1.00  0.00     0.106 H 
BRANCH  27  34
ATOM     34  N   UNL     1     -46.745  44.792  21.934  1.00  0.00    -0.373 N 
ATOM     35  H   UNL     1     -47.110  44.032  22.508  1.00  0.00     0.161 HD
BRANCH  34  36
ATOM     36  C   UNL     1     -47.038  44.578  20.526  1.00  0.00     0.005 C 
ATOM     37  H   UNL     1     -48.124  44.542  20.392  1.00  0.00     0.045 H 
ATOM     38  H   UNL     1     -46.626  43.629  20.169  1.00  0.00     0.045 H 
ATOM     39  H   UNL     1     -46.661  45.397  19.905  1.00  0.00     0.045 H 
ENDBRANCH  34  36
ENDBRANCH  27  34
ENDBRANCH   1  26
BRANCH   8  40
ATOM     40  C   UNL     1     -45.167  39.729  27.618  1.00  0.00     0.073 A 
ATOM     41  C   UNL     1     -45.119  38.600  28.456  1.00  0.00    -0.035 A 
ATOM     42  C   UNL     1     -46.257  39.804  26.731  1.00  0.00     0.146 A 
ATOM     43  C   UNL     1     -46.108  37.609  28.421  1.00  0.00    -0.055 A 
ATOM     44  H   UNL     1     -44.279  38.468  29.136  1.00  0.00     0.065 H 
ATOM     45  C   UNL     1     -47.249  38.823  26.690  1.00  0.00    -0.020 A 
ATOM     46  F   UNL     1     -46.398  40.851  25.901  1.00  0.00    -0.205 F 
ATOM     47  C   UNL     1     -47.184  37.709  27.535  1.00  0.00    -0.031 A 
ATOM     48  H   UNL     1     -46.019  36.752  29.086  1.00  0.00     0.063 H 
ATOM     49  H   UNL     1     -48.069  38.931  25.985  1.00  0.00     0.066 H 
BRANCH  47  50
ATOM     50  C   UNL     1     -48.261  36.647  27.492  1.00  0.00     0.023 C 
ATOM     51  H   UNL     1     -48.760  36.565  28.467  1.00  0.00     0.048 H 
ATOM     52  H   UNL     1     -49.024  37.010  26.789  1.00  0.00     0.048 H 
BRANCH  50  53
ATOM     53  N   UNL     1     -47.762  35.336  27.055  1.00  0.00    -0.299 NA
ATOM     54  C   UNL     1     -48.858  34.385  26.796  1.00  0.00    -0.001 C 
ATOM     55  C   UNL     1     -46.868  35.455  25.906  1.00  0.00    -0.001 C 
ATOM     56  C   UNL     1     -48.499  33.280  25.791  1.00  0.00    -0.035 C 
ATOM     57  H   UNL     1     -49.144  33.918  27.745  1.00  0.00     0.043 H 
ATOM     58  H   UNL     1     -49.749  34.897  26.412  1.00  0.00     0.043 H 
ATOM     59  C   UNL     1     -46.128  34.132  25.658  1.00  0.00    -0.035 C 
ATOM     60  H   UNL     1     -46.111  36.229  26.081  1.00  0.00     0.043 H 
ATOM     61  H   UNL     1     -47.423  35.756  25.008  1.00  0.00     0.043 H 
ATOM     62  C   UNL     1     -47.014  32.872  25.845  1.00  0.00    -0.033 C 
ATOM     63  H   UNL     1     -49.147  32.411  25.962  1.00  0.00     0.029 H 
ATOM     64  H   UNL     1     -48.733  33.640  24.779  1.00  0.00     0.029 H 
ATOM     65  H   UNL     1     -45.719  34.169  24.640  1.00  0.00     0.029 H 
ATOM     66  H   UNL     1     -45.257  34.076  26.325  1.00  0.00     0.029 H 
BRANCH  62  67
ATOM     67  C   UNL     1     -46.721  31.858  24.726  1.00  0.00    -0.060 C 
ATOM     68  H   UNL     1     -46.141  32.318  23.917  1.00  0.00     0.024 H 
ATOM     69  H   UNL     1     -47.647  31.469  24.291  1.00  0.00     0.024 H 
ATOM     70  H   UNL     1     -46.144  31.007  25.105  1.00  0.00     0.024 H 
ENDBRANCH  62  67
BRANCH  62  71
ATOM     71  C   UNL     1     -46.695  32.195  27.194  1.00  0.00    -0.060 C 
ATOM     72  H   UNL     1     -46.080  31.299  27.072  1.00  0.00     0.024 H 
ATOM     73  H   UNL     1     -47.615  31.890  27.708  1.00  0.00     0.024 H 
ATOM     74  H   UNL     1     -46.157  32.880  27.860  1.00  0.00     0.024 H 
ENDBRANCH  62  71
ENDBRANCH  50  53
ENDBRANCH  47  50
ENDBRANCH   8  40
TORSDOF 8
ENDMDL
MODEL 3
REMARK VINA RESULT:      -7.8      4.631     10.869
REMARK SMILES CNc1cc(N2CCC3(CC2)CN(c2ccc(CN4CCC(C)(C)CC4)cc2F)CC(=O)N3)ncn1
REMARK SMILES IDX 6 1 7 2 8 3 9 4 10 5 11 6 12 7 13 8 30 9 31 10 32 11 33 12
REMARK SMILES IDX 5 26 3 27 4 28 36 29 35 31 34 32 2 34 1 36 14 40 15 41 28 42
REMARK SMILES IDX 16 43 27 45 29 46 17 47 18 50 19 53 20 54 26 55 21 56 25 59
REMARK SMILES IDX 22 62 23 67 24 71
REMARK H PARENT 7 13 7 14 8 15 8 16 10 17 10 18 11 19 11 20 12 21 12 22 30 23
REMARK H PARENT 30 24 33 25 4 30 35 33 2 35 1 37 1 38 1 39 15 44 16 48 27 49
REMARK H PARENT 18 51 18 52 20 57 20 58 26 60 26 61 21 63 21 64 25 65 25 66
REMARK H PARENT 23 68 23 69 23 70 24 72 24 73 24 74
REMARK Flexibility Score: inf
ROOT
ATOM      1  N   UNL     1     -48.684  31.147  24.135  1.00  0.00    -0.356 N 
ATOM      2  C   UNL     1     -48.855  31.052  25.594  1.00  0.00     0.021 C 
ATOM      3  C   UNL     1     -48.433  32.352  26.269  1.00  0.00    -0.010 C 
ATOM      4  C   UNL     1     -46.930  32.650  26.016  1.00  0.00     0.061 C 
ATOM      5  C   UNL     1     -46.426  31.941  24.736  1.00  0.00    -0.010 C 
ATOM      6  C   UNL     1     -47.504  31.887  23.657  1.00  0.00     0.021 C 
ATOM      7  C   UNL     1     -46.724  34.190  25.877  1.00  0.00     0.042 C 
ATOM      8  N   UNL     1     -47.068  34.843  27.153  1.00  0.00    -0.358 N 
ATOM      9  C   UNL     1     -46.237  34.385  28.299  1.00  0.00     0.097 C 
ATOM     10  C   UNL     1     -45.982  32.868  28.320  1.00  0.00     0.240 C 
ATOM     11  O   UNL     1     -45.581  32.284  29.328  1.00  0.00    -0.273 OA
ATOM     12  N   UNL     1     -46.126  32.160  27.152  1.00  0.00    -0.347 N 
ATOM     13  H   UNL     1     -49.874  30.775  25.888  1.00  0.00     0.049 H 
ATOM     14  H   UNL     1     -48.226  30.229  25.959  1.00  0.00     0.049 H 
ATOM     15  H   UNL     1     -49.056  33.165  25.874  1.00  0.00     0.031 H 
ATOM     16  H   UNL     1     -48.646  32.290  27.343  1.00  0.00     0.031 H 
ATOM     17  H   UNL     1     -46.116  30.912  24.968  1.00  0.00     0.031 H 
ATOM     18  H   UNL     1     -45.529  32.437  24.345  1.00  0.00     0.031 H 
ATOM     19  H   UNL     1     -47.089  31.385  22.776  1.00  0.00     0.049 H 
ATOM     20  H   UNL     1     -47.770  32.911  23.363  1.00  0.00     0.049 H 
ATOM     21  H   UNL     1     -45.676  34.398  25.627  1.00  0.00     0.052 H 
ATOM     22  H   UNL     1     -47.359  34.567  25.065  1.00  0.00     0.052 H 
ATOM     23  H   UNL     1     -45.256  34.874  28.273  1.00  0.00     0.060 H 
ATOM     24  H   UNL     1     -46.733  34.624  29.247  1.00  0.00     0.060 H 
ATOM     25  H   UNL     1     -46.008  31.162  27.280  1.00  0.00     0.164 HD
ENDROOT
BRANCH   1  26
ATOM     26  C   UNL     1     -49.854  31.449  23.408  1.00  0.00     0.134 A 
ATOM     27  C   UNL     1     -51.091  31.452  21.382  1.00  0.00     0.131 A 
ATOM     28  C   UNL     1     -49.930  31.138  22.059  1.00  0.00     0.023 A 
ATOM     29  N   UNL     1     -52.122  32.059  21.979  1.00  0.00    -0.219 NA
ATOM     30  H   UNL     1     -49.106  30.661  21.547  1.00  0.00     0.070 H 
ATOM     31  C   UNL     1     -51.969  32.310  23.284  1.00  0.00     0.120 A 
ATOM     32  N   UNL     1     -50.894  32.026  24.030  1.00  0.00    -0.219 NA
ATOM     33  H   UNL     1     -52.799  32.792  23.789  1.00  0.00     0.106 H 
BRANCH  27  34
ATOM     34  N   UNL     1     -51.255  31.190  20.017  1.00  0.00    -0.373 N 
ATOM     35  H   UNL     1     -52.159  31.606  19.791  1.00  0.00     0.161 HD
BRANCH  34  36
ATOM     36  C   UNL     1     -51.224  29.777  19.676  1.00  0.00     0.005 C 
ATOM     37  H   UNL     1     -50.341  29.581  19.059  1.00  0.00     0.045 H 
ATOM     38  H   UNL     1     -52.107  29.483  19.098  1.00  0.00     0.045 H 
ATOM     39  H   UNL     1     -51.145  29.147  20.568  1.00  0.00     0.045 H 
ENDBRANCH  34  36
ENDBRANCH  27  34
ENDBRANCH   1  26
BRANCH   8  40
ATOM     40  C   UNL     1     -47.246  36.243  27.139  1.00  0.00     0.073 A 
ATOM     41  C   UNL     1     -46.377  37.023  26.355  1.00  0.00    -0.035 A 
ATOM     42  C   UNL     1     -48.222  36.941  27.874  1.00  0.00     0.146 A 
ATOM     43  C   UNL     1     -46.483  38.419  26.298  1.00  0.00    -0.055 A 
ATOM     44  H   UNL     1     -45.578  36.542  25.795  1.00  0.00     0.065 H 
ATOM     45  C   UNL     1     -48.338  38.331  27.822  1.00  0.00    -0.020 A 
ATOM     46  F   UNL     1     -49.108  36.283  28.641  1.00  0.00    -0.205 F 
ATOM     47  C   UNL     1     -47.465  39.088  27.033  1.00  0.00    -0.031 A 
ATOM     48  H   UNL     1     -45.780  38.975  25.681  1.00  0.00     0.063 H 
ATOM     49  H   UNL     1     -49.110  38.818  28.411  1.00  0.00     0.066 H 
BRANCH  47  50
ATOM     50  C   UNL     1     -47.592  40.595  26.974  1.00  0.00     0.023 C 
ATOM     51  H   UNL     1     -48.494  40.884  26.418  1.00  0.00     0.048 H 
ATOM     52  H   UNL     1     -47.749  40.931  28.008  1.00  0.00     0.048 H 
BRANCH  50  53
ATOM     53  N   UNL     1     -46.405  41.253  26.409  1.00  0.00    -0.299 NA
ATOM     54  C   UNL     1     -46.629  42.690  26.171  1.00  0.00    -0.001 C 
ATOM     55  C   UNL     1     -45.219  41.021  27.229  1.00  0.00    -0.001 C 
ATOM     56  C   UNL     1     -45.344  43.533  26.190  1.00  0.00    -0.035 C 
ATOM     57  H   UNL     1     -47.113  42.808  25.195  1.00  0.00     0.043 H 
ATOM     58  H   UNL     1     -47.310  43.118  26.917  1.00  0.00     0.043 H 
ATOM     59  C   UNL     1     -43.949  41.450  26.477  1.00  0.00    -0.035 C 
ATOM     60  H   UNL     1     -45.115  39.956  27.470  1.00  0.00     0.043 H 
ATOM     61  H   UNL     1     -45.294  41.554  28.186  1.00  0.00     0.043 H 
ATOM     62  C   UNL     1     -44.112  42.767  25.673  1.00  0.00    -0.033 C 
ATOM     63  H   UNL     1     -45.504  44.449  25.610  1.00  0.00     0.029 H 
ATOM     64  H   UNL     1     -45.156  43.855  27.224  1.00  0.00     0.029 H 
ATOM     65  H   UNL     1     -43.145  41.545  27.218  1.00  0.00     0.029 H 
ATOM     66  H   UNL     1     -43.639  40.639  25.804  1.00  0.00     0.029 H 
BRANCH  62  67
ATOM     67  C   UNL     1     -42.857  43.640  25.846  1.00  0.00    -0.060 C 
ATOM     68  H   UNL     1     -42.169  43.204  26.580  1.00  0.00     0.024 H 
ATOM     69  H   UNL     1     -43.118  44.645  26.195  1.00  0.00     0.024 H 
ATOM     70  H   UNL     1     -42.313  43.743  24.901  1.00  0.00     0.024 H 
ENDBRANCH  62  67
BRANCH  62  71
ATOM     71  C   UNL     1     -44.268  42.455  24.171  1.00  0.00    -0.060 C 
ATOM     72  H   UNL     1     -43.489  42.929  23.566  1.00  0.00     0.024 H 
ATOM     73  H   UNL     1     -45.234  42.812  23.794  1.00  0.00     0.024 H 
ATOM     74  H   UNL     1     -44.221  41.375  23.986  1.00  0.00     0.024 H 
ENDBRANCH  62  71
ENDBRANCH  50  53
ENDBRANCH  47  50
ENDBRANCH   8  40
TORSDOF 8
ENDMDL
MODEL 4
REMARK VINA RESULT:      -7.7      6.288     13.376
REMARK SMILES CNc1cc(N2CCC3(CC2)CN(c2ccc(CN4CCC(C)(C)CC4)cc2F)CC(=O)N3)ncn1
REMARK SMILES IDX 6 1 7 2 8 3 9 4 10 5 11 6 12 7 13 8 30 9 31 10 32 11 33 12
REMARK SMILES IDX 5 26 3 27 4 28 36 29 35 31 34 32 2 34 1 36 14 40 15 41 28 42
REMARK SMILES IDX 16 43 27 45 29 46 17 47 18 50 19 53 20 54 26 55 21 56 25 59
REMARK SMILES IDX 22 62 23 67 24 71
REMARK H PARENT 7 13 7 14 8 15 8 16 10 17 10 18 11 19 11 20 12 21 12 22 30 23
REMARK H PARENT 30 24 33 25 4 30 35 33 2 35 1 37 1 38 1 39 15 44 16 48 27 49
REMARK H PARENT 18 51 18 52 20 57 20 58 26 60 26 61 21 63 21 64 25 65 25 66
REMARK H PARENT 23 68 23 69 23 70 24 72 24 73 24 74
REMARK Flexibility Score: inf
ROOT
ATOM      1  N   UNL     1     -50.226  27.758  22.951  1.00  0.00    -0.356 N 
ATOM      2  C   UNL     1     -48.770  27.684  22.743  1.00  0.00     0.021 C 
ATOM      3  C   UNL     1     -48.090  28.949  23.252  1.00  0.00    -0.010 C 
ATOM      4  C   UNL     1     -48.586  30.200  22.478  1.00  0.00     0.061 C 
ATOM      5  C   UNL     1     -49.984  29.957  21.858  1.00  0.00    -0.010 C 
ATOM      6  C   UNL     1     -50.852  29.075  22.750  1.00  0.00     0.021 C 
ATOM      7  C   UNL     1     -48.648  31.418  23.450  1.00  0.00     0.042 C 
ATOM      8  N   UNL     1     -47.288  31.734  23.921  1.00  0.00    -0.358 N 
ATOM      9  C   UNL     1     -46.345  32.087  22.825  1.00  0.00     0.097 C 
ATOM     10  C   UNL     1     -46.479  31.201  21.575  1.00  0.00     0.240 C 
ATOM     11  O   UNL     1     -45.604  31.151  20.710  1.00  0.00    -0.273 OA
ATOM     12  N   UNL     1     -47.650  30.510  21.380  1.00  0.00    -0.347 N 
ATOM     13  H   UNL     1     -48.319  26.792  23.193  1.00  0.00     0.049 H 
ATOM     14  H   UNL     1     -48.584  27.576  21.666  1.00  0.00     0.049 H 
ATOM     15  H   UNL     1     -48.308  29.050  24.324  1.00  0.00     0.031 H 
ATOM     16  H   UNL     1     -47.003  28.838  23.166  1.00  0.00     0.031 H 
ATOM     17  H   UNL     1     -49.885  29.470  20.877  1.00  0.00     0.031 H 
ATOM     18  H   UNL     1     -50.492  30.910  21.663  1.00  0.00     0.031 H 
ATOM     19  H   UNL     1     -51.828  28.946  22.266  1.00  0.00     0.049 H 
ATOM     20  H   UNL     1     -51.020  29.585  23.707  1.00  0.00     0.049 H 
ATOM     21  H   UNL     1     -49.067  32.286  22.923  1.00  0.00     0.052 H 
ATOM     22  H   UNL     1     -49.305  31.173  24.295  1.00  0.00     0.052 H 
ATOM     23  H   UNL     1     -46.512  33.122  22.504  1.00  0.00     0.060 H 
ATOM     24  H   UNL     1     -45.310  31.979  23.167  1.00  0.00     0.060 H 
ATOM     25  H   UNL     1     -47.618  29.901  20.572  1.00  0.00     0.164 HD
ENDROOT
BRANCH   1  26
ATOM     26  C   UNL     1     -50.707  27.088  24.095  1.00  0.00     0.134 A 
ATOM     27  C   UNL     1     -50.330  25.803  26.054  1.00  0.00     0.131 A 
ATOM     28  C   UNL     1     -49.819  26.450  24.947  1.00  0.00     0.023 A 
ATOM     29  N   UNL     1     -51.641  25.758  26.311  1.00  0.00    -0.219 NA
ATOM     30  H   UNL     1     -48.756  26.458  24.756  1.00  0.00     0.070 H 
ATOM     31  C   UNL     1     -52.424  26.410  25.445  1.00  0.00     0.120 A 
ATOM     32  N   UNL     1     -52.023  27.081  24.358  1.00  0.00    -0.219 NA
ATOM     33  H   UNL     1     -53.490  26.394  25.642  1.00  0.00     0.106 H 
BRANCH  27  34
ATOM     34  N   UNL     1     -49.514  25.120  26.963  1.00  0.00    -0.373 N 
ATOM     35  H   UNL     1     -49.766  25.516  27.869  1.00  0.00     0.161 HD
BRANCH  34  36
ATOM     36  C   UNL     1     -48.090  25.259  26.704  1.00  0.00     0.005 C 
ATOM     37  H   UNL     1     -47.938  26.072  25.987  1.00  0.00     0.045 H 
ATOM     38  H   UNL     1     -47.670  24.346  26.268  1.00  0.00     0.045 H 
ATOM     39  H   UNL     1     -47.537  25.518  27.613  1.00  0.00     0.045 H 
ENDBRANCH  34  36
ENDBRANCH  27  34
ENDBRANCH   1  26
BRANCH   8  40
ATOM     40  C   UNL     1     -47.170  32.593  25.035  1.00  0.00     0.073 A 
ATOM     41  C   UNL     1     -45.882  32.938  25.483  1.00  0.00    -0.035 A 
ATOM     42  C   UNL     1     -48.249  33.125  25.764  1.00  0.00     0.146 A 
ATOM     43  C   UNL     1     -45.681  33.774  26.589  1.00  0.00    -0.055 A 
ATOM     44  H   UNL     1     -45.008  32.525  24.983  1.00  0.00     0.065 H 
ATOM     45  C   UNL     1     -48.061  33.962  26.866  1.00  0.00    -0.020 A 
ATOM     46  F   UNL     1     -49.518  32.865  25.405  1.00  0.00    -0.205 F 
ATOM     47  C   UNL     1     -46.770  34.295  27.293  1.00  0.00    -0.031 A 
ATOM     48  H   UNL     1     -44.664  34.004  26.898  1.00  0.00     0.063 H 
ATOM     49  H   UNL     1     -48.930  34.344  27.393  1.00  0.00     0.066 H 
BRANCH  47  50
ATOM     50  C   UNL     1     -46.566  35.205  28.485  1.00  0.00     0.023 C 
ATOM     51  H   UNL     1     -47.284  34.966  29.280  1.00  0.00     0.048 H 
ATOM     52  H   UNL     1     -45.572  34.963  28.889  1.00  0.00     0.048 H 
BRANCH  50  53
ATOM     53  N   UNL     1     -46.631  36.632  28.141  1.00  0.00    -0.299 NA
ATOM     54  C   UNL     1     -45.670  37.434  28.917  1.00  0.00    -0.001 C 
ATOM     55  C   UNL     1     -46.478  36.847  26.704  1.00  0.00    -0.001 C 
ATOM     56  C   UNL     1     -45.239  38.735  28.222  1.00  0.00    -0.035 C 
ATOM     57  H   UNL     1     -46.125  37.684  29.882  1.00  0.00     0.043 H 
ATOM     58  H   UNL     1     -44.757  36.864  29.135  1.00  0.00     0.043 H 
ATOM     59  C   UNL     1     -46.849  38.290  26.331  1.00  0.00    -0.035 C 
ATOM     60  H   UNL     1     -47.139  36.180  26.137  1.00  0.00     0.043 H 
ATOM     61  H   UNL     1     -45.453  36.621  26.382  1.00  0.00     0.043 H 
ATOM     62  C   UNL     1     -46.349  39.349  27.349  1.00  0.00    -0.033 C 
ATOM     63  H   UNL     1     -44.897  39.452  28.978  1.00  0.00     0.029 H 
ATOM     64  H   UNL     1     -44.366  38.519  27.590  1.00  0.00     0.029 H 
ATOM     65  H   UNL     1     -46.437  38.488  25.333  1.00  0.00     0.029 H 
ATOM     66  H   UNL     1     -47.939  38.365  26.222  1.00  0.00     0.029 H 
BRANCH  62  67
ATOM     67  C   UNL     1     -45.793  40.571  26.598  1.00  0.00    -0.060 C 
ATOM     68  H   UNL     1     -46.602  41.220  26.242  1.00  0.00     0.024 H 
ATOM     69  H   UNL     1     -45.205  40.266  25.726  1.00  0.00     0.024 H 
ATOM     70  H   UNL     1     -45.145  41.172  27.246  1.00  0.00     0.024 H 
ENDBRANCH  62  67
BRANCH  62  71
ATOM     71  C   UNL     1     -47.520  39.829  28.232  1.00  0.00    -0.060 C 
ATOM     72  H   UNL     1     -47.403  39.524  29.276  1.00  0.00     0.024 H 
ATOM     73  H   UNL     1     -48.473  39.419  27.878  1.00  0.00     0.024 H 
ATOM     74  H   UNL     1     -47.604  40.922  28.212  1.00  0.00     0.024 H 
ENDBRANCH  62  71
ENDBRANCH  50  53
ENDBRANCH  47  50
ENDBRANCH   8  40
TORSDOF 8
ENDMDL
MODEL 5
REMARK VINA RESULT:      -7.7      1.598      1.973
REMARK SMILES CNc1cc(N2CCC3(CC2)CN(c2ccc(CN4CCC(C)(C)CC4)cc2F)CC(=O)N3)ncn1
REMARK SMILES IDX 6 1 7 2 8 3 9 4 10 5 11 6 12 7 13 8 30 9 31 10 32 11 33 12
REMARK SMILES IDX 5 26 3 27 4 28 36 29 35 31 34 32 2 34 1 36 14 40 15 41 28 42
REMARK SMILES IDX 16 43 27 45 29 46 17 47 18 50 19 53 20 54 26 55 21 56 25 59
REMARK SMILES IDX 22 62 23 67 24 71
REMARK H PARENT 7 13 7 14 8 15 8 16 10 17 10 18 11 19 11 20 12 21 12 22 30 23
REMARK H PARENT 30 24 33 25 4 30 35 33 2 35 1 37 1 38 1 39 15 44 16 48 27 49
REMARK H PARENT 18 51 18 52 20 57 20 58 26 60 26 61 21 63 21 64 25 65 25 66
REMARK H PARENT 23 68 23 69 23 70 24 72 24 73 24 74
REMARK Flexibility Score: inf
ROOT
ATOM      1  N   UNL     1     -46.362  45.798  23.315  1.00  0.00    -0.356 N 
ATOM      2  C   UNL     1     -45.246  44.974  22.821  1.00  0.00     0.021 C 
ATOM      3  C   UNL     1     -44.960  43.827  23.783  1.00  0.00    -0.010 C 
ATOM      4  C   UNL     1     -44.535  44.360  25.178  1.00  0.00     0.061 C 
ATOM      5  C   UNL     1     -45.062  45.797  25.412  1.00  0.00    -0.010 C 
ATOM      6  C   UNL     1     -46.430  46.009  24.770  1.00  0.00     0.021 C 
ATOM      7  C   UNL     1     -45.090  43.411  26.285  1.00  0.00     0.042 C 
ATOM      8  N   UNL     1     -44.468  42.083  26.142  1.00  0.00    -0.358 N 
ATOM      9  C   UNL     1     -42.986  42.101  26.273  1.00  0.00     0.097 C 
ATOM     10  C   UNL     1     -42.309  43.285  25.561  1.00  0.00     0.240 C 
ATOM     11  O   UNL     1     -41.103  43.298  25.313  1.00  0.00    -0.273 OA
ATOM     12  N   UNL     1     -43.063  44.396  25.271  1.00  0.00    -0.347 N 
ATOM     13  H   UNL     1     -45.409  44.597  21.805  1.00  0.00     0.049 H 
ATOM     14  H   UNL     1     -44.357  45.614  22.741  1.00  0.00     0.049 H 
ATOM     15  H   UNL     1     -45.866  43.212  23.867  1.00  0.00     0.031 H 
ATOM     16  H   UNL     1     -44.184  43.179  23.357  1.00  0.00     0.031 H 
ATOM     17  H   UNL     1     -44.362  46.532  24.991  1.00  0.00     0.031 H 
ATOM     18  H   UNL     1     -45.112  46.021  26.485  1.00  0.00     0.031 H 
ATOM     19  H   UNL     1     -46.754  47.036  24.976  1.00  0.00     0.049 H 
ATOM     20  H   UNL     1     -47.155  45.331  25.237  1.00  0.00     0.049 H 
ATOM     21  H   UNL     1     -44.853  43.825  27.274  1.00  0.00     0.052 H 
ATOM     22  H   UNL     1     -46.180  43.342  26.188  1.00  0.00     0.052 H 
ATOM     23  H   UNL     1     -42.702  42.158  27.331  1.00  0.00     0.060 H 
ATOM     24  H   UNL     1     -42.556  41.194  25.834  1.00  0.00     0.060 H 
ATOM     25  H   UNL     1     -42.551  45.090  24.740  1.00  0.00     0.164 HD
ENDROOT
BRANCH   1  26
ATOM     26  C   UNL     1     -47.619  45.519  22.740  1.00  0.00     0.134 A 
ATOM     27  C   UNL     1     -49.829  44.670  22.905  1.00  0.00     0.131 A 
ATOM     28  C   UNL     1     -48.614  44.930  23.506  1.00  0.00     0.023 A 
ATOM     29  N   UNL     1     -50.062  44.947  21.619  1.00  0.00    -0.219 NA
ATOM     30  H   UNL     1     -48.448  44.682  24.544  1.00  0.00     0.070 H 
ATOM     31  C   UNL     1     -49.053  45.526  20.959  1.00  0.00     0.120 A 
ATOM     32  N   UNL     1     -47.849  45.835  21.457  1.00  0.00    -0.219 NA
ATOM     33  H   UNL     1     -49.227  45.768  19.916  1.00  0.00     0.106 H 
BRANCH  27  34
ATOM     34  N   UNL     1     -50.888  44.066  23.593  1.00  0.00    -0.373 N 
ATOM     35  H   UNL     1     -51.685  44.675  23.407  1.00  0.00     0.161 HD
BRANCH  34  36
ATOM     36  C   UNL     1     -50.661  43.916  25.021  1.00  0.00     0.005 C 
ATOM     37  H   UNL     1     -50.851  44.876  25.513  1.00  0.00     0.045 H 
ATOM     38  H   UNL     1     -49.625  43.631  25.236  1.00  0.00     0.045 H 
ATOM     39  H   UNL     1     -51.341  43.182  25.465  1.00  0.00     0.045 H 
ENDBRANCH  34  36
ENDBRANCH  27  34
ENDBRANCH   1  26
BRANCH   8  40
ATOM     40  C   UNL     1     -45.061  41.010  26.842  1.00  0.00     0.073 A 
ATOM     41  C   UNL     1     -44.232  40.161  27.598  1.00  0.00    -0.035 A 
ATOM     42  C   UNL     1     -46.433  40.696  26.830  1.00  0.00     0.146 A 
ATOM     43  C   UNL     1     -44.743  39.068  28.311  1.00  0.00    -0.055 A 
ATOM     44  H   UNL     1     -43.157  40.331  27.614  1.00  0.00     0.065 H 
ATOM     45  C   UNL     1     -46.953  39.611  27.539  1.00  0.00    -0.020 A 
ATOM     46  F   UNL     1     -47.307  41.456  26.149  1.00  0.00    -0.205 F 
ATOM     47  C   UNL     1     -46.110  38.781  28.287  1.00  0.00    -0.031 A 
ATOM     48  H   UNL     1     -44.057  38.439  28.874  1.00  0.00     0.063 H 
ATOM     49  H   UNL     1     -48.020  39.415  27.494  1.00  0.00     0.066 H 
BRANCH  47  50
ATOM     50  C   UNL     1     -46.674  37.607  29.058  1.00  0.00     0.023 C 
ATOM     51  H   UNL     1     -46.034  37.368  29.918  1.00  0.00     0.048 H 
ATOM     52  H   UNL     1     -47.633  37.945  29.475  1.00  0.00     0.048 H 
BRANCH  50  53
ATOM     53  N   UNL     1     -46.884  36.415  28.224  1.00  0.00    -0.299 NA
ATOM     54  C   UNL     1     -47.053  36.758  26.801  1.00  0.00    -0.001 C 
ATOM     55  C   UNL     1     -45.827  35.427  28.420  1.00  0.00    -0.001 C 
ATOM     56  C   UNL     1     -46.660  35.628  25.837  1.00  0.00    -0.035 C 
ATOM     57  H   UNL     1     -48.104  37.019  26.629  1.00  0.00     0.043 H 
ATOM     58  H   UNL     1     -46.459  37.639  26.528  1.00  0.00     0.043 H 
ATOM     59  C   UNL     1     -46.217  34.084  27.783  1.00  0.00    -0.035 C 
ATOM     60  H   UNL     1     -45.654  35.248  29.488  1.00  0.00     0.043 H 
ATOM     61  H   UNL     1     -44.876  35.784  28.003  1.00  0.00     0.043 H 
ATOM     62  C   UNL     1     -46.928  34.224  26.411  1.00  0.00    -0.033 C 
ATOM     63  H   UNL     1     -47.187  35.765  24.885  1.00  0.00     0.029 H 
ATOM     64  H   UNL     1     -45.589  35.721  25.609  1.00  0.00     0.029 H 
ATOM     65  H   UNL     1     -45.301  33.488  27.685  1.00  0.00     0.029 H 
ATOM     66  H   UNL     1     -46.860  33.529  28.480  1.00  0.00     0.029 H 
BRANCH  62  67
ATOM     67  C   UNL     1     -46.391  33.161  25.437  1.00  0.00    -0.060 C 
ATOM     68  H   UNL     1     -45.295  33.147  25.431  1.00  0.00     0.024 H 
ATOM     69  H   UNL     1     -46.725  33.358  24.412  1.00  0.00     0.024 H 
ATOM     70  H   UNL     1     -46.736  32.159  25.715  1.00  0.00     0.024 H 
ENDBRANCH  62  67
BRANCH  62  71
ATOM     71  C   UNL     1     -48.445  33.994  26.574  1.00  0.00    -0.060 C 
ATOM     72  H   UNL     1     -48.720  32.943  26.446  1.00  0.00     0.024 H 
ATOM     73  H   UNL     1     -49.011  34.571  25.834  1.00  0.00     0.024 H 
ATOM     74  H   UNL     1     -48.786  34.308  27.568  1.00  0.00     0.024 H 
ENDBRANCH  62  71
ENDBRANCH  50  53
ENDBRANCH  47  50
ENDBRANCH   8  40
TORSDOF 8
ENDMDL
MODEL 6
REMARK VINA RESULT:      -7.3      4.994     10.873
REMARK SMILES CNc1cc(N2CCC3(CC2)CN(c2ccc(CN4CCC(C)(C)CC4)cc2F)CC(=O)N3)ncn1
REMARK SMILES IDX 6 1 7 2 8 3 9 4 10 5 11 6 12 7 13 8 30 9 31 10 32 11 33 12
REMARK SMILES IDX 5 26 3 27 4 28 36 29 35 31 34 32 2 34 1 36 14 40 15 41 28 42
REMARK SMILES IDX 16 43 27 45 29 46 17 47 18 50 19 53 20 54 26 55 21 56 25 59
REMARK SMILES IDX 22 62 23 67 24 71
REMARK H PARENT 7 13 7 14 8 15 8 16 10 17 10 18 11 19 11 20 12 21 12 22 30 23
REMARK H PARENT 30 24 33 25 4 30 35 33 2 35 1 37 1 38 1 39 15 44 16 48 27 49
REMARK H PARENT 18 51 18 52 20 57 20 58 26 60 26 61 21 63 21 64 25 65 25 66
REMARK H PARENT 23 68 23 69 23 70 24 72 24 73 24 74
REMARK Flexibility Score: inf
ROOT
ATOM      1  N   UNL     1     -48.614  31.136  24.095  1.00  0.00    -0.356 N 
ATOM      2  C   UNL     1     -48.771  30.985  25.551  1.00  0.00     0.021 C 
ATOM      3  C   UNL     1     -48.359  32.264  26.270  1.00  0.00    -0.010 C 
ATOM      4  C   UNL     1     -46.862  32.591  26.016  1.00  0.00     0.061 C 
ATOM      5  C   UNL     1     -46.361  31.935  24.706  1.00  0.00    -0.010 C 
ATOM      6  C   UNL     1     -47.448  31.907  23.636  1.00  0.00     0.021 C 
ATOM      7  C   UNL     1     -46.677  34.137  25.932  1.00  0.00     0.042 C 
ATOM      8  N   UNL     1     -47.017  34.739  27.234  1.00  0.00    -0.358 N 
ATOM      9  C   UNL     1     -46.171  34.250  28.356  1.00  0.00     0.097 C 
ATOM     10  C   UNL     1     -45.897  32.736  28.319  1.00  0.00     0.240 C 
ATOM     11  O   UNL     1     -45.480  32.121  29.301  1.00  0.00    -0.273 OA
ATOM     12  N   UNL     1     -46.043  32.070  27.127  1.00  0.00    -0.347 N 
ATOM     13  H   UNL     1     -49.784  30.685  25.844  1.00  0.00     0.049 H 
ATOM     14  H   UNL     1     -48.129  30.157  25.881  1.00  0.00     0.049 H 
ATOM     15  H   UNL     1     -48.996  33.083  25.911  1.00  0.00     0.031 H 
ATOM     16  H   UNL     1     -48.562  32.161  27.343  1.00  0.00     0.031 H 
ATOM     17  H   UNL     1     -46.036  30.903  24.899  1.00  0.00     0.031 H 
ATOM     18  H   UNL     1     -45.473  32.457  24.327  1.00  0.00     0.031 H 
ATOM     19  H   UNL     1     -47.034  31.443  22.733  1.00  0.00     0.049 H 
ATOM     20  H   UNL     1     -47.728  32.938  23.381  1.00  0.00     0.049 H 
ATOM     21  H   UNL     1     -45.634  34.368  25.681  1.00  0.00     0.052 H 
ATOM     22  H   UNL     1     -47.323  34.536  25.140  1.00  0.00     0.052 H 
ATOM     23  H   UNL     1     -45.197  34.752  28.339  1.00  0.00     0.060 H 
ATOM     24  H   UNL     1     -46.662  34.448  29.315  1.00  0.00     0.060 H 
ATOM     25  H   UNL     1     -45.911  31.069  27.218  1.00  0.00     0.164 HD
ENDROOT
BRANCH   1  26
ATOM     26  C   UNL     1     -49.794  31.449  23.390  1.00  0.00     0.134 A 
ATOM     27  C   UNL     1     -51.075  31.448  21.391  1.00  0.00     0.131 A 
ATOM     28  C   UNL     1     -49.905  31.122  22.047  1.00  0.00     0.023 A 
ATOM     29  N   UNL     1     -52.081  32.080  22.002  1.00  0.00    -0.219 NA
ATOM     30  H   UNL     1     -49.100  30.623  21.525  1.00  0.00     0.070 H 
ATOM     31  C   UNL     1     -51.896  32.346  23.300  1.00  0.00     0.120 A 
ATOM     32  N   UNL     1     -50.809  32.053  24.026  1.00  0.00    -0.219 NA
ATOM     33  H   UNL     1     -52.706  32.850  23.815  1.00  0.00     0.106 H 
BRANCH  27  34
ATOM     34  N   UNL     1     -51.272  31.170  20.034  1.00  0.00    -0.373 N 
ATOM     35  H   UNL     1     -52.286  31.188  19.922  1.00  0.00     0.161 HD
BRANCH  34  36
ATOM     36  C   UNL     1     -50.716  29.899  19.600  1.00  0.00     0.005 C 
ATOM     37  H   UNL     1     -50.333  29.362  20.474  1.00  0.00     0.045 H 
ATOM     38  H   UNL     1     -49.882  30.042  18.904  1.00  0.00     0.045 H 
ATOM     39  H   UNL     1     -51.475  29.263  19.134  1.00  0.00     0.045 H 
ENDBRANCH  34  36
ENDBRANCH  27  34
ENDBRANCH   1  26
BRANCH   8  40
ATOM     40  C   UNL     1     -47.214  36.136  27.273  1.00  0.00     0.073 A 
ATOM     41  C   UNL     1     -46.119  36.976  26.996  1.00  0.00    -0.035 A 
ATOM     42  C   UNL     1     -48.427  36.774  27.593  1.00  0.00     0.146 A 
ATOM     43  C   UNL     1     -46.231  38.372  27.026  1.00  0.00    -0.055 A 
ATOM     44  H   UNL     1     -45.146  36.540  26.781  1.00  0.00     0.065 H 
ATOM     45  C   UNL     1     -48.549  38.164  27.622  1.00  0.00    -0.020 A 
ATOM     46  F   UNL     1     -49.532  36.057  27.857  1.00  0.00    -0.205 F 
ATOM     47  C   UNL     1     -47.448  38.981  27.342  1.00  0.00    -0.031 A 
ATOM     48  H   UNL     1     -45.351  38.975  26.812  1.00  0.00     0.063 H 
ATOM     49  H   UNL     1     -49.510  38.603  27.876  1.00  0.00     0.066 H 
BRANCH  47  50
ATOM     50  C   UNL     1     -47.582  40.489  27.370  1.00  0.00     0.023 C 
ATOM     51  H   UNL     1     -46.869  40.925  28.082  1.00  0.00     0.048 H 
ATOM     52  H   UNL     1     -47.276  40.843  26.376  1.00  0.00     0.048 H 
BRANCH  50  53
ATOM     53  N   UNL     1     -48.948  40.942  27.664  1.00  0.00    -0.299 NA
ATOM     54  C   UNL     1     -49.112  41.328  29.077  1.00  0.00    -0.001 C 
ATOM     55  C   UNL     1     -49.368  42.010  26.761  1.00  0.00    -0.001 C 
ATOM     56  C   UNL     1     -50.235  42.349  29.318  1.00  0.00    -0.035 C 
ATOM     57  H   UNL     1     -49.326  40.425  29.661  1.00  0.00     0.043 H 
ATOM     58  H   UNL     1     -48.188  41.758  29.484  1.00  0.00     0.043 H 
ATOM     59  C   UNL     1     -50.879  42.257  26.881  1.00  0.00    -0.035 C 
ATOM     60  H   UNL     1     -49.159  41.743  25.718  1.00  0.00     0.043 H 
ATOM     61  H   UNL     1     -48.813  42.936  26.965  1.00  0.00     0.043 H 
ATOM     62  C   UNL     1     -51.412  42.196  28.337  1.00  0.00    -0.033 C 
ATOM     63  H   UNL     1     -50.580  42.268  30.356  1.00  0.00     0.029 H 
ATOM     64  H   UNL     1     -49.814  43.359  29.215  1.00  0.00     0.029 H 
ATOM     65  H   UNL     1     -51.089  43.237  26.433  1.00  0.00     0.029 H 
ATOM     66  H   UNL     1     -51.414  41.527  26.258  1.00  0.00     0.029 H 
BRANCH  62  67
ATOM     67  C   UNL     1     -52.423  43.331  28.569  1.00  0.00    -0.060 C 
ATOM     68  H   UNL     1     -52.210  43.867  29.502  1.00  0.00     0.024 H 
ATOM     69  H   UNL     1     -53.446  42.944  28.636  1.00  0.00     0.024 H 
ATOM     70  H   UNL     1     -52.393  44.061  27.752  1.00  0.00     0.024 H 
ENDBRANCH  62  67
BRANCH  62  71
ATOM     71  C   UNL     1     -52.139  40.857  28.579  1.00  0.00    -0.060 C 
ATOM     72  H   UNL     1     -53.131  40.835  28.117  1.00  0.00     0.024 H 
ATOM     73  H   UNL     1     -52.275  40.672  29.651  1.00  0.00     0.024 H 
ATOM     74  H   UNL     1     -51.563  40.017  28.171  1.00  0.00     0.024 H 
ENDBRANCH  62  71
ENDBRANCH  50  53
ENDBRANCH  47  50
ENDBRANCH   8  40
TORSDOF 8
ENDMDL
