MODEL 1
REMARK VINA RESULT:      -9.1      0.000      0.000
REMARK SMILES CCc1cc(NCCOC)c2ncc(CCc3cncc(-n4cc(-c5ccn(C)n5)c5c(N)ncnc54)c3)cc2n1
REMARK SMILES IDX 3 1 4 2 5 3 11 4 12 5 13 6 14 7 39 8 40 9 41 10 2 14 1 17
REMARK SMILES IDX 6 21 7 23 8 26 9 29 10 30 15 34 16 37 17 40 18 41 38 42
REMARK SMILES IDX 19 43 21 45 20 47 22 49 23 50 37 51 24 52 31 54 36 55 32 56
REMARK SMILES IDX 35 57 34 58 25 60 26 61 30 62 27 63 28 65 29 67 33 71
REMARK H PARENT 4 11 13 12 39 13 2 15 2 16 1 18 1 19 1 20 6 22 7 24 7 25 8 27
REMARK H PARENT 8 28 10 31 10 32 10 33 15 35 15 36 16 38 16 39 18 44 38 46
REMARK H PARENT 20 48 23 53 35 59 26 64 27 66 29 68 29 69 29 70 33 72 33 73
REMARK Flexibility Score: inf
ROOT
ATOM      1  C   UNL     1     -42.660  41.442  28.397  1.00  0.00     0.043 A 
ATOM      2  C   UNL     1     -42.995  42.397  27.448  1.00  0.00    -0.015 A 
ATOM      3  C   UNL     1     -44.159  42.220  26.699  1.00  0.00     0.064 A 
ATOM      4  C   UNL     1     -44.969  41.093  26.899  1.00  0.00     0.112 A 
ATOM      5  N   UNL     1     -46.098  40.924  26.165  1.00  0.00    -0.252 NA
ATOM      6  C   UNL     1     -46.816  39.802  26.377  1.00  0.00     0.031 A 
ATOM      7  C   UNL     1     -46.473  38.828  27.304  1.00  0.00    -0.027 A 
ATOM      8  C   UNL     1     -45.318  39.049  28.063  1.00  0.00    -0.029 A 
ATOM      9  C   UNL     1     -44.536  40.179  27.877  1.00  0.00     0.091 A 
ATOM     10  N   UNL     1     -43.413  40.338  28.610  1.00  0.00    -0.251 NA
ATOM     11  H   UNL     1     -42.378  43.276  27.300  1.00  0.00     0.066 H 
ATOM     12  H   UNL     1     -47.691  39.696  25.740  1.00  0.00     0.084 H 
ATOM     13  H   UNL     1     -45.000  38.317  28.801  1.00  0.00     0.065 H 
ENDROOT
BRANCH   1  14
ATOM     14  C   UNL     1     -41.431  41.610  29.251  1.00  0.00    -0.013 C 
ATOM     15  H   UNL     1     -40.539  41.445  28.634  1.00  0.00     0.033 H 
ATOM     16  H   UNL     1     -41.369  42.641  29.618  1.00  0.00     0.033 H 
BRANCH  14  17
ATOM     17  C   UNL     1     -41.425  40.636  30.418  1.00  0.00    -0.060 C 
ATOM     18  H   UNL     1     -41.571  39.606  30.076  1.00  0.00     0.023 H 
ATOM     19  H   UNL     1     -42.222  40.868  31.134  1.00  0.00     0.023 H 
ATOM     20  H   UNL     1     -40.469  40.687  30.948  1.00  0.00     0.023 H 
ENDBRANCH  14  17
ENDBRANCH   1  14
BRANCH   3  21
ATOM     21  N   UNL     1     -44.473  43.170  25.666  1.00  0.00    -0.381 N 
ATOM     22  H   UNL     1     -45.201  42.690  25.117  1.00  0.00     0.160 HD
BRANCH  21  23
ATOM     23  C   UNL     1     -43.332  43.362  24.736  1.00  0.00     0.038 C 
ATOM     24  H   UNL     1     -42.554  43.982  25.199  1.00  0.00     0.051 H 
ATOM     25  H   UNL     1     -42.891  42.376  24.554  1.00  0.00     0.051 H 
BRANCH  23  26
ATOM     26  C   UNL     1     -43.746  43.970  23.386  1.00  0.00     0.063 C 
ATOM     27  H   UNL     1     -44.835  44.087  23.397  1.00  0.00     0.059 H 
ATOM     28  H   UNL     1     -43.508  43.325  22.536  1.00  0.00     0.059 H 
BRANCH  26  29
ATOM     29  O   UNL     1     -43.233  45.287  23.155  1.00  0.00    -0.383 OA
BRANCH  29  30
ATOM     30  C   UNL     1     -43.746  45.892  21.976  1.00  0.00     0.036 C 
ATOM     31  H   UNL     1     -43.029  46.601  21.550  1.00  0.00     0.053 H 
ATOM     32  H   UNL     1     -43.926  45.102  21.242  1.00  0.00     0.053 H 
ATOM     33  H   UNL     1     -44.702  46.381  22.178  1.00  0.00     0.053 H 
ENDBRANCH  29  30
ENDBRANCH  26  29
ENDBRANCH  23  26
ENDBRANCH  21  23
ENDBRANCH   3  21
BRANCH   7  34
ATOM     34  C   UNL     1     -47.270  37.556  27.430  1.00  0.00    -0.022 C 
ATOM     35  H   UNL     1     -46.937  37.025  28.331  1.00  0.00     0.032 H 
ATOM     36  H   UNL     1     -48.328  37.798  27.597  1.00  0.00     0.032 H 
BRANCH  34  37
ATOM     37  C   UNL     1     -47.133  36.621  26.216  1.00  0.00    -0.022 C 
ATOM     38  H   UNL     1     -46.336  37.000  25.562  1.00  0.00     0.032 H 
ATOM     39  H   UNL     1     -48.048  36.643  25.610  1.00  0.00     0.032 H 
BRANCH  37  40
ATOM     40  C   UNL     1     -46.820  35.197  26.597  1.00  0.00    -0.027 A 
ATOM     41  C   UNL     1     -46.213  34.883  27.805  1.00  0.00     0.030 A 
ATOM     42  C   UNL     1     -47.195  34.135  25.763  1.00  0.00    -0.032 A 
ATOM     43  N   UNL     1     -45.976  33.620  28.214  1.00  0.00    -0.262 NA
ATOM     44  H   UNL     1     -45.898  35.654  28.502  1.00  0.00     0.084 H 
ATOM     45  C   UNL     1     -47.001  32.809  26.160  1.00  0.00     0.066 A 
ATOM     46  H   UNL     1     -47.657  34.386  24.815  1.00  0.00     0.065 H 
ATOM     47  C   UNL     1     -46.378  32.618  27.390  1.00  0.00     0.051 A 
ATOM     48  H   UNL     1     -46.179  31.636  27.807  1.00  0.00     0.086 H 
BRANCH  45  49
ATOM     49  N   UNL     1     -47.443  31.699  25.369  1.00  0.00    -0.299 N 
ATOM     50  C   UNL     1     -48.387  30.771  25.762  1.00  0.00     0.021 A 
ATOM     51  C   UNL     1     -47.044  31.352  24.073  1.00  0.00     0.150 A 
ATOM     52  C   UNL     1     -48.582  29.853  24.752  1.00  0.00     0.033 A 
ATOM     53  H   UNL     1     -48.854  30.794  26.735  1.00  0.00     0.083 H 
ATOM     54  C   UNL     1     -47.770  30.235  23.655  1.00  0.00     0.071 A 
ATOM     55  N   UNL     1     -46.132  31.996  23.317  1.00  0.00    -0.218 NA
ATOM     56  C   UNL     1     -47.552  29.798  22.336  1.00  0.00     0.137 A 
ATOM     57  C   UNL     1     -45.985  31.472  22.098  1.00  0.00     0.120 A 
ATOM     58  N   UNL     1     -46.649  30.435  21.570  1.00  0.00    -0.219 NA
ATOM     59  H   UNL     1     -45.246  31.947  21.459  1.00  0.00     0.106 H 
BRANCH  52  60
ATOM     60  C   UNL     1     -49.487  28.711  24.827  1.00  0.00     0.095 A 
ATOM     61  C   UNL     1     -50.718  28.594  24.149  1.00  0.00    -0.016 A 
ATOM     62  N   UNL     1     -49.193  27.609  25.526  1.00  0.00    -0.173 NA
ATOM     63  C   UNL     1     -51.194  27.350  24.496  1.00  0.00     0.025 A 
ATOM     64  H   UNL     1     -51.193  29.312  23.494  1.00  0.00     0.066 H 
ATOM     65  N   UNL     1     -50.250  26.804  25.315  1.00  0.00    -0.275 N 
ATOM     66  H   UNL     1     -52.097  26.821  24.224  1.00  0.00     0.084 H 
BRANCH  65  67
ATOM     67  C   UNL     1     -50.285  25.502  25.934  1.00  0.00     0.030 C 
ATOM     68  H   UNL     1     -51.314  25.292  26.239  1.00  0.00     0.048 H 
ATOM     69  H   UNL     1     -49.629  25.495  26.807  1.00  0.00     0.048 H 
ATOM     70  H   UNL     1     -49.943  24.764  25.204  1.00  0.00     0.048 H 
ENDBRANCH  65  67
ENDBRANCH  52  60
BRANCH  56  71
ATOM     71  N   UNL     1     -48.246  28.764  21.721  1.00  0.00    -0.383 N 
ATOM     72  H   UNL     1     -49.152  29.090  21.404  1.00  0.00     0.158 HD
ATOM     73  H   UNL     1     -48.260  27.899  22.249  1.00  0.00     0.158 HD
ENDBRANCH  56  71
ENDBRANCH  45  49
ENDBRANCH  37  40
ENDBRANCH  34  37
ENDBRANCH   7  34
TORSDOF 14
ENDMDL
MODEL 2
REMARK VINA RESULT:      -9.1      3.544     12.896
REMARK SMILES CCc1cc(NCCOC)c2ncc(CCc3cncc(-n4cc(-c5ccn(C)n5)c5c(N)ncnc54)c3)cc2n1
REMARK SMILES IDX 3 1 4 2 5 3 11 4 12 5 13 6 14 7 39 8 40 9 41 10 2 14 1 17
REMARK SMILES IDX 6 21 7 23 8 26 9 29 10 30 15 34 16 37 17 40 18 41 38 42
REMARK SMILES IDX 19 43 21 45 20 47 22 49 23 50 37 51 24 52 31 54 36 55 32 56
REMARK SMILES IDX 35 57 34 58 25 60 26 61 30 62 27 63 28 65 29 67 33 71
REMARK H PARENT 4 11 13 12 39 13 2 15 2 16 1 18 1 19 1 20 6 22 7 24 7 25 8 27
REMARK H PARENT 8 28 10 31 10 32 10 33 15 35 15 36 16 38 16 39 18 44 38 46
REMARK H PARENT 20 48 23 53 35 59 26 64 27 66 29 68 29 69 29 70 33 72 33 73
REMARK Flexibility Score: inf
ROOT
ATOM      1  C   UNL     1     -46.519  29.608  23.067  1.00  0.00     0.043 A 
ATOM      2  C   UNL     1     -47.657  28.952  23.512  1.00  0.00    -0.015 A 
ATOM      3  C   UNL     1     -48.502  29.606  24.410  1.00  0.00     0.064 A 
ATOM      4  C   UNL     1     -48.199  30.900  24.858  1.00  0.00     0.112 A 
ATOM      5  N   UNL     1     -49.021  31.530  25.734  1.00  0.00    -0.252 NA
ATOM      6  C   UNL     1     -48.658  32.758  26.157  1.00  0.00     0.031 A 
ATOM      7  C   UNL     1     -47.507  33.410  25.739  1.00  0.00    -0.027 A 
ATOM      8  C   UNL     1     -46.696  32.742  24.813  1.00  0.00    -0.029 A 
ATOM      9  C   UNL     1     -47.016  31.473  24.355  1.00  0.00     0.091 A 
ATOM     10  N   UNL     1     -46.190  30.852  23.486  1.00  0.00    -0.251 NA
ATOM     11  H   UNL     1     -47.901  27.957  23.157  1.00  0.00     0.066 H 
ATOM     12  H   UNL     1     -49.331  33.205  26.884  1.00  0.00     0.084 H 
ATOM     13  H   UNL     1     -45.779  33.205  24.455  1.00  0.00     0.065 H 
ENDROOT
BRANCH   1  14
ATOM     14  C   UNL     1     -45.597  28.953  22.072  1.00  0.00    -0.013 C 
ATOM     15  H   UNL     1     -46.014  27.981  21.782  1.00  0.00     0.033 H 
ATOM     16  H   UNL     1     -45.545  29.555  21.158  1.00  0.00     0.033 H 
BRANCH  14  17
ATOM     17  C   UNL     1     -44.205  28.753  22.649  1.00  0.00    -0.060 C 
ATOM     18  H   UNL     1     -43.891  29.621  23.238  1.00  0.00     0.023 H 
ATOM     19  H   UNL     1     -43.464  28.599  21.857  1.00  0.00     0.023 H 
ATOM     20  H   UNL     1     -44.189  27.874  23.303  1.00  0.00     0.023 H 
ENDBRANCH  14  17
ENDBRANCH   1  14
BRANCH   3  21
ATOM     21  N   UNL     1     -49.644  28.904  24.928  1.00  0.00    -0.381 N 
ATOM     22  H   UNL     1     -49.333  28.601  25.862  1.00  0.00     0.160 HD
BRANCH  21  23
ATOM     23  C   UNL     1     -49.908  27.655  24.169  1.00  0.00     0.038 C 
ATOM     24  H   UNL     1     -50.804  27.761  23.545  1.00  0.00     0.051 H 
ATOM     25  H   UNL     1     -49.061  27.502  23.491  1.00  0.00     0.051 H 
BRANCH  23  26
ATOM     26  C   UNL     1     -50.044  26.417  25.069  1.00  0.00     0.063 C 
ATOM     27  H   UNL     1     -49.650  25.559  24.514  1.00  0.00     0.059 H 
ATOM     28  H   UNL     1     -51.082  26.180  25.317  1.00  0.00     0.059 H 
BRANCH  26  29
ATOM     29  O   UNL     1     -49.261  26.475  26.267  1.00  0.00    -0.383 OA
BRANCH  29  30
ATOM     30  C   UNL     1     -48.022  25.786  26.164  1.00  0.00     0.036 C 
ATOM     31  H   UNL     1     -48.053  24.832  26.700  1.00  0.00     0.053 H 
ATOM     32  H   UNL     1     -47.837  25.579  25.106  1.00  0.00     0.053 H 
ATOM     33  H   UNL     1     -47.203  26.410  26.528  1.00  0.00     0.053 H 
ENDBRANCH  29  30
ENDBRANCH  26  29
ENDBRANCH  23  26
ENDBRANCH  21  23
ENDBRANCH   3  21
BRANCH   7  34
ATOM     34  C   UNL     1     -47.112  34.744  26.317  1.00  0.00    -0.022 C 
ATOM     35  H   UNL     1     -46.809  35.403  25.494  1.00  0.00     0.032 H 
ATOM     36  H   UNL     1     -47.988  35.220  26.777  1.00  0.00     0.032 H 
BRANCH  34  37
ATOM     37  C   UNL     1     -45.967  34.657  27.340  1.00  0.00    -0.022 C 
ATOM     38  H   UNL     1     -45.013  34.576  26.802  1.00  0.00     0.032 H 
ATOM     39  H   UNL     1     -46.051  33.737  27.933  1.00  0.00     0.032 H 
BRANCH  37  40
ATOM     40  C   UNL     1     -45.909  35.846  28.265  1.00  0.00    -0.027 A 
ATOM     41  C   UNL     1     -46.273  35.749  29.600  1.00  0.00     0.030 A 
ATOM     42  C   UNL     1     -45.418  37.079  27.814  1.00  0.00    -0.032 A 
ATOM     43  N   UNL     1     -46.173  36.768  30.477  1.00  0.00    -0.262 NA
ATOM     44  H   UNL     1     -46.659  34.824  30.020  1.00  0.00     0.084 H 
ATOM     45  C   UNL     1     -45.264  38.154  28.693  1.00  0.00     0.066 A 
ATOM     46  H   UNL     1     -45.146  37.154  26.767  1.00  0.00     0.065 H 
ATOM     47  C   UNL     1     -45.668  37.939  30.008  1.00  0.00     0.051 A 
ATOM     48  H   UNL     1     -45.592  38.695  30.783  1.00  0.00     0.086 H 
BRANCH  45  49
ATOM     49  N   UNL     1     -44.694  39.403  28.285  1.00  0.00    -0.299 N 
ATOM     50  C   UNL     1     -45.166  40.192  27.254  1.00  0.00     0.021 A 
ATOM     51  C   UNL     1     -43.598  40.073  28.841  1.00  0.00     0.150 A 
ATOM     52  C   UNL     1     -44.392  41.327  27.148  1.00  0.00     0.033 A 
ATOM     53  H   UNL     1     -46.005  39.902  26.639  1.00  0.00     0.083 H 
ATOM     54  C   UNL     1     -43.420  41.289  28.179  1.00  0.00     0.071 A 
ATOM     55  N   UNL     1     -42.840  39.648  29.873  1.00  0.00    -0.218 NA
ATOM     56  C   UNL     1     -42.406  42.132  28.667  1.00  0.00     0.137 A 
ATOM     57  C   UNL     1     -41.888  40.514  30.227  1.00  0.00     0.120 A 
ATOM     58  N   UNL     1     -41.647  41.722  29.699  1.00  0.00    -0.219 NA
ATOM     59  H   UNL     1     -41.241  40.207  31.042  1.00  0.00     0.106 H 
BRANCH  52  60
ATOM     60  C   UNL     1     -44.581  42.374  26.149  1.00  0.00     0.095 A 
ATOM     61  C   UNL     1     -44.408  42.220  24.757  1.00  0.00    -0.016 A 
ATOM     62  N   UNL     1     -45.006  43.602  26.468  1.00  0.00    -0.173 NA
ATOM     63  C   UNL     1     -44.725  43.449  24.225  1.00  0.00     0.025 A 
ATOM     64  H   UNL     1     -44.101  41.337  24.214  1.00  0.00     0.066 H 
ATOM     65  N   UNL     1     -45.075  44.235  25.284  1.00  0.00    -0.275 N 
ATOM     66  H   UNL     1     -44.739  43.813  23.208  1.00  0.00     0.084 H 
BRANCH  65  67
ATOM     67  C   UNL     1     -45.499  45.613  25.240  1.00  0.00     0.030 C 
ATOM     68  H   UNL     1     -45.732  45.935  26.258  1.00  0.00     0.048 H 
ATOM     69  H   UNL     1     -46.386  45.702  24.609  1.00  0.00     0.048 H 
ATOM     70  H   UNL     1     -44.684  46.211  24.825  1.00  0.00     0.048 H 
ENDBRANCH  65  67
ENDBRANCH  52  60
BRANCH  56  71
ATOM     71  N   UNL     1     -42.144  43.411  28.194  1.00  0.00    -0.383 N 
ATOM     72  H   UNL     1     -41.614  43.937  28.880  1.00  0.00     0.158 HD
ATOM     73  H   UNL     1     -42.953  43.890  27.816  1.00  0.00     0.158 HD
ENDBRANCH  56  71
ENDBRANCH  45  49
ENDBRANCH  37  40
ENDBRANCH  34  37
ENDBRANCH   7  34
TORSDOF 14
ENDMDL
MODEL 3
REMARK VINA RESULT:      -9.0      3.508     13.045
REMARK SMILES CCc1cc(NCCOC)c2ncc(CCc3cncc(-n4cc(-c5ccn(C)n5)c5c(N)ncnc54)c3)cc2n1
REMARK SMILES IDX 3 1 4 2 5 3 11 4 12 5 13 6 14 7 39 8 40 9 41 10 2 14 1 17
REMARK SMILES IDX 6 21 7 23 8 26 9 29 10 30 15 34 16 37 17 40 18 41 38 42
REMARK SMILES IDX 19 43 21 45 20 47 22 49 23 50 37 51 24 52 31 54 36 55 32 56
REMARK SMILES IDX 35 57 34 58 25 60 26 61 30 62 27 63 28 65 29 67 33 71
REMARK H PARENT 4 11 13 12 39 13 2 15 2 16 1 18 1 19 1 20 6 22 7 24 7 25 8 27
REMARK H PARENT 8 28 10 31 10 32 10 33 15 35 15 36 16 38 16 39 18 44 38 46
REMARK H PARENT 20 48 23 53 35 59 26 64 27 66 29 68 29 69 29 70 33 72 33 73
REMARK Flexibility Score: inf
ROOT
ATOM      1  C   UNL     1     -49.309  29.395  23.263  1.00  0.00     0.043 A 
ATOM      2  C   UNL     1     -49.257  28.564  24.372  1.00  0.00    -0.015 A 
ATOM      3  C   UNL     1     -48.762  29.076  25.573  1.00  0.00     0.064 A 
ATOM      4  C   UNL     1     -48.321  30.404  25.652  1.00  0.00     0.112 A 
ATOM      5  N   UNL     1     -47.838  30.896  26.820  1.00  0.00    -0.252 NA
ATOM      6  C   UNL     1     -47.393  32.169  26.824  1.00  0.00     0.031 A 
ATOM      7  C   UNL     1     -47.416  32.999  25.713  1.00  0.00    -0.027 A 
ATOM      8  C   UNL     1     -47.948  32.468  24.532  1.00  0.00    -0.029 A 
ATOM      9  C   UNL     1     -48.406  31.161  24.468  1.00  0.00     0.091 A 
ATOM     10  N   UNL     1     -48.883  30.679  23.300  1.00  0.00    -0.251 NA
ATOM     11  H   UNL     1     -49.610  27.540  24.318  1.00  0.00     0.066 H 
ATOM     12  H   UNL     1     -46.983  32.504  27.774  1.00  0.00     0.084 H 
ATOM     13  H   UNL     1     -47.985  33.073  23.629  1.00  0.00     0.065 H 
ENDROOT
BRANCH   1  14
ATOM     14  C   UNL     1     -49.867  28.895  21.957  1.00  0.00    -0.013 C 
ATOM     15  H   UNL     1     -49.129  29.063  21.164  1.00  0.00     0.033 H 
ATOM     16  H   UNL     1     -50.028  27.812  22.009  1.00  0.00     0.033 H 
BRANCH  14  17
ATOM     17  C   UNL     1     -51.164  29.601  21.597  1.00  0.00    -0.060 C 
ATOM     18  H   UNL     1     -51.882  28.907  21.146  1.00  0.00     0.023 H 
ATOM     19  H   UNL     1     -50.990  30.414  20.883  1.00  0.00     0.023 H 
ATOM     20  H   UNL     1     -51.623  30.030  22.494  1.00  0.00     0.023 H 
ENDBRANCH  14  17
ENDBRANCH   1  14
BRANCH   3  21
ATOM     21  N   UNL     1     -48.641  28.199  26.705  1.00  0.00    -0.381 N 
ATOM     22  H   UNL     1     -47.682  28.373  27.038  1.00  0.00     0.160 HD
BRANCH  21  23
ATOM     23  C   UNL     1     -48.669  26.771  26.296  1.00  0.00     0.038 C 
ATOM     24  H   UNL     1     -49.621  26.305  26.579  1.00  0.00     0.051 H 
ATOM     25  H   UNL     1     -48.611  26.746  25.202  1.00  0.00     0.051 H 
BRANCH  23  26
ATOM     26  C   UNL     1     -47.499  25.954  26.867  1.00  0.00     0.063 C 
ATOM     27  H   UNL     1     -47.657  24.908  26.584  1.00  0.00     0.059 H 
ATOM     28  H   UNL     1     -47.451  25.981  27.959  1.00  0.00     0.059 H 
BRANCH  26  29
ATOM     29  O   UNL     1     -46.222  26.298  26.317  1.00  0.00    -0.383 OA
BRANCH  29  30
ATOM     30  C   UNL     1     -46.204  26.306  24.896  1.00  0.00     0.036 C 
ATOM     31  H   UNL     1     -46.088  25.295  24.495  1.00  0.00     0.053 H 
ATOM     32  H   UNL     1     -47.161  26.706  24.548  1.00  0.00     0.053 H 
ATOM     33  H   UNL     1     -45.415  26.965  24.524  1.00  0.00     0.053 H 
ENDBRANCH  29  30
ENDBRANCH  26  29
ENDBRANCH  23  26
ENDBRANCH  21  23
ENDBRANCH   3  21
BRANCH   7  34
ATOM     34  C   UNL     1     -46.823  34.383  25.760  1.00  0.00    -0.022 C 
ATOM     35  H   UNL     1     -45.865  34.332  26.293  1.00  0.00     0.032 H 
ATOM     36  H   UNL     1     -46.583  34.717  24.742  1.00  0.00     0.032 H 
BRANCH  34  37
ATOM     37  C   UNL     1     -47.728  35.418  26.450  1.00  0.00    -0.022 C 
ATOM     38  H   UNL     1     -48.556  34.893  26.946  1.00  0.00     0.032 H 
ATOM     39  H   UNL     1     -48.198  36.073  25.705  1.00  0.00     0.032 H 
BRANCH  37  40
ATOM     40  C   UNL     1     -47.000  36.258  27.467  1.00  0.00    -0.027 A 
ATOM     41  C   UNL     1     -46.793  35.814  28.765  1.00  0.00     0.030 A 
ATOM     42  C   UNL     1     -46.448  37.495  27.108  1.00  0.00    -0.032 A 
ATOM     43  N   UNL     1     -46.089  36.503  29.686  1.00  0.00    -0.262 NA
ATOM     44  H   UNL     1     -47.189  34.864  29.112  1.00  0.00     0.084 H 
ATOM     45  C   UNL     1     -45.682  38.229  28.017  1.00  0.00     0.066 A 
ATOM     46  H   UNL     1     -46.622  37.844  26.096  1.00  0.00     0.065 H 
ATOM     47  C   UNL     1     -45.548  37.685  29.292  1.00  0.00     0.051 A 
ATOM     48  H   UNL     1     -44.973  38.159  30.081  1.00  0.00     0.086 H 
BRANCH  45  49
ATOM     49  N   UNL     1     -45.038  39.459  27.662  1.00  0.00    -0.299 N 
ATOM     50  C   UNL     1     -45.391  40.259  26.592  1.00  0.00     0.021 A 
ATOM     51  C   UNL     1     -43.976  40.096  28.314  1.00  0.00     0.150 A 
ATOM     52  C   UNL     1     -44.575  41.369  26.557  1.00  0.00     0.033 A 
ATOM     53  H   UNL     1     -46.180  39.994  25.905  1.00  0.00     0.083 H 
ATOM     54  C   UNL     1     -43.701  41.304  27.670  1.00  0.00     0.071 A 
ATOM     55  N   UNL     1     -43.328  39.650  29.410  1.00  0.00    -0.218 NA
ATOM     56  C   UNL     1     -42.709  42.116  28.248  1.00  0.00     0.137 A 
ATOM     57  C   UNL     1     -42.385  40.487  29.847  1.00  0.00     0.120 A 
ATOM     58  N   UNL     1     -42.059  41.685  29.344  1.00  0.00    -0.219 NA
ATOM     59  H   UNL     1     -41.822  40.162  30.717  1.00  0.00     0.106 H 
BRANCH  52  60
ATOM     60  C   UNL     1     -44.641  42.418  25.544  1.00  0.00     0.095 A 
ATOM     61  C   UNL     1     -45.742  43.270  25.315  1.00  0.00    -0.016 A 
ATOM     62  N   UNL     1     -43.604  42.717  24.753  1.00  0.00    -0.173 NA
ATOM     63  C   UNL     1     -45.335  44.106  24.300  1.00  0.00     0.025 A 
ATOM     64  H   UNL     1     -46.698  43.279  25.820  1.00  0.00     0.066 H 
ATOM     65  N   UNL     1     -44.056  43.736  24.002  1.00  0.00    -0.275 N 
ATOM     66  H   UNL     1     -45.834  44.916  23.788  1.00  0.00     0.084 H 
BRANCH  65  67
ATOM     67  C   UNL     1     -43.191  44.324  23.008  1.00  0.00     0.030 C 
ATOM     68  H   UNL     1     -42.292  44.693  23.508  1.00  0.00     0.048 H 
ATOM     69  H   UNL     1     -43.710  45.149  22.516  1.00  0.00     0.048 H 
ATOM     70  H   UNL     1     -42.935  43.554  22.276  1.00  0.00     0.048 H 
ENDBRANCH  65  67
ENDBRANCH  52  60
BRANCH  56  71
ATOM     71  N   UNL     1     -42.366  43.384  27.799  1.00  0.00    -0.383 N 
ATOM     72  H   UNL     1     -43.182  43.987  27.794  1.00  0.00     0.158 HD
ATOM     73  H   UNL     1     -41.820  43.392  26.946  1.00  0.00     0.158 HD
ENDBRANCH  56  71
ENDBRANCH  45  49
ENDBRANCH  37  40
ENDBRANCH  34  37
ENDBRANCH   7  34
TORSDOF 14
ENDMDL
MODEL 4
REMARK VINA RESULT:      -8.9      3.061     12.422
REMARK SMILES CCc1cc(NCCOC)c2ncc(CCc3cncc(-n4cc(-c5ccn(C)n5)c5c(N)ncnc54)c3)cc2n1
REMARK SMILES IDX 3 1 4 2 5 3 11 4 12 5 13 6 14 7 39 8 40 9 41 10 2 14 1 17
REMARK SMILES IDX 6 21 7 23 8 26 9 29 10 30 15 34 16 37 17 40 18 41 38 42
REMARK SMILES IDX 19 43 21 45 20 47 22 49 23 50 37 51 24 52 31 54 36 55 32 56
REMARK SMILES IDX 35 57 34 58 25 60 26 61 30 62 27 63 28 65 29 67 33 71
REMARK H PARENT 4 11 13 12 39 13 2 15 2 16 1 18 1 19 1 20 6 22 7 24 7 25 8 27
REMARK H PARENT 8 28 10 31 10 32 10 33 15 35 15 36 16 38 16 39 18 44 38 46
REMARK H PARENT 20 48 23 53 35 59 26 64 27 66 29 68 29 69 29 70 33 72 33 73
REMARK Flexibility Score: inf
ROOT
ATOM      1  C   UNL     1     -48.722  28.876  25.153  1.00  0.00     0.043 A 
ATOM      2  C   UNL     1     -48.449  28.682  23.807  1.00  0.00    -0.015 A 
ATOM      3  C   UNL     1     -47.746  29.670  23.114  1.00  0.00     0.064 A 
ATOM      4  C   UNL     1     -47.331  30.839  23.769  1.00  0.00     0.112 A 
ATOM      5  N   UNL     1     -46.652  31.797  23.091  1.00  0.00    -0.252 NA
ATOM      6  C   UNL     1     -46.312  32.915  23.764  1.00  0.00     0.031 A 
ATOM      7  C   UNL     1     -46.605  33.129  25.104  1.00  0.00    -0.027 A 
ATOM      8  C   UNL     1     -47.282  32.107  25.779  1.00  0.00    -0.029 A 
ATOM      9  C   UNL     1     -47.667  30.943  25.132  1.00  0.00     0.091 A 
ATOM     10  N   UNL     1     -48.345  29.995  25.814  1.00  0.00    -0.251 NA
ATOM     11  H   UNL     1     -48.757  27.774  23.301  1.00  0.00     0.066 H 
ATOM     12  H   UNL     1     -45.801  33.667  23.168  1.00  0.00     0.084 H 
ATOM     13  H   UNL     1     -47.542  32.224  26.829  1.00  0.00     0.065 H 
ENDROOT
BRANCH   1  14
ATOM     14  C   UNL     1     -49.447  27.822  25.946  1.00  0.00    -0.013 C 
ATOM     15  H   UNL     1     -49.194  27.933  27.007  1.00  0.00     0.033 H 
ATOM     16  H   UNL     1     -50.530  27.973  25.867  1.00  0.00     0.033 H 
BRANCH  14  17
ATOM     17  C   UNL     1     -49.078  26.422  25.482  1.00  0.00    -0.060 C 
ATOM     18  H   UNL     1     -48.136  26.090  25.932  1.00  0.00     0.023 H 
ATOM     19  H   UNL     1     -48.963  26.381  24.393  1.00  0.00     0.023 H 
ATOM     20  H   UNL     1     -49.860  25.711  25.767  1.00  0.00     0.023 H 
ENDBRANCH  14  17
ENDBRANCH   1  14
BRANCH   3  21
ATOM     21  N   UNL     1     -47.523  29.506  21.704  1.00  0.00    -0.381 N 
ATOM     22  H   UNL     1     -47.040  30.376  21.438  1.00  0.00     0.160 HD
BRANCH  21  23
ATOM     23  C   UNL     1     -48.800  29.509  20.945  1.00  0.00     0.038 C 
ATOM     24  H   UNL     1     -48.748  28.815  20.096  1.00  0.00     0.051 H 
ATOM     25  H   UNL     1     -49.579  29.136  21.618  1.00  0.00     0.051 H 
BRANCH  23  26
ATOM     26  C   UNL     1     -49.207  30.906  20.451  1.00  0.00     0.063 C 
ATOM     27  H   UNL     1     -48.426  31.257  19.769  1.00  0.00     0.059 H 
ATOM     28  H   UNL     1     -49.275  31.642  21.257  1.00  0.00     0.059 H 
BRANCH  26  29
ATOM     29  O   UNL     1     -50.412  30.924  19.675  1.00  0.00    -0.383 OA
BRANCH  29  30
ATOM     30  C   UNL     1     -51.475  30.192  20.270  1.00  0.00     0.036 C 
ATOM     31  H   UNL     1     -51.175  29.766  21.232  1.00  0.00     0.053 H 
ATOM     32  H   UNL     1     -52.305  30.882  20.443  1.00  0.00     0.053 H 
ATOM     33  H   UNL     1     -51.830  29.410  19.593  1.00  0.00     0.053 H 
ENDBRANCH  29  30
ENDBRANCH  26  29
ENDBRANCH  23  26
ENDBRANCH  21  23
ENDBRANCH   3  21
BRANCH   7  34
ATOM     34  C   UNL     1     -46.276  34.437  25.775  1.00  0.00    -0.022 C 
ATOM     35  H   UNL     1     -45.359  34.304  26.363  1.00  0.00     0.032 H 
ATOM     36  H   UNL     1     -46.037  35.192  25.014  1.00  0.00     0.032 H 
BRANCH  34  37
ATOM     37  C   UNL     1     -47.394  34.957  26.694  1.00  0.00    -0.022 C 
ATOM     38  H   UNL     1     -47.828  34.109  27.242  1.00  0.00     0.032 H 
ATOM     39  H   UNL     1     -48.215  35.377  26.100  1.00  0.00     0.032 H 
BRANCH  37  40
ATOM     40  C   UNL     1     -46.915  35.986  27.685  1.00  0.00    -0.027 A 
ATOM     41  C   UNL     1     -46.944  35.751  29.052  1.00  0.00     0.030 A 
ATOM     42  C   UNL     1     -46.359  37.196  27.246  1.00  0.00    -0.032 A 
ATOM     43  N   UNL     1     -46.464  36.617  29.968  1.00  0.00    -0.262 NA
ATOM     44  H   UNL     1     -47.357  34.835  29.464  1.00  0.00     0.084 H 
ATOM     45  C   UNL     1     -45.819  38.108  28.155  1.00  0.00     0.066 A 
ATOM     46  H   UNL     1     -46.350  37.381  26.177  1.00  0.00     0.065 H 
ATOM     47  C   UNL     1     -45.910  37.766  29.502  1.00  0.00     0.051 A 
ATOM     48  H   UNL     1     -45.522  38.390  30.300  1.00  0.00     0.086 H 
BRANCH  45  49
ATOM     49  N   UNL     1     -45.174  39.318  27.738  1.00  0.00    -0.299 N 
ATOM     50  C   UNL     1     -45.547  40.080  26.647  1.00  0.00     0.021 A 
ATOM     51  C   UNL     1     -44.091  39.969  28.339  1.00  0.00     0.150 A 
ATOM     52  C   UNL     1     -44.723  41.181  26.550  1.00  0.00     0.033 A 
ATOM     53  H   UNL     1     -46.355  39.797  25.990  1.00  0.00     0.083 H 
ATOM     54  C   UNL     1     -43.822  41.149  27.643  1.00  0.00     0.071 A 
ATOM     55  N   UNL     1     -43.419  39.559  29.434  1.00  0.00    -0.218 NA
ATOM     56  C   UNL     1     -42.809  41.974  28.164  1.00  0.00     0.137 A 
ATOM     57  C   UNL     1     -42.458  40.404  29.816  1.00  0.00     0.120 A 
ATOM     58  N   UNL     1     -42.135  41.579  29.259  1.00  0.00    -0.219 NA
ATOM     59  H   UNL     1     -41.877  40.107  30.684  1.00  0.00     0.106 H 
BRANCH  52  60
ATOM     60  C   UNL     1     -44.805  42.191  25.500  1.00  0.00     0.095 A 
ATOM     61  C   UNL     1     -43.973  42.263  24.363  1.00  0.00    -0.016 A 
ATOM     62  N   UNL     1     -45.749  43.140  25.490  1.00  0.00    -0.173 NA
ATOM     63  C   UNL     1     -44.440  43.346  23.653  1.00  0.00     0.025 A 
ATOM     64  H   UNL     1     -43.150  41.616  24.094  1.00  0.00     0.066 H 
ATOM     65  N   UNL     1     -45.497  43.832  24.365  1.00  0.00    -0.275 N 
ATOM     66  H   UNL     1     -44.121  43.789  22.720  1.00  0.00     0.084 H 
BRANCH  65  67
ATOM     67  C   UNL     1     -46.329  44.960  24.024  1.00  0.00     0.030 C 
ATOM     68  H   UNL     1     -46.379  45.626  24.889  1.00  0.00     0.048 H 
ATOM     69  H   UNL     1     -47.330  44.609  23.765  1.00  0.00     0.048 H 
ATOM     70  H   UNL     1     -45.880  45.473  23.170  1.00  0.00     0.048 H 
ENDBRANCH  65  67
ENDBRANCH  52  60
BRANCH  56  71
ATOM     71  N   UNL     1     -42.467  43.221  27.660  1.00  0.00    -0.383 N 
ATOM     72  H   UNL     1     -42.805  43.319  26.708  1.00  0.00     0.158 HD
ATOM     73  H   UNL     1     -41.496  43.476  27.800  1.00  0.00     0.158 HD
ENDBRANCH  56  71
ENDBRANCH  45  49
ENDBRANCH  37  40
ENDBRANCH  34  37
ENDBRANCH   7  34
TORSDOF 14
ENDMDL
MODEL 5
REMARK VINA RESULT:      -8.5      3.063     12.352
REMARK SMILES CCc1cc(NCCOC)c2ncc(CCc3cncc(-n4cc(-c5ccn(C)n5)c5c(N)ncnc54)c3)cc2n1
REMARK SMILES IDX 3 1 4 2 5 3 11 4 12 5 13 6 14 7 39 8 40 9 41 10 2 14 1 17
REMARK SMILES IDX 6 21 7 23 8 26 9 29 10 30 15 34 16 37 17 40 18 41 38 42
REMARK SMILES IDX 19 43 21 45 20 47 22 49 23 50 37 51 24 52 31 54 36 55 32 56
REMARK SMILES IDX 35 57 34 58 25 60 26 61 30 62 27 63 28 65 29 67 33 71
REMARK H PARENT 4 11 13 12 39 13 2 15 2 16 1 18 1 19 1 20 6 22 7 24 7 25 8 27
REMARK H PARENT 8 28 10 31 10 32 10 33 15 35 15 36 16 38 16 39 18 44 38 46
REMARK H PARENT 20 48 23 53 35 59 26 64 27 66 29 68 29 69 29 70 33 72 33 73
REMARK Flexibility Score: inf
ROOT
ATOM      1  C   UNL     1     -46.969  30.725  22.023  1.00  0.00     0.043 A 
ATOM      2  C   UNL     1     -47.883  29.859  22.605  1.00  0.00    -0.015 A 
ATOM      3  C   UNL     1     -48.272  30.081  23.927  1.00  0.00     0.064 A 
ATOM      4  C   UNL     1     -47.743  31.157  24.653  1.00  0.00     0.112 A 
ATOM      5  N   UNL     1     -48.122  31.367  25.939  1.00  0.00    -0.252 NA
ATOM      6  C   UNL     1     -47.550  32.396  26.597  1.00  0.00     0.031 A 
ATOM      7  C   UNL     1     -46.615  33.251  26.032  1.00  0.00    -0.027 A 
ATOM      8  C   UNL     1     -46.268  33.022  24.695  1.00  0.00    -0.029 A 
ATOM      9  C   UNL     1     -46.815  31.971  23.975  1.00  0.00     0.091 A 
ATOM     10  N   UNL     1     -46.431  31.768  22.697  1.00  0.00    -0.251 NA
ATOM     11  H   UNL     1     -48.305  29.034  22.042  1.00  0.00     0.066 H 
ATOM     12  H   UNL     1     -47.860  32.500  27.634  1.00  0.00     0.084 H 
ATOM     13  H   UNL     1     -45.536  33.659  24.203  1.00  0.00     0.065 H 
ENDROOT
BRANCH   1  14
ATOM     14  C   UNL     1     -46.547  30.543  20.590  1.00  0.00    -0.013 C 
ATOM     15  H   UNL     1     -45.737  29.806  20.545  1.00  0.00     0.033 H 
ATOM     16  H   UNL     1     -47.377  30.130  20.005  1.00  0.00     0.033 H 
BRANCH  14  17
ATOM     17  C   UNL     1     -46.074  31.851  19.977  1.00  0.00    -0.060 C 
ATOM     18  H   UNL     1     -45.278  31.681  19.243  1.00  0.00     0.023 H 
ATOM     19  H   UNL     1     -45.684  32.532  20.742  1.00  0.00     0.023 H 
ATOM     20  H   UNL     1     -46.904  32.353  19.469  1.00  0.00     0.023 H 
ENDBRANCH  14  17
ENDBRANCH   1  14
BRANCH   3  21
ATOM     21  N   UNL     1     -49.164  29.146  24.556  1.00  0.00    -0.381 N 
ATOM     22  H   UNL     1     -48.660  28.251  24.483  1.00  0.00     0.160 HD
BRANCH  21  23
ATOM     23  C   UNL     1     -50.411  28.967  23.769  1.00  0.00     0.038 C 
ATOM     24  H   UNL     1     -50.187  28.566  22.772  1.00  0.00     0.051 H 
ATOM     25  H   UNL     1     -51.017  28.216  24.288  1.00  0.00     0.051 H 
BRANCH  23  26
ATOM     26  C   UNL     1     -51.236  30.257  23.638  1.00  0.00     0.063 C 
ATOM     27  H   UNL     1     -50.692  31.052  24.158  1.00  0.00     0.059 H 
ATOM     28  H   UNL     1     -52.219  30.186  24.111  1.00  0.00     0.059 H 
BRANCH  26  29
ATOM     29  O   UNL     1     -51.379  30.726  22.292  1.00  0.00    -0.383 OA
BRANCH  29  30
ATOM     30  C   UNL     1     -51.740  32.098  22.209  1.00  0.00     0.036 C 
ATOM     31  H   UNL     1     -50.861  32.732  22.059  1.00  0.00     0.053 H 
ATOM     32  H   UNL     1     -52.403  32.221  21.347  1.00  0.00     0.053 H 
ATOM     33  H   UNL     1     -52.294  32.405  23.099  1.00  0.00     0.053 H 
ENDBRANCH  29  30
ENDBRANCH  26  29
ENDBRANCH  23  26
ENDBRANCH  21  23
ENDBRANCH   3  21
BRANCH   7  34
ATOM     34  C   UNL     1     -45.948  34.327  26.848  1.00  0.00    -0.022 C 
ATOM     35  H   UNL     1     -45.001  33.931  27.237  1.00  0.00     0.032 H 
ATOM     36  H   UNL     1     -45.677  35.169  26.197  1.00  0.00     0.032 H 
BRANCH  34  37
ATOM     37  C   UNL     1     -46.804  34.828  28.023  1.00  0.00    -0.022 C 
ATOM     38  H   UNL     1     -46.234  34.714  28.955  1.00  0.00     0.032 H 
ATOM     39  H   UNL     1     -47.696  34.200  28.143  1.00  0.00     0.032 H 
BRANCH  37  40
ATOM     40  C   UNL     1     -47.223  36.269  27.878  1.00  0.00    -0.027 A 
ATOM     41  C   UNL     1     -48.532  36.673  28.094  1.00  0.00     0.030 A 
ATOM     42  C   UNL     1     -46.277  37.261  27.581  1.00  0.00    -0.032 A 
ATOM     43  N   UNL     1     -48.934  37.959  28.041  1.00  0.00    -0.262 NA
ATOM     44  H   UNL     1     -49.317  35.960  28.330  1.00  0.00     0.084 H 
ATOM     45  C   UNL     1     -46.640  38.610  27.549  1.00  0.00     0.066 A 
ATOM     46  H   UNL     1     -45.257  36.939  27.401  1.00  0.00     0.065 H 
ATOM     47  C   UNL     1     -47.984  38.893  27.776  1.00  0.00     0.051 A 
ATOM     48  H   UNL     1     -48.385  39.902  27.782  1.00  0.00     0.086 H 
BRANCH  45  49
ATOM     49  N   UNL     1     -45.687  39.656  27.326  1.00  0.00    -0.299 N 
ATOM     50  C   UNL     1     -45.752  40.585  26.305  1.00  0.00     0.021 A 
ATOM     51  C   UNL     1     -44.549  39.960  28.082  1.00  0.00     0.150 A 
ATOM     52  C   UNL     1     -44.685  41.452  26.401  1.00  0.00     0.033 A 
ATOM     53  H   UNL     1     -46.531  40.572  25.558  1.00  0.00     0.083 H 
ATOM     54  C   UNL     1     -43.937  41.097  27.551  1.00  0.00     0.071 A 
ATOM     55  N   UNL     1     -44.112  39.296  29.172  1.00  0.00    -0.218 NA
ATOM     56  C   UNL     1     -42.817  41.593  28.242  1.00  0.00     0.137 A 
ATOM     57  C   UNL     1     -43.023  39.838  29.724  1.00  0.00     0.120 A 
ATOM     58  N   UNL     1     -42.374  40.944  29.334  1.00  0.00    -0.219 NA
ATOM     59  H   UNL     1     -42.624  39.327  30.594  1.00  0.00     0.106 H 
BRANCH  52  60
ATOM     60  C   UNL     1     -44.415  42.545  25.472  1.00  0.00     0.095 A 
ATOM     61  C   UNL     1     -44.067  42.399  24.113  1.00  0.00    -0.016 A 
ATOM     62  N   UNL     1     -44.534  43.830  25.824  1.00  0.00    -0.173 NA
ATOM     63  C   UNL     1     -43.944  43.686  23.641  1.00  0.00     0.025 A 
ATOM     64  H   UNL     1     -43.928  41.485  23.551  1.00  0.00     0.066 H 
ATOM     65  N   UNL     1     -44.233  44.500  24.697  1.00  0.00    -0.275 N 
ATOM     66  H   UNL     1     -43.692  44.076  22.665  1.00  0.00     0.084 H 
BRANCH  65  67
ATOM     67  C   UNL     1     -44.251  45.942  24.702  1.00  0.00     0.030 C 
ATOM     68  H   UNL     1     -44.047  46.294  23.688  1.00  0.00     0.048 H 
ATOM     69  H   UNL     1     -43.485  46.314  25.386  1.00  0.00     0.048 H 
ATOM     70  H   UNL     1     -45.239  46.274  25.032  1.00  0.00     0.048 H 
ENDBRANCH  65  67
ENDBRANCH  52  60
BRANCH  56  71
ATOM     71  N   UNL     1     -42.137  42.759  27.914  1.00  0.00    -0.383 N 
ATOM     72  H   UNL     1     -42.793  43.476  27.622  1.00  0.00     0.158 HD
ATOM     73  H   UNL     1     -41.347  42.621  27.295  1.00  0.00     0.158 HD
ENDBRANCH  56  71
ENDBRANCH  45  49
ENDBRANCH  37  40
ENDBRANCH  34  37
ENDBRANCH   7  34
TORSDOF 14
ENDMDL
MODEL 6
REMARK VINA RESULT:      -8.5      2.165      2.695
REMARK SMILES CCc1cc(NCCOC)c2ncc(CCc3cncc(-n4cc(-c5ccn(C)n5)c5c(N)ncnc54)c3)cc2n1
REMARK SMILES IDX 3 1 4 2 5 3 11 4 12 5 13 6 14 7 39 8 40 9 41 10 2 14 1 17
REMARK SMILES IDX 6 21 7 23 8 26 9 29 10 30 15 34 16 37 17 40 18 41 38 42
REMARK SMILES IDX 19 43 21 45 20 47 22 49 23 50 37 51 24 52 31 54 36 55 32 56
REMARK SMILES IDX 35 57 34 58 25 60 26 61 30 62 27 63 28 65 29 67 33 71
REMARK H PARENT 4 11 13 12 39 13 2 15 2 16 1 18 1 19 1 20 6 22 7 24 7 25 8 27
REMARK H PARENT 8 28 10 31 10 32 10 33 15 35 15 36 16 38 16 39 18 44 38 46
REMARK H PARENT 20 48 23 53 35 59 26 64 27 66 29 68 29 69 29 70 33 72 33 73
REMARK Flexibility Score: inf
ROOT
ATOM      1  C   UNL     1     -43.081  41.488  28.214  1.00  0.00     0.043 A 
ATOM      2  C   UNL     1     -43.654  42.175  27.154  1.00  0.00    -0.015 A 
ATOM      3  C   UNL     1     -44.720  41.588  26.470  1.00  0.00     0.064 A 
ATOM      4  C   UNL     1     -45.196  40.323  26.845  1.00  0.00     0.112 A 
ATOM      5  N   UNL     1     -46.229  39.755  26.175  1.00  0.00    -0.252 NA
ATOM      6  C   UNL     1     -46.618  38.522  26.558  1.00  0.00     0.031 A 
ATOM      7  C   UNL     1     -46.032  37.816  27.599  1.00  0.00    -0.027 A 
ATOM      8  C   UNL     1     -44.988  38.444  28.287  1.00  0.00    -0.029 A 
ATOM      9  C   UNL     1     -44.539  39.706  27.926  1.00  0.00     0.091 A 
ATOM     10  N   UNL     1     -43.508  40.262  28.597  1.00  0.00    -0.251 NA
ATOM     11  H   UNL     1     -43.297  43.159  26.870  1.00  0.00     0.066 H 
ATOM     12  H   UNL     1     -47.426  38.096  25.967  1.00  0.00     0.084 H 
ATOM     13  H   UNL     1     -44.489  37.934  29.108  1.00  0.00     0.065 H 
ENDROOT
BRANCH   1  14
ATOM     14  C   UNL     1     -41.952  42.098  29.001  1.00  0.00    -0.013 C 
ATOM     15  H   UNL     1     -41.168  42.428  28.309  1.00  0.00     0.033 H 
ATOM     16  H   UNL     1     -42.303  42.995  29.525  1.00  0.00     0.033 H 
BRANCH  14  17
ATOM     17  C   UNL     1     -41.365  41.108  29.994  1.00  0.00    -0.060 C 
ATOM     18  H   UNL     1     -41.969  41.053  30.905  1.00  0.00     0.023 H 
ATOM     19  H   UNL     1     -40.346  41.391  30.284  1.00  0.00     0.023 H 
ATOM     20  H   UNL     1     -41.325  40.107  29.551  1.00  0.00     0.023 H 
ENDBRANCH  14  17
ENDBRANCH   1  14
BRANCH   3  21
ATOM     21  N   UNL     1     -45.271  42.264  25.328  1.00  0.00    -0.381 N 
ATOM     22  H   UNL     1     -44.450  42.718  24.902  1.00  0.00     0.160 HD
BRANCH  21  23
ATOM     23  C   UNL     1     -46.174  43.372  25.732  1.00  0.00     0.038 C 
ATOM     24  H   UNL     1     -47.126  43.314  25.190  1.00  0.00     0.051 H 
ATOM     25  H   UNL     1     -46.401  43.234  26.795  1.00  0.00     0.051 H 
BRANCH  23  26
ATOM     26  C   UNL     1     -45.550  44.763  25.542  1.00  0.00     0.063 C 
ATOM     27  H   UNL     1     -46.040  45.230  24.681  1.00  0.00     0.059 H 
ATOM     28  H   UNL     1     -44.481  44.725  25.313  1.00  0.00     0.059 H 
BRANCH  26  29
ATOM     29  O   UNL     1     -45.781  45.663  26.633  1.00  0.00    -0.383 OA
BRANCH  29  30
ATOM     30  C   UNL     1     -44.636  45.858  27.452  1.00  0.00     0.036 C 
ATOM     31  H   UNL     1     -44.715  46.785  28.029  1.00  0.00     0.053 H 
ATOM     32  H   UNL     1     -44.576  45.020  28.153  1.00  0.00     0.053 H 
ATOM     33  H   UNL     1     -43.725  45.852  26.850  1.00  0.00     0.053 H 
ENDBRANCH  29  30
ENDBRANCH  26  29
ENDBRANCH  23  26
ENDBRANCH  21  23
ENDBRANCH   3  21
BRANCH   7  34
ATOM     34  C   UNL     1     -46.455  36.406  27.920  1.00  0.00    -0.022 C 
ATOM     35  H   UNL     1     -45.761  35.997  28.665  1.00  0.00     0.032 H 
ATOM     36  H   UNL     1     -47.441  36.417  28.403  1.00  0.00     0.032 H 
BRANCH  34  37
ATOM     37  C   UNL     1     -46.483  35.477  26.694  1.00  0.00    -0.022 C 
ATOM     38  H   UNL     1     -45.635  34.783  26.753  1.00  0.00     0.032 H 
ATOM     39  H   UNL     1     -46.331  36.054  25.773  1.00  0.00     0.032 H 
BRANCH  37  40
ATOM     40  C   UNL     1     -47.760  34.684  26.582  1.00  0.00    -0.027 A 
ATOM     41  C   UNL     1     -48.990  35.233  26.912  1.00  0.00     0.030 A 
ATOM     42  C   UNL     1     -47.746  33.377  26.074  1.00  0.00    -0.032 A 
ATOM     43  N   UNL     1     -50.162  34.581  26.763  1.00  0.00    -0.262 NA
ATOM     44  H   UNL     1     -49.077  36.240  27.309  1.00  0.00     0.084 H 
ATOM     45  C   UNL     1     -48.937  32.675  25.870  1.00  0.00     0.066 A 
ATOM     46  H   UNL     1     -46.781  32.948  25.829  1.00  0.00     0.065 H 
ATOM     47  C   UNL     1     -50.109  33.327  26.244  1.00  0.00     0.051 A 
ATOM     48  H   UNL     1     -51.095  32.887  26.129  1.00  0.00     0.086 H 
BRANCH  45  49
ATOM     49  N   UNL     1     -48.967  31.370  25.282  1.00  0.00    -0.299 N 
ATOM     50  C   UNL     1     -48.197  30.297  25.689  1.00  0.00     0.021 A 
ATOM     51  C   UNL     1     -49.771  30.917  24.229  1.00  0.00     0.150 A 
ATOM     52  C   UNL     1     -48.493  29.195  24.916  1.00  0.00     0.033 A 
ATOM     53  H   UNL     1     -47.470  30.374  26.484  1.00  0.00     0.083 H 
ATOM     54  C   UNL     1     -49.523  29.560  24.014  1.00  0.00     0.071 A 
ATOM     55  N   UNL     1     -50.670  31.648  23.538  1.00  0.00    -0.218 NA
ATOM     56  C   UNL     1     -50.310  28.921  23.039  1.00  0.00     0.137 A 
ATOM     57  C   UNL     1     -51.332  30.944  22.617  1.00  0.00     0.120 A 
ATOM     58  N   UNL     1     -51.215  29.637  22.348  1.00  0.00    -0.219 NA
ATOM     59  H   UNL     1     -52.055  31.495  22.023  1.00  0.00     0.106 H 
BRANCH  52  60
ATOM     60  C   UNL     1     -47.850  27.892  25.045  1.00  0.00     0.095 A 
ATOM     61  C   UNL     1     -46.767  27.431  24.267  1.00  0.00    -0.016 A 
ATOM     62  N   UNL     1     -48.205  27.007  25.984  1.00  0.00    -0.173 NA
ATOM     63  C   UNL     1     -46.485  26.178  24.763  1.00  0.00     0.025 A 
ATOM     64  H   UNL     1     -46.258  27.939  23.460  1.00  0.00     0.066 H 
ATOM     65  N   UNL     1     -47.367  25.974  25.783  1.00  0.00    -0.275 N 
ATOM     66  H   UNL     1     -45.743  25.443  24.487  1.00  0.00     0.084 H 
BRANCH  65  67
ATOM     67  C   UNL     1     -47.465  24.807  26.626  1.00  0.00     0.030 C 
ATOM     68  H   UNL     1     -47.581  23.928  25.987  1.00  0.00     0.048 H 
ATOM     69  H   UNL     1     -48.331  24.905  27.285  1.00  0.00     0.048 H 
ATOM     70  H   UNL     1     -46.551  24.733  27.219  1.00  0.00     0.048 H 
ENDBRANCH  65  67
ENDBRANCH  52  60
BRANCH  56  71
ATOM     71  N   UNL     1     -50.267  27.563  22.754  1.00  0.00    -0.383 N 
ATOM     72  H   UNL     1     -50.069  27.417  21.770  1.00  0.00     0.158 HD
ATOM     73  H   UNL     1     -51.052  27.035  23.117  1.00  0.00     0.158 HD
ENDBRANCH  56  71
ENDBRANCH  45  49
ENDBRANCH  37  40
ENDBRANCH  34  37
ENDBRANCH   7  34
TORSDOF 14
ENDMDL
MODEL 7
REMARK VINA RESULT:      -8.5      2.919     12.599
REMARK SMILES CCc1cc(NCCOC)c2ncc(CCc3cncc(-n4cc(-c5ccn(C)n5)c5c(N)ncnc54)c3)cc2n1
REMARK SMILES IDX 3 1 4 2 5 3 11 4 12 5 13 6 14 7 39 8 40 9 41 10 2 14 1 17
REMARK SMILES IDX 6 21 7 23 8 26 9 29 10 30 15 34 16 37 17 40 18 41 38 42
REMARK SMILES IDX 19 43 21 45 20 47 22 49 23 50 37 51 24 52 31 54 36 55 32 56
REMARK SMILES IDX 35 57 34 58 25 60 26 61 30 62 27 63 28 65 29 67 33 71
REMARK H PARENT 4 11 13 12 39 13 2 15 2 16 1 18 1 19 1 20 6 22 7 24 7 25 8 27
REMARK H PARENT 8 28 10 31 10 32 10 33 15 35 15 36 16 38 16 39 18 44 38 46
REMARK H PARENT 20 48 23 53 35 59 26 64 27 66 29 68 29 69 29 70 33 72 33 73
REMARK Flexibility Score: inf
ROOT
ATOM      1  C   UNL     1     -49.091  30.108  24.212  1.00  0.00     0.043 A 
ATOM      2  C   UNL     1     -47.891  29.958  23.533  1.00  0.00    -0.015 A 
ATOM      3  C   UNL     1     -46.894  30.919  23.711  1.00  0.00     0.064 A 
ATOM      4  C   UNL     1     -47.108  32.018  24.555  1.00  0.00     0.112 A 
ATOM      5  N   UNL     1     -46.138  32.951  24.722  1.00  0.00    -0.252 NA
ATOM      6  C   UNL     1     -46.416  34.004  25.517  1.00  0.00     0.031 A 
ATOM      7  C   UNL     1     -47.624  34.176  26.177  1.00  0.00    -0.027 A 
ATOM      8  C   UNL     1     -48.592  33.180  26.005  1.00  0.00    -0.029 A 
ATOM      9  C   UNL     1     -48.364  32.083  25.188  1.00  0.00     0.091 A 
ATOM     10  N   UNL     1     -49.336  31.160  25.027  1.00  0.00    -0.251 NA
ATOM     11  H   UNL     1     -47.717  29.102  22.890  1.00  0.00     0.066 H 
ATOM     12  H   UNL     1     -45.620  34.741  25.590  1.00  0.00     0.084 H 
ATOM     13  H   UNL     1     -49.559  33.266  26.496  1.00  0.00     0.065 H 
ENDROOT
BRANCH   1  14
ATOM     14  C   UNL     1     -50.181  29.077  24.075  1.00  0.00    -0.013 C 
ATOM     15  H   UNL     1     -51.132  29.514  24.405  1.00  0.00     0.033 H 
ATOM     16  H   UNL     1     -50.311  28.808  23.021  1.00  0.00     0.033 H 
BRANCH  14  17
ATOM     17  C   UNL     1     -49.882  27.836  24.901  1.00  0.00    -0.060 C 
ATOM     18  H   UNL     1     -49.385  27.069  24.299  1.00  0.00     0.023 H 
ATOM     19  H   UNL     1     -50.800  27.399  25.310  1.00  0.00     0.023 H 
ATOM     20  H   UNL     1     -49.225  28.089  25.740  1.00  0.00     0.023 H 
ENDBRANCH  14  17
ENDBRANCH   1  14
BRANCH   3  21
ATOM     21  N   UNL     1     -45.676  30.806  22.956  1.00  0.00    -0.381 N 
ATOM     22  H   UNL     1     -44.951  31.087  23.632  1.00  0.00     0.160 HD
BRANCH  21  23
ATOM     23  C   UNL     1     -45.615  31.811  21.864  1.00  0.00     0.038 C 
ATOM     24  H   UNL     1     -46.252  32.674  22.095  1.00  0.00     0.051 H 
ATOM     25  H   UNL     1     -44.583  32.176  21.817  1.00  0.00     0.051 H 
BRANCH  23  26
ATOM     26  C   UNL     1     -45.995  31.237  20.491  1.00  0.00     0.063 C 
ATOM     27  H   UNL     1     -46.537  30.300  20.661  1.00  0.00     0.059 H 
ATOM     28  H   UNL     1     -45.126  30.990  19.874  1.00  0.00     0.059 H 
BRANCH  26  29
ATOM     29  O   UNL     1     -46.901  32.058  19.744  1.00  0.00    -0.383 OA
BRANCH  29  30
ATOM     30  C   UNL     1     -48.172  31.454  19.541  1.00  0.00     0.036 C 
ATOM     31  H   UNL     1     -48.534  31.624  18.522  1.00  0.00     0.053 H 
ATOM     32  H   UNL     1     -48.062  30.376  19.692  1.00  0.00     0.053 H 
ATOM     33  H   UNL     1     -48.893  31.819  20.276  1.00  0.00     0.053 H 
ENDBRANCH  29  30
ENDBRANCH  26  29
ENDBRANCH  23  26
ENDBRANCH  21  23
ENDBRANCH   3  21
BRANCH   7  34
ATOM     34  C   UNL     1     -47.904  35.420  26.981  1.00  0.00    -0.022 C 
ATOM     35  H   UNL     1     -48.820  35.883  26.593  1.00  0.00     0.032 H 
ATOM     36  H   UNL     1     -48.123  35.145  28.021  1.00  0.00     0.032 H 
BRANCH  34  37
ATOM     37  C   UNL     1     -46.762  36.449  26.940  1.00  0.00    -0.022 C 
ATOM     38  H   UNL     1     -46.263  36.390  25.963  1.00  0.00     0.032 H 
ATOM     39  H   UNL     1     -45.992  36.197  27.681  1.00  0.00     0.032 H 
BRANCH  37  40
ATOM     40  C   UNL     1     -47.231  37.863  27.166  1.00  0.00    -0.027 A 
ATOM     41  C   UNL     1     -48.345  38.146  27.944  1.00  0.00     0.030 A 
ATOM     42  C   UNL     1     -46.511  38.947  26.645  1.00  0.00    -0.032 A 
ATOM     43  N   UNL     1     -48.759  39.398  28.227  1.00  0.00    -0.262 NA
ATOM     44  H   UNL     1     -48.949  37.356  28.382  1.00  0.00     0.084 H 
ATOM     45  C   UNL     1     -46.882  40.262  26.939  1.00  0.00     0.066 A 
ATOM     46  H   UNL     1     -45.649  38.721  26.027  1.00  0.00     0.065 H 
ATOM     47  C   UNL     1     -48.020  40.421  27.726  1.00  0.00     0.051 A 
ATOM     48  H   UNL     1     -48.402  41.391  28.025  1.00  0.00     0.086 H 
BRANCH  45  49
ATOM     49  N   UNL     1     -46.125  41.392  26.489  1.00  0.00    -0.299 N 
ATOM     50  C   UNL     1     -46.655  42.503  25.862  1.00  0.00     0.021 A 
ATOM     51  C   UNL     1     -44.748  41.610  26.609  1.00  0.00     0.150 A 
ATOM     52  C   UNL     1     -45.647  43.401  25.583  1.00  0.00     0.033 A 
ATOM     53  H   UNL     1     -47.705  42.592  25.628  1.00  0.00     0.083 H 
ATOM     54  C   UNL     1     -44.436  42.869  26.092  1.00  0.00     0.071 A 
ATOM     55  N   UNL     1     -43.850  40.768  27.161  1.00  0.00    -0.218 NA
ATOM     56  C   UNL     1     -43.098  43.286  26.207  1.00  0.00     0.137 A 
ATOM     57  C   UNL     1     -42.608  41.256  27.185  1.00  0.00     0.120 A 
ATOM     58  N   UNL     1     -42.194  42.458  26.761  1.00  0.00    -0.219 NA
ATOM     59  H   UNL     1     -41.846  40.605  27.604  1.00  0.00     0.106 H 
BRANCH  52  60
ATOM     60  C   UNL     1     -45.834  44.675  24.897  1.00  0.00     0.095 A 
ATOM     61  C   UNL     1     -45.884  45.941  25.518  1.00  0.00    -0.016 A 
ATOM     62  N   UNL     1     -45.919  44.767  23.565  1.00  0.00    -0.173 NA
ATOM     63  C   UNL     1     -46.039  46.835  24.482  1.00  0.00     0.025 A 
ATOM     64  H   UNL     1     -45.813  46.174  26.571  1.00  0.00     0.066 H 
ATOM     65  N   UNL     1     -46.053  46.086  23.342  1.00  0.00    -0.275 N 
ATOM     66  H   UNL     1     -46.127  47.912  24.465  1.00  0.00     0.084 H 
BRANCH  65  67
ATOM     67  C   UNL     1     -46.183  46.568  21.988  1.00  0.00     0.030 C 
ATOM     68  H   UNL     1     -45.895  45.763  21.307  1.00  0.00     0.048 H 
ATOM     69  H   UNL     1     -45.529  47.430  21.844  1.00  0.00     0.048 H 
ATOM     70  H   UNL     1     -47.224  46.856  21.824  1.00  0.00     0.048 H 
ENDBRANCH  65  67
ENDBRANCH  52  60
BRANCH  56  71
ATOM     71  N   UNL     1     -42.625  44.536  25.833  1.00  0.00    -0.383 N 
ATOM     72  H   UNL     1     -42.983  45.249  26.459  1.00  0.00     0.158 HD
ATOM     73  H   UNL     1     -42.724  44.742  24.845  1.00  0.00     0.158 HD
ENDBRANCH  56  71
ENDBRANCH  45  49
ENDBRANCH  37  40
ENDBRANCH  34  37
ENDBRANCH   7  34
TORSDOF 14
ENDMDL
