MODEL 1
REMARK VINA RESULT:     -10.2      0.000      0.000
REMARK SMILES CNc1ccc2ccc(OCc3cncc(-n4cc([C@@H](C)C5CC5)c5c(N)ncnc54)c3)cc2n1
REMARK SMILES IDX 11 1 10 4 9 5 3 6 4 7 35 8 5 9 34 11 6 12 33 14 7 15 8 17
REMARK SMILES IDX 2 20 1 22 12 26 13 27 32 28 14 29 16 31 15 33 17 35 18 36
REMARK SMILES IDX 31 37 19 38 25 40 30 41 26 42 29 43 28 44 20 46 21 48 22 52
REMARK SMILES IDX 23 53 24 54 27 60
REMARK H PARENT 11 2 11 3 4 10 5 13 33 16 7 18 8 19 2 21 1 23 1 24 1 25 13 30
REMARK H PARENT 32 32 15 34 18 39 29 45 20 47 21 49 21 50 21 51 22 55 23 56
REMARK H PARENT 23 57 24 58 24 59 27 61 27 62
REMARK Flexibility Score: inf
ROOT
ATOM      1  C   UNL     1     -48.735  35.129  27.203  1.00  0.00     0.115 C 
ATOM      2  H   UNL     1     -49.823  35.027  27.101  1.00  0.00     0.076 H 
ATOM      3  H   UNL     1     -48.502  34.892  28.248  1.00  0.00     0.076 H 
ENDROOT
BRANCH   1   4
ATOM      4  O   UNL     1     -48.327  36.487  27.000  1.00  0.00    -0.489 OA
BRANCH   4   5
ATOM      5  C   UNL     1     -47.315  36.986  27.772  1.00  0.00     0.122 A 
ATOM      6  C   UNL     1     -43.713  39.934  28.764  1.00  0.00     0.126 A 
ATOM      7  C   UNL     1     -43.481  39.316  29.988  1.00  0.00    -0.019 A 
ATOM      8  N   UNL     1     -44.703  39.525  27.945  1.00  0.00    -0.231 NA
ATOM      9  C   UNL     1     -44.270  38.236  30.370  1.00  0.00    -0.049 A 
ATOM     10  H   UNL     1     -42.699  39.679  30.648  1.00  0.00     0.066 H 
ATOM     11  C   UNL     1     -45.471  38.482  28.305  1.00  0.00     0.076 A 
ATOM     12  C   UNL     1     -45.289  37.796  29.520  1.00  0.00     0.001 A 
ATOM     13  H   UNL     1     -44.089  37.752  31.324  1.00  0.00     0.063 H 
ATOM     14  C   UNL     1     -46.483  38.060  27.450  1.00  0.00     0.007 A 
ATOM     15  C   UNL     1     -46.113  36.710  29.852  1.00  0.00    -0.049 A 
ATOM     16  H   UNL     1     -46.585  38.599  26.514  1.00  0.00     0.069 H 
ATOM     17  C   UNL     1     -47.119  36.309  28.975  1.00  0.00    -0.019 A 
ATOM     18  H   UNL     1     -45.977  36.175  30.788  1.00  0.00     0.063 H 
ATOM     19  H   UNL     1     -47.756  35.466  29.234  1.00  0.00     0.066 H 
BRANCH   6  20
ATOM     20  N   UNL     1     -42.911  41.038  28.423  1.00  0.00    -0.373 N 
ATOM     21  H   UNL     1     -43.509  41.844  28.269  1.00  0.00     0.161 HD
BRANCH  20  22
ATOM     22  C   UNL     1     -41.857  41.326  29.382  1.00  0.00     0.005 C 
ATOM     23  H   UNL     1     -41.616  40.449  29.992  1.00  0.00     0.045 H 
ATOM     24  H   UNL     1     -42.201  42.116  30.060  1.00  0.00     0.045 H 
ATOM     25  H   UNL     1     -40.952  41.694  28.888  1.00  0.00     0.045 H 
ENDBRANCH  20  22
ENDBRANCH   6  20
ENDBRANCH   4   5
ENDBRANCH   1   4
BRANCH   1  26
ATOM     26  C   UNL     1     -47.989  34.145  26.340  1.00  0.00     0.010 A 
ATOM     27  C   UNL     1     -46.784  34.512  25.757  1.00  0.00     0.034 A 
ATOM     28  C   UNL     1     -48.487  32.868  26.040  1.00  0.00    -0.028 A 
ATOM     29  N   UNL     1     -46.065  33.709  24.947  1.00  0.00    -0.262 NA
ATOM     30  H   UNL     1     -46.344  35.491  25.928  1.00  0.00     0.084 H 
ATOM     31  C   UNL     1     -47.768  31.997  25.208  1.00  0.00     0.066 A 
ATOM     32  H   UNL     1     -49.447  32.591  26.462  1.00  0.00     0.065 H 
ATOM     33  C   UNL     1     -46.567  32.473  24.693  1.00  0.00     0.051 A 
ATOM     34  H   UNL     1     -45.915  31.887  24.057  1.00  0.00     0.086 H 
BRANCH  31  35
ATOM     35  N   UNL     1     -48.253  30.681  24.917  1.00  0.00    -0.299 N 
ATOM     36  C   UNL     1     -48.447  29.682  25.855  1.00  0.00     0.015 A 
ATOM     37  C   UNL     1     -48.613  30.151  23.679  1.00  0.00     0.150 A 
ATOM     38  C   UNL     1     -48.907  28.528  25.248  1.00  0.00    -0.013 A 
ATOM     39  H   UNL     1     -48.213  29.838  26.898  1.00  0.00     0.083 H 
ATOM     40  C   UNL     1     -49.041  28.834  23.856  1.00  0.00     0.065 A 
ATOM     41  N   UNL     1     -48.581  30.799  22.497  1.00  0.00    -0.218 NA
ATOM     42  C   UNL     1     -49.470  28.153  22.700  1.00  0.00     0.136 A 
ATOM     43  C   UNL     1     -48.991  30.043  21.473  1.00  0.00     0.120 A 
ATOM     44  N   UNL     1     -49.431  28.778  21.511  1.00  0.00    -0.219 NA
ATOM     45  H   UNL     1     -48.973  30.513  20.494  1.00  0.00     0.106 H 
BRANCH  38  46
ATOM     46  C   UNL     1     -49.190  27.220  25.951  1.00  0.00    -0.014 C 
ATOM     47  H   UNL     1     -49.060  27.363  27.028  1.00  0.00     0.035 H 
BRANCH  46  48
ATOM     48  C   UNL     1     -50.652  26.790  25.767  1.00  0.00    -0.058 C 
ATOM     49  H   UNL     1     -50.800  26.246  24.827  1.00  0.00     0.024 H 
ATOM     50  H   UNL     1     -50.965  26.126  26.581  1.00  0.00     0.024 H 
ATOM     51  H   UNL     1     -51.320  27.658  25.762  1.00  0.00     0.024 H 
ENDBRANCH  46  48
BRANCH  46  52
ATOM     52  C   UNL     1     -48.267  26.106  25.503  1.00  0.00    -0.035 C 
ATOM     53  C   UNL     1     -46.839  26.044  25.989  1.00  0.00    -0.050 C 
ATOM     54  C   UNL     1     -47.839  25.031  26.471  1.00  0.00    -0.050 C 
ATOM     55  H   UNL     1     -48.450  25.807  24.476  1.00  0.00     0.031 H 
ATOM     56  H   UNL     1     -46.082  25.717  25.284  1.00  0.00     0.027 H 
ATOM     57  H   UNL     1     -46.489  26.792  26.691  1.00  0.00     0.027 H 
ATOM     58  H   UNL     1     -48.168  25.093  27.502  1.00  0.00     0.027 H 
ATOM     59  H   UNL     1     -47.755  24.017  26.097  1.00  0.00     0.027 H 
ENDBRANCH  46  52
ENDBRANCH  38  46
BRANCH  42  60
ATOM     60  N   UNL     1     -49.976  26.858  22.682  1.00  0.00    -0.383 N 
ATOM     61  H   UNL     1     -50.734  26.794  23.355  1.00  0.00     0.158 HD
ATOM     62  H   UNL     1     -49.266  26.147  22.783  1.00  0.00     0.158 HD
ENDBRANCH  42  60
ENDBRANCH  31  35
ENDBRANCH   1  26
TORSDOF 10
ENDMDL
MODEL 2
REMARK VINA RESULT:     -10.1      2.837     11.868
REMARK SMILES CNc1ccc2ccc(OCc3cncc(-n4cc([C@@H](C)C5CC5)c5c(N)ncnc54)c3)cc2n1
REMARK SMILES IDX 11 1 10 4 9 5 3 6 4 7 35 8 5 9 34 11 6 12 33 14 7 15 8 17
REMARK SMILES IDX 2 20 1 22 12 26 13 27 32 28 14 29 16 31 15 33 17 35 18 36
REMARK SMILES IDX 31 37 19 38 25 40 30 41 26 42 29 43 28 44 20 46 21 48 22 52
REMARK SMILES IDX 23 53 24 54 27 60
REMARK H PARENT 11 2 11 3 4 10 5 13 33 16 7 18 8 19 2 21 1 23 1 24 1 25 13 30
REMARK H PARENT 32 32 15 34 18 39 29 45 20 47 21 49 21 50 21 51 22 55 23 56
REMARK H PARENT 23 57 24 58 24 59 27 61 27 62
REMARK Flexibility Score: inf
ROOT
ATOM      1  C   UNL     1     -46.106  34.353  27.180  1.00  0.00     0.115 C 
ATOM      2  H   UNL     1     -45.514  34.240  26.263  1.00  0.00     0.076 H 
ATOM      3  H   UNL     1     -45.433  34.110  28.011  1.00  0.00     0.076 H 
ENDROOT
BRANCH   1   4
ATOM      4  O   UNL     1     -47.165  33.390  27.228  1.00  0.00    -0.489 OA
BRANCH   4   5
ATOM      5  C   UNL     1     -47.417  32.642  26.112  1.00  0.00     0.122 A 
ATOM      6  C   UNL     1     -46.540  31.041  21.717  1.00  0.00     0.126 A 
ATOM      7  C   UNL     1     -47.685  30.251  21.724  1.00  0.00    -0.019 A 
ATOM      8  N   UNL     1     -46.198  31.795  22.781  1.00  0.00    -0.231 NA
ATOM      9  C   UNL     1     -48.511  30.255  22.843  1.00  0.00    -0.049 A 
ATOM     10  H   UNL     1     -47.928  29.627  20.870  1.00  0.00     0.066 H 
ATOM     11  C   UNL     1     -46.991  31.805  23.867  1.00  0.00     0.076 A 
ATOM     12  C   UNL     1     -48.172  31.045  23.944  1.00  0.00     0.001 A 
ATOM     13  H   UNL     1     -49.407  29.640  22.849  1.00  0.00     0.063 H 
ATOM     14  C   UNL     1     -46.636  32.594  24.956  1.00  0.00     0.007 A 
ATOM     15  C   UNL     1     -48.970  31.091  25.097  1.00  0.00    -0.049 A 
ATOM     16  H   UNL     1     -45.729  33.181  24.856  1.00  0.00     0.069 H 
ATOM     17  C   UNL     1     -48.590  31.891  26.173  1.00  0.00    -0.019 A 
ATOM     18  H   UNL     1     -49.884  30.508  25.164  1.00  0.00     0.063 H 
ATOM     19  H   UNL     1     -49.211  31.925  27.066  1.00  0.00     0.066 H 
BRANCH   6  20
ATOM     20  N   UNL     1     -45.716  30.993  20.578  1.00  0.00    -0.373 N 
ATOM     21  H   UNL     1     -45.659  30.033  20.254  1.00  0.00     0.161 HD
BRANCH  20  22
ATOM     22  C   UNL     1     -46.122  31.896  19.513  1.00  0.00     0.005 C 
ATOM     23  H   UNL     1     -45.683  31.609  18.551  1.00  0.00     0.045 H 
ATOM     24  H   UNL     1     -45.767  32.905  19.750  1.00  0.00     0.045 H 
ATOM     25  H   UNL     1     -47.212  31.948  19.422  1.00  0.00     0.045 H 
ENDBRANCH  20  22
ENDBRANCH   6  20
ENDBRANCH   4   5
ENDBRANCH   1   4
BRANCH   1  26
ATOM     26  C   UNL     1     -46.577  35.770  27.382  1.00  0.00     0.010 A 
ATOM     27  C   UNL     1     -47.930  36.032  27.541  1.00  0.00     0.034 A 
ATOM     28  C   UNL     1     -45.706  36.869  27.359  1.00  0.00    -0.028 A 
ATOM     29  N   UNL     1     -48.444  37.269  27.695  1.00  0.00    -0.262 NA
ATOM     30  H   UNL     1     -48.668  35.234  27.551  1.00  0.00     0.084 H 
ATOM     31  C   UNL     1     -46.196  38.174  27.524  1.00  0.00     0.066 A 
ATOM     32  H   UNL     1     -44.651  36.673  27.197  1.00  0.00     0.065 H 
ATOM     33  C   UNL     1     -47.570  38.309  27.687  1.00  0.00     0.051 A 
ATOM     34  H   UNL     1     -48.062  39.261  27.843  1.00  0.00     0.086 H 
BRANCH  31  35
ATOM     35  N   UNL     1     -45.313  39.302  27.529  1.00  0.00    -0.299 N 
ATOM     36  C   UNL     1     -45.326  40.322  26.594  1.00  0.00     0.015 A 
ATOM     37  C   UNL     1     -44.296  39.595  28.436  1.00  0.00     0.150 A 
ATOM     38  C   UNL     1     -44.337  41.248  26.872  1.00  0.00    -0.013 A 
ATOM     39  H   UNL     1     -46.015  40.313  25.762  1.00  0.00     0.083 H 
ATOM     40  C   UNL     1     -43.694  40.800  28.069  1.00  0.00     0.065 A 
ATOM     41  N   UNL     1     -43.953  38.858  29.512  1.00  0.00    -0.218 NA
ATOM     42  C   UNL     1     -42.654  41.261  28.901  1.00  0.00     0.136 A 
ATOM     43  C   UNL     1     -42.943  39.387  30.209  1.00  0.00     0.120 A 
ATOM     44  N   UNL     1     -42.290  40.531  29.969  1.00  0.00    -0.219 NA
ATOM     45  H   UNL     1     -42.617  38.825  31.080  1.00  0.00     0.106 H 
BRANCH  38  46
ATOM     46  C   UNL     1     -44.026  42.474  26.044  1.00  0.00    -0.014 C 
ATOM     47  H   UNL     1     -42.961  42.706  26.142  1.00  0.00     0.035 H 
BRANCH  46  48
ATOM     48  C   UNL     1     -44.252  42.212  24.548  1.00  0.00    -0.058 C 
ATOM     49  H   UNL     1     -44.900  41.343  24.382  1.00  0.00     0.024 H 
ATOM     50  H   UNL     1     -44.734  43.074  24.073  1.00  0.00     0.024 H 
ATOM     51  H   UNL     1     -43.303  42.028  24.033  1.00  0.00     0.024 H 
ENDBRANCH  46  48
BRANCH  46  52
ATOM     52  C   UNL     1     -44.821  43.688  26.479  1.00  0.00    -0.035 C 
ATOM     53  C   UNL     1     -44.135  44.871  27.118  1.00  0.00    -0.050 C 
ATOM     54  C   UNL     1     -44.697  44.992  25.729  1.00  0.00    -0.050 C 
ATOM     55  H   UNL     1     -45.802  43.423  26.860  1.00  0.00     0.031 H 
ATOM     56  H   UNL     1     -44.654  45.378  27.924  1.00  0.00     0.027 H 
ATOM     57  H   UNL     1     -43.058  44.856  27.233  1.00  0.00     0.027 H 
ATOM     58  H   UNL     1     -44.000  45.057  24.902  1.00  0.00     0.027 H 
ATOM     59  H   UNL     1     -45.595  45.585  25.595  1.00  0.00     0.027 H 
ENDBRANCH  46  52
ENDBRANCH  38  46
BRANCH  42  60
ATOM     60  N   UNL     1     -41.970  42.459  28.728  1.00  0.00    -0.383 N 
ATOM     61  H   UNL     1     -42.246  42.867  27.841  1.00  0.00     0.158 HD
ATOM     62  H   UNL     1     -40.973  42.374  28.858  1.00  0.00     0.158 HD
ENDBRANCH  42  60
ENDBRANCH  31  35
ENDBRANCH   1  26
TORSDOF 10
ENDMDL
MODEL 3
REMARK VINA RESULT:      -9.9      1.492      2.258
REMARK SMILES CNc1ccc2ccc(OCc3cncc(-n4cc([C@@H](C)C5CC5)c5c(N)ncnc54)c3)cc2n1
REMARK SMILES IDX 11 1 10 4 9 5 3 6 4 7 35 8 5 9 34 11 6 12 33 14 7 15 8 17
REMARK SMILES IDX 2 20 1 22 12 26 13 27 32 28 14 29 16 31 15 33 17 35 18 36
REMARK SMILES IDX 31 37 19 38 25 40 30 41 26 42 29 43 28 44 20 46 21 48 22 52
REMARK SMILES IDX 23 53 24 54 27 60
REMARK H PARENT 11 2 11 3 4 10 5 13 33 16 7 18 8 19 2 21 1 23 1 24 1 25 13 30
REMARK H PARENT 32 32 15 34 18 39 29 45 20 47 21 49 21 50 21 51 22 55 23 56
REMARK H PARENT 23 57 24 58 24 59 27 61 27 62
REMARK Flexibility Score: inf
ROOT
ATOM      1  C   UNL     1     -46.125  34.919  26.811  1.00  0.00     0.115 C 
ATOM      2  H   UNL     1     -45.300  34.245  27.073  1.00  0.00     0.076 H 
ATOM      3  H   UNL     1     -45.806  35.455  25.909  1.00  0.00     0.076 H 
ENDROOT
BRANCH   1   4
ATOM      4  O   UNL     1     -46.314  35.914  27.823  1.00  0.00    -0.489 OA
BRANCH   4   5
ATOM      5  C   UNL     1     -45.982  37.208  27.535  1.00  0.00     0.122 A 
ATOM      6  C   UNL     1     -43.495  41.231  28.064  1.00  0.00     0.126 A 
ATOM      7  C   UNL     1     -44.231  41.874  27.074  1.00  0.00    -0.019 A 
ATOM      8  N   UNL     1     -43.736  39.948  28.401  1.00  0.00    -0.231 NA
ATOM      9  C   UNL     1     -45.255  41.187  26.430  1.00  0.00    -0.049 A 
ATOM     10  H   UNL     1     -44.002  42.897  26.796  1.00  0.00     0.066 H 
ATOM     11  C   UNL     1     -44.724  39.277  27.784  1.00  0.00     0.076 A 
ATOM     12  C   UNL     1     -45.521  39.862  26.783  1.00  0.00     0.001 A 
ATOM     13  H   UNL     1     -45.831  41.688  25.658  1.00  0.00     0.063 H 
ATOM     14  C   UNL     1     -44.973  37.957  28.144  1.00  0.00     0.007 A 
ATOM     15  C   UNL     1     -46.544  39.123  26.169  1.00  0.00    -0.049 A 
ATOM     16  H   UNL     1     -44.352  37.543  28.931  1.00  0.00     0.069 H 
ATOM     17  C   UNL     1     -46.771  37.802  26.551  1.00  0.00    -0.019 A 
ATOM     18  H   UNL     1     -47.164  39.568  25.396  1.00  0.00     0.063 H 
ATOM     19  H   UNL     1     -47.564  37.231  26.074  1.00  0.00     0.066 H 
BRANCH   6  20
ATOM     20  N   UNL     1     -42.451  41.949  28.677  1.00  0.00    -0.373 N 
ATOM     21  H   UNL     1     -42.840  42.768  29.134  1.00  0.00     0.161 HD
BRANCH  20  22
ATOM     22  C   UNL     1     -41.643  41.157  29.591  1.00  0.00     0.005 C 
ATOM     23  H   UNL     1     -42.062  41.155  30.603  1.00  0.00     0.045 H 
ATOM     24  H   UNL     1     -40.641  41.598  29.650  1.00  0.00     0.045 H 
ATOM     25  H   UNL     1     -41.525  40.129  29.236  1.00  0.00     0.045 H 
ENDBRANCH  20  22
ENDBRANCH   6  20
ENDBRANCH   4   5
ENDBRANCH   1   4
BRANCH   1  26
ATOM     26  C   UNL     1     -47.385  34.167  26.467  1.00  0.00     0.010 A 
ATOM     27  C   UNL     1     -48.619  34.685  26.834  1.00  0.00     0.034 A 
ATOM     28  C   UNL     1     -47.373  32.917  25.832  1.00  0.00    -0.028 A 
ATOM     29  N   UNL     1     -49.794  34.068  26.596  1.00  0.00    -0.262 NA
ATOM     30  H   UNL     1     -48.707  35.640  27.345  1.00  0.00     0.084 H 
ATOM     31  C   UNL     1     -48.573  32.243  25.558  1.00  0.00     0.066 A 
ATOM     32  H   UNL     1     -46.408  32.490  25.577  1.00  0.00     0.065 H 
ATOM     33  C   UNL     1     -49.747  32.867  25.962  1.00  0.00     0.051 A 
ATOM     34  H   UNL     1     -50.734  32.455  25.788  1.00  0.00     0.086 H 
BRANCH  31  35
ATOM     35  N   UNL     1     -48.575  30.978  24.886  1.00  0.00    -0.299 N 
ATOM     36  C   UNL     1     -48.138  29.786  25.439  1.00  0.00     0.015 A 
ATOM     37  C   UNL     1     -48.997  30.692  23.588  1.00  0.00     0.150 A 
ATOM     38  C   UNL     1     -48.256  28.754  24.526  1.00  0.00    -0.013 A 
ATOM     39  H   UNL     1     -47.733  29.747  26.440  1.00  0.00     0.083 H 
ATOM     40  C   UNL     1     -48.833  29.326  23.348  1.00  0.00     0.065 A 
ATOM     41  N   UNL     1     -49.505  31.575  22.705  1.00  0.00    -0.218 NA
ATOM     42  C   UNL     1     -49.238  28.860  22.082  1.00  0.00     0.136 A 
ATOM     43  C   UNL     1     -49.833  31.018  21.536  1.00  0.00     0.120 A 
ATOM     44  N   UNL     1     -49.733  29.729  21.184  1.00  0.00    -0.219 NA
ATOM     45  H   UNL     1     -50.235  31.688  20.782  1.00  0.00     0.106 H 
BRANCH  38  46
ATOM     46  C   UNL     1     -47.837  27.321  24.763  1.00  0.00    -0.014 C 
ATOM     47  H   UNL     1     -48.471  26.664  24.160  1.00  0.00     0.035 H 
BRANCH  46  48
ATOM     48  C   UNL     1     -46.403  27.068  24.277  1.00  0.00    -0.058 C 
ATOM     49  H   UNL     1     -45.732  26.819  25.106  1.00  0.00     0.024 H 
ATOM     50  H   UNL     1     -46.376  26.230  23.571  1.00  0.00     0.024 H 
ATOM     51  H   UNL     1     -45.998  27.951  23.770  1.00  0.00     0.024 H 
ENDBRANCH  46  48
BRANCH  46  52
ATOM     52  C   UNL     1     -47.968  26.909  26.215  1.00  0.00    -0.035 C 
ATOM     53  C   UNL     1     -48.400  25.511  26.584  1.00  0.00    -0.050 C 
ATOM     54  C   UNL     1     -46.982  25.946  26.828  1.00  0.00    -0.050 C 
ATOM     55  H   UNL     1     -48.330  27.718  26.841  1.00  0.00     0.031 H 
ATOM     56  H   UNL     1     -49.052  25.396  27.443  1.00  0.00     0.027 H 
ATOM     57  H   UNL     1     -48.585  24.792  25.796  1.00  0.00     0.027 H 
ATOM     58  H   UNL     1     -46.205  25.521  26.202  1.00  0.00     0.027 H 
ATOM     59  H   UNL     1     -46.674  26.121  27.853  1.00  0.00     0.027 H 
ENDBRANCH  46  52
ENDBRANCH  38  46
BRANCH  42  60
ATOM     60  N   UNL     1     -49.200  27.531  21.675  1.00  0.00    -0.383 N 
ATOM     61  H   UNL     1     -48.616  27.460  20.847  1.00  0.00     0.158 HD
ATOM     62  H   UNL     1     -50.114  27.113  21.580  1.00  0.00     0.158 HD
ENDBRANCH  42  60
ENDBRANCH  31  35
ENDBRANCH   1  26
TORSDOF 10
ENDMDL
MODEL 4
REMARK VINA RESULT:      -9.9      2.341     12.210
REMARK SMILES CNc1ccc2ccc(OCc3cncc(-n4cc([C@@H](C)C5CC5)c5c(N)ncnc54)c3)cc2n1
REMARK SMILES IDX 11 1 10 4 9 5 3 6 4 7 35 8 5 9 34 11 6 12 33 14 7 15 8 17
REMARK SMILES IDX 2 20 1 22 12 26 13 27 32 28 14 29 16 31 15 33 17 35 18 36
REMARK SMILES IDX 31 37 19 38 25 40 30 41 26 42 29 43 28 44 20 46 21 48 22 52
REMARK SMILES IDX 23 53 24 54 27 60
REMARK H PARENT 11 2 11 3 4 10 5 13 33 16 7 18 8 19 2 21 1 23 1 24 1 25 13 30
REMARK H PARENT 32 32 15 34 18 39 29 45 20 47 21 49 21 50 21 51 22 55 23 56
REMARK H PARENT 23 57 24 58 24 59 27 61 27 62
REMARK Flexibility Score: inf
ROOT
ATOM      1  C   UNL     1     -46.467  34.436  27.057  1.00  0.00     0.115 C 
ATOM      2  H   UNL     1     -45.824  34.341  26.173  1.00  0.00     0.076 H 
ATOM      3  H   UNL     1     -45.867  34.098  27.910  1.00  0.00     0.076 H 
ENDROOT
BRANCH   1   4
ATOM      4  O   UNL     1     -47.584  33.543  26.975  1.00  0.00    -0.489 OA
BRANCH   4   5
ATOM      5  C   UNL     1     -47.559  32.551  26.035  1.00  0.00     0.122 A 
ATOM      6  C   UNL     1     -48.954  28.444  24.075  1.00  0.00     0.126 A 
ATOM      7  C   UNL     1     -48.032  28.569  23.041  1.00  0.00    -0.019 A 
ATOM      8  N   UNL     1     -49.066  29.384  25.036  1.00  0.00    -0.231 NA
ATOM      9  C   UNL     1     -47.189  29.674  23.007  1.00  0.00    -0.049 A 
ATOM     10  H   UNL     1     -47.977  27.818  22.261  1.00  0.00     0.066 H 
ATOM     11  C   UNL     1     -48.255  30.456  25.011  1.00  0.00     0.076 A 
ATOM     12  C   UNL     1     -47.288  30.645  24.007  1.00  0.00     0.001 A 
ATOM     13  H   UNL     1     -46.467  29.772  22.201  1.00  0.00     0.063 H 
ATOM     14  C   UNL     1     -48.371  31.415  26.011  1.00  0.00     0.007 A 
ATOM     15  C   UNL     1     -46.462  31.779  24.024  1.00  0.00    -0.049 A 
ATOM     16  H   UNL     1     -49.114  31.229  26.780  1.00  0.00     0.069 H 
ATOM     17  C   UNL     1     -46.599  32.723  25.039  1.00  0.00    -0.019 A 
ATOM     18  H   UNL     1     -45.711  31.931  23.252  1.00  0.00     0.063 H 
ATOM     19  H   UNL     1     -45.956  33.600  25.051  1.00  0.00     0.066 H 
BRANCH   6  20
ATOM     20  N   UNL     1     -49.807  27.325  24.065  1.00  0.00    -0.373 N 
ATOM     21  H   UNL     1     -49.758  26.884  23.152  1.00  0.00     0.161 HD
BRANCH  20  22
ATOM     22  C   UNL     1     -49.552  26.374  25.135  1.00  0.00     0.005 C 
ATOM     23  H   UNL     1     -48.903  25.557  24.803  1.00  0.00     0.045 H 
ATOM     24  H   UNL     1     -50.504  25.932  25.450  1.00  0.00     0.045 H 
ATOM     25  H   UNL     1     -49.116  26.863  26.012  1.00  0.00     0.045 H 
ENDBRANCH  20  22
ENDBRANCH   6  20
ENDBRANCH   4   5
ENDBRANCH   1   4
BRANCH   1  26
ATOM     26  C   UNL     1     -46.862  35.866  27.322  1.00  0.00     0.010 A 
ATOM     27  C   UNL     1     -48.195  36.186  27.538  1.00  0.00     0.034 A 
ATOM     28  C   UNL     1     -45.940  36.923  27.304  1.00  0.00    -0.028 A 
ATOM     29  N   UNL     1     -48.642  37.439  27.751  1.00  0.00    -0.262 NA
ATOM     30  H   UNL     1     -48.969  35.423  27.548  1.00  0.00     0.084 H 
ATOM     31  C   UNL     1     -46.361  38.242  27.529  1.00  0.00     0.066 A 
ATOM     32  H   UNL     1     -44.902  36.682  27.097  1.00  0.00     0.065 H 
ATOM     33  C   UNL     1     -47.720  38.437  27.746  1.00  0.00     0.051 A 
ATOM     34  H   UNL     1     -48.161  39.405  27.952  1.00  0.00     0.086 H 
BRANCH  31  35
ATOM     35  N   UNL     1     -45.425  39.326  27.540  1.00  0.00    -0.299 N 
ATOM     36  C   UNL     1     -45.396  40.357  26.616  1.00  0.00     0.015 A 
ATOM     37  C   UNL     1     -44.388  39.560  28.442  1.00  0.00     0.150 A 
ATOM     38  C   UNL     1     -44.361  41.232  26.896  1.00  0.00    -0.013 A 
ATOM     39  H   UNL     1     -46.090  40.390  25.789  1.00  0.00     0.083 H 
ATOM     40  C   UNL     1     -43.732  40.740  28.083  1.00  0.00     0.065 A 
ATOM     41  N   UNL     1     -44.073  38.796  29.507  1.00  0.00    -0.218 NA
ATOM     42  C   UNL     1     -42.665  41.140  28.912  1.00  0.00     0.136 A 
ATOM     43  C   UNL     1     -43.034  39.268  30.202  1.00  0.00     0.120 A 
ATOM     44  N   UNL     1     -42.328  40.382  29.969  1.00  0.00    -0.219 NA
ATOM     45  H   UNL     1     -42.729  38.681  31.064  1.00  0.00     0.106 H 
BRANCH  38  46
ATOM     46  C   UNL     1     -43.998  42.450  26.079  1.00  0.00    -0.014 C 
ATOM     47  H   UNL     1     -42.933  42.663  26.217  1.00  0.00     0.035 H 
BRANCH  46  48
ATOM     48  C   UNL     1     -44.174  42.190  24.576  1.00  0.00    -0.058 C 
ATOM     49  H   UNL     1     -45.027  42.742  24.166  1.00  0.00     0.024 H 
ATOM     50  H   UNL     1     -43.283  42.507  24.022  1.00  0.00     0.024 H 
ATOM     51  H   UNL     1     -44.335  41.125  24.378  1.00  0.00     0.024 H 
ENDBRANCH  46  48
BRANCH  46  52
ATOM     52  C   UNL     1     -44.787  43.679  26.483  1.00  0.00    -0.035 C 
ATOM     53  C   UNL     1     -44.130  44.797  27.255  1.00  0.00    -0.050 C 
ATOM     54  C   UNL     1     -44.524  45.008  25.820  1.00  0.00    -0.050 C 
ATOM     55  H   UNL     1     -45.815  43.443  26.737  1.00  0.00     0.031 H 
ATOM     56  H   UNL     1     -44.717  45.291  28.023  1.00  0.00     0.027 H 
ATOM     57  H   UNL     1     -43.075  44.726  27.491  1.00  0.00     0.027 H 
ATOM     58  H   UNL     1     -43.734  45.079  25.081  1.00  0.00     0.027 H 
ATOM     59  H   UNL     1     -45.375  45.649  25.617  1.00  0.00     0.027 H 
ENDBRANCH  46  52
ENDBRANCH  38  46
BRANCH  42  60
ATOM     60  N   UNL     1     -41.926  42.306  28.747  1.00  0.00    -0.383 N 
ATOM     61  H   UNL     1     -41.036  42.198  29.224  1.00  0.00     0.158 HD
ATOM     62  H   UNL     1     -42.434  43.143  28.993  1.00  0.00     0.158 HD
ENDBRANCH  42  60
ENDBRANCH  31  35
ENDBRANCH   1  26
TORSDOF 10
ENDMDL
MODEL 5
REMARK VINA RESULT:      -9.7      2.650      3.618
REMARK SMILES CNc1ccc2ccc(OCc3cncc(-n4cc([C@@H](C)C5CC5)c5c(N)ncnc54)c3)cc2n1
REMARK SMILES IDX 11 1 10 4 9 5 3 6 4 7 35 8 5 9 34 11 6 12 33 14 7 15 8 17
REMARK SMILES IDX 2 20 1 22 12 26 13 27 32 28 14 29 16 31 15 33 17 35 18 36
REMARK SMILES IDX 31 37 19 38 25 40 30 41 26 42 29 43 28 44 20 46 21 48 22 52
REMARK SMILES IDX 23 53 24 54 27 60
REMARK H PARENT 11 2 11 3 4 10 5 13 33 16 7 18 8 19 2 21 1 23 1 24 1 25 13 30
REMARK H PARENT 32 32 15 34 18 39 29 45 20 47 21 49 21 50 21 51 22 55 23 56
REMARK H PARENT 23 57 24 58 24 59 27 61 27 62
REMARK Flexibility Score: inf
ROOT
ATOM      1  C   UNL     1     -47.745  36.511  27.325  1.00  0.00     0.115 C 
ATOM      2  H   UNL     1     -48.809  36.719  27.153  1.00  0.00     0.076 H 
ATOM      3  H   UNL     1     -47.554  36.744  28.379  1.00  0.00     0.076 H 
ENDROOT
BRANCH   1   4
ATOM      4  O   UNL     1     -46.921  37.400  26.563  1.00  0.00    -0.489 OA
BRANCH   4   5
ATOM      5  C   UNL     1     -45.981  38.143  27.221  1.00  0.00     0.122 A 
ATOM      6  C   UNL     1     -42.812  41.667  27.652  1.00  0.00     0.126 A 
ATOM      7  C   UNL     1     -42.485  41.280  28.947  1.00  0.00    -0.019 A 
ATOM      8  N   UNL     1     -43.743  41.008  26.933  1.00  0.00    -0.231 NA
ATOM      9  C   UNL     1     -43.114  40.174  29.509  1.00  0.00    -0.049 A 
ATOM     10  H   UNL     1     -41.755  41.841  29.521  1.00  0.00     0.066 H 
ATOM     11  C   UNL     1     -44.357  39.938  27.468  1.00  0.00     0.076 A 
ATOM     12  C   UNL     1     -44.069  39.476  28.766  1.00  0.00     0.001 A 
ATOM     13  H   UNL     1     -42.858  39.870  30.520  1.00  0.00     0.063 H 
ATOM     14  C   UNL     1     -45.308  39.258  26.717  1.00  0.00     0.007 A 
ATOM     15  C   UNL     1     -44.732  38.352  29.281  1.00  0.00    -0.049 A 
ATOM     16  H   UNL     1     -45.492  39.629  25.714  1.00  0.00     0.069 H 
ATOM     17  C   UNL     1     -45.681  37.690  28.505  1.00  0.00    -0.019 A 
ATOM     18  H   UNL     1     -44.515  37.989  30.282  1.00  0.00     0.063 H 
ATOM     19  H   UNL     1     -46.193  36.818  28.906  1.00  0.00     0.066 H 
BRANCH   6  20
ATOM     20  N   UNL     1     -42.173  42.805  27.125  1.00  0.00    -0.373 N 
ATOM     21  H   UNL     1     -41.171  42.643  27.113  1.00  0.00     0.161 HD
BRANCH  20  22
ATOM     22  C   UNL     1     -42.667  43.212  25.819  1.00  0.00     0.005 C 
ATOM     23  H   UNL     1     -42.645  42.384  25.103  1.00  0.00     0.045 H 
ATOM     24  H   UNL     1     -42.020  44.005  25.428  1.00  0.00     0.045 H 
ATOM     25  H   UNL     1     -43.681  43.622  25.882  1.00  0.00     0.045 H 
ENDBRANCH  20  22
ENDBRANCH   6  20
ENDBRANCH   4   5
ENDBRANCH   1   4
BRANCH   1  26
ATOM     26  C   UNL     1     -47.410  35.057  27.117  1.00  0.00     0.010 A 
ATOM     27  C   UNL     1     -46.544  34.416  27.992  1.00  0.00     0.034 A 
ATOM     28  C   UNL     1     -47.891  34.315  26.029  1.00  0.00    -0.028 A 
ATOM     29  N   UNL     1     -46.163  33.129  27.866  1.00  0.00    -0.262 NA
ATOM     30  H   UNL     1     -46.115  34.931  28.848  1.00  0.00     0.084 H 
ATOM     31  C   UNL     1     -47.528  32.970  25.863  1.00  0.00     0.066 A 
ATOM     32  H   UNL     1     -48.539  34.823  25.320  1.00  0.00     0.065 H 
ATOM     33  C   UNL     1     -46.664  32.434  26.811  1.00  0.00     0.051 A 
ATOM     34  H   UNL     1     -46.329  31.404  26.801  1.00  0.00     0.086 H 
BRANCH  31  35
ATOM     35  N   UNL     1     -48.035  32.195  24.770  1.00  0.00    -0.299 N 
ATOM     36  C   UNL     1     -49.374  32.065  24.445  1.00  0.00     0.015 A 
ATOM     37  C   UNL     1     -47.317  31.436  23.847  1.00  0.00     0.150 A 
ATOM     38  C   UNL     1     -49.530  31.235  23.349  1.00  0.00    -0.013 A 
ATOM     39  H   UNL     1     -50.144  32.542  25.034  1.00  0.00     0.083 H 
ATOM     40  C   UNL     1     -48.211  30.853  22.946  1.00  0.00     0.065 A 
ATOM     41  N   UNL     1     -45.977  31.298  23.802  1.00  0.00    -0.218 NA
ATOM     42  C   UNL     1     -47.646  30.068  21.921  1.00  0.00     0.136 A 
ATOM     43  C   UNL     1     -45.564  30.516  22.800  1.00  0.00     0.120 A 
ATOM     44  N   UNL     1     -46.312  29.908  21.870  1.00  0.00    -0.219 NA
ATOM     45  H   UNL     1     -44.491  30.360  22.726  1.00  0.00     0.106 H 
BRANCH  38  46
ATOM     46  C   UNL     1     -50.851  30.830  22.737  1.00  0.00    -0.014 C 
ATOM     47  H   UNL     1     -50.795  29.778  22.440  1.00  0.00     0.035 H 
BRANCH  46  48
ATOM     48  C   UNL     1     -51.991  30.907  23.762  1.00  0.00    -0.058 C 
ATOM     49  H   UNL     1     -51.662  30.594  24.759  1.00  0.00     0.024 H 
ATOM     50  H   UNL     1     -52.364  31.934  23.849  1.00  0.00     0.024 H 
ATOM     51  H   UNL     1     -52.829  30.267  23.467  1.00  0.00     0.024 H 
ENDBRANCH  46  48
BRANCH  46  52
ATOM     52  C   UNL     1     -51.203  31.652  21.514  1.00  0.00    -0.035 C 
ATOM     53  C   UNL     1     -51.021  31.088  20.126  1.00  0.00    -0.050 C 
ATOM     54  C   UNL     1     -52.404  31.298  20.674  1.00  0.00    -0.050 C 
ATOM     55  H   UNL     1     -50.982  32.706  21.649  1.00  0.00     0.031 H 
ATOM     56  H   UNL     1     -50.672  31.762  19.351  1.00  0.00     0.027 H 
ATOM     57  H   UNL     1     -50.664  30.071  20.014  1.00  0.00     0.027 H 
ATOM     58  H   UNL     1     -52.987  30.421  20.935  1.00  0.00     0.027 H 
ATOM     59  H   UNL     1     -52.994  32.111  20.265  1.00  0.00     0.027 H 
ENDBRANCH  46  52
ENDBRANCH  38  46
BRANCH  42  60
ATOM     60  N   UNL     1     -48.366  29.450  20.905  1.00  0.00    -0.383 N 
ATOM     61  H   UNL     1     -48.824  30.164  20.348  1.00  0.00     0.158 HD
ATOM     62  H   UNL     1     -48.979  28.719  21.235  1.00  0.00     0.158 HD
ENDBRANCH  42  60
ENDBRANCH  31  35
ENDBRANCH   1  26
TORSDOF 10
ENDMDL
MODEL 6
REMARK VINA RESULT:      -9.5      3.210     11.836
REMARK SMILES CNc1ccc2ccc(OCc3cncc(-n4cc([C@@H](C)C5CC5)c5c(N)ncnc54)c3)cc2n1
REMARK SMILES IDX 11 1 10 4 9 5 3 6 4 7 35 8 5 9 34 11 6 12 33 14 7 15 8 17
REMARK SMILES IDX 2 20 1 22 12 26 13 27 32 28 14 29 16 31 15 33 17 35 18 36
REMARK SMILES IDX 31 37 19 38 25 40 30 41 26 42 29 43 28 44 20 46 21 48 22 52
REMARK SMILES IDX 23 53 24 54 27 60
REMARK H PARENT 11 2 11 3 4 10 5 13 33 16 7 18 8 19 2 21 1 23 1 24 1 25 13 30
REMARK H PARENT 32 32 15 34 18 39 29 45 20 47 21 49 21 50 21 51 22 55 23 56
REMARK H PARENT 23 57 24 58 24 59 27 61 27 62
REMARK Flexibility Score: inf
ROOT
ATOM      1  C   UNL     1     -48.110  35.214  26.680  1.00  0.00     0.115 C 
ATOM      2  H   UNL     1     -49.136  35.508  26.932  1.00  0.00     0.076 H 
ATOM      3  H   UNL     1     -48.048  35.229  25.585  1.00  0.00     0.076 H 
ENDROOT
BRANCH   1   4
ATOM      4  O   UNL     1     -47.852  33.863  27.077  1.00  0.00    -0.489 OA
BRANCH   4   5
ATOM      5  C   UNL     1     -47.570  32.941  26.108  1.00  0.00     0.122 A 
ATOM      6  C   UNL     1     -48.043  28.765  23.875  1.00  0.00     0.126 A 
ATOM      7  C   UNL     1     -47.069  29.099  22.940  1.00  0.00    -0.019 A 
ATOM      8  N   UNL     1     -48.403  29.619  24.854  1.00  0.00    -0.231 NA
ATOM      9  C   UNL     1     -46.433  30.333  23.027  1.00  0.00    -0.049 A 
ATOM     10  H   UNL     1     -46.814  28.411  22.141  1.00  0.00     0.066 H 
ATOM     11  C   UNL     1     -47.794  30.814  24.946  1.00  0.00     0.076 A 
ATOM     12  C   UNL     1     -46.790  31.219  24.047  1.00  0.00     0.001 A 
ATOM     13  H   UNL     1     -45.671  30.595  22.299  1.00  0.00     0.063 H 
ATOM     14  C   UNL     1     -48.164  31.685  25.965  1.00  0.00     0.007 A 
ATOM     15  C   UNL     1     -46.179  32.474  24.186  1.00  0.00    -0.049 A 
ATOM     16  H   UNL     1     -48.928  31.334  26.650  1.00  0.00     0.069 H 
ATOM     17  C   UNL     1     -46.570  33.326  25.216  1.00  0.00    -0.019 A 
ATOM     18  H   UNL     1     -45.402  32.793  23.496  1.00  0.00     0.063 H 
ATOM     19  H   UNL     1     -46.095  34.299  25.322  1.00  0.00     0.066 H 
BRANCH   6  20
ATOM     20  N   UNL     1     -48.682  27.518  23.741  1.00  0.00    -0.373 N 
ATOM     21  H   UNL     1     -48.432  26.935  24.533  1.00  0.00     0.161 HD
BRANCH  20  22
ATOM     22  C   UNL     1     -50.123  27.605  23.569  1.00  0.00     0.005 C 
ATOM     23  H   UNL     1     -50.581  28.254  24.323  1.00  0.00     0.045 H 
ATOM     24  H   UNL     1     -50.555  26.605  23.690  1.00  0.00     0.045 H 
ATOM     25  H   UNL     1     -50.389  27.955  22.567  1.00  0.00     0.045 H 
ENDBRANCH  20  22
ENDBRANCH   6  20
ENDBRANCH   4   5
ENDBRANCH   1   4
BRANCH   1  26
ATOM     26  C   UNL     1     -47.093  36.196  27.202  1.00  0.00     0.010 A 
ATOM     27  C   UNL     1     -46.203  35.807  28.193  1.00  0.00     0.034 A 
ATOM     28  C   UNL     1     -47.035  37.530  26.771  1.00  0.00    -0.028 A 
ATOM     29  N   UNL     1     -45.282  36.626  28.740  1.00  0.00    -0.262 NA
ATOM     30  H   UNL     1     -46.199  34.795  28.590  1.00  0.00     0.084 H 
ATOM     31  C   UNL     1     -46.087  38.414  27.307  1.00  0.00     0.066 A 
ATOM     32  H   UNL     1     -47.755  37.849  26.023  1.00  0.00     0.065 H 
ATOM     33  C   UNL     1     -45.241  37.906  28.286  1.00  0.00     0.051 A 
ATOM     34  H   UNL     1     -44.457  38.485  28.759  1.00  0.00     0.086 H 
BRANCH  31  35
ATOM     35  N   UNL     1     -46.001  39.771  26.856  1.00  0.00    -0.299 N 
ATOM     36  C   UNL     1     -44.841  40.389  26.420  1.00  0.00     0.015 A 
ATOM     37  C   UNL     1     -47.022  40.716  26.768  1.00  0.00     0.150 A 
ATOM     38  C   UNL     1     -45.093  41.703  26.071  1.00  0.00    -0.013 A 
ATOM     39  H   UNL     1     -43.894  39.869  26.418  1.00  0.00     0.083 H 
ATOM     40  C   UNL     1     -46.495  41.908  26.265  1.00  0.00     0.065 A 
ATOM     41  N   UNL     1     -48.317  40.519  27.088  1.00  0.00    -0.218 NA
ATOM     42  C   UNL     1     -47.405  42.969  26.087  1.00  0.00     0.136 A 
ATOM     43  C   UNL     1     -49.075  41.603  26.894  1.00  0.00     0.120 A 
ATOM     44  N   UNL     1     -48.697  42.795  26.415  1.00  0.00    -0.219 NA
ATOM     45  H   UNL     1     -50.126  41.503  27.150  1.00  0.00     0.106 H 
BRANCH  38  46
ATOM     46  C   UNL     1     -44.059  42.696  25.592  1.00  0.00    -0.014 C 
ATOM     47  H   UNL     1     -44.374  43.703  25.884  1.00  0.00     0.035 H 
BRANCH  46  48
ATOM     48  C   UNL     1     -42.705  42.473  26.282  1.00  0.00    -0.058 C 
ATOM     49  H   UNL     1     -42.098  41.730  25.753  1.00  0.00     0.024 H 
ATOM     50  H   UNL     1     -42.129  43.405  26.312  1.00  0.00     0.024 H 
ATOM     51  H   UNL     1     -42.841  42.126  27.312  1.00  0.00     0.024 H 
ENDBRANCH  46  48
BRANCH  46  52
ATOM     52  C   UNL     1     -43.879  42.670  24.088  1.00  0.00    -0.035 C 
ATOM     53  C   UNL     1     -44.358  43.818  23.234  1.00  0.00    -0.050 C 
ATOM     54  C   UNL     1     -42.885  43.587  23.421  1.00  0.00    -0.050 C 
ATOM     55  H   UNL     1     -43.990  41.672  23.678  1.00  0.00     0.031 H 
ATOM     56  H   UNL     1     -44.793  43.580  22.269  1.00  0.00     0.027 H 
ATOM     57  H   UNL     1     -44.805  44.681  23.713  1.00  0.00     0.027 H 
ATOM     58  H   UNL     1     -42.332  44.294  24.029  1.00  0.00     0.027 H 
ATOM     59  H   UNL     1     -42.322  43.197  22.580  1.00  0.00     0.027 H 
ENDBRANCH  46  52
ENDBRANCH  38  46
BRANCH  42  60
ATOM     60  N   UNL     1     -47.081  44.212  25.554  1.00  0.00    -0.383 N 
ATOM     61  H   UNL     1     -46.124  44.184  25.219  1.00  0.00     0.158 HD
ATOM     62  H   UNL     1     -47.285  44.981  26.175  1.00  0.00     0.158 HD
ENDBRANCH  42  60
ENDBRANCH  31  35
ENDBRANCH   1  26
TORSDOF 10
ENDMDL
MODEL 7
REMARK VINA RESULT:      -9.4      1.983      2.662
REMARK SMILES CNc1ccc2ccc(OCc3cncc(-n4cc([C@@H](C)C5CC5)c5c(N)ncnc54)c3)cc2n1
REMARK SMILES IDX 11 1 10 4 9 5 3 6 4 7 35 8 5 9 34 11 6 12 33 14 7 15 8 17
REMARK SMILES IDX 2 20 1 22 12 26 13 27 32 28 14 29 16 31 15 33 17 35 18 36
REMARK SMILES IDX 31 37 19 38 25 40 30 41 26 42 29 43 28 44 20 46 21 48 22 52
REMARK SMILES IDX 23 53 24 54 27 60
REMARK H PARENT 11 2 11 3 4 10 5 13 33 16 7 18 8 19 2 21 1 23 1 24 1 25 13 30
REMARK H PARENT 32 32 15 34 18 39 29 45 20 47 21 49 21 50 21 51 22 55 23 56
REMARK H PARENT 23 57 24 58 24 59 27 61 27 62
REMARK Flexibility Score: inf
ROOT
ATOM      1  C   UNL     1     -48.037  36.389  27.092  1.00  0.00     0.115 C 
ATOM      2  H   UNL     1     -47.783  36.938  26.176  1.00  0.00     0.076 H 
ATOM      3  H   UNL     1     -49.132  36.348  27.131  1.00  0.00     0.076 H 
ENDROOT
BRANCH   1   4
ATOM      4  O   UNL     1     -47.621  37.113  28.255  1.00  0.00    -0.489 OA
BRANCH   4   5
ATOM      5  C   UNL     1     -46.627  38.043  28.124  1.00  0.00     0.122 A 
ATOM      6  C   UNL     1     -44.315  41.592  25.954  1.00  0.00     0.126 A 
ATOM      7  C   UNL     1     -43.344  41.633  26.949  1.00  0.00    -0.019 A 
ATOM      8  N   UNL     1     -45.345  40.723  26.009  1.00  0.00    -0.231 NA
ATOM      9  C   UNL     1     -43.421  40.743  28.015  1.00  0.00    -0.049 A 
ATOM     10  H   UNL     1     -42.540  42.359  26.902  1.00  0.00     0.066 H 
ATOM     11  C   UNL     1     -45.427  39.859  27.036  1.00  0.00     0.076 A 
ATOM     12  C   UNL     1     -44.476  39.829  28.073  1.00  0.00     0.001 A 
ATOM     13  H   UNL     1     -42.662  40.772  28.792  1.00  0.00     0.063 H 
ATOM     14  C   UNL     1     -46.487  38.960  27.080  1.00  0.00     0.007 A 
ATOM     15  C   UNL     1     -44.602  38.907  29.122  1.00  0.00    -0.049 A 
ATOM     16  H   UNL     1     -47.191  38.998  26.256  1.00  0.00     0.069 H 
ATOM     17  C   UNL     1     -45.674  38.017  29.140  1.00  0.00    -0.019 A 
ATOM     18  H   UNL     1     -43.871  38.877  29.926  1.00  0.00     0.063 H 
ATOM     19  H   UNL     1     -45.768  37.302  29.955  1.00  0.00     0.066 H 
BRANCH   6  20
ATOM     20  N   UNL     1     -44.219  42.523  24.903  1.00  0.00    -0.373 N 
ATOM     21  H   UNL     1     -45.125  42.958  24.766  1.00  0.00     0.161 HD
BRANCH  20  22
ATOM     22  C   UNL     1     -43.168  43.512  25.081  1.00  0.00     0.005 C 
ATOM     23  H   UNL     1     -43.525  44.384  25.639  1.00  0.00     0.045 H 
ATOM     24  H   UNL     1     -42.841  43.862  24.095  1.00  0.00     0.045 H 
ATOM     25  H   UNL     1     -42.293  43.085  25.580  1.00  0.00     0.045 H 
ENDBRANCH  20  22
ENDBRANCH   6  20
ENDBRANCH   4   5
ENDBRANCH   1   4
BRANCH   1  26
ATOM     26  C   UNL     1     -47.534  34.968  27.060  1.00  0.00     0.010 A 
ATOM     27  C   UNL     1     -46.562  34.559  27.962  1.00  0.00     0.034 A 
ATOM     28  C   UNL     1     -47.964  34.033  26.108  1.00  0.00    -0.028 A 
ATOM     29  N   UNL     1     -46.032  33.320  27.986  1.00  0.00    -0.262 NA
ATOM     30  H   UNL     1     -46.166  35.234  28.717  1.00  0.00     0.084 H 
ATOM     31  C   UNL     1     -47.446  32.729  26.102  1.00  0.00     0.066 A 
ATOM     32  H   UNL     1     -48.696  34.359  25.376  1.00  0.00     0.065 H 
ATOM     33  C   UNL     1     -46.486  32.433  27.062  1.00  0.00     0.051 A 
ATOM     34  H   UNL     1     -46.028  31.457  27.170  1.00  0.00     0.086 H 
BRANCH  31  35
ATOM     35  N   UNL     1     -47.897  31.757  25.151  1.00  0.00    -0.299 N 
ATOM     36  C   UNL     1     -48.995  30.931  25.323  1.00  0.00     0.015 A 
ATOM     37  C   UNL     1     -47.347  31.447  23.908  1.00  0.00     0.150 A 
ATOM     38  C   UNL     1     -49.150  30.096  24.231  1.00  0.00    -0.013 A 
ATOM     39  H   UNL     1     -49.583  30.959  26.229  1.00  0.00     0.083 H 
ATOM     40  C   UNL     1     -48.113  30.444  23.310  1.00  0.00     0.065 A 
ATOM     41  N   UNL     1     -46.267  32.030  23.350  1.00  0.00    -0.218 NA
ATOM     42  C   UNL     1     -47.707  30.028  22.027  1.00  0.00     0.136 A 
ATOM     43  C   UNL     1     -45.971  31.537  22.143  1.00  0.00     0.120 A 
ATOM     44  N   UNL     1     -46.624  30.588  21.461  1.00  0.00    -0.219 NA
ATOM     45  H   UNL     1     -45.099  31.963  21.654  1.00  0.00     0.106 H 
BRANCH  38  46
ATOM     46  C   UNL     1     -50.215  29.033  24.085  1.00  0.00    -0.014 C 
ATOM     47  H   UNL     1     -50.809  28.999  25.003  1.00  0.00     0.035 H 
BRANCH  46  48
ATOM     48  C   UNL     1     -51.207  29.383  22.967  1.00  0.00    -0.058 C 
ATOM     49  H   UNL     1     -52.246  29.267  23.295  1.00  0.00     0.024 H 
ATOM     50  H   UNL     1     -51.079  30.424  22.650  1.00  0.00     0.024 H 
ATOM     51  H   UNL     1     -51.056  28.742  22.092  1.00  0.00     0.024 H 
ENDBRANCH  46  48
BRANCH  46  52
ATOM     52  C   UNL     1     -49.633  27.655  23.843  1.00  0.00    -0.035 C 
ATOM     53  C   UNL     1     -48.830  26.958  24.913  1.00  0.00    -0.050 C 
ATOM     54  C   UNL     1     -50.198  26.451  24.554  1.00  0.00    -0.050 C 
ATOM     55  H   UNL     1     -49.307  27.520  22.817  1.00  0.00     0.031 H 
ATOM     56  H   UNL     1     -47.971  26.374  24.598  1.00  0.00     0.027 H 
ATOM     57  H   UNL     1     -48.699  27.442  25.874  1.00  0.00     0.027 H 
ATOM     58  H   UNL     1     -50.998  26.593  25.272  1.00  0.00     0.027 H 
ATOM     59  H   UNL     1     -50.265  25.521  24.000  1.00  0.00     0.027 H 
ENDBRANCH  46  52
ENDBRANCH  38  46
BRANCH  42  60
ATOM     60  N   UNL     1     -48.368  29.081  21.253  1.00  0.00    -0.383 N 
ATOM     61  H   UNL     1     -49.221  29.495  20.888  1.00  0.00     0.158 HD
ATOM     62  H   UNL     1     -48.500  28.198  21.723  1.00  0.00     0.158 HD
ENDBRANCH  42  60
ENDBRANCH  31  35
ENDBRANCH   1  26
TORSDOF 10
ENDMDL
