MODEL 1
REMARK VINA RESULT:      -9.9      0.000      0.000
REMARK SMILES CCNc1ccc2ccc(OC[C@H]3O[C@@H](n4cc(C5CCCC5)c5c(N)ncnc54)[C@H](O)[C@@H]3O)cc2n1
REMARK SMILES IDX 11 1 10 2 4 3 5 4 37 5 6 6 36 8 7 9 35 11 8 12 9 14 3 17
REMARK SMILES IDX 2 19 1 22 12 26 13 29 14 30 33 31 15 33 31 34 34 38 16 40
REMARK SMILES IDX 17 41 30 42 18 43 24 45 29 46 25 47 28 48 27 49 19 51 20 52
REMARK SMILES IDX 23 53 21 55 22 58 26 65 32 68
REMARK H PARENT 5 7 6 10 35 13 8 15 9 16 3 18 2 20 2 21 1 23 1 24 1 25 12 27
REMARK H PARENT 12 28 13 32 33 35 15 36 31 37 34 39 17 44 28 50 19 54 20 56
REMARK H PARENT 20 57 23 59 23 60 21 61 21 62 22 63 22 64 26 66 26 67 32 69
REMARK Flexibility Score: inf
ROOT
ATOM      1  O   UNL     1     -47.508  34.193  26.939  1.00  0.00    -0.491 OA
ENDROOT
BRANCH   1   2
ATOM      2  C   UNL     1     -47.524  33.123  26.095  1.00  0.00     0.121 A 
ATOM      3  C   UNL     1     -49.101  28.947  24.446  1.00  0.00     0.126 A 
ATOM      4  C   UNL     1     -48.096  28.890  23.488  1.00  0.00    -0.019 A 
ATOM      5  N   UNL     1     -49.223  30.004  25.273  1.00  0.00    -0.231 NA
ATOM      6  C   UNL     1     -47.169  29.925  23.405  1.00  0.00    -0.049 A 
ATOM      7  H   UNL     1     -48.034  28.051  22.804  1.00  0.00     0.066 H 
ATOM      8  C   UNL     1     -48.334  31.010  25.203  1.00  0.00     0.076 A 
ATOM      9  C   UNL     1     -47.272  31.008  24.280  1.00  0.00     0.001 A 
ATOM     10  H   UNL     1     -46.379  29.878  22.662  1.00  0.00     0.063 H 
ATOM     11  C   UNL     1     -48.446  32.080  26.087  1.00  0.00     0.007 A 
ATOM     12  C   UNL     1     -46.353  32.066  24.260  1.00  0.00    -0.049 A 
ATOM     13  H   UNL     1     -49.269  32.044  26.793  1.00  0.00     0.069 H 
ATOM     14  C   UNL     1     -46.482  33.114  25.168  1.00  0.00    -0.019 A 
ATOM     15  H   UNL     1     -45.531  32.077  23.549  1.00  0.00     0.063 H 
ATOM     16  H   UNL     1     -45.760  33.928  25.159  1.00  0.00     0.066 H 
BRANCH   3  17
ATOM     17  N   UNL     1     -50.022  27.890  24.497  1.00  0.00    -0.370 N 
ATOM     18  H   UNL     1     -50.598  27.891  23.663  1.00  0.00     0.162 HD
BRANCH  17  19
ATOM     19  C   UNL     1     -49.473  26.567  24.788  1.00  0.00     0.013 C 
ATOM     20  H   UNL     1     -50.025  25.770  24.274  1.00  0.00     0.049 H 
ATOM     21  H   UNL     1     -48.456  26.539  24.381  1.00  0.00     0.049 H 
BRANCH  19  22
ATOM     22  C   UNL     1     -49.394  26.305  26.284  1.00  0.00    -0.048 C 
ATOM     23  H   UNL     1     -50.380  26.337  26.757  1.00  0.00     0.025 H 
ATOM     24  H   UNL     1     -48.963  25.317  26.472  1.00  0.00     0.025 H 
ATOM     25  H   UNL     1     -48.762  27.051  26.779  1.00  0.00     0.025 H 
ENDBRANCH  19  22
ENDBRANCH  17  19
ENDBRANCH   3  17
ENDBRANCH   1   2
BRANCH   1  26
ATOM     26  C   UNL     1     -46.692  35.332  26.650  1.00  0.00     0.117 C 
ATOM     27  H   UNL     1     -45.780  34.921  26.200  1.00  0.00     0.073 H 
ATOM     28  H   UNL     1     -47.139  35.976  25.887  1.00  0.00     0.073 H 
BRANCH  26  29
ATOM     29  C   UNL     1     -46.280  36.119  27.902  1.00  0.00     0.123 C 
ATOM     30  O   UNL     1     -45.137  36.961  27.666  1.00  0.00    -0.345 OA
ATOM     31  C   UNL     1     -47.352  37.048  28.447  1.00  0.00     0.114 C 
ATOM     32  H   UNL     1     -45.980  35.387  28.664  1.00  0.00     0.067 H 
ATOM     33  C   UNL     1     -45.162  38.007  28.672  1.00  0.00     0.164 C 
ATOM     34  C   UNL     1     -46.547  37.976  29.342  1.00  0.00     0.128 C 
ATOM     35  H   UNL     1     -47.819  37.635  27.649  1.00  0.00     0.066 H 
ATOM     36  H   UNL     1     -44.362  37.784  29.389  1.00  0.00     0.088 H 
ATOM     37  H   UNL     1     -47.043  38.946  29.446  1.00  0.00     0.068 H 
BRANCH  31  38
ATOM     38  O   UNL     1     -48.362  36.356  29.174  1.00  0.00    -0.387 OA
ATOM     39  H   UNL     1     -49.116  36.980  29.228  1.00  0.00     0.211 HD
ENDBRANCH  31  38
BRANCH  33  40
ATOM     40  N   UNL     1     -44.819  39.292  28.075  1.00  0.00    -0.303 N 
ATOM     41  C   UNL     1     -45.344  39.840  26.941  1.00  0.00     0.013 A 
ATOM     42  C   UNL     1     -43.821  40.107  28.544  1.00  0.00     0.147 A 
ATOM     43  C   UNL     1     -44.746  41.066  26.699  1.00  0.00    -0.014 A 
ATOM     44  H   UNL     1     -46.101  39.318  26.373  1.00  0.00     0.082 H 
ATOM     45  C   UNL     1     -43.763  41.245  27.740  1.00  0.00     0.065 A 
ATOM     46  N   UNL     1     -43.053  39.829  29.613  1.00  0.00    -0.218 NA
ATOM     47  C   UNL     1     -42.804  42.205  28.118  1.00  0.00     0.136 A 
ATOM     48  C   UNL     1     -42.174  40.812  29.858  1.00  0.00     0.120 A 
ATOM     49  N   UNL     1     -42.019  41.965  29.189  1.00  0.00    -0.219 NA
ATOM     50  H   UNL     1     -41.509  40.662  30.702  1.00  0.00     0.106 H 
BRANCH  43  51
ATOM     51  C   UNL     1     -45.126  41.930  25.533  1.00  0.00    -0.014 C 
ATOM     52  C   UNL     1     -44.009  42.250  24.533  1.00  0.00    -0.046 C 
ATOM     53  C   UNL     1     -45.750  43.272  25.915  1.00  0.00    -0.046 C 
ATOM     54  H   UNL     1     -45.891  41.384  24.962  1.00  0.00     0.035 H 
ATOM     55  C   UNL     1     -44.171  43.728  24.179  1.00  0.00    -0.053 C 
ATOM     56  H   UNL     1     -44.137  41.635  23.633  1.00  0.00     0.027 H 
ATOM     57  H   UNL     1     -43.000  42.042  24.903  1.00  0.00     0.027 H 
ATOM     58  C   UNL     1     -45.564  44.108  24.659  1.00  0.00    -0.053 C 
ATOM     59  H   UNL     1     -45.246  43.739  26.766  1.00  0.00     0.027 H 
ATOM     60  H   UNL     1     -46.807  43.171  26.181  1.00  0.00     0.027 H 
ATOM     61  H   UNL     1     -44.040  43.912  23.109  1.00  0.00     0.027 H 
ATOM     62  H   UNL     1     -43.419  44.324  24.709  1.00  0.00     0.027 H 
ATOM     63  H   UNL     1     -45.658  45.180  24.854  1.00  0.00     0.027 H 
ATOM     64  H   UNL     1     -46.310  43.830  23.905  1.00  0.00     0.027 H 
ENDBRANCH  43  51
BRANCH  47  65
ATOM     65  N   UNL     1     -42.592  43.419  27.484  1.00  0.00    -0.383 N 
ATOM     66  H   UNL     1     -41.623  43.702  27.589  1.00  0.00     0.158 HD
ATOM     67  H   UNL     1     -43.279  44.126  27.692  1.00  0.00     0.158 HD
ENDBRANCH  47  65
ENDBRANCH  33  40
BRANCH  34  68
ATOM     68  O   UNL     1     -46.476  37.399  30.663  1.00  0.00    -0.386 OA
ATOM     69  H   UNL     1     -46.895  38.049  31.261  1.00  0.00     0.211 HD
ENDBRANCH  34  68
ENDBRANCH  26  29
ENDBRANCH   1  26
TORSDOF 11
ENDMDL
MODEL 2
REMARK VINA RESULT:      -9.5      1.472      2.225
REMARK SMILES CCNc1ccc2ccc(OC[C@H]3O[C@@H](n4cc(C5CCCC5)c5c(N)ncnc54)[C@H](O)[C@@H]3O)cc2n1
REMARK SMILES IDX 11 1 10 2 4 3 5 4 37 5 6 6 36 8 7 9 35 11 8 12 9 14 3 17
REMARK SMILES IDX 2 19 1 22 12 26 13 29 14 30 33 31 15 33 31 34 34 38 16 40
REMARK SMILES IDX 17 41 30 42 18 43 24 45 29 46 25 47 28 48 27 49 19 51 20 52
REMARK SMILES IDX 23 53 21 55 22 58 26 65 32 68
REMARK H PARENT 5 7 6 10 35 13 8 15 9 16 3 18 2 20 2 21 1 23 1 24 1 25 12 27
REMARK H PARENT 12 28 13 32 33 35 15 36 31 37 34 39 17 44 28 50 19 54 20 56
REMARK H PARENT 20 57 23 59 23 60 21 61 21 62 22 63 22 64 26 66 26 67 32 69
REMARK Flexibility Score: inf
ROOT
ATOM      1  O   UNL     1     -46.034  34.351  26.276  1.00  0.00    -0.491 OA
ENDROOT
BRANCH   1   2
ATOM      2  C   UNL     1     -46.625  33.253  25.727  1.00  0.00     0.121 A 
ATOM      3  C   UNL     1     -47.846  30.323  22.183  1.00  0.00     0.126 A 
ATOM      4  C   UNL     1     -48.609  29.532  23.033  1.00  0.00    -0.019 A 
ATOM      5  N   UNL     1     -47.154  31.383  22.643  1.00  0.00    -0.231 NA
ATOM      6  C   UNL     1     -48.696  29.863  24.382  1.00  0.00    -0.049 A 
ATOM      7  H   UNL     1     -49.130  28.659  22.655  1.00  0.00     0.066 H 
ATOM      8  C   UNL     1     -47.229  31.714  23.944  1.00  0.00     0.076 A 
ATOM      9  C   UNL     1     -48.006  30.979  24.860  1.00  0.00     0.001 A 
ATOM     10  H   UNL     1     -49.297  29.251  25.047  1.00  0.00     0.063 H 
ATOM     11  C   UNL     1     -46.541  32.834  24.402  1.00  0.00     0.007 A 
ATOM     12  C   UNL     1     -48.076  31.375  26.202  1.00  0.00    -0.049 A 
ATOM     13  H   UNL     1     -45.962  33.384  23.668  1.00  0.00     0.069 H 
ATOM     14  C   UNL     1     -47.389  32.510  26.627  1.00  0.00    -0.019 A 
ATOM     15  H   UNL     1     -48.670  30.814  26.918  1.00  0.00     0.063 H 
ATOM     16  H   UNL     1     -47.456  32.823  27.667  1.00  0.00     0.066 H 
BRANCH   3  17
ATOM     17  N   UNL     1     -47.776  29.957  20.830  1.00  0.00    -0.370 N 
ATOM     18  H   UNL     1     -48.211  29.051  20.693  1.00  0.00     0.162 HD
BRANCH  17  19
ATOM     19  C   UNL     1     -48.247  30.948  19.866  1.00  0.00     0.013 C 
ATOM     20  H   UNL     1     -47.739  31.913  19.984  1.00  0.00     0.049 H 
ATOM     21  H   UNL     1     -47.976  30.587  18.867  1.00  0.00     0.049 H 
BRANCH  19  22
ATOM     22  C   UNL     1     -49.759  31.111  19.918  1.00  0.00    -0.048 C 
ATOM     23  H   UNL     1     -50.227  30.367  20.568  1.00  0.00     0.025 H 
ATOM     24  H   UNL     1     -50.019  32.103  20.299  1.00  0.00     0.025 H 
ATOM     25  H   UNL     1     -50.199  31.005  18.920  1.00  0.00     0.025 H 
ENDBRANCH  19  22
ENDBRANCH  17  19
ENDBRANCH   3  17
ENDBRANCH   1   2
BRANCH   1  26
ATOM     26  C   UNL     1     -46.812  35.506  26.605  1.00  0.00     0.117 C 
ATOM     27  H   UNL     1     -46.700  36.178  25.746  1.00  0.00     0.073 H 
ATOM     28  H   UNL     1     -47.880  35.277  26.670  1.00  0.00     0.073 H 
BRANCH  26  29
ATOM     29  C   UNL     1     -46.304  36.249  27.848  1.00  0.00     0.123 C 
ATOM     30  O   UNL     1     -45.164  37.080  27.561  1.00  0.00    -0.345 OA
ATOM     31  C   UNL     1     -47.322  37.179  28.490  1.00  0.00     0.114 C 
ATOM     32  H   UNL     1     -45.968  35.490  28.567  1.00  0.00     0.067 H 
ATOM     33  C   UNL     1     -45.104  38.096  28.595  1.00  0.00     0.164 C 
ATOM     34  C   UNL     1     -46.442  38.067  29.355  1.00  0.00     0.128 C 
ATOM     35  H   UNL     1     -47.830  37.796  27.742  1.00  0.00     0.066 H 
ATOM     36  H   UNL     1     -44.263  37.839  29.251  1.00  0.00     0.088 H 
ATOM     37  H   UNL     1     -46.913  39.041  29.519  1.00  0.00     0.068 H 
BRANCH  31  38
ATOM     38  O   UNL     1     -48.293  36.482  29.262  1.00  0.00    -0.387 OA
ATOM     39  H   UNL     1     -49.030  37.116  29.385  1.00  0.00     0.211 HD
ENDBRANCH  31  38
BRANCH  33  40
ATOM     40  N   UNL     1     -44.778  39.392  28.013  1.00  0.00    -0.303 N 
ATOM     41  C   UNL     1     -45.316  39.949  26.889  1.00  0.00     0.013 A 
ATOM     42  C   UNL     1     -43.787  40.212  28.487  1.00  0.00     0.147 A 
ATOM     43  C   UNL     1     -44.732  41.185  26.660  1.00  0.00    -0.014 A 
ATOM     44  H   UNL     1     -46.070  39.426  26.318  1.00  0.00     0.082 H 
ATOM     45  C   UNL     1     -43.746  41.361  27.697  1.00  0.00     0.065 A 
ATOM     46  N   UNL     1     -43.011  39.928  29.549  1.00  0.00    -0.218 NA
ATOM     47  C   UNL     1     -42.796  42.326  28.083  1.00  0.00     0.136 A 
ATOM     48  C   UNL     1     -42.141  40.918  29.801  1.00  0.00     0.120 A 
ATOM     49  N   UNL     1     -42.003  42.082  29.147  1.00  0.00    -0.219 NA
ATOM     50  H   UNL     1     -41.470  40.765  30.640  1.00  0.00     0.106 H 
BRANCH  43  51
ATOM     51  C   UNL     1     -45.129  42.059  25.507  1.00  0.00    -0.014 C 
ATOM     52  C   UNL     1     -44.024  42.392  24.497  1.00  0.00    -0.046 C 
ATOM     53  C   UNL     1     -45.752  43.395  25.910  1.00  0.00    -0.046 C 
ATOM     54  H   UNL     1     -45.899  41.517  24.940  1.00  0.00     0.035 H 
ATOM     55  C   UNL     1     -44.194  43.874  24.161  1.00  0.00    -0.053 C 
ATOM     56  H   UNL     1     -44.160  41.787  23.593  1.00  0.00     0.027 H 
ATOM     57  H   UNL     1     -43.010  42.184  24.854  1.00  0.00     0.027 H 
ATOM     58  C   UNL     1     -45.583  44.245  24.660  1.00  0.00    -0.053 C 
ATOM     59  H   UNL     1     -45.239  43.855  26.760  1.00  0.00     0.027 H 
ATOM     60  H   UNL     1     -46.806  43.288  26.187  1.00  0.00     0.027 H 
ATOM     61  H   UNL     1     -44.077  44.069  23.091  1.00  0.00     0.027 H 
ATOM     62  H   UNL     1     -43.438  44.466  24.688  1.00  0.00     0.027 H 
ATOM     63  H   UNL     1     -45.678  45.314  24.867  1.00  0.00     0.027 H 
ATOM     64  H   UNL     1     -46.337  43.972  23.913  1.00  0.00     0.027 H 
ENDBRANCH  43  51
BRANCH  47  65
ATOM     65  N   UNL     1     -42.601  43.551  27.464  1.00  0.00    -0.383 N 
ATOM     66  H   UNL     1     -43.439  43.823  26.960  1.00  0.00     0.158 HD
ATOM     67  H   UNL     1     -41.738  43.629  26.951  1.00  0.00     0.158 HD
ENDBRANCH  47  65
ENDBRANCH  33  40
BRANCH  34  68
ATOM     68  O   UNL     1     -46.294  37.450  30.651  1.00  0.00    -0.386 OA
ATOM     69  H   UNL     1     -47.203  37.303  30.981  1.00  0.00     0.211 HD
ENDBRANCH  34  68
ENDBRANCH  26  29
ENDBRANCH   1  26
TORSDOF 11
ENDMDL
MODEL 3
REMARK VINA RESULT:      -9.0      2.047     11.454
REMARK SMILES CCNc1ccc2ccc(OC[C@H]3O[C@@H](n4cc(C5CCCC5)c5c(N)ncnc54)[C@H](O)[C@@H]3O)cc2n1
REMARK SMILES IDX 11 1 10 2 4 3 5 4 37 5 6 6 36 8 7 9 35 11 8 12 9 14 3 17
REMARK SMILES IDX 2 19 1 22 12 26 13 29 14 30 33 31 15 33 31 34 34 38 16 40
REMARK SMILES IDX 17 41 30 42 18 43 24 45 29 46 25 47 28 48 27 49 19 51 20 52
REMARK SMILES IDX 23 53 21 55 22 58 26 65 32 68
REMARK H PARENT 5 7 6 10 35 13 8 15 9 16 3 18 2 20 2 21 1 23 1 24 1 25 12 27
REMARK H PARENT 12 28 13 32 33 35 15 36 31 37 34 39 17 44 28 50 19 54 20 56
REMARK H PARENT 20 57 23 59 23 60 21 61 21 62 22 63 22 64 26 66 26 67 32 69
REMARK Flexibility Score: inf
ROOT
ATOM      1  O   UNL     1     -48.154  36.690  27.776  1.00  0.00    -0.491 OA
ENDROOT
BRANCH   1   2
ATOM      2  C   UNL     1     -47.103  37.536  27.971  1.00  0.00     0.121 A 
ATOM      3  C   UNL     1     -44.084  41.016  26.784  1.00  0.00     0.126 A 
ATOM      4  C   UNL     1     -43.345  40.840  27.947  1.00  0.00    -0.019 A 
ATOM      5  N   UNL     1     -45.190  40.288  26.537  1.00  0.00    -0.231 NA
ATOM      6  C   UNL     1     -43.728  39.861  28.859  1.00  0.00    -0.049 A 
ATOM      7  H   UNL     1     -42.479  41.460  28.149  1.00  0.00     0.066 H 
ATOM      8  C   UNL     1     -45.571  39.340  27.411  1.00  0.00     0.076 A 
ATOM      9  C   UNL     1     -44.856  39.081  28.595  1.00  0.00     0.001 A 
ATOM     10  H   UNL     1     -43.147  39.717  29.765  1.00  0.00     0.063 H 
ATOM     11  C   UNL     1     -46.693  38.566  27.129  1.00  0.00     0.007 A 
ATOM     12  C   UNL     1     -45.274  38.065  29.465  1.00  0.00    -0.049 A 
ATOM     13  H   UNL     1     -47.214  38.783  26.202  1.00  0.00     0.069 H 
ATOM     14  C   UNL     1     -46.391  37.297  29.147  1.00  0.00    -0.019 A 
ATOM     15  H   UNL     1     -44.732  37.860  30.383  1.00  0.00     0.063 H 
ATOM     16  H   UNL     1     -46.707  36.501  29.817  1.00  0.00     0.066 H 
BRANCH   3  17
ATOM     17  N   UNL     1     -43.673  42.016  25.889  1.00  0.00    -0.370 N 
ATOM     18  H   UNL     1     -42.823  41.729  25.414  1.00  0.00     0.162 HD
BRANCH  17  19
ATOM     19  C   UNL     1     -44.686  42.507  24.958  1.00  0.00     0.013 C 
ATOM     20  H   UNL     1     -45.437  41.742  24.724  1.00  0.00     0.049 H 
ATOM     21  H   UNL     1     -45.228  43.316  25.462  1.00  0.00     0.049 H 
BRANCH  19  22
ATOM     22  C   UNL     1     -44.062  43.071  23.690  1.00  0.00    -0.048 C 
ATOM     23  H   UNL     1     -43.868  44.145  23.774  1.00  0.00     0.025 H 
ATOM     24  H   UNL     1     -43.110  42.573  23.483  1.00  0.00     0.025 H 
ATOM     25  H   UNL     1     -44.720  42.918  22.828  1.00  0.00     0.025 H 
ENDBRANCH  19  22
ENDBRANCH  17  19
ENDBRANCH   3  17
ENDBRANCH   1   2
BRANCH   1  26
ATOM     26  C   UNL     1     -48.175  35.806  26.651  1.00  0.00     0.117 C 
ATOM     27  H   UNL     1     -49.213  35.818  26.301  1.00  0.00     0.073 H 
ATOM     28  H   UNL     1     -47.573  36.185  25.819  1.00  0.00     0.073 H 
BRANCH  26  29
ATOM     29  C   UNL     1     -47.819  34.356  27.009  1.00  0.00     0.123 C 
ATOM     30  O   UNL     1     -48.823  33.424  26.572  1.00  0.00    -0.345 OA
ATOM     31  C   UNL     1     -46.519  33.855  26.400  1.00  0.00     0.114 C 
ATOM     32  H   UNL     1     -47.782  34.290  28.105  1.00  0.00     0.067 H 
ATOM     33  C   UNL     1     -48.184  32.125  26.465  1.00  0.00     0.164 C 
ATOM     34  C   UNL     1     -46.663  32.348  26.536  1.00  0.00     0.128 C 
ATOM     35  H   UNL     1     -46.446  34.115  25.339  1.00  0.00     0.066 H 
ATOM     36  H   UNL     1     -48.542  31.520  27.307  1.00  0.00     0.088 H 
ATOM     37  H   UNL     1     -46.073  31.829  25.774  1.00  0.00     0.068 H 
BRANCH  31  38
ATOM     38  O   UNL     1     -45.369  34.341  27.083  1.00  0.00    -0.387 OA
ATOM     39  H   UNL     1     -44.645  33.724  26.844  1.00  0.00     0.211 HD
ENDBRANCH  31  38
BRANCH  33  40
ATOM     40  N   UNL     1     -48.629  31.439  25.259  1.00  0.00    -0.303 N 
ATOM     41  C   UNL     1     -49.064  32.011  24.099  1.00  0.00     0.013 A 
ATOM     42  C   UNL     1     -48.757  30.077  25.160  1.00  0.00     0.147 A 
ATOM     43  C   UNL     1     -49.410  31.019  23.195  1.00  0.00    -0.014 A 
ATOM     44  H   UNL     1     -49.112  33.086  23.995  1.00  0.00     0.082 H 
ATOM     45  C   UNL     1     -49.206  29.765  23.877  1.00  0.00     0.065 A 
ATOM     46  N   UNL     1     -48.475  29.215  26.154  1.00  0.00    -0.218 NA
ATOM     47  C   UNL     1     -49.353  28.391  23.606  1.00  0.00     0.136 A 
ATOM     48  C   UNL     1     -48.670  27.944  25.773  1.00  0.00     0.120 A 
ATOM     49  N   UNL     1     -49.075  27.495  24.574  1.00  0.00    -0.219 NA
ATOM     50  H   UNL     1     -48.472  27.183  26.521  1.00  0.00     0.106 H 
BRANCH  43  51
ATOM     51  C   UNL     1     -49.906  31.329  21.813  1.00  0.00    -0.014 C 
ATOM     52  C   UNL     1     -51.319  30.840  21.474  1.00  0.00    -0.046 C 
ATOM     53  C   UNL     1     -49.002  30.827  20.687  1.00  0.00    -0.046 C 
ATOM     54  H   UNL     1     -49.938  32.424  21.719  1.00  0.00     0.035 H 
ATOM     55  C   UNL     1     -51.242  30.280  20.054  1.00  0.00    -0.053 C 
ATOM     56  H   UNL     1     -52.017  31.686  21.504  1.00  0.00     0.027 H 
ATOM     57  H   UNL     1     -51.716  30.093  22.170  1.00  0.00     0.027 H 
ATOM     58  C   UNL     1     -49.931  30.804  19.484  1.00  0.00    -0.053 C 
ATOM     59  H   UNL     1     -48.606  29.827  20.886  1.00  0.00     0.027 H 
ATOM     60  H   UNL     1     -48.145  31.488  20.525  1.00  0.00     0.027 H 
ATOM     61  H   UNL     1     -52.102  30.578  19.447  1.00  0.00     0.027 H 
ATOM     62  H   UNL     1     -51.224  29.185  20.084  1.00  0.00     0.027 H 
ATOM     63  H   UNL     1     -49.550  30.175  18.675  1.00  0.00     0.027 H 
ATOM     64  H   UNL     1     -50.070  31.819  19.094  1.00  0.00     0.027 H 
ENDBRANCH  43  51
BRANCH  47  65
ATOM     65  N   UNL     1     -49.756  27.853  22.394  1.00  0.00    -0.383 N 
ATOM     66  H   UNL     1     -49.012  27.286  22.001  1.00  0.00     0.158 HD
ATOM     67  H   UNL     1     -50.183  28.512  21.763  1.00  0.00     0.158 HD
ENDBRANCH  47  65
ENDBRANCH  33  40
BRANCH  34  68
ATOM     68  O   UNL     1     -46.135  31.947  27.818  1.00  0.00    -0.386 OA
ATOM     69  H   UNL     1     -46.290  30.983  27.880  1.00  0.00     0.211 HD
ENDBRANCH  34  68
ENDBRANCH  26  29
ENDBRANCH   1  26
TORSDOF 11
ENDMDL
MODEL 4
REMARK VINA RESULT:      -8.8      2.747      4.028
REMARK SMILES CCNc1ccc2ccc(OC[C@H]3O[C@@H](n4cc(C5CCCC5)c5c(N)ncnc54)[C@H](O)[C@@H]3O)cc2n1
REMARK SMILES IDX 11 1 10 2 4 3 5 4 37 5 6 6 36 8 7 9 35 11 8 12 9 14 3 17
REMARK SMILES IDX 2 19 1 22 12 26 13 29 14 30 33 31 15 33 31 34 34 38 16 40
REMARK SMILES IDX 17 41 30 42 18 43 24 45 29 46 25 47 28 48 27 49 19 51 20 52
REMARK SMILES IDX 23 53 21 55 22 58 26 65 32 68
REMARK H PARENT 5 7 6 10 35 13 8 15 9 16 3 18 2 20 2 21 1 23 1 24 1 25 12 27
REMARK H PARENT 12 28 13 32 33 35 15 36 31 37 34 39 17 44 28 50 19 54 20 56
REMARK H PARENT 20 57 23 59 23 60 21 61 21 62 22 63 22 64 26 66 26 67 32 69
REMARK Flexibility Score: inf
ROOT
ATOM      1  O   UNL     1     -46.734  35.294  26.780  1.00  0.00    -0.491 OA
ENDROOT
BRANCH   1   2
ATOM      2  C   UNL     1     -47.140  34.204  26.068  1.00  0.00     0.121 A 
ATOM      3  C   UNL     1     -46.876  30.985  22.575  1.00  0.00     0.126 A 
ATOM      4  C   UNL     1     -48.081  30.403  22.953  1.00  0.00    -0.019 A 
ATOM      5  N   UNL     1     -46.346  32.013  23.265  1.00  0.00    -0.231 NA
ATOM      6  C   UNL     1     -48.777  30.918  24.042  1.00  0.00    -0.049 A 
ATOM      7  H   UNL     1     -48.475  29.551  22.410  1.00  0.00     0.066 H 
ATOM      8  C   UNL     1     -47.010  32.519  24.319  1.00  0.00     0.076 A 
ATOM      9  C   UNL     1     -48.249  32.003  24.743  1.00  0.00     0.001 A 
ATOM     10  H   UNL     1     -49.722  30.470  24.334  1.00  0.00     0.063 H 
ATOM     11  C   UNL     1     -46.472  33.606  25.003  1.00  0.00     0.007 A 
ATOM     12  C   UNL     1     -48.918  32.579  25.831  1.00  0.00    -0.049 A 
ATOM     13  H   UNL     1     -45.522  33.986  24.643  1.00  0.00     0.069 H 
ATOM     14  C   UNL     1     -48.363  33.677  26.484  1.00  0.00    -0.019 A 
ATOM     15  H   UNL     1     -49.873  32.187  26.168  1.00  0.00     0.063 H 
ATOM     16  H   UNL     1     -48.890  34.130  27.320  1.00  0.00     0.066 H 
BRANCH   3  17
ATOM     17  N   UNL     1     -46.197  30.436  21.476  1.00  0.00    -0.370 N 
ATOM     18  H   UNL     1     -46.719  29.651  21.102  1.00  0.00     0.162 HD
BRANCH  17  19
ATOM     19  C   UNL     1     -45.789  31.375  20.434  1.00  0.00     0.013 C 
ATOM     20  H   UNL     1     -45.300  32.265  20.848  1.00  0.00     0.049 H 
ATOM     21  H   UNL     1     -45.030  30.874  19.821  1.00  0.00     0.049 H 
BRANCH  19  22
ATOM     22  C   UNL     1     -46.953  31.756  19.531  1.00  0.00    -0.048 C 
ATOM     23  H   UNL     1     -47.086  32.840  19.473  1.00  0.00     0.025 H 
ATOM     24  H   UNL     1     -46.781  31.384  18.516  1.00  0.00     0.025 H 
ATOM     25  H   UNL     1     -47.890  31.323  19.896  1.00  0.00     0.025 H 
ENDBRANCH  19  22
ENDBRANCH  17  19
ENDBRANCH   3  17
ENDBRANCH   1   2
BRANCH   1  26
ATOM     26  C   UNL     1     -46.187  35.139  28.092  1.00  0.00     0.117 C 
ATOM     27  H   UNL     1     -47.054  34.982  28.745  1.00  0.00     0.073 H 
ATOM     28  H   UNL     1     -45.577  34.235  28.181  1.00  0.00     0.073 H 
BRANCH  26  29
ATOM     29  C   UNL     1     -45.446  36.387  28.594  1.00  0.00     0.123 C 
ATOM     30  O   UNL     1     -45.388  37.425  27.599  1.00  0.00    -0.345 OA
ATOM     31  C   UNL     1     -46.067  37.043  29.817  1.00  0.00     0.114 C 
ATOM     32  H   UNL     1     -44.409  36.089  28.800  1.00  0.00     0.067 H 
ATOM     33  C   UNL     1     -45.175  38.678  28.299  1.00  0.00     0.164 C 
ATOM     34  C   UNL     1     -45.431  38.424  29.796  1.00  0.00     0.128 C 
ATOM     35  H   UNL     1     -47.151  37.145  29.711  1.00  0.00     0.066 H 
ATOM     36  H   UNL     1     -44.136  38.978  28.114  1.00  0.00     0.088 H 
ATOM     37  H   UNL     1     -46.072  39.156  30.296  1.00  0.00     0.068 H 
BRANCH  31  38
ATOM     38  O   UNL     1     -45.776  36.344  31.022  1.00  0.00    -0.387 OA
ATOM     39  H   UNL     1     -45.875  35.394  30.801  1.00  0.00     0.211 HD
ENDBRANCH  31  38
BRANCH  33  40
ATOM     40  N   UNL     1     -46.005  39.727  27.723  1.00  0.00    -0.303 N 
ATOM     41  C   UNL     1     -47.362  39.847  27.812  1.00  0.00     0.013 A 
ATOM     42  C   UNL     1     -45.523  40.721  26.910  1.00  0.00     0.147 A 
ATOM     43  C   UNL     1     -47.774  40.973  27.119  1.00  0.00    -0.014 A 
ATOM     44  H   UNL     1     -47.947  39.117  28.353  1.00  0.00     0.082 H 
ATOM     45  C   UNL     1     -46.584  41.545  26.538  1.00  0.00     0.065 A 
ATOM     46  N   UNL     1     -44.230  40.853  26.561  1.00  0.00    -0.218 NA
ATOM     47  C   UNL     1     -46.241  42.643  25.726  1.00  0.00     0.136 A 
ATOM     48  C   UNL     1     -44.040  41.925  25.777  1.00  0.00     0.120 A 
ATOM     49  N   UNL     1     -44.954  42.814  25.359  1.00  0.00    -0.219 NA
ATOM     50  H   UNL     1     -43.022  42.101  25.443  1.00  0.00     0.106 H 
BRANCH  43  51
ATOM     51  C   UNL     1     -49.213  41.392  27.048  1.00  0.00    -0.014 C 
ATOM     52  C   UNL     1     -49.546  42.776  27.617  1.00  0.00    -0.046 C 
ATOM     53  C   UNL     1     -50.190  40.417  27.704  1.00  0.00    -0.046 C 
ATOM     54  H   UNL     1     -49.486  41.433  25.983  1.00  0.00     0.035 H 
ATOM     55  C   UNL     1     -50.850  42.608  28.397  1.00  0.00    -0.053 C 
ATOM     56  H   UNL     1     -49.694  43.485  26.793  1.00  0.00     0.027 H 
ATOM     57  H   UNL     1     -48.762  43.203  28.250  1.00  0.00     0.027 H 
ATOM     58  C   UNL     1     -51.424  41.273  27.942  1.00  0.00    -0.053 C 
ATOM     59  H   UNL     1     -49.810  40.019  28.650  1.00  0.00     0.027 H 
ATOM     60  H   UNL     1     -50.410  39.560  27.058  1.00  0.00     0.027 H 
ATOM     61  H   UNL     1     -51.545  43.434  28.221  1.00  0.00     0.027 H 
ATOM     62  H   UNL     1     -50.642  42.578  29.472  1.00  0.00     0.027 H 
ATOM     63  H   UNL     1     -52.097  40.837  28.684  1.00  0.00     0.027 H 
ATOM     64  H   UNL     1     -51.981  41.402  27.007  1.00  0.00     0.027 H 
ENDBRANCH  43  51
BRANCH  47  65
ATOM     65  N   UNL     1     -47.125  43.605  25.264  1.00  0.00    -0.383 N 
ATOM     66  H   UNL     1     -47.800  43.183  24.634  1.00  0.00     0.158 HD
ATOM     67  H   UNL     1     -46.690  44.452  24.935  1.00  0.00     0.158 HD
ENDBRANCH  47  65
ENDBRANCH  33  40
BRANCH  34  68
ATOM     68  O   UNL     1     -44.194  38.375  30.537  1.00  0.00    -0.386 OA
ATOM     69  H   UNL     1     -44.163  39.202  31.058  1.00  0.00     0.211 HD
ENDBRANCH  34  68
ENDBRANCH  26  29
ENDBRANCH   1  26
TORSDOF 11
ENDMDL
MODEL 5
REMARK VINA RESULT:      -8.8      1.898      2.973
REMARK SMILES CCNc1ccc2ccc(OC[C@H]3O[C@@H](n4cc(C5CCCC5)c5c(N)ncnc54)[C@H](O)[C@@H]3O)cc2n1
REMARK SMILES IDX 11 1 10 2 4 3 5 4 37 5 6 6 36 8 7 9 35 11 8 12 9 14 3 17
REMARK SMILES IDX 2 19 1 22 12 26 13 29 14 30 33 31 15 33 31 34 34 38 16 40
REMARK SMILES IDX 17 41 30 42 18 43 24 45 29 46 25 47 28 48 27 49 19 51 20 52
REMARK SMILES IDX 23 53 21 55 22 58 26 65 32 68
REMARK H PARENT 5 7 6 10 35 13 8 15 9 16 3 18 2 20 2 21 1 23 1 24 1 25 12 27
REMARK H PARENT 12 28 13 32 33 35 15 36 31 37 34 39 17 44 28 50 19 54 20 56
REMARK H PARENT 20 57 23 59 23 60 21 61 21 62 22 63 22 64 26 66 26 67 32 69
REMARK Flexibility Score: inf
ROOT
ATOM      1  O   UNL     1     -46.620  33.858  25.689  1.00  0.00    -0.491 OA
ENDROOT
BRANCH   1   2
ATOM      2  C   UNL     1     -46.903  32.647  25.132  1.00  0.00     0.121 A 
ATOM      3  C   UNL     1     -49.069  28.419  24.861  1.00  0.00     0.126 A 
ATOM      4  C   UNL     1     -48.337  28.060  23.735  1.00  0.00    -0.019 A 
ATOM      5  N   UNL     1     -48.925  29.628  25.437  1.00  0.00    -0.231 NA
ATOM      6  C   UNL     1     -47.403  28.951  23.214  1.00  0.00    -0.049 A 
ATOM      7  H   UNL     1     -48.493  27.098  23.260  1.00  0.00     0.066 H 
ATOM      8  C   UNL     1     -48.025  30.497  24.943  1.00  0.00     0.076 A 
ATOM      9  C   UNL     1     -47.226  30.193  23.825  1.00  0.00     0.001 A 
ATOM     10  H   UNL     1     -46.825  28.669  22.339  1.00  0.00     0.063 H 
ATOM     11  C   UNL     1     -47.855  31.729  25.568  1.00  0.00     0.007 A 
ATOM     12  C   UNL     1     -46.282  31.120  23.359  1.00  0.00    -0.049 A 
ATOM     13  H   UNL     1     -48.479  31.926  26.433  1.00  0.00     0.069 H 
ATOM     14  C   UNL     1     -46.124  32.338  24.017  1.00  0.00    -0.019 A 
ATOM     15  H   UNL     1     -45.662  30.897  22.496  1.00  0.00     0.063 H 
ATOM     16  H   UNL     1     -45.383  33.050  23.662  1.00  0.00     0.066 H 
BRANCH   3  17
ATOM     17  N   UNL     1     -50.007  27.500  25.356  1.00  0.00    -0.370 N 
ATOM     18  H   UNL     1     -50.931  27.721  25.001  1.00  0.00     0.162 HD
BRANCH  17  19
ATOM     19  C   UNL     1     -49.676  26.086  25.191  1.00  0.00     0.013 C 
ATOM     20  H   UNL     1     -50.566  25.474  24.999  1.00  0.00     0.049 H 
ATOM     21  H   UNL     1     -49.052  25.998  24.294  1.00  0.00     0.049 H 
BRANCH  19  22
ATOM     22  C   UNL     1     -48.884  25.550  26.375  1.00  0.00    -0.048 C 
ATOM     23  H   UNL     1     -48.055  24.912  26.056  1.00  0.00     0.025 H 
ATOM     24  H   UNL     1     -48.467  26.379  26.956  1.00  0.00     0.025 H 
ATOM     25  H   UNL     1     -49.524  24.958  27.038  1.00  0.00     0.025 H 
ENDBRANCH  19  22
ENDBRANCH  17  19
ENDBRANCH   3  17
ENDBRANCH   1   2
BRANCH   1  26
ATOM     26  C   UNL     1     -46.296  33.959  27.079  1.00  0.00     0.117 C 
ATOM     27  H   UNL     1     -46.540  32.976  27.499  1.00  0.00     0.073 H 
ATOM     28  H   UNL     1     -45.222  34.097  27.242  1.00  0.00     0.073 H 
BRANCH  26  29
ATOM     29  C   UNL     1     -47.133  35.007  27.825  1.00  0.00     0.123 C 
ATOM     30  O   UNL     1     -46.348  36.137  28.244  1.00  0.00    -0.345 OA
ATOM     31  C   UNL     1     -48.278  35.596  27.016  1.00  0.00     0.114 C 
ATOM     32  H   UNL     1     -47.513  34.530  28.739  1.00  0.00     0.067 H 
ATOM     33  C   UNL     1     -47.263  37.247  28.434  1.00  0.00     0.164 C 
ATOM     34  C   UNL     1     -48.609  36.855  27.801  1.00  0.00     0.128 C 
ATOM     35  H   UNL     1     -47.954  35.876  26.008  1.00  0.00     0.066 H 
ATOM     36  H   UNL     1     -47.357  37.405  29.516  1.00  0.00     0.088 H 
ATOM     37  H   UNL     1     -49.064  37.610  27.153  1.00  0.00     0.068 H 
BRANCH  31  38
ATOM     38  O   UNL     1     -49.395  34.718  26.924  1.00  0.00    -0.387 OA
ATOM     39  H   UNL     1     -49.075  33.856  27.263  1.00  0.00     0.211 HD
ENDBRANCH  31  38
BRANCH  33  40
ATOM     40  N   UNL     1     -46.689  38.475  27.898  1.00  0.00    -0.303 N 
ATOM     41  C   UNL     1     -45.365  38.766  27.745  1.00  0.00     0.013 A 
ATOM     42  C   UNL     1     -47.431  39.573  27.548  1.00  0.00     0.147 A 
ATOM     43  C   UNL     1     -45.229  40.039  27.214  1.00  0.00    -0.014 A 
ATOM     44  H   UNL     1     -44.604  38.055  28.033  1.00  0.00     0.082 H 
ATOM     45  C   UNL     1     -46.566  40.562  27.079  1.00  0.00     0.065 A 
ATOM     46  N   UNL     1     -48.771  39.645  27.643  1.00  0.00    -0.218 NA
ATOM     47  C   UNL     1     -47.185  41.749  26.643  1.00  0.00     0.136 A 
ATOM     48  C   UNL     1     -49.232  40.828  27.211  1.00  0.00     0.120 A 
ATOM     49  N   UNL     1     -48.528  41.858  26.716  1.00  0.00    -0.219 NA
ATOM     50  H   UNL     1     -50.307  40.971  27.260  1.00  0.00     0.106 H 
BRANCH  43  51
ATOM     51  C   UNL     1     -43.891  40.643  26.906  1.00  0.00    -0.014 C 
ATOM     52  C   UNL     1     -43.168  41.322  28.075  1.00  0.00    -0.046 C 
ATOM     53  C   UNL     1     -43.901  41.660  25.765  1.00  0.00    -0.046 C 
ATOM     54  H   UNL     1     -43.232  39.823  26.583  1.00  0.00     0.035 H 
ATOM     55  C   UNL     1     -42.571  42.611  27.510  1.00  0.00    -0.053 C 
ATOM     56  H   UNL     1     -42.365  40.669  28.439  1.00  0.00     0.027 H 
ATOM     57  H   UNL     1     -43.806  41.531  28.939  1.00  0.00     0.027 H 
ATOM     58  C   UNL     1     -42.623  42.451  25.997  1.00  0.00    -0.053 C 
ATOM     59  H   UNL     1     -44.773  42.319  25.803  1.00  0.00     0.027 H 
ATOM     60  H   UNL     1     -43.905  41.175  24.784  1.00  0.00     0.027 H 
ATOM     61  H   UNL     1     -41.553  42.786  27.869  1.00  0.00     0.027 H 
ATOM     62  H   UNL     1     -43.179  43.470  27.815  1.00  0.00     0.027 H 
ATOM     63  H   UNL     1     -42.628  43.413  25.477  1.00  0.00     0.027 H 
ATOM     64  H   UNL     1     -41.756  41.878  25.649  1.00  0.00     0.027 H 
ENDBRANCH  43  51
BRANCH  47  65
ATOM     65  N   UNL     1     -46.527  42.848  26.114  1.00  0.00    -0.383 N 
ATOM     66  H   UNL     1     -46.215  42.646  25.170  1.00  0.00     0.158 HD
ATOM     67  H   UNL     1     -45.837  43.258  26.723  1.00  0.00     0.158 HD
ENDBRANCH  47  65
ENDBRANCH  33  40
BRANCH  34  68
ATOM     68  O   UNL     1     -49.587  36.526  28.810  1.00  0.00    -0.386 OA
ATOM     69  H   UNL     1     -49.372  37.088  29.582  1.00  0.00     0.211 HD
ENDBRANCH  34  68
ENDBRANCH  26  29
ENDBRANCH   1  26
TORSDOF 11
ENDMDL
MODEL 6
REMARK VINA RESULT:      -8.7      2.311     12.096
REMARK SMILES CCNc1ccc2ccc(OC[C@H]3O[C@@H](n4cc(C5CCCC5)c5c(N)ncnc54)[C@H](O)[C@@H]3O)cc2n1
REMARK SMILES IDX 11 1 10 2 4 3 5 4 37 5 6 6 36 8 7 9 35 11 8 12 9 14 3 17
REMARK SMILES IDX 2 19 1 22 12 26 13 29 14 30 33 31 15 33 31 34 34 38 16 40
REMARK SMILES IDX 17 41 30 42 18 43 24 45 29 46 25 47 28 48 27 49 19 51 20 52
REMARK SMILES IDX 23 53 21 55 22 58 26 65 32 68
REMARK H PARENT 5 7 6 10 35 13 8 15 9 16 3 18 2 20 2 21 1 23 1 24 1 25 12 27
REMARK H PARENT 12 28 13 32 33 35 15 36 31 37 34 39 17 44 28 50 19 54 20 56
REMARK H PARENT 20 57 23 59 23 60 21 61 21 62 22 63 22 64 26 66 26 67 32 69
REMARK Flexibility Score: inf
ROOT
ATOM      1  O   UNL     1     -47.303  35.281  26.216  1.00  0.00    -0.491 OA
ENDROOT
BRANCH   1   2
ATOM      2  C   UNL     1     -46.638  36.014  27.153  1.00  0.00     0.121 A 
ATOM      3  C   UNL     1     -44.010  39.659  28.717  1.00  0.00     0.126 A 
ATOM      4  C   UNL     1     -43.940  39.124  29.998  1.00  0.00    -0.019 A 
ATOM      5  N   UNL     1     -44.715  39.055  27.741  1.00  0.00    -0.231 NA
ATOM      6  C   UNL     1     -44.574  37.915  30.269  1.00  0.00    -0.049 A 
ATOM      7  H   UNL     1     -43.401  39.642  30.783  1.00  0.00     0.066 H 
ATOM      8  C   UNL     1     -45.332  37.887  27.991  1.00  0.00     0.076 A 
ATOM      9  C   UNL     1     -45.279  37.267  29.254  1.00  0.00     0.001 A 
ATOM     10  H   UNL     1     -44.514  37.491  31.267  1.00  0.00     0.063 H 
ATOM     11  C   UNL     1     -46.025  37.250  26.965  1.00  0.00     0.007 A 
ATOM     12  C   UNL     1     -45.916  36.036  29.463  1.00  0.00    -0.049 A 
ATOM     13  H   UNL     1     -46.035  37.749  26.002  1.00  0.00     0.069 H 
ATOM     14  C   UNL     1     -46.588  35.416  28.412  1.00  0.00    -0.019 A 
ATOM     15  H   UNL     1     -45.885  35.551  30.434  1.00  0.00     0.063 H 
ATOM     16  H   UNL     1     -47.070  34.455  28.573  1.00  0.00     0.066 H 
BRANCH   3  17
ATOM     17  N   UNL     1     -43.365  40.883  28.479  1.00  0.00    -0.370 N 
ATOM     18  H   UNL     1     -42.568  40.981  29.099  1.00  0.00     0.162 HD
BRANCH  17  19
ATOM     19  C   UNL     1     -43.023  41.174  27.089  1.00  0.00     0.013 C 
ATOM     20  H   UNL     1     -41.960  41.416  26.968  1.00  0.00     0.049 H 
ATOM     21  H   UNL     1     -43.189  40.256  26.512  1.00  0.00     0.049 H 
BRANCH  19  22
ATOM     22  C   UNL     1     -43.906  42.267  26.508  1.00  0.00    -0.048 C 
ATOM     23  H   UNL     1     -44.319  42.915  27.286  1.00  0.00     0.025 H 
ATOM     24  H   UNL     1     -43.329  42.894  25.819  1.00  0.00     0.025 H 
ATOM     25  H   UNL     1     -44.746  41.838  25.951  1.00  0.00     0.025 H 
ENDBRANCH  19  22
ENDBRANCH  17  19
ENDBRANCH   3  17
ENDBRANCH   1   2
BRANCH   1  26
ATOM     26  C   UNL     1     -46.955  33.913  25.985  1.00  0.00     0.117 C 
ATOM     27  H   UNL     1     -46.003  33.949  25.443  1.00  0.00     0.073 H 
ATOM     28  H   UNL     1     -46.750  33.377  26.917  1.00  0.00     0.073 H 
BRANCH  26  29
ATOM     29  C   UNL     1     -47.967  33.168  25.102  1.00  0.00     0.123 C 
ATOM     30  O   UNL     1     -47.336  32.193  24.252  1.00  0.00    -0.345 OA
ATOM     31  C   UNL     1     -49.030  32.397  25.869  1.00  0.00     0.114 C 
ATOM     32  H   UNL     1     -48.431  33.911  24.440  1.00  0.00     0.067 H 
ATOM     33  C   UNL     1     -48.352  31.223  23.887  1.00  0.00     0.164 C 
ATOM     34  C   UNL     1     -49.563  31.447  24.809  1.00  0.00     0.128 C 
ATOM     35  H   UNL     1     -48.592  31.815  26.686  1.00  0.00     0.066 H 
ATOM     36  H   UNL     1     -48.607  31.404  22.835  1.00  0.00     0.088 H 
ATOM     37  H   UNL     1     -49.981  30.546  25.268  1.00  0.00     0.068 H 
BRANCH  31  38
ATOM     38  O   UNL     1     -50.053  33.240  26.388  1.00  0.00    -0.387 OA
ATOM     39  H   UNL     1     -50.208  33.915  25.694  1.00  0.00     0.211 HD
ENDBRANCH  31  38
BRANCH  33  40
ATOM     40  N   UNL     1     -47.805  29.873  23.940  1.00  0.00    -0.303 N 
ATOM     41  C   UNL     1     -48.296  28.813  24.644  1.00  0.00     0.013 A 
ATOM     42  C   UNL     1     -46.630  29.503  23.338  1.00  0.00     0.147 A 
ATOM     43  C   UNL     1     -47.484  27.708  24.444  1.00  0.00    -0.014 A 
ATOM     44  H   UNL     1     -49.185  28.915  25.251  1.00  0.00     0.082 H 
ATOM     45  C   UNL     1     -46.407  28.150  23.593  1.00  0.00     0.065 A 
ATOM     46  N   UNL     1     -45.853  30.332  22.617  1.00  0.00    -0.218 NA
ATOM     47  C   UNL     1     -45.248  27.607  23.005  1.00  0.00     0.136 A 
ATOM     48  C   UNL     1     -44.777  29.697  22.128  1.00  0.00     0.120 A 
ATOM     49  N   UNL     1     -44.446  28.404  22.270  1.00  0.00    -0.219 NA
ATOM     50  H   UNL     1     -44.092  30.298  21.539  1.00  0.00     0.106 H 
BRANCH  43  51
ATOM     51  C   UNL     1     -47.773  26.374  25.068  1.00  0.00    -0.014 C 
ATOM     52  C   UNL     1     -49.193  26.172  25.610  1.00  0.00    -0.046 C 
ATOM     53  C   UNL     1     -46.826  25.987  26.204  1.00  0.00    -0.046 C 
ATOM     54  H   UNL     1     -47.642  25.615  24.284  1.00  0.00     0.035 H 
ATOM     55  C   UNL     1     -49.034  25.451  26.949  1.00  0.00    -0.053 C 
ATOM     56  H   UNL     1     -49.765  25.545  24.915  1.00  0.00     0.027 H 
ATOM     57  H   UNL     1     -49.766  27.097  25.728  1.00  0.00     0.027 H 
ATOM     58  C   UNL     1     -47.607  24.920  26.955  1.00  0.00    -0.053 C 
ATOM     59  H   UNL     1     -46.597  26.831  26.861  1.00  0.00     0.027 H 
ATOM     60  H   UNL     1     -45.872  25.602  25.828  1.00  0.00     0.027 H 
ATOM     61  H   UNL     1     -49.769  24.652  27.076  1.00  0.00     0.027 H 
ATOM     62  H   UNL     1     -49.172  26.159  27.774  1.00  0.00     0.027 H 
ATOM     63  H   UNL     1     -47.228  24.762  27.968  1.00  0.00     0.027 H 
ATOM     64  H   UNL     1     -47.558  23.967  26.417  1.00  0.00     0.027 H 
ENDBRANCH  43  51
BRANCH  47  65
ATOM     65  N   UNL     1     -44.847  26.283  23.101  1.00  0.00    -0.383 N 
ATOM     66  H   UNL     1     -45.653  25.686  23.249  1.00  0.00     0.158 HD
ATOM     67  H   UNL     1     -44.066  26.125  23.716  1.00  0.00     0.158 HD
ENDBRANCH  47  65
ENDBRANCH  33  40
BRANCH  34  68
ATOM     68  O   UNL     1     -50.643  32.098  24.106  1.00  0.00    -0.386 OA
ATOM     69  H   UNL     1     -50.516  31.878  23.161  1.00  0.00     0.211 HD
ENDBRANCH  34  68
ENDBRANCH  26  29
ENDBRANCH   1  26
TORSDOF 11
ENDMDL
MODEL 7
REMARK VINA RESULT:      -8.6      2.873      3.656
REMARK SMILES CCNc1ccc2ccc(OC[C@H]3O[C@@H](n4cc(C5CCCC5)c5c(N)ncnc54)[C@H](O)[C@@H]3O)cc2n1
REMARK SMILES IDX 11 1 10 2 4 3 5 4 37 5 6 6 36 8 7 9 35 11 8 12 9 14 3 17
REMARK SMILES IDX 2 19 1 22 12 26 13 29 14 30 33 31 15 33 31 34 34 38 16 40
REMARK SMILES IDX 17 41 30 42 18 43 24 45 29 46 25 47 28 48 27 49 19 51 20 52
REMARK SMILES IDX 23 53 21 55 22 58 26 65 32 68
REMARK H PARENT 5 7 6 10 35 13 8 15 9 16 3 18 2 20 2 21 1 23 1 24 1 25 12 27
REMARK H PARENT 12 28 13 32 33 35 15 36 31 37 34 39 17 44 28 50 19 54 20 56
REMARK H PARENT 20 57 23 59 23 60 21 61 21 62 22 63 22 64 26 66 26 67 32 69
REMARK Flexibility Score: inf
ROOT
ATOM      1  O   UNL     1     -47.284  33.265  26.895  1.00  0.00    -0.491 OA
ENDROOT
BRANCH   1   2
ATOM      2  C   UNL     1     -47.407  32.286  25.954  1.00  0.00     0.121 A 
ATOM      3  C   UNL     1     -49.236  28.323  24.059  1.00  0.00     0.126 A 
ATOM      4  C   UNL     1     -48.330  28.349  23.006  1.00  0.00    -0.019 A 
ATOM      5  N   UNL     1     -49.254  29.292  24.995  1.00  0.00    -0.231 NA
ATOM      6  C   UNL     1     -47.390  29.373  22.938  1.00  0.00    -0.049 A 
ATOM      7  H   UNL     1     -48.354  27.582  22.240  1.00  0.00     0.066 H 
ATOM      8  C   UNL     1     -48.351  30.287  24.939  1.00  0.00     0.076 A 
ATOM      9  C   UNL     1     -47.381  30.363  23.921  1.00  0.00     0.001 A 
ATOM     10  H   UNL     1     -46.676  29.390  22.120  1.00  0.00     0.063 H 
ATOM     11  C   UNL     1     -48.351  31.263  25.933  1.00  0.00     0.007 A 
ATOM     12  C   UNL     1     -46.443  31.404  23.917  1.00  0.00    -0.049 A 
ATOM     13  H   UNL     1     -49.104  31.167  26.708  1.00  0.00     0.069 H 
ATOM     14  C   UNL     1     -46.459  32.356  24.934  1.00  0.00    -0.019 A 
ATOM     15  H   UNL     1     -45.693  31.474  23.135  1.00  0.00     0.063 H 
ATOM     16  H   UNL     1     -45.721  33.155  24.936  1.00  0.00     0.066 H 
BRANCH   3  17
ATOM     17  N   UNL     1     -50.174  27.280  24.094  1.00  0.00    -0.370 N 
ATOM     18  H   UNL     1     -50.303  26.897  23.164  1.00  0.00     0.162 HD
BRANCH  17  19
ATOM     19  C   UNL     1     -49.947  26.239  25.094  1.00  0.00     0.013 C 
ATOM     20  H   UNL     1     -49.821  25.250  24.637  1.00  0.00     0.049 H 
ATOM     21  H   UNL     1     -48.995  26.464  25.589  1.00  0.00     0.049 H 
BRANCH  19  22
ATOM     22  C   UNL     1     -51.041  26.222  26.151  1.00  0.00    -0.048 C 
ATOM     23  H   UNL     1     -50.993  27.100  26.802  1.00  0.00     0.025 H 
ATOM     24  H   UNL     1     -52.027  26.211  25.674  1.00  0.00     0.025 H 
ATOM     25  H   UNL     1     -50.960  25.332  26.784  1.00  0.00     0.025 H 
ENDBRANCH  19  22
ENDBRANCH  17  19
ENDBRANCH   3  17
ENDBRANCH   1   2
BRANCH   1  26
ATOM     26  C   UNL     1     -47.624  34.619  26.581  1.00  0.00     0.117 C 
ATOM     27  H   UNL     1     -47.479  34.704  25.497  1.00  0.00     0.073 H 
ATOM     28  H   UNL     1     -48.683  34.830  26.759  1.00  0.00     0.073 H 
BRANCH  26  29
ATOM     29  C   UNL     1     -46.708  35.649  27.256  1.00  0.00     0.123 C 
ATOM     30  O   UNL     1     -46.777  36.939  26.623  1.00  0.00    -0.345 OA
ATOM     31  C   UNL     1     -47.018  35.907  28.722  1.00  0.00     0.114 C 
ATOM     32  H   UNL     1     -45.675  35.294  27.137  1.00  0.00     0.067 H 
ATOM     33  C   UNL     1     -46.336  37.918  27.600  1.00  0.00     0.164 C 
ATOM     34  C   UNL     1     -46.301  37.224  28.973  1.00  0.00     0.128 C 
ATOM     35  H   UNL     1     -48.091  36.046  28.887  1.00  0.00     0.066 H 
ATOM     36  H   UNL     1     -45.337  38.252  27.292  1.00  0.00     0.088 H 
ATOM     37  H   UNL     1     -46.772  37.775  29.792  1.00  0.00     0.068 H 
BRANCH  31  38
ATOM     38  O   UNL     1     -46.541  34.873  29.575  1.00  0.00    -0.387 OA
ATOM     39  H   UNL     1     -46.593  34.052  29.042  1.00  0.00     0.211 HD
ENDBRANCH  31  38
BRANCH  33  40
ATOM     40  N   UNL     1     -47.187  39.100  27.552  1.00  0.00    -0.303 N 
ATOM     41  C   UNL     1     -48.474  39.206  27.991  1.00  0.00     0.013 A 
ATOM     42  C   UNL     1     -46.821  40.279  26.955  1.00  0.00     0.147 A 
ATOM     43  C   UNL     1     -48.940  40.490  27.755  1.00  0.00    -0.014 A 
ATOM     44  H   UNL     1     -48.981  38.360  28.432  1.00  0.00     0.082 H 
ATOM     45  C   UNL     1     -47.869  41.190  27.090  1.00  0.00     0.065 A 
ATOM     46  N   UNL     1     -45.633  40.490  26.359  1.00  0.00    -0.218 NA
ATOM     47  C   UNL     1     -47.629  42.471  26.556  1.00  0.00     0.136 A 
ATOM     48  C   UNL     1     -45.538  41.740  25.880  1.00  0.00     0.120 A 
ATOM     49  N   UNL     1     -46.448  42.724  25.955  1.00  0.00    -0.219 NA
ATOM     50  H   UNL     1     -44.611  41.991  25.376  1.00  0.00     0.106 H 
BRANCH  43  51
ATOM     51  C   UNL     1     -50.319  40.930  28.148  1.00  0.00    -0.014 C 
ATOM     52  C   UNL     1     -51.247  41.357  27.004  1.00  0.00    -0.046 C 
ATOM     53  C   UNL     1     -50.357  42.065  29.171  1.00  0.00    -0.046 C 
ATOM     54  H   UNL     1     -50.810  40.068  28.625  1.00  0.00     0.035 H 
ATOM     55  C   UNL     1     -51.977  42.605  27.499  1.00  0.00    -0.053 C 
ATOM     56  H   UNL     1     -51.971  40.558  26.802  1.00  0.00     0.027 H 
ATOM     57  H   UNL     1     -50.733  41.551  26.057  1.00  0.00     0.027 H 
ATOM     58  C   UNL     1     -51.757  42.633  29.004  1.00  0.00    -0.053 C 
ATOM     59  H   UNL     1     -49.604  42.832  28.968  1.00  0.00     0.027 H 
ATOM     60  H   UNL     1     -50.184  41.704  30.190  1.00  0.00     0.027 H 
ATOM     61  H   UNL     1     -53.040  42.590  27.240  1.00  0.00     0.027 H 
ATOM     62  H   UNL     1     -51.541  43.500  27.041  1.00  0.00     0.027 H 
ATOM     63  H   UNL     1     -51.850  43.640  29.419  1.00  0.00     0.027 H 
ATOM     64  H   UNL     1     -52.489  41.988  29.504  1.00  0.00     0.027 H 
ENDBRANCH  43  51
BRANCH  47  65
ATOM     65  N   UNL     1     -48.514  43.536  26.603  1.00  0.00    -0.383 N 
ATOM     66  H   UNL     1     -48.003  44.413  26.590  1.00  0.00     0.158 HD
ATOM     67  H   UNL     1     -49.229  43.457  27.308  1.00  0.00     0.158 HD
ENDBRANCH  47  65
ENDBRANCH  33  40
BRANCH  34  68
ATOM     68  O   UNL     1     -44.946  36.942  29.383  1.00  0.00    -0.386 OA
ATOM     69  H   UNL     1     -44.995  36.126  29.919  1.00  0.00     0.211 HD
ENDBRANCH  34  68
ENDBRANCH  26  29
ENDBRANCH   1  26
TORSDOF 11
ENDMDL
