MODEL 1
REMARK VINA RESULT:      -9.9      0.000      0.000
REMARK SMILES Nc1ccc2cc(CC[C@H]3C[C@@H](n4ccc5c(NCCc6ccccc6)ncnc54)[C@H](O)[C@@H]3O)ccc2n1
REMARK SMILES IDX 13 1 14 2 15 3 16 4 17 5 27 6 28 7 29 8 30 9 12 13 10 14
REMARK SMILES IDX 11 15 33 16 31 20 9 24 8 27 7 30 2 31 3 32 38 33 4 34 37 36
REMARK SMILES IDX 5 37 36 39 6 40 35 41 1 45 34 48 32 50 18 52 19 54 20 57
REMARK SMILES IDX 21 60 22 61 26 62 23 63 25 65 24 67
REMARK H PARENT 14 10 15 11 28 12 10 17 11 18 11 19 33 21 12 22 31 23 9 25
REMARK H PARENT 9 26 8 28 8 29 3 35 4 38 36 42 6 43 35 44 1 46 1 47 34 49
REMARK H PARENT 32 51 18 53 19 55 19 56 20 58 20 59 22 64 26 66 23 68 25 69
REMARK H PARENT 24 70
REMARK Flexibility Score: inf
ROOT
ATOM      1  N   UNL     1     -47.385  34.792  26.426  1.00  0.00    -0.327 N 
ATOM      2  C   UNL     1     -46.042  34.650  26.179  1.00  0.00     0.007 A 
ATOM      3  C   UNL     1     -45.845  33.424  25.574  1.00  0.00    -0.031 A 
ATOM      4  C   UNL     1     -47.106  32.775  25.485  1.00  0.00     0.061 A 
ATOM      5  C   UNL     1     -47.587  31.553  24.975  1.00  0.00     0.138 A 
ATOM      6  N   UNL     1     -48.908  31.286  25.118  1.00  0.00    -0.219 NA
ATOM      7  C   UNL     1     -49.695  32.200  25.711  1.00  0.00     0.120 A 
ATOM      8  N   UNL     1     -49.351  33.403  26.197  1.00  0.00    -0.218 NA
ATOM      9  C   UNL     1     -48.036  33.634  26.053  1.00  0.00     0.145 A 
ATOM     10  H   UNL     1     -45.317  35.409  26.431  1.00  0.00     0.082 H 
ATOM     11  H   UNL     1     -44.894  33.035  25.240  1.00  0.00     0.065 H 
ATOM     12  H   UNL     1     -50.743  31.933  25.804  1.00  0.00     0.106 H 
ENDROOT
BRANCH   1  13
ATOM     13  C   UNL     1     -48.085  35.942  26.990  1.00  0.00     0.064 C 
ATOM     14  C   UNL     1     -46.538  37.514  28.129  1.00  0.00    -0.010 C 
ATOM     15  C   UNL     1     -47.287  37.250  26.806  1.00  0.00    -0.024 C 
ATOM     16  C   UNL     1     -47.025  36.429  29.101  1.00  0.00     0.085 C 
ATOM     17  H   UNL     1     -46.810  38.512  28.497  1.00  0.00     0.033 H 
ATOM     18  H   UNL     1     -47.996  38.072  26.645  1.00  0.00     0.029 H 
ATOM     19  H   UNL     1     -46.619  37.239  25.939  1.00  0.00     0.029 H 
ATOM     20  C   UNL     1     -48.340  35.916  28.500  1.00  0.00     0.101 C 
ATOM     21  H   UNL     1     -46.288  35.625  29.193  1.00  0.00     0.063 H 
ATOM     22  H   UNL     1     -49.037  36.009  26.448  1.00  0.00     0.056 H 
ATOM     23  H   UNL     1     -48.623  34.936  28.897  1.00  0.00     0.065 H 
BRANCH  14  24
ATOM     24  C   UNL     1     -45.015  37.482  27.924  1.00  0.00    -0.044 C 
ATOM     25  H   UNL     1     -44.783  37.868  26.922  1.00  0.00     0.027 H 
ATOM     26  H   UNL     1     -44.661  36.442  27.940  1.00  0.00     0.027 H 
BRANCH  24  27
ATOM     27  C   UNL     1     -44.255  38.307  28.968  1.00  0.00    -0.028 C 
ATOM     28  H   UNL     1     -43.324  37.806  29.257  1.00  0.00     0.032 H 
ATOM     29  H   UNL     1     -44.850  38.397  29.885  1.00  0.00     0.032 H 
BRANCH  27  30
ATOM     30  C   UNL     1     -43.933  39.685  28.446  1.00  0.00    -0.047 A 
ATOM     31  C   UNL     1     -43.489  43.925  25.864  1.00  0.00     0.124 A 
ATOM     32  C   UNL     1     -44.397  43.186  25.126  1.00  0.00    -0.019 A 
ATOM     33  N   UNL     1     -42.926  43.475  26.997  1.00  0.00    -0.231 NA
ATOM     34  C   UNL     1     -44.758  41.924  25.583  1.00  0.00    -0.049 A 
ATOM     35  H   UNL     1     -44.810  43.578  24.203  1.00  0.00     0.066 H 
ATOM     36  C   UNL     1     -43.271  42.252  27.442  1.00  0.00     0.073 A 
ATOM     37  C   UNL     1     -44.193  41.432  26.763  1.00  0.00     0.001 A 
ATOM     38  H   UNL     1     -45.468  41.333  25.014  1.00  0.00     0.063 H 
ATOM     39  C   UNL     1     -42.701  41.767  28.609  1.00  0.00    -0.035 A 
ATOM     40  C   UNL     1     -44.521  40.159  27.268  1.00  0.00    -0.050 A 
ATOM     41  C   UNL     1     -43.015  40.500  29.112  1.00  0.00    -0.057 A 
ATOM     42  H   UNL     1     -41.986  42.391  29.140  1.00  0.00     0.065 H 
ATOM     43  H   UNL     1     -45.232  39.532  26.734  1.00  0.00     0.063 H 
ATOM     44  H   UNL     1     -42.534  40.160  30.027  1.00  0.00     0.063 H 
BRANCH  31  45
ATOM     45  N   UNL     1     -43.088  45.187  25.432  1.00  0.00    -0.384 N 
ATOM     46  H   UNL     1     -43.929  45.753  25.360  1.00  0.00     0.158 HD
ATOM     47  H   UNL     1     -42.590  45.138  24.552  1.00  0.00     0.158 HD
ENDBRANCH  31  45
ENDBRANCH  27  30
ENDBRANCH  24  27
ENDBRANCH  14  24
BRANCH  16  48
ATOM     48  O   UNL     1     -47.255  36.981  30.395  1.00  0.00    -0.390 OA
ATOM     49  H   UNL     1     -46.397  37.292  30.736  1.00  0.00     0.211 HD
ENDBRANCH  16  48
BRANCH  20  50
ATOM     50  O   UNL     1     -49.405  36.820  28.833  1.00  0.00    -0.388 OA
ATOM     51  H   UNL     1     -50.048  36.771  28.095  1.00  0.00     0.211 HD
ENDBRANCH  20  50
ENDBRANCH   1  13
BRANCH   5  52
ATOM     52  N   UNL     1     -46.744  30.627  24.349  1.00  0.00    -0.369 N 
ATOM     53  H   UNL     1     -45.999  31.101  23.852  1.00  0.00     0.162 HD
BRANCH  52  54
ATOM     54  C   UNL     1     -47.426  29.612  23.544  1.00  0.00     0.020 C 
ATOM     55  H   UNL     1     -47.592  29.920  22.504  1.00  0.00     0.049 H 
ATOM     56  H   UNL     1     -48.427  29.484  23.973  1.00  0.00     0.049 H 
BRANCH  54  57
ATOM     57  C   UNL     1     -46.718  28.246  23.607  1.00  0.00    -0.010 C 
ATOM     58  H   UNL     1     -46.710  27.819  22.595  1.00  0.00     0.033 H 
ATOM     59  H   UNL     1     -45.667  28.402  23.879  1.00  0.00     0.033 H 
BRANCH  57  60
ATOM     60  C   UNL     1     -47.300  27.234  24.569  1.00  0.00    -0.046 A 
ATOM     61  C   UNL     1     -46.450  26.372  25.279  1.00  0.00    -0.059 A 
ATOM     62  C   UNL     1     -48.679  27.158  24.802  1.00  0.00    -0.059 A 
ATOM     63  C   UNL     1     -46.971  25.445  26.184  1.00  0.00    -0.062 A 
ATOM     64  H   UNL     1     -45.373  26.418  25.139  1.00  0.00     0.063 H 
ATOM     65  C   UNL     1     -49.199  26.225  25.700  1.00  0.00    -0.062 A 
ATOM     66  H   UNL     1     -49.365  27.818  24.276  1.00  0.00     0.063 H 
ATOM     67  C   UNL     1     -48.346  25.369  26.392  1.00  0.00    -0.062 A 
ATOM     68  H   UNL     1     -46.304  24.786  26.735  1.00  0.00     0.062 H 
ATOM     69  H   UNL     1     -50.273  26.169  25.862  1.00  0.00     0.062 H 
ATOM     70  H   UNL     1     -48.749  24.649  27.098  1.00  0.00     0.062 H 
ENDBRANCH  57  60
ENDBRANCH  54  57
ENDBRANCH  52  54
ENDBRANCH   5  52
TORSDOF 11
ENDMDL
MODEL 2
REMARK VINA RESULT:      -9.8      2.904     11.089
REMARK SMILES Nc1ccc2cc(CC[C@H]3C[C@@H](n4ccc5c(NCCc6ccccc6)ncnc54)[C@H](O)[C@@H]3O)ccc2n1
REMARK SMILES IDX 13 1 14 2 15 3 16 4 17 5 27 6 28 7 29 8 30 9 12 13 10 14
REMARK SMILES IDX 11 15 33 16 31 20 9 24 8 27 7 30 2 31 3 32 38 33 4 34 37 36
REMARK SMILES IDX 5 37 36 39 6 40 35 41 1 45 34 48 32 50 18 52 19 54 20 57
REMARK SMILES IDX 21 60 22 61 26 62 23 63 25 65 24 67
REMARK H PARENT 14 10 15 11 28 12 10 17 11 18 11 19 33 21 12 22 31 23 9 25
REMARK H PARENT 9 26 8 28 8 29 3 35 4 38 36 42 6 43 35 44 1 46 1 47 34 49
REMARK H PARENT 32 51 18 53 19 55 19 56 20 58 20 59 22 64 26 66 23 68 25 69
REMARK H PARENT 24 70
REMARK Flexibility Score: inf
ROOT
ATOM      1  N   UNL     1     -46.838  38.589  27.900  1.00  0.00    -0.327 N 
ATOM      2  C   UNL     1     -45.530  38.400  27.530  1.00  0.00     0.007 A 
ATOM      3  C   UNL     1     -45.113  39.520  26.840  1.00  0.00    -0.031 A 
ATOM      4  C   UNL     1     -46.217  40.411  26.748  1.00  0.00     0.061 A 
ATOM      5  C   UNL     1     -46.448  41.691  26.208  1.00  0.00     0.138 A 
ATOM      6  N   UNL     1     -47.701  42.201  26.308  1.00  0.00    -0.219 NA
ATOM      7  C   UNL     1     -48.648  41.479  26.933  1.00  0.00     0.120 A 
ATOM      8  N   UNL     1     -48.528  40.274  27.511  1.00  0.00    -0.218 NA
ATOM      9  C   UNL     1     -47.281  39.790  27.385  1.00  0.00     0.145 A 
ATOM     10  H   UNL     1     -44.975  37.506  27.776  1.00  0.00     0.082 H 
ATOM     11  H   UNL     1     -44.122  39.677  26.438  1.00  0.00     0.065 H 
ATOM     12  H   UNL     1     -49.632  41.933  26.980  1.00  0.00     0.106 H 
ENDROOT
BRANCH   1  13
ATOM     13  C   UNL     1     -47.688  37.713  28.700  1.00  0.00     0.064 C 
ATOM     14  C   UNL     1     -47.509  35.339  28.001  1.00  0.00    -0.010 C 
ATOM     15  C   UNL     1     -46.995  36.373  29.023  1.00  0.00    -0.024 C 
ATOM     16  C   UNL     1     -48.595  36.064  27.192  1.00  0.00     0.085 C 
ATOM     17  H   UNL     1     -47.937  34.486  28.544  1.00  0.00     0.033 H 
ATOM     18  H   UNL     1     -47.308  36.049  30.024  1.00  0.00     0.029 H 
ATOM     19  H   UNL     1     -45.902  36.438  29.043  1.00  0.00     0.029 H 
ATOM     20  C   UNL     1     -49.004  37.262  28.058  1.00  0.00     0.101 C 
ATOM     21  H   UNL     1     -48.210  36.387  26.220  1.00  0.00     0.063 H 
ATOM     22  H   UNL     1     -47.890  38.260  29.630  1.00  0.00     0.056 H 
ATOM     23  H   UNL     1     -49.517  38.036  27.480  1.00  0.00     0.065 H 
BRANCH  14  24
ATOM     24  C   UNL     1     -46.367  34.813  27.116  1.00  0.00    -0.044 C 
ATOM     25  H   UNL     1     -45.427  35.289  27.427  1.00  0.00     0.027 H 
ATOM     26  H   UNL     1     -46.535  35.120  26.075  1.00  0.00     0.027 H 
BRANCH  24  27
ATOM     27  C   UNL     1     -46.207  33.291  27.191  1.00  0.00    -0.028 C 
ATOM     28  H   UNL     1     -46.668  32.896  28.104  1.00  0.00     0.032 H 
ATOM     29  H   UNL     1     -45.144  33.025  27.249  1.00  0.00     0.032 H 
BRANCH  27  30
ATOM     30  C   UNL     1     -46.826  32.616  25.992  1.00  0.00    -0.047 A 
ATOM     31  C   UNL     1     -47.866  30.521  21.592  1.00  0.00     0.124 A 
ATOM     32  C   UNL     1     -46.505  30.765  21.524  1.00  0.00    -0.019 A 
ATOM     33  N   UNL     1     -48.616  30.835  22.661  1.00  0.00    -0.231 NA
ATOM     34  C   UNL     1     -45.878  31.350  22.618  1.00  0.00    -0.049 A 
ATOM     35  H   UNL     1     -45.941  30.516  20.632  1.00  0.00     0.066 H 
ATOM     36  C   UNL     1     -48.012  31.405  23.720  1.00  0.00     0.073 A 
ATOM     37  C   UNL     1     -46.631  31.684  23.747  1.00  0.00     0.001 A 
ATOM     38  H   UNL     1     -44.811  31.550  22.578  1.00  0.00     0.063 H 
ATOM     39  C   UNL     1     -48.767  31.740  24.834  1.00  0.00    -0.035 A 
ATOM     40  C   UNL     1     -46.047  32.283  24.879  1.00  0.00    -0.050 A 
ATOM     41  C   UNL     1     -48.195  32.342  25.960  1.00  0.00    -0.057 A 
ATOM     42  H   UNL     1     -49.834  31.532  24.824  1.00  0.00     0.065 H 
ATOM     43  H   UNL     1     -44.980  32.497  24.888  1.00  0.00     0.063 H 
ATOM     44  H   UNL     1     -48.831  32.595  26.805  1.00  0.00     0.063 H 
BRANCH  31  45
ATOM     45  N   UNL     1     -48.536  29.950  20.511  1.00  0.00    -0.384 N 
ATOM     46  H   UNL     1     -47.839  29.448  19.967  1.00  0.00     0.158 HD
ATOM     47  H   UNL     1     -49.013  30.651  19.959  1.00  0.00     0.158 HD
ENDBRANCH  31  45
ENDBRANCH  27  30
ENDBRANCH  24  27
ENDBRANCH  14  24
BRANCH  16  48
ATOM     48  O   UNL     1     -49.713  35.207  26.973  1.00  0.00    -0.390 OA
ATOM     49  H   UNL     1     -50.224  35.175  27.802  1.00  0.00     0.211 HD
ENDBRANCH  16  48
BRANCH  20  50
ATOM     50  O   UNL     1     -49.922  36.829  29.075  1.00  0.00    -0.388 OA
ATOM     51  H   UNL     1     -49.650  37.280  29.901  1.00  0.00     0.211 HD
ENDBRANCH  20  50
ENDBRANCH   1  13
BRANCH   5  52
ATOM     52  N   UNL     1     -45.438  42.424  25.576  1.00  0.00    -0.369 N 
ATOM     53  H   UNL     1     -44.623  41.842  25.412  1.00  0.00     0.162 HD
BRANCH  52  54
ATOM     54  C   UNL     1     -45.117  43.708  26.201  1.00  0.00     0.020 C 
ATOM     55  H   UNL     1     -45.532  43.818  27.211  1.00  0.00     0.049 H 
ATOM     56  H   UNL     1     -45.606  44.485  25.600  1.00  0.00     0.049 H 
BRANCH  54  57
ATOM     57  C   UNL     1     -43.606  44.000  26.192  1.00  0.00    -0.010 C 
ATOM     58  H   UNL     1     -43.268  44.019  25.147  1.00  0.00     0.033 H 
ATOM     59  H   UNL     1     -43.437  45.011  26.584  1.00  0.00     0.033 H 
BRANCH  57  60
ATOM     60  C   UNL     1     -42.734  43.048  26.979  1.00  0.00    -0.046 A 
ATOM     61  C   UNL     1     -41.719  42.327  26.332  1.00  0.00    -0.059 A 
ATOM     62  C   UNL     1     -42.889  42.892  28.363  1.00  0.00    -0.059 A 
ATOM     63  C   UNL     1     -40.894  41.458  27.049  1.00  0.00    -0.062 A 
ATOM     64  H   UNL     1     -41.555  42.440  25.263  1.00  0.00     0.063 H 
ATOM     65  C   UNL     1     -42.070  42.015  29.078  1.00  0.00    -0.062 A 
ATOM     66  H   UNL     1     -43.660  43.442  28.898  1.00  0.00     0.063 H 
ATOM     67  C   UNL     1     -41.072  41.300  28.421  1.00  0.00    -0.062 A 
ATOM     68  H   UNL     1     -40.105  40.910  26.540  1.00  0.00     0.062 H 
ATOM     69  H   UNL     1     -42.211  41.895  30.149  1.00  0.00     0.062 H 
ATOM     70  H   UNL     1     -40.428  40.626  28.977  1.00  0.00     0.062 H 
ENDBRANCH  57  60
ENDBRANCH  54  57
ENDBRANCH  52  54
ENDBRANCH   5  52
TORSDOF 11
ENDMDL
MODEL 3
REMARK VINA RESULT:      -9.4      2.158     11.603
REMARK SMILES Nc1ccc2cc(CC[C@H]3C[C@@H](n4ccc5c(NCCc6ccccc6)ncnc54)[C@H](O)[C@@H]3O)ccc2n1
REMARK SMILES IDX 13 1 14 2 15 3 16 4 17 5 27 6 28 7 29 8 30 9 12 13 10 14
REMARK SMILES IDX 11 15 33 16 31 20 9 24 8 27 7 30 2 31 3 32 38 33 4 34 37 36
REMARK SMILES IDX 5 37 36 39 6 40 35 41 1 45 34 48 32 50 18 52 19 54 20 57
REMARK SMILES IDX 21 60 22 61 26 62 23 63 25 65 24 67
REMARK H PARENT 14 10 15 11 28 12 10 17 11 18 11 19 33 21 12 22 31 23 9 25
REMARK H PARENT 9 26 8 28 8 29 3 35 4 38 36 42 6 43 35 44 1 46 1 47 34 49
REMARK H PARENT 32 51 18 53 19 55 19 56 20 58 20 59 22 64 26 66 23 68 25 69
REMARK H PARENT 24 70
REMARK Flexibility Score: inf
ROOT
ATOM      1  N   UNL     1     -46.670  38.445  28.114  1.00  0.00    -0.327 N 
ATOM      2  C   UNL     1     -46.865  38.994  26.871  1.00  0.00     0.007 A 
ATOM      3  C   UNL     1     -45.759  39.759  26.561  1.00  0.00    -0.031 A 
ATOM      4  C   UNL     1     -44.871  39.711  27.671  1.00  0.00     0.061 A 
ATOM      5  C   UNL     1     -43.604  40.238  27.981  1.00  0.00     0.138 A 
ATOM      6  N   UNL     1     -43.093  39.972  29.209  1.00  0.00    -0.219 NA
ATOM      7  C   UNL     1     -43.802  39.204  30.055  1.00  0.00     0.120 A 
ATOM      8  N   UNL     1     -44.995  38.625  29.849  1.00  0.00    -0.218 NA
ATOM      9  C   UNL     1     -45.480  38.916  28.631  1.00  0.00     0.145 A 
ATOM     10  H   UNL     1     -47.753  38.811  26.283  1.00  0.00     0.082 H 
ATOM     11  H   UNL     1     -45.609  40.301  25.638  1.00  0.00     0.065 H 
ATOM     12  H   UNL     1     -43.349  39.027  31.025  1.00  0.00     0.106 H 
ENDROOT
BRANCH   1  13
ATOM     13  C   UNL     1     -47.530  37.515  28.838  1.00  0.00     0.064 C 
ATOM     14  C   UNL     1     -47.375  35.205  27.944  1.00  0.00    -0.010 C 
ATOM     15  C   UNL     1     -46.851  36.146  29.048  1.00  0.00    -0.024 C 
ATOM     16  C   UNL     1     -48.453  36.007  27.199  1.00  0.00     0.085 C 
ATOM     17  H   UNL     1     -47.813  34.315  28.414  1.00  0.00     0.033 H 
ATOM     18  H   UNL     1     -47.168  35.743  30.019  1.00  0.00     0.029 H 
ATOM     19  H   UNL     1     -45.758  36.197  29.074  1.00  0.00     0.029 H 
ATOM     20  C   UNL     1     -48.851  37.133  28.161  1.00  0.00     0.101 C 
ATOM     21  H   UNL     1     -48.064  36.406  26.256  1.00  0.00     0.063 H 
ATOM     22  H   UNL     1     -47.727  37.984  29.810  1.00  0.00     0.056 H 
ATOM     23  H   UNL     1     -49.355  37.957  27.649  1.00  0.00     0.065 H 
BRANCH  14  24
ATOM     24  C   UNL     1     -46.238  34.743  27.018  1.00  0.00    -0.044 C 
ATOM     25  H   UNL     1     -45.846  33.785  27.387  1.00  0.00     0.027 H 
ATOM     26  H   UNL     1     -45.404  35.456  27.072  1.00  0.00     0.027 H 
BRANCH  24  27
ATOM     27  C   UNL     1     -46.685  34.573  25.563  1.00  0.00    -0.028 C 
ATOM     28  H   UNL     1     -45.875  34.838  24.873  1.00  0.00     0.032 H 
ATOM     29  H   UNL     1     -47.511  35.260  25.338  1.00  0.00     0.032 H 
BRANCH  27  30
ATOM     30  C   UNL     1     -47.126  33.157  25.287  1.00  0.00    -0.047 A 
ATOM     31  C   UNL     1     -47.810  28.522  23.588  1.00  0.00     0.124 A 
ATOM     32  C   UNL     1     -46.714  28.974  22.873  1.00  0.00    -0.019 A 
ATOM     33  N   UNL     1     -48.452  29.272  24.498  1.00  0.00    -0.231 NA
ATOM     34  C   UNL     1     -46.243  30.259  23.116  1.00  0.00    -0.049 A 
ATOM     35  H   UNL     1     -46.239  28.344  22.130  1.00  0.00     0.066 H 
ATOM     36  C   UNL     1     -48.002  30.518  24.734  1.00  0.00     0.073 A 
ATOM     37  C   UNL     1     -46.888  31.061  24.062  1.00  0.00     0.001 A 
ATOM     38  H   UNL     1     -45.386  30.628  22.561  1.00  0.00     0.063 H 
ATOM     39  C   UNL     1     -48.651  31.310  25.668  1.00  0.00    -0.035 A 
ATOM     40  C   UNL     1     -46.456  32.371  24.343  1.00  0.00    -0.050 A 
ATOM     41  C   UNL     1     -48.231  32.616  25.947  1.00  0.00    -0.057 A 
ATOM     42  H   UNL     1     -49.512  30.903  26.191  1.00  0.00     0.065 H 
ATOM     43  H   UNL     1     -45.598  32.782  23.816  1.00  0.00     0.063 H 
ATOM     44  H   UNL     1     -48.779  33.202  26.683  1.00  0.00     0.063 H 
BRANCH  31  45
ATOM     45  N   UNL     1     -48.322  27.246  23.363  1.00  0.00    -0.384 N 
ATOM     46  H   UNL     1     -49.092  27.121  24.015  1.00  0.00     0.158 HD
ATOM     47  H   UNL     1     -47.611  26.535  23.477  1.00  0.00     0.158 HD
ENDBRANCH  31  45
ENDBRANCH  27  30
ENDBRANCH  24  27
ENDBRANCH  14  24
BRANCH  16  48
ATOM     48  O   UNL     1     -49.580  35.183  26.909  1.00  0.00    -0.390 OA
ATOM     49  H   UNL     1     -49.396  34.719  26.072  1.00  0.00     0.211 HD
ENDBRANCH  16  48
BRANCH  20  50
ATOM     50  O   UNL     1     -49.774  36.627  29.138  1.00  0.00    -0.388 OA
ATOM     51  H   UNL     1     -50.582  37.175  29.062  1.00  0.00     0.211 HD
ENDBRANCH  20  50
ENDBRANCH   1  13
BRANCH   5  52
ATOM     52  N   UNL     1     -42.883  41.022  27.074  1.00  0.00    -0.369 N 
ATOM     53  H   UNL     1     -42.211  40.456  26.567  1.00  0.00     0.162 HD
BRANCH  52  54
ATOM     54  C   UNL     1     -42.306  42.247  27.631  1.00  0.00     0.020 C 
ATOM     55  H   UNL     1     -41.229  42.344  27.449  1.00  0.00     0.049 H 
ATOM     56  H   UNL     1     -42.412  42.182  28.721  1.00  0.00     0.049 H 
BRANCH  54  57
ATOM     57  C   UNL     1     -43.058  43.509  27.169  1.00  0.00    -0.010 C 
ATOM     58  H   UNL     1     -44.009  43.559  27.718  1.00  0.00     0.033 H 
ATOM     59  H   UNL     1     -42.486  44.395  27.471  1.00  0.00     0.033 H 
BRANCH  57  60
ATOM     60  C   UNL     1     -43.334  43.619  25.686  1.00  0.00    -0.046 A 
ATOM     61  C   UNL     1     -44.657  43.641  25.218  1.00  0.00    -0.059 A 
ATOM     62  C   UNL     1     -42.292  43.741  24.758  1.00  0.00    -0.059 A 
ATOM     63  C   UNL     1     -44.927  43.762  23.853  1.00  0.00    -0.062 A 
ATOM     64  H   UNL     1     -45.490  43.571  25.911  1.00  0.00     0.063 H 
ATOM     65  C   UNL     1     -42.563  43.852  23.393  1.00  0.00    -0.062 A 
ATOM     66  H   UNL     1     -41.255  43.737  25.088  1.00  0.00     0.063 H 
ATOM     67  C   UNL     1     -43.880  43.864  22.940  1.00  0.00    -0.062 A 
ATOM     68  H   UNL     1     -45.955  43.786  23.500  1.00  0.00     0.062 H 
ATOM     69  H   UNL     1     -41.744  43.933  22.683  1.00  0.00     0.062 H 
ATOM     70  H   UNL     1     -44.092  43.960  21.880  1.00  0.00     0.062 H 
ENDBRANCH  57  60
ENDBRANCH  54  57
ENDBRANCH  52  54
ENDBRANCH   5  52
TORSDOF 11
ENDMDL
MODEL 4
REMARK VINA RESULT:      -9.2      5.565      9.116
REMARK SMILES Nc1ccc2cc(CC[C@H]3C[C@@H](n4ccc5c(NCCc6ccccc6)ncnc54)[C@H](O)[C@@H]3O)ccc2n1
REMARK SMILES IDX 13 1 14 2 15 3 16 4 17 5 27 6 28 7 29 8 30 9 12 13 10 14
REMARK SMILES IDX 11 15 33 16 31 20 9 24 8 27 7 30 2 31 3 32 38 33 4 34 37 36
REMARK SMILES IDX 5 37 36 39 6 40 35 41 1 45 34 48 32 50 18 52 19 54 20 57
REMARK SMILES IDX 21 60 22 61 26 62 23 63 25 65 24 67
REMARK H PARENT 14 10 15 11 28 12 10 17 11 18 11 19 33 21 12 22 31 23 9 25
REMARK H PARENT 9 26 8 28 8 29 3 35 4 38 36 42 6 43 35 44 1 46 1 47 34 49
REMARK H PARENT 32 51 18 53 19 55 19 56 20 58 20 59 22 64 26 66 23 68 25 69
REMARK H PARENT 24 70
REMARK Flexibility Score: inf
ROOT
ATOM      1  N   UNL     1     -43.597  41.882  26.624  1.00  0.00    -0.327 N 
ATOM      2  C   UNL     1     -44.517  40.972  26.164  1.00  0.00     0.007 A 
ATOM      3  C   UNL     1     -44.663  39.988  27.121  1.00  0.00    -0.031 A 
ATOM      4  C   UNL     1     -43.772  40.283  28.189  1.00  0.00     0.061 A 
ATOM      5  C   UNL     1     -43.454  39.710  29.434  1.00  0.00     0.138 A 
ATOM      6  N   UNL     1     -42.485  40.304  30.174  1.00  0.00    -0.219 NA
ATOM      7  C   UNL     1     -41.897  41.416  29.699  1.00  0.00     0.120 A 
ATOM      8  N   UNL     1     -42.146  42.062  28.550  1.00  0.00    -0.218 NA
ATOM      9  C   UNL     1     -43.100  41.444  27.835  1.00  0.00     0.145 A 
ATOM     10  H   UNL     1     -45.012  41.072  25.209  1.00  0.00     0.082 H 
ATOM     11  H   UNL     1     -45.335  39.143  27.055  1.00  0.00     0.065 H 
ATOM     12  H   UNL     1     -41.126  41.848  30.329  1.00  0.00     0.106 H 
ENDROOT
BRANCH   1  13
ATOM     13  C   UNL     1     -43.161  43.124  25.996  1.00  0.00     0.064 C 
ATOM     14  C   UNL     1     -45.043  44.702  25.633  1.00  0.00    -0.010 C 
ATOM     15  C   UNL     1     -43.882  44.353  26.587  1.00  0.00    -0.024 C 
ATOM     16  C   UNL     1     -44.887  43.753  24.434  1.00  0.00     0.085 C 
ATOM     17  H   UNL     1     -44.937  45.747  25.314  1.00  0.00     0.033 H 
ATOM     18  H   UNL     1     -43.182  45.199  26.597  1.00  0.00     0.029 H 
ATOM     19  H   UNL     1     -44.215  44.212  27.621  1.00  0.00     0.029 H 
ATOM     20  C   UNL     1     -43.434  43.267  24.495  1.00  0.00     0.101 C 
ATOM     21  H   UNL     1     -45.591  42.917  24.501  1.00  0.00     0.063 H 
ATOM     22  H   UNL     1     -42.084  43.196  26.192  1.00  0.00     0.056 H 
ATOM     23  H   UNL     1     -43.278  42.353  23.915  1.00  0.00     0.065 H 
BRANCH  14  24
ATOM     24  C   UNL     1     -46.404  44.552  26.331  1.00  0.00    -0.044 C 
ATOM     25  H   UNL     1     -46.978  45.479  26.194  1.00  0.00     0.027 H 
ATOM     26  H   UNL     1     -46.254  44.443  27.414  1.00  0.00     0.027 H 
BRANCH  24  27
ATOM     27  C   UNL     1     -47.222  43.372  25.797  1.00  0.00    -0.028 C 
ATOM     28  H   UNL     1     -46.567  42.533  25.533  1.00  0.00     0.032 H 
ATOM     29  H   UNL     1     -47.739  43.657  24.873  1.00  0.00     0.032 H 
BRANCH  27  30
ATOM     30  C   UNL     1     -48.236  42.906  26.812  1.00  0.00    -0.047 A 
ATOM     31  C   UNL     1     -51.435  40.384  29.683  1.00  0.00     0.124 A 
ATOM     32  C   UNL     1     -50.847  39.401  28.907  1.00  0.00    -0.019 A 
ATOM     33  N   UNL     1     -51.125  41.687  29.577  1.00  0.00    -0.231 NA
ATOM     34  C   UNL     1     -49.878  39.772  27.982  1.00  0.00    -0.049 A 
ATOM     35  H   UNL     1     -51.144  38.363  29.009  1.00  0.00     0.066 H 
ATOM     36  C   UNL     1     -50.189  42.050  28.680  1.00  0.00     0.073 A 
ATOM     37  C   UNL     1     -49.530  41.119  27.853  1.00  0.00     0.001 A 
ATOM     38  H   UNL     1     -49.410  39.011  27.365  1.00  0.00     0.063 H 
ATOM     39  C   UNL     1     -49.854  43.389  28.552  1.00  0.00    -0.035 A 
ATOM     40  C   UNL     1     -48.559  41.550  26.929  1.00  0.00    -0.050 A 
ATOM     41  C   UNL     1     -48.895  43.825  27.631  1.00  0.00    -0.057 A 
ATOM     42  H   UNL     1     -50.358  44.117  29.184  1.00  0.00     0.065 H 
ATOM     43  H   UNL     1     -48.058  40.823  26.293  1.00  0.00     0.063 H 
ATOM     44  H   UNL     1     -48.674  44.888  27.561  1.00  0.00     0.063 H 
BRANCH  31  45
ATOM     45  N   UNL     1     -52.422  40.057  30.610  1.00  0.00    -0.384 N 
ATOM     46  H   UNL     1     -52.124  39.198  31.065  1.00  0.00     0.158 HD
ATOM     47  H   UNL     1     -53.328  39.955  30.169  1.00  0.00     0.158 HD
ENDBRANCH  31  45
ENDBRANCH  27  30
ENDBRANCH  24  27
ENDBRANCH  14  24
BRANCH  16  48
ATOM     48  O   UNL     1     -45.126  44.447  23.212  1.00  0.00    -0.390 OA
ATOM     49  H   UNL     1     -44.971  45.395  23.379  1.00  0.00     0.211 HD
ENDBRANCH  16  48
BRANCH  20  50
ATOM     50  O   UNL     1     -42.569  44.266  23.933  1.00  0.00    -0.388 OA
ATOM     51  H   UNL     1     -42.743  45.092  24.430  1.00  0.00     0.211 HD
ENDBRANCH  20  50
ENDBRANCH   1  13
BRANCH   5  52
ATOM     52  N   UNL     1     -44.095  38.559  29.908  1.00  0.00    -0.369 N 
ATOM     53  H   UNL     1     -43.619  37.725  29.583  1.00  0.00     0.162 HD
BRANCH  52  54
ATOM     54  C   UNL     1     -45.543  38.522  29.695  1.00  0.00     0.020 C 
ATOM     55  H   UNL     1     -45.851  38.928  28.724  1.00  0.00     0.049 H 
ATOM     56  H   UNL     1     -45.992  39.185  30.443  1.00  0.00     0.049 H 
BRANCH  54  57
ATOM     57  C   UNL     1     -46.128  37.115  29.914  1.00  0.00    -0.010 C 
ATOM     58  H   UNL     1     -45.360  36.498  30.401  1.00  0.00     0.033 H 
ATOM     59  H   UNL     1     -46.960  37.183  30.627  1.00  0.00     0.033 H 
BRANCH  57  60
ATOM     60  C   UNL     1     -46.633  36.399  28.681  1.00  0.00    -0.046 A 
ATOM     61  C   UNL     1     -48.002  36.410  28.374  1.00  0.00    -0.059 A 
ATOM     62  C   UNL     1     -45.754  35.749  27.804  1.00  0.00    -0.059 A 
ATOM     63  C   UNL     1     -48.480  35.769  27.230  1.00  0.00    -0.062 A 
ATOM     64  H   UNL     1     -48.710  36.923  29.020  1.00  0.00     0.063 H 
ATOM     65  C   UNL     1     -46.235  35.101  26.665  1.00  0.00    -0.062 A 
ATOM     66  H   UNL     1     -44.686  35.730  28.007  1.00  0.00     0.063 H 
ATOM     67  C   UNL     1     -47.597  35.111  26.377  1.00  0.00    -0.062 A 
ATOM     68  H   UNL     1     -49.542  35.789  26.996  1.00  0.00     0.062 H 
ATOM     69  H   UNL     1     -45.542  34.590  26.001  1.00  0.00     0.062 H 
ATOM     70  H   UNL     1     -47.970  34.616  25.486  1.00  0.00     0.062 H 
ENDBRANCH  57  60
ENDBRANCH  54  57
ENDBRANCH  52  54
ENDBRANCH   5  52
TORSDOF 11
ENDMDL
MODEL 5
REMARK VINA RESULT:      -9.0      1.733      2.991
REMARK SMILES Nc1ccc2cc(CC[C@H]3C[C@@H](n4ccc5c(NCCc6ccccc6)ncnc54)[C@H](O)[C@@H]3O)ccc2n1
REMARK SMILES IDX 13 1 14 2 15 3 16 4 17 5 27 6 28 7 29 8 30 9 12 13 10 14
REMARK SMILES IDX 11 15 33 16 31 20 9 24 8 27 7 30 2 31 3 32 38 33 4 34 37 36
REMARK SMILES IDX 5 37 36 39 6 40 35 41 1 45 34 48 32 50 18 52 19 54 20 57
REMARK SMILES IDX 21 60 22 61 26 62 23 63 25 65 24 67
REMARK H PARENT 14 10 15 11 28 12 10 17 11 18 11 19 33 21 12 22 31 23 9 25
REMARK H PARENT 9 26 8 28 8 29 3 35 4 38 36 42 6 43 35 44 1 46 1 47 34 49
REMARK H PARENT 32 51 18 53 19 55 19 56 20 58 20 59 22 64 26 66 23 68 25 69
REMARK H PARENT 24 70
REMARK Flexibility Score: inf
ROOT
ATOM      1  N   UNL     1     -46.616  36.201  28.534  1.00  0.00    -0.327 N 
ATOM      2  C   UNL     1     -45.491  35.520  28.144  1.00  0.00     0.007 A 
ATOM      3  C   UNL     1     -45.866  34.561  27.225  1.00  0.00    -0.031 A 
ATOM      4  C   UNL     1     -47.278  34.629  27.076  1.00  0.00     0.061 A 
ATOM      5  C   UNL     1     -48.252  33.965  26.307  1.00  0.00     0.138 A 
ATOM      6  N   UNL     1     -49.549  34.320  26.487  1.00  0.00    -0.219 NA
ATOM      7  C   UNL     1     -49.838  35.297  27.364  1.00  0.00     0.120 A 
ATOM      8  N   UNL     1     -48.992  36.015  28.118  1.00  0.00    -0.218 NA
ATOM      9  C   UNL     1     -47.718  35.633  27.927  1.00  0.00     0.145 A 
ATOM     10  H   UNL     1     -44.506  35.751  28.524  1.00  0.00     0.082 H 
ATOM     11  H   UNL     1     -45.196  33.879  26.719  1.00  0.00     0.065 H 
ATOM     12  H   UNL     1     -50.891  35.537  27.473  1.00  0.00     0.106 H 
ENDROOT
BRANCH   1  13
ATOM     13  C   UNL     1     -46.716  37.343  29.438  1.00  0.00     0.064 C 
ATOM     14  C   UNL     1     -45.450  39.309  28.608  1.00  0.00    -0.010 C 
ATOM     15  C   UNL     1     -46.855  38.675  28.672  1.00  0.00    -0.024 C 
ATOM     16  C   UNL     1     -44.550  38.401  29.458  1.00  0.00     0.085 C 
ATOM     17  H   UNL     1     -45.497  40.318  29.039  1.00  0.00     0.033 H 
ATOM     18  H   UNL     1     -47.506  39.344  29.249  1.00  0.00     0.029 H 
ATOM     19  H   UNL     1     -47.314  38.568  27.684  1.00  0.00     0.029 H 
ATOM     20  C   UNL     1     -45.512  37.604  30.348  1.00  0.00     0.101 C 
ATOM     21  H   UNL     1     -43.951  37.738  28.825  1.00  0.00     0.063 H 
ATOM     22  H   UNL     1     -47.615  37.167  30.043  1.00  0.00     0.056 H 
ATOM     23  H   UNL     1     -45.047  36.703  30.758  1.00  0.00     0.065 H 
BRANCH  14  24
ATOM     24  C   UNL     1     -44.960  39.434  27.156  1.00  0.00    -0.044 C 
ATOM     25  H   UNL     1     -45.707  39.993  26.575  1.00  0.00     0.027 H 
ATOM     26  H   UNL     1     -44.901  38.437  26.698  1.00  0.00     0.027 H 
BRANCH  24  27
ATOM     27  C   UNL     1     -43.605  40.140  27.043  1.00  0.00    -0.028 C 
ATOM     28  H   UNL     1     -42.961  39.632  26.316  1.00  0.00     0.032 H 
ATOM     29  H   UNL     1     -43.074  40.098  28.002  1.00  0.00     0.032 H 
BRANCH  27  30
ATOM     30  C   UNL     1     -43.773  41.582  26.630  1.00  0.00    -0.047 A 
ATOM     31  C   UNL     1     -44.521  45.907  24.269  1.00  0.00     0.124 A 
ATOM     32  C   UNL     1     -44.817  44.955  23.309  1.00  0.00    -0.019 A 
ATOM     33  N   UNL     1     -44.126  45.595  25.514  1.00  0.00    -0.231 NA
ATOM     34  C   UNL     1     -44.716  43.610  23.649  1.00  0.00    -0.049 A 
ATOM     35  H   UNL     1     -45.110  45.250  22.307  1.00  0.00     0.066 H 
ATOM     36  C   UNL     1     -44.024  44.295  25.846  1.00  0.00     0.073 A 
ATOM     37  C   UNL     1     -44.313  43.256  24.940  1.00  0.00     0.001 A 
ATOM     38  H   UNL     1     -44.943  42.853  22.906  1.00  0.00     0.063 H 
ATOM     39  C   UNL     1     -43.616  43.950  27.126  1.00  0.00    -0.035 A 
ATOM     40  C   UNL     1     -44.189  41.910  25.335  1.00  0.00    -0.050 A 
ATOM     41  C   UNL     1     -43.484  42.615  27.523  1.00  0.00    -0.057 A 
ATOM     42  H   UNL     1     -43.388  44.744  27.833  1.00  0.00     0.065 H 
ATOM     43  H   UNL     1     -44.411  41.115  24.626  1.00  0.00     0.063 H 
ATOM     44  H   UNL     1     -43.151  42.395  28.536  1.00  0.00     0.063 H 
BRANCH  31  45
ATOM     45  N   UNL     1     -44.595  47.264  23.963  1.00  0.00    -0.384 N 
ATOM     46  H   UNL     1     -43.762  47.489  23.426  1.00  0.00     0.158 HD
ATOM     47  H   UNL     1     -44.668  47.829  24.800  1.00  0.00     0.158 HD
ENDBRANCH  31  45
ENDBRANCH  27  30
ENDBRANCH  24  27
ENDBRANCH  14  24
BRANCH  16  48
ATOM     48  O   UNL     1     -43.665  39.180  30.260  1.00  0.00    -0.390 OA
ATOM     49  H   UNL     1     -43.910  39.035  31.191  1.00  0.00     0.211 HD
ENDBRANCH  16  48
BRANCH  20  50
ATOM     50  O   UNL     1     -45.909  38.410  31.468  1.00  0.00    -0.388 OA
ATOM     51  H   UNL     1     -46.326  39.214  31.094  1.00  0.00     0.211 HD
ENDBRANCH  20  50
ENDBRANCH   1  13
BRANCH   5  52
ATOM     52  N   UNL     1     -47.918  32.962  25.390  1.00  0.00    -0.369 N 
ATOM     53  H   UNL     1     -47.511  33.364  24.553  1.00  0.00     0.162 HD
BRANCH  52  54
ATOM     54  C   UNL     1     -48.981  31.995  25.112  1.00  0.00     0.020 C 
ATOM     55  H   UNL     1     -49.987  32.430  25.146  1.00  0.00     0.049 H 
ATOM     56  H   UNL     1     -48.956  31.254  25.919  1.00  0.00     0.049 H 
BRANCH  54  57
ATOM     57  C   UNL     1     -48.752  31.242  23.788  1.00  0.00    -0.010 C 
ATOM     58  H   UNL     1     -49.725  31.120  23.293  1.00  0.00     0.033 H 
ATOM     59  H   UNL     1     -48.149  31.870  23.121  1.00  0.00     0.033 H 
BRANCH  57  60
ATOM     60  C   UNL     1     -48.075  29.894  23.892  1.00  0.00    -0.046 A 
ATOM     61  C   UNL     1     -46.837  29.679  23.265  1.00  0.00    -0.059 A 
ATOM     62  C   UNL     1     -48.637  28.851  24.639  1.00  0.00    -0.059 A 
ATOM     63  C   UNL     1     -46.192  28.446  23.368  1.00  0.00    -0.062 A 
ATOM     64  H   UNL     1     -46.361  30.473  22.696  1.00  0.00     0.063 H 
ATOM     65  C   UNL     1     -47.995  27.615  24.734  1.00  0.00    -0.062 A 
ATOM     66  H   UNL     1     -49.590  28.986  25.146  1.00  0.00     0.063 H 
ATOM     67  C   UNL     1     -46.772  27.412  24.099  1.00  0.00    -0.062 A 
ATOM     68  H   UNL     1     -45.230  28.292  22.885  1.00  0.00     0.062 H 
ATOM     69  H   UNL     1     -48.450  26.811  25.306  1.00  0.00     0.062 H 
ATOM     70  H   UNL     1     -46.266  26.455  24.180  1.00  0.00     0.062 H 
ENDBRANCH  57  60
ENDBRANCH  54  57
ENDBRANCH  52  54
ENDBRANCH   5  52
TORSDOF 11
ENDMDL
MODEL 6
REMARK VINA RESULT:      -8.9      2.524     12.244
REMARK SMILES Nc1ccc2cc(CC[C@H]3C[C@@H](n4ccc5c(NCCc6ccccc6)ncnc54)[C@H](O)[C@@H]3O)ccc2n1
REMARK SMILES IDX 13 1 14 2 15 3 16 4 17 5 27 6 28 7 29 8 30 9 12 13 10 14
REMARK SMILES IDX 11 15 33 16 31 20 9 24 8 27 7 30 2 31 3 32 38 33 4 34 37 36
REMARK SMILES IDX 5 37 36 39 6 40 35 41 1 45 34 48 32 50 18 52 19 54 20 57
REMARK SMILES IDX 21 60 22 61 26 62 23 63 25 65 24 67
REMARK H PARENT 14 10 15 11 28 12 10 17 11 18 11 19 33 21 12 22 31 23 9 25
REMARK H PARENT 9 26 8 28 8 29 3 35 4 38 36 42 6 43 35 44 1 46 1 47 34 49
REMARK H PARENT 32 51 18 53 19 55 19 56 20 58 20 59 22 64 26 66 23 68 25 69
REMARK H PARENT 24 70
REMARK Flexibility Score: inf
ROOT
ATOM      1  N   UNL     1     -45.468  39.485  27.837  1.00  0.00    -0.327 N 
ATOM      2  C   UNL     1     -46.529  39.703  26.994  1.00  0.00     0.007 A 
ATOM      3  C   UNL     1     -46.202  40.746  26.151  1.00  0.00    -0.031 A 
ATOM      4  C   UNL     1     -44.910  41.212  26.516  1.00  0.00     0.061 A 
ATOM      5  C   UNL     1     -44.020  42.203  26.060  1.00  0.00     0.138 A 
ATOM      6  N   UNL     1     -42.849  42.355  26.726  1.00  0.00    -0.219 NA
ATOM      7  C   UNL     1     -42.583  41.545  27.766  1.00  0.00     0.120 A 
ATOM      8  N   UNL     1     -43.338  40.551  28.259  1.00  0.00    -0.218 NA
ATOM      9  C   UNL     1     -44.496  40.433  27.587  1.00  0.00     0.145 A 
ATOM     10  H   UNL     1     -47.435  39.115  27.030  1.00  0.00     0.082 H 
ATOM     11  H   UNL     1     -46.829  41.135  25.361  1.00  0.00     0.065 H 
ATOM     12  H   UNL     1     -41.635  41.713  28.265  1.00  0.00     0.106 H 
ENDROOT
BRANCH   1  13
ATOM     13  C   UNL     1     -45.317  38.451  28.855  1.00  0.00     0.064 C 
ATOM     14  C   UNL     1     -46.223  36.264  28.110  1.00  0.00    -0.010 C 
ATOM     15  C   UNL     1     -44.927  37.090  28.242  1.00  0.00    -0.024 C 
ATOM     16  C   UNL     1     -47.318  37.108  28.778  1.00  0.00     0.085 C 
ATOM     17  H   UNL     1     -46.091  35.312  28.642  1.00  0.00     0.033 H 
ATOM     18  H   UNL     1     -44.259  36.570  28.940  1.00  0.00     0.029 H 
ATOM     19  H   UNL     1     -44.384  37.175  27.295  1.00  0.00     0.029 H 
ATOM     20  C   UNL     1     -46.567  38.104  29.670  1.00  0.00     0.101 C 
ATOM     21  H   UNL     1     -47.928  37.624  28.029  1.00  0.00     0.063 H 
ATOM     22  H   UNL     1     -44.518  38.801  29.521  1.00  0.00     0.056 H 
ATOM     23  H   UNL     1     -47.185  38.964  29.944  1.00  0.00     0.065 H 
BRANCH  14  24
ATOM     24  C   UNL     1     -46.536  35.947  26.639  1.00  0.00    -0.044 C 
ATOM     25  H   UNL     1     -45.714  35.351  26.220  1.00  0.00     0.027 H 
ATOM     26  H   UNL     1     -46.564  36.879  26.058  1.00  0.00     0.027 H 
BRANCH  24  27
ATOM     27  C   UNL     1     -47.851  35.182  26.460  1.00  0.00    -0.028 C 
ATOM     28  H   UNL     1     -48.575  35.780  25.894  1.00  0.00     0.032 H 
ATOM     29  H   UNL     1     -48.313  34.990  27.437  1.00  0.00     0.032 H 
BRANCH  27  30
ATOM     30  C   UNL     1     -47.629  33.871  25.748  1.00  0.00    -0.047 A 
ATOM     31  C   UNL     1     -47.889  29.290  23.803  1.00  0.00     0.124 A 
ATOM     32  C   UNL     1     -49.135  29.472  24.379  1.00  0.00    -0.019 A 
ATOM     33  N   UNL     1     -46.920  30.219  23.841  1.00  0.00    -0.231 NA
ATOM     34  C   UNL     1     -49.405  30.678  25.016  1.00  0.00    -0.049 A 
ATOM     35  H   UNL     1     -49.881  28.686  24.346  1.00  0.00     0.066 H 
ATOM     36  C   UNL     1     -47.177  31.387  24.459  1.00  0.00     0.073 A 
ATOM     37  C   UNL     1     -48.418  31.666  25.066  1.00  0.00     0.001 A 
ATOM     38  H   UNL     1     -50.377  30.834  25.474  1.00  0.00     0.063 H 
ATOM     39  C   UNL     1     -46.191  32.360  24.512  1.00  0.00    -0.035 A 
ATOM     40  C   UNL     1     -48.637  32.903  25.702  1.00  0.00    -0.050 A 
ATOM     41  C   UNL     1     -46.400  33.588  25.149  1.00  0.00    -0.057 A 
ATOM     42  H   UNL     1     -45.229  32.154  24.049  1.00  0.00     0.065 H 
ATOM     43  H   UNL     1     -49.598  33.107  26.171  1.00  0.00     0.063 H 
ATOM     44  H   UNL     1     -45.591  34.316  25.172  1.00  0.00     0.063 H 
BRANCH  31  45
ATOM     45  N   UNL     1     -47.573  28.090  23.170  1.00  0.00    -0.384 N 
ATOM     46  H   UNL     1     -47.476  28.298  22.180  1.00  0.00     0.158 HD
ATOM     47  H   UNL     1     -48.277  27.383  23.340  1.00  0.00     0.158 HD
ENDBRANCH  31  45
ENDBRANCH  27  30
ENDBRANCH  24  27
ENDBRANCH  14  24
BRANCH  16  48
ATOM     48  O   UNL     1     -48.174  36.285  29.567  1.00  0.00    -0.390 OA
ATOM     49  H   UNL     1     -49.086  36.600  29.435  1.00  0.00     0.211 HD
ENDBRANCH  16  48
BRANCH  20  50
ATOM     50  O   UNL     1     -46.189  37.460  30.897  1.00  0.00    -0.388 OA
ATOM     51  H   UNL     1     -46.129  38.168  31.572  1.00  0.00     0.211 HD
ENDBRANCH  20  50
ENDBRANCH   1  13
BRANCH   5  52
ATOM     52  N   UNL     1     -44.319  43.021  24.965  1.00  0.00    -0.369 N 
ATOM     53  H   UNL     1     -44.488  42.462  24.136  1.00  0.00     0.162 HD
BRANCH  52  54
ATOM     54  C   UNL     1     -43.384  44.125  24.740  1.00  0.00     0.020 C 
ATOM     55  H   UNL     1     -42.745  44.339  25.606  1.00  0.00     0.049 H 
ATOM     56  H   UNL     1     -43.987  45.029  24.594  1.00  0.00     0.049 H 
BRANCH  54  57
ATOM     57  C   UNL     1     -42.539  43.924  23.469  1.00  0.00    -0.010 C 
ATOM     58  H   UNL     1     -41.484  44.087  23.732  1.00  0.00     0.033 H 
ATOM     59  H   UNL     1     -42.616  42.876  23.153  1.00  0.00     0.033 H 
BRANCH  57  60
ATOM     60  C   UNL     1     -42.895  44.793  22.283  1.00  0.00    -0.046 A 
ATOM     61  C   UNL     1     -42.176  44.673  21.084  1.00  0.00    -0.059 A 
ATOM     62  C   UNL     1     -43.963  45.697  22.337  1.00  0.00    -0.059 A 
ATOM     63  C   UNL     1     -42.505  45.454  19.975  1.00  0.00    -0.062 A 
ATOM     64  H   UNL     1     -41.355  43.965  21.000  1.00  0.00     0.063 H 
ATOM     65  C   UNL     1     -44.286  46.485  21.230  1.00  0.00    -0.062 A 
ATOM     66  H   UNL     1     -44.547  45.809  23.247  1.00  0.00     0.063 H 
ATOM     67  C   UNL     1     -43.558  46.363  20.049  1.00  0.00    -0.062 A 
ATOM     68  H   UNL     1     -41.947  45.349  19.048  1.00  0.00     0.062 H 
ATOM     69  H   UNL     1     -45.109  47.192  21.291  1.00  0.00     0.062 H 
ATOM     70  H   UNL     1     -43.814  46.968  19.185  1.00  0.00     0.062 H 
ENDBRANCH  57  60
ENDBRANCH  54  57
ENDBRANCH  52  54
ENDBRANCH   5  52
TORSDOF 11
ENDMDL
MODEL 7
REMARK VINA RESULT:      -8.9      1.480      2.178
REMARK SMILES Nc1ccc2cc(CC[C@H]3C[C@@H](n4ccc5c(NCCc6ccccc6)ncnc54)[C@H](O)[C@@H]3O)ccc2n1
REMARK SMILES IDX 13 1 14 2 15 3 16 4 17 5 27 6 28 7 29 8 30 9 12 13 10 14
REMARK SMILES IDX 11 15 33 16 31 20 9 24 8 27 7 30 2 31 3 32 38 33 4 34 37 36
REMARK SMILES IDX 5 37 36 39 6 40 35 41 1 45 34 48 32 50 18 52 19 54 20 57
REMARK SMILES IDX 21 60 22 61 26 62 23 63 25 65 24 67
REMARK H PARENT 14 10 15 11 28 12 10 17 11 18 11 19 33 21 12 22 31 23 9 25
REMARK H PARENT 9 26 8 28 8 29 3 35 4 38 36 42 6 43 35 44 1 46 1 47 34 49
REMARK H PARENT 32 51 18 53 19 55 19 56 20 58 20 59 22 64 26 66 23 68 25 69
REMARK H PARENT 24 70
REMARK Flexibility Score: inf
ROOT
ATOM      1  N   UNL     1     -47.108  34.714  27.102  1.00  0.00    -0.327 N 
ATOM      2  C   UNL     1     -45.862  34.609  26.535  1.00  0.00     0.007 A 
ATOM      3  C   UNL     1     -45.938  33.702  25.497  1.00  0.00    -0.031 A 
ATOM      4  C   UNL     1     -47.268  33.202  25.452  1.00  0.00     0.061 A 
ATOM      5  C   UNL     1     -47.986  32.296  24.648  1.00  0.00     0.138 A 
ATOM      6  N   UNL     1     -49.283  32.062  24.966  1.00  0.00    -0.219 NA
ATOM      7  C   UNL     1     -49.825  32.717  26.007  1.00  0.00     0.120 A 
ATOM      8  N   UNL     1     -49.246  33.621  26.812  1.00  0.00    -0.218 NA
ATOM      9  C   UNL     1     -47.960  33.823  26.481  1.00  0.00     0.145 A 
ATOM     10  H   UNL     1     -45.011  35.176  26.884  1.00  0.00     0.082 H 
ATOM     11  H   UNL     1     -45.121  33.423  24.846  1.00  0.00     0.065 H 
ATOM     12  H   UNL     1     -50.864  32.489  26.220  1.00  0.00     0.106 H 
ENDROOT
BRANCH   1  13
ATOM     13  C   UNL     1     -47.539  35.593  28.184  1.00  0.00     0.064 C 
ATOM     14  C   UNL     1     -46.874  37.952  27.797  1.00  0.00    -0.010 C 
ATOM     15  C   UNL     1     -48.042  36.953  27.658  1.00  0.00    -0.024 C 
ATOM     16  C   UNL     1     -45.763  37.186  28.530  1.00  0.00     0.085 C 
ATOM     17  H   UNL     1     -47.212  38.809  28.395  1.00  0.00     0.033 H 
ATOM     18  H   UNL     1     -48.863  37.295  28.300  1.00  0.00     0.029 H 
ATOM     19  H   UNL     1     -48.439  36.910  26.639  1.00  0.00     0.029 H 
ATOM     20  C   UNL     1     -46.470  36.002  29.202  1.00  0.00     0.101 C 
ATOM     21  H   UNL     1     -44.993  36.847  27.831  1.00  0.00     0.063 H 
ATOM     22  H   UNL     1     -48.358  35.065  28.690  1.00  0.00     0.056 H 
ATOM     23  H   UNL     1     -45.773  35.205  29.476  1.00  0.00     0.065 H 
BRANCH  14  24
ATOM     24  C   UNL     1     -46.423  38.478  26.425  1.00  0.00    -0.044 C 
ATOM     25  H   UNL     1     -47.195  39.152  26.030  1.00  0.00     0.027 H 
ATOM     26  H   UNL     1     -46.353  37.644  25.714  1.00  0.00     0.027 H 
BRANCH  24  27
ATOM     27  C   UNL     1     -45.087  39.226  26.483  1.00  0.00    -0.028 C 
ATOM     28  H   UNL     1     -44.389  38.834  25.734  1.00  0.00     0.032 H 
ATOM     29  H   UNL     1     -44.607  39.069  27.457  1.00  0.00     0.032 H 
BRANCH  27  30
ATOM     30  C   UNL     1     -45.278  40.705  26.254  1.00  0.00    -0.047 A 
ATOM     31  C   UNL     1     -44.806  45.605  25.477  1.00  0.00     0.124 A 
ATOM     32  C   UNL     1     -43.507  45.134  25.395  1.00  0.00    -0.019 A 
ATOM     33  N   UNL     1     -45.860  44.811  25.723  1.00  0.00    -0.231 NA
ATOM     34  C   UNL     1     -43.280  43.773  25.560  1.00  0.00    -0.049 A 
ATOM     35  H   UNL     1     -42.681  45.814  25.217  1.00  0.00     0.066 H 
ATOM     36  C   UNL     1     -45.644  43.492  25.887  1.00  0.00     0.073 A 
ATOM     37  C   UNL     1     -44.358  42.920  25.812  1.00  0.00     0.001 A 
ATOM     38  H   UNL     1     -42.266  43.390  25.500  1.00  0.00     0.063 H 
ATOM     39  C   UNL     1     -46.717  42.654  26.145  1.00  0.00    -0.035 A 
ATOM     40  C   UNL     1     -44.183  41.535  25.992  1.00  0.00    -0.050 A 
ATOM     41  C   UNL     1     -46.550  41.277  26.332  1.00  0.00    -0.057 A 
ATOM     42  H   UNL     1     -47.714  43.084  26.207  1.00  0.00     0.065 H 
ATOM     43  H   UNL     1     -43.186  41.104  25.936  1.00  0.00     0.063 H 
ATOM     44  H   UNL     1     -47.423  40.662  26.541  1.00  0.00     0.063 H 
BRANCH  31  45
ATOM     45  N   UNL     1     -45.075  46.964  25.333  1.00  0.00    -0.384 N 
ATOM     46  H   UNL     1     -45.204  47.338  26.270  1.00  0.00     0.158 HD
ATOM     47  H   UNL     1     -45.887  47.122  24.749  1.00  0.00     0.158 HD
ENDBRANCH  31  45
ENDBRANCH  27  30
ENDBRANCH  24  27
ENDBRANCH  14  24
BRANCH  16  48
ATOM     48  O   UNL     1     -45.146  38.016  29.512  1.00  0.00    -0.390 OA
ATOM     49  H   UNL     1     -45.570  37.821  30.368  1.00  0.00     0.211 HD
ENDBRANCH  16  48
BRANCH  20  50
ATOM     50  O   UNL     1     -47.094  36.442  30.418  1.00  0.00    -0.388 OA
ATOM     51  H   UNL     1     -47.004  35.704  31.056  1.00  0.00     0.211 HD
ENDBRANCH  20  50
ENDBRANCH   1  13
BRANCH   5  52
ATOM     52  N   UNL     1     -47.398  31.641  23.560  1.00  0.00    -0.369 N 
ATOM     53  H   UNL     1     -47.144  32.305  22.837  1.00  0.00     0.162 HD
BRANCH  52  54
ATOM     54  C   UNL     1     -48.143  30.487  23.054  1.00  0.00     0.020 C 
ATOM     55  H   UNL     1     -48.759  30.717  22.176  1.00  0.00     0.049 H 
ATOM     56  H   UNL     1     -48.850  30.195  23.838  1.00  0.00     0.049 H 
BRANCH  54  57
ATOM     57  C   UNL     1     -47.230  29.277  22.783  1.00  0.00    -0.010 C 
ATOM     58  H   UNL     1     -47.484  28.873  21.793  1.00  0.00     0.033 H 
ATOM     59  H   UNL     1     -46.191  29.624  22.711  1.00  0.00     0.033 H 
BRANCH  57  60
ATOM     60  C   UNL     1     -47.275  28.161  23.802  1.00  0.00    -0.046 A 
ATOM     61  C   UNL     1     -48.469  27.882  24.485  1.00  0.00    -0.059 A 
ATOM     62  C   UNL     1     -46.154  27.361  24.058  1.00  0.00    -0.059 A 
ATOM     63  C   UNL     1     -48.531  26.843  25.415  1.00  0.00    -0.062 A 
ATOM     64  H   UNL     1     -49.365  28.468  24.296  1.00  0.00     0.063 H 
ATOM     65  C   UNL     1     -46.214  26.328  24.995  1.00  0.00    -0.062 A 
ATOM     66  H   UNL     1     -45.216  27.543  23.539  1.00  0.00     0.063 H 
ATOM     67  C   UNL     1     -47.402  26.068  25.673  1.00  0.00    -0.062 A 
ATOM     68  H   UNL     1     -49.462  26.629  25.934  1.00  0.00     0.062 H 
ATOM     69  H   UNL     1     -45.332  25.724  25.192  1.00  0.00     0.062 H 
ATOM     70  H   UNL     1     -47.454  25.258  26.394  1.00  0.00     0.062 H 
ENDBRANCH  57  60
ENDBRANCH  54  57
ENDBRANCH  52  54
ENDBRANCH   5  52
TORSDOF 11
ENDMDL
