MODEL 1
REMARK VINA RESULT:     -11.5      0.000      0.000
REMARK SMILES O=C(NCc1ccc2cc(CN3CC4(CC(F)C4)C3)[nH]c2c1)c1cc(=O)n2ccccc2n1
REMARK SMILES IDX 5 1 6 2 7 3 8 4 9 5 10 6 20 7 21 8 22 9 4 15 3 18 1 19 2 20
REMARK SMILES IDX 23 22 24 23 33 24 25 25 32 27 26 28 27 29 31 30 28 31 30 32
REMARK SMILES IDX 29 34 11 38 12 41 13 42 19 43 14 44 15 49 18 50 16 51 17 56
REMARK H PARENT 6 10 7 11 9 12 20 13 22 14 4 16 4 17 3 21 24 26 31 33 28 35
REMARK H PARENT 30 36 29 37 11 39 11 40 13 45 13 46 19 47 19 48 15 52 15 53
REMARK H PARENT 18 54 18 55 16 57
REMARK Flexibility Score: inf
ROOT
ATOM      1  C   UNL     1     -47.988  34.895  26.762  1.00  0.00    -0.027 A 
ATOM      2  C   UNL     1     -46.710  34.856  26.191  1.00  0.00    -0.057 A 
ATOM      3  C   UNL     1     -46.331  33.815  25.332  1.00  0.00    -0.052 A 
ATOM      4  C   UNL     1     -47.257  32.798  25.032  1.00  0.00    -0.000 A 
ATOM      5  C   UNL     1     -47.212  31.625  24.228  1.00  0.00    -0.032 A 
ATOM      6  C   UNL     1     -48.440  31.000  24.316  1.00  0.00     0.030 A 
ATOM      7  N   UNL     1     -49.224  31.765  25.146  1.00  0.00    -0.357 N 
ATOM      8  C   UNL     1     -48.528  32.860  25.599  1.00  0.00     0.046 A 
ATOM      9  C   UNL     1     -48.924  33.891  26.460  1.00  0.00    -0.033 A 
ATOM     10  H   UNL     1     -45.990  35.642  26.410  1.00  0.00     0.063 H 
ATOM     11  H   UNL     1     -45.335  33.797  24.902  1.00  0.00     0.063 H 
ATOM     12  H   UNL     1     -46.367  31.280  23.647  1.00  0.00     0.065 H 
ATOM     13  H   UNL     1     -50.170  31.520  25.407  1.00  0.00     0.166 HD
ATOM     14  H   UNL     1     -49.925  33.914  26.881  1.00  0.00     0.065 H 
ENDROOT
BRANCH   1  15
ATOM     15  C   UNL     1     -48.382  36.041  27.659  1.00  0.00     0.043 C 
ATOM     16  H   UNL     1     -48.500  35.704  28.695  1.00  0.00     0.054 H 
ATOM     17  H   UNL     1     -49.346  36.463  27.352  1.00  0.00     0.054 H 
BRANCH  15  18
ATOM     18  N   UNL     1     -47.387  37.079  27.625  1.00  0.00    -0.347 N 
ATOM     19  O   UNL     1     -46.544  36.670  29.721  1.00  0.00    -0.268 OA
ATOM     20  C   UNL     1     -46.529  37.302  28.671  1.00  0.00     0.270 C 
ATOM     21  H   UNL     1     -47.266  37.648  26.792  1.00  0.00     0.164 HD
BRANCH  20  22
ATOM     22  C   UNL     1     -45.551  38.417  28.387  1.00  0.00     0.136 A 
ATOM     23  C   UNL     1     -45.723  39.080  27.241  1.00  0.00     0.035 A 
ATOM     24  N   UNL     1     -44.561  38.680  29.306  1.00  0.00    -0.225 NA
ATOM     25  C   UNL     1     -44.795  40.172  26.924  1.00  0.00     0.258 A 
ATOM     26  H   UNL     1     -46.506  38.864  26.527  1.00  0.00     0.071 H 
ATOM     27  C   UNL     1     -43.742  39.646  29.022  1.00  0.00     0.140 A 
ATOM     28  O   UNL     1     -44.944  40.789  25.871  1.00  0.00    -0.269 OA
ATOM     29  N   UNL     1     -43.806  40.417  27.867  1.00  0.00    -0.268 N 
ATOM     30  C   UNL     1     -42.653  39.965  29.989  1.00  0.00    -0.019 A 
ATOM     31  C   UNL     1     -42.888  41.437  27.636  1.00  0.00     0.014 A 
ATOM     32  C   UNL     1     -41.794  40.957  29.723  1.00  0.00    -0.057 A 
ATOM     33  H   UNL     1     -42.596  39.370  30.891  1.00  0.00     0.066 H 
ATOM     34  C   UNL     1     -41.912  41.719  28.509  1.00  0.00    -0.045 A 
ATOM     35  H   UNL     1     -42.997  41.999  26.712  1.00  0.00     0.082 H 
ATOM     36  H   UNL     1     -40.994  41.204  30.413  1.00  0.00     0.062 H 
ATOM     37  H   UNL     1     -41.202  42.516  28.319  1.00  0.00     0.064 H 
ENDBRANCH  20  22
ENDBRANCH  15  18
ENDBRANCH   1  15
BRANCH   6  38
ATOM     38  C   UNL     1     -48.953  29.750  23.678  1.00  0.00     0.039 C 
ATOM     39  H   UNL     1     -48.306  29.469  22.838  1.00  0.00     0.050 H 
ATOM     40  H   UNL     1     -49.942  29.975  23.257  1.00  0.00     0.050 H 
BRANCH  38  41
ATOM     41  N   UNL     1     -49.094  28.673  24.666  1.00  0.00    -0.296 NA
ATOM     42  C   UNL     1     -48.818  27.353  24.028  1.00  0.00     0.006 C 
ATOM     43  C   UNL     1     -47.843  28.528  25.476  1.00  0.00     0.006 C 
ATOM     44  C   UNL     1     -47.931  27.048  25.199  1.00  0.00     0.001 C 
ATOM     45  H   UNL     1     -49.702  26.718  23.914  1.00  0.00     0.044 H 
ATOM     46  H   UNL     1     -48.293  27.391  23.065  1.00  0.00     0.044 H 
ATOM     47  H   UNL     1     -47.950  28.835  26.522  1.00  0.00     0.044 H 
ATOM     48  H   UNL     1     -46.949  29.013  25.063  1.00  0.00     0.044 H 
ATOM     49  C   UNL     1     -48.416  26.136  26.300  1.00  0.00    -0.013 C 
ATOM     50  C   UNL     1     -46.670  26.247  25.030  1.00  0.00    -0.013 C 
ATOM     51  C   UNL     1     -46.933  25.697  26.462  1.00  0.00     0.101 C 
ATOM     52  H   UNL     1     -48.859  26.612  27.179  1.00  0.00     0.030 H 
ATOM     53  H   UNL     1     -49.074  25.326  25.966  1.00  0.00     0.030 H 
ATOM     54  H   UNL     1     -45.741  26.811  24.912  1.00  0.00     0.030 H 
ATOM     55  H   UNL     1     -46.721  25.477  24.252  1.00  0.00     0.030 H 
ATOM     56  F   UNL     1     -46.253  26.330  27.448  1.00  0.00    -0.247 F 
ATOM     57  H   UNL     1     -46.809  24.611  26.537  1.00  0.00     0.066 H 
ENDBRANCH  38  41
ENDBRANCH   6  38
TORSDOF 5
ENDMDL
MODEL 2
REMARK VINA RESULT:     -10.8      2.152      3.418
REMARK SMILES O=C(NCc1ccc2cc(CN3CC4(CC(F)C4)C3)[nH]c2c1)c1cc(=O)n2ccccc2n1
REMARK SMILES IDX 5 1 6 2 7 3 8 4 9 5 10 6 20 7 21 8 22 9 4 15 3 18 1 19 2 20
REMARK SMILES IDX 23 22 24 23 33 24 25 25 32 27 26 28 27 29 31 30 28 31 30 32
REMARK SMILES IDX 29 34 11 38 12 41 13 42 19 43 14 44 15 49 18 50 16 51 17 56
REMARK H PARENT 6 10 7 11 9 12 20 13 22 14 4 16 4 17 3 21 24 26 31 33 28 35
REMARK H PARENT 30 36 29 37 11 39 11 40 13 45 13 46 19 47 19 48 15 52 15 53
REMARK H PARENT 18 54 18 55 16 57
REMARK Flexibility Score: inf
ROOT
ATOM      1  C   UNL     1     -46.289  36.196  28.259  1.00  0.00    -0.027 A 
ATOM      2  C   UNL     1     -47.671  36.268  28.041  1.00  0.00    -0.057 A 
ATOM      3  C   UNL     1     -48.306  35.418  27.126  1.00  0.00    -0.052 A 
ATOM      4  C   UNL     1     -47.541  34.468  26.422  1.00  0.00    -0.000 A 
ATOM      5  C   UNL     1     -47.846  33.479  25.446  1.00  0.00    -0.032 A 
ATOM      6  C   UNL     1     -46.672  32.834  25.111  1.00  0.00     0.030 A 
ATOM      7  N   UNL     1     -45.670  33.403  25.861  1.00  0.00    -0.357 N 
ATOM      8  C   UNL     1     -46.170  34.402  26.662  1.00  0.00     0.046 A 
ATOM      9  C   UNL     1     -45.518  35.244  27.571  1.00  0.00    -0.033 A 
ATOM     10  H   UNL     1     -48.272  36.994  28.585  1.00  0.00     0.063 H 
ATOM     11  H   UNL     1     -49.376  35.491  26.964  1.00  0.00     0.063 H 
ATOM     12  H   UNL     1     -48.824  33.265  25.035  1.00  0.00     0.065 H 
ATOM     13  H   UNL     1     -44.697  33.135  25.792  1.00  0.00     0.166 HD
ATOM     14  H   UNL     1     -44.448  35.162  27.740  1.00  0.00     0.065 H 
ENDROOT
BRANCH   1  15
ATOM     15  C   UNL     1     -45.634  37.101  29.271  1.00  0.00     0.043 C 
ATOM     16  H   UNL     1     -44.926  36.543  29.894  1.00  0.00     0.054 H 
ATOM     17  H   UNL     1     -46.380  37.532  29.949  1.00  0.00     0.054 H 
BRANCH  15  18
ATOM     18  N   UNL     1     -44.927  38.169  28.617  1.00  0.00    -0.347 N 
ATOM     19  O   UNL     1     -46.716  39.602  28.498  1.00  0.00    -0.268 OA
ATOM     20  C   UNL     1     -45.534  39.355  28.292  1.00  0.00     0.270 C 
ATOM     21  H   UNL     1     -43.933  38.084  28.423  1.00  0.00     0.164 HD
BRANCH  20  22
ATOM     22  C   UNL     1     -44.580  40.333  27.650  1.00  0.00     0.136 A 
ATOM     23  C   UNL     1     -43.451  40.586  28.316  1.00  0.00     0.035 A 
ATOM     24  N   UNL     1     -44.922  40.897  26.442  1.00  0.00    -0.225 NA
ATOM     25  C   UNL     1     -42.494  41.532  27.729  1.00  0.00     0.258 A 
ATOM     26  H   UNL     1     -43.193  40.135  29.266  1.00  0.00     0.071 H 
ATOM     27  C   UNL     1     -44.074  41.733  25.926  1.00  0.00     0.140 A 
ATOM     28  O   UNL     1     -41.451  41.771  28.335  1.00  0.00    -0.269 OA
ATOM     29  N   UNL     1     -42.863  42.086  26.512  1.00  0.00    -0.268 N 
ATOM     30  C   UNL     1     -44.403  42.369  24.619  1.00  0.00    -0.019 A 
ATOM     31  C   UNL     1     -42.007  42.992  25.893  1.00  0.00     0.014 A 
ATOM     32  C   UNL     1     -43.547  43.235  24.063  1.00  0.00    -0.057 A 
ATOM     33  H   UNL     1     -45.345  42.100  24.156  1.00  0.00     0.066 H 
ATOM     34  C   UNL     1     -42.308  43.559  24.718  1.00  0.00    -0.045 A 
ATOM     35  H   UNL     1     -41.076  43.222  26.407  1.00  0.00     0.082 H 
ATOM     36  H   UNL     1     -43.769  43.708  23.112  1.00  0.00     0.062 H 
ATOM     37  H   UNL     1     -41.634  44.264  24.246  1.00  0.00     0.064 H 
ENDBRANCH  20  22
ENDBRANCH  15  18
ENDBRANCH   1  15
BRANCH   6  38
ATOM     38  C   UNL     1     -46.403  31.716  24.157  1.00  0.00     0.039 C 
ATOM     39  H   UNL     1     -45.664  31.029  24.588  1.00  0.00     0.050 H 
ATOM     40  H   UNL     1     -45.949  32.149  23.257  1.00  0.00     0.050 H 
BRANCH  38  41
ATOM     41  N   UNL     1     -47.649  31.036  23.777  1.00  0.00    -0.296 NA
ATOM     42  C   UNL     1     -47.343  29.822  22.966  1.00  0.00     0.006 C 
ATOM     43  C   UNL     1     -48.133  30.157  24.888  1.00  0.00     0.006 C 
ATOM     44  C   UNL     1     -48.297  29.073  23.850  1.00  0.00     0.001 C 
ATOM     45  H   UNL     1     -47.625  29.906  21.912  1.00  0.00     0.044 H 
ATOM     46  H   UNL     1     -46.307  29.463  23.019  1.00  0.00     0.044 H 
ATOM     47  H   UNL     1     -49.050  30.511  25.370  1.00  0.00     0.044 H 
ATOM     48  H   UNL     1     -47.397  29.926  25.669  1.00  0.00     0.044 H 
ATOM     49  C   UNL     1     -49.687  28.748  23.361  1.00  0.00    -0.013 C 
ATOM     50  C   UNL     1     -48.045  27.640  24.226  1.00  0.00    -0.013 C 
ATOM     51  C   UNL     1     -49.591  27.462  24.231  1.00  0.00     0.101 C 
ATOM     52  H   UNL     1     -50.486  29.440  23.641  1.00  0.00     0.030 H 
ATOM     53  H   UNL     1     -49.757  28.541  22.286  1.00  0.00     0.030 H 
ATOM     54  H   UNL     1     -47.554  27.462  25.186  1.00  0.00     0.030 H 
ATOM     55  H   UNL     1     -47.541  27.049  23.453  1.00  0.00     0.030 H 
ATOM     56  F   UNL     1     -50.171  27.552  25.451  1.00  0.00    -0.247 F 
ATOM     57  H   UNL     1     -49.923  26.559  23.706  1.00  0.00     0.066 H 
ENDBRANCH  38  41
ENDBRANCH   6  38
TORSDOF 5
ENDMDL
MODEL 3
REMARK VINA RESULT:     -10.7      1.453      2.101
REMARK SMILES O=C(NCc1ccc2cc(CN3CC4(CC(F)C4)C3)[nH]c2c1)c1cc(=O)n2ccccc2n1
REMARK SMILES IDX 5 1 6 2 7 3 8 4 9 5 10 6 20 7 21 8 22 9 4 15 3 18 1 19 2 20
REMARK SMILES IDX 23 22 24 23 33 24 25 25 32 27 26 28 27 29 31 30 28 31 30 32
REMARK SMILES IDX 29 34 11 38 12 41 13 42 19 43 14 44 15 49 18 50 16 51 17 56
REMARK H PARENT 6 10 7 11 9 12 20 13 22 14 4 16 4 17 3 21 24 26 31 33 28 35
REMARK H PARENT 30 36 29 37 11 39 11 40 13 45 13 46 19 47 19 48 15 52 15 53
REMARK H PARENT 18 54 18 55 16 57
REMARK Flexibility Score: inf
ROOT
ATOM      1  C   UNL     1     -47.835  35.231  26.994  1.00  0.00    -0.027 A 
ATOM      2  C   UNL     1     -46.535  35.150  26.478  1.00  0.00    -0.057 A 
ATOM      3  C   UNL     1     -46.158  34.107  25.623  1.00  0.00    -0.052 A 
ATOM      4  C   UNL     1     -47.107  33.129  25.269  1.00  0.00    -0.000 A 
ATOM      5  C   UNL     1     -47.071  31.965  24.452  1.00  0.00    -0.032 A 
ATOM      6  C   UNL     1     -48.323  31.385  24.478  1.00  0.00     0.030 A 
ATOM      7  N   UNL     1     -49.114  32.169  25.283  1.00  0.00    -0.357 N 
ATOM      8  C   UNL     1     -48.399  33.232  25.781  1.00  0.00     0.046 A 
ATOM      9  C   UNL     1     -48.793  34.267  26.638  1.00  0.00    -0.033 A 
ATOM     10  H   UNL     1     -45.797  35.906  26.739  1.00  0.00     0.063 H 
ATOM     11  H   UNL     1     -45.145  34.056  25.237  1.00  0.00     0.063 H 
ATOM     12  H   UNL     1     -46.214  31.594  23.904  1.00  0.00     0.065 H 
ATOM     13  H   UNL     1     -50.079  31.957  25.499  1.00  0.00     0.166 HD
ATOM     14  H   UNL     1     -49.810  34.323  27.015  1.00  0.00     0.065 H 
ENDROOT
BRANCH   1  15
ATOM     15  C   UNL     1     -48.225  36.380  27.888  1.00  0.00     0.043 C 
ATOM     16  H   UNL     1     -48.400  36.036  28.914  1.00  0.00     0.054 H 
ATOM     17  H   UNL     1     -49.158  36.841  27.546  1.00  0.00     0.054 H 
BRANCH  15  18
ATOM     18  N   UNL     1     -47.192  37.382  27.910  1.00  0.00    -0.347 N 
ATOM     19  O   UNL     1     -46.308  36.767  29.937  1.00  0.00    -0.268 OA
ATOM     20  C   UNL     1     -46.298  37.484  28.945  1.00  0.00     0.270 C 
ATOM     21  H   UNL     1     -47.072  38.014  27.124  1.00  0.00     0.164 HD
BRANCH  20  22
ATOM     22  C   UNL     1     -45.286  38.583  28.725  1.00  0.00     0.136 A 
ATOM     23  C   UNL     1     -44.348  38.725  29.664  1.00  0.00     0.035 A 
ATOM     24  N   UNL     1     -45.387  39.360  27.592  1.00  0.00    -0.225 NA
ATOM     25  C   UNL     1     -43.345  39.781  29.491  1.00  0.00     0.258 A 
ATOM     26  H   UNL     1     -44.279  38.107  30.550  1.00  0.00     0.071 H 
ATOM     27  C   UNL     1     -44.498  40.293  27.443  1.00  0.00     0.140 A 
ATOM     28  O   UNL     1     -42.476  39.919  30.351  1.00  0.00    -0.269 OA
ATOM     29  N   UNL     1     -43.468  40.549  28.342  1.00  0.00    -0.268 N 
ATOM     30  C   UNL     1     -44.569  41.159  26.232  1.00  0.00    -0.019 A 
ATOM     31  C   UNL     1     -42.553  41.571  28.108  1.00  0.00     0.014 A 
ATOM     32  C   UNL     1     -43.665  42.129  26.051  1.00  0.00    -0.057 A 
ATOM     33  H   UNL     1     -45.368  40.966  25.527  1.00  0.00     0.066 H 
ATOM     34  C   UNL     1     -42.622  42.345  27.018  1.00  0.00    -0.045 A 
ATOM     35  H   UNL     1     -41.774  41.716  28.853  1.00  0.00     0.082 H 
ATOM     36  H   UNL     1     -43.700  42.770  25.176  1.00  0.00     0.062 H 
ATOM     37  H   UNL     1     -41.904  43.138  26.846  1.00  0.00     0.064 H 
ENDBRANCH  20  22
ENDBRANCH  15  18
ENDBRANCH   1  15
BRANCH   6  38
ATOM     38  C   UNL     1     -48.855  30.164  23.802  1.00  0.00     0.039 C 
ATOM     39  H   UNL     1     -48.713  30.249  22.717  1.00  0.00     0.050 H 
ATOM     40  H   UNL     1     -49.937  30.130  23.979  1.00  0.00     0.050 H 
BRANCH  38  41
ATOM     41  N   UNL     1     -48.246  28.947  24.355  1.00  0.00    -0.296 NA
ATOM     42  C   UNL     1     -48.508  28.865  25.821  1.00  0.00     0.006 C 
ATOM     43  C   UNL     1     -49.138  27.764  24.142  1.00  0.00     0.006 C 
ATOM     44  C   UNL     1     -48.920  27.439  25.599  1.00  0.00     0.001 C 
ATOM     45  H   UNL     1     -47.621  29.020  26.444  1.00  0.00     0.044 H 
ATOM     46  H   UNL     1     -49.312  29.510  26.198  1.00  0.00     0.044 H 
ATOM     47  H   UNL     1     -48.752  27.038  23.419  1.00  0.00     0.044 H 
ATOM     48  H   UNL     1     -50.180  27.992  23.881  1.00  0.00     0.044 H 
ATOM     49  C   UNL     1     -47.979  26.314  25.955  1.00  0.00    -0.013 C 
ATOM     50  C   UNL     1     -50.033  26.819  26.397  1.00  0.00    -0.013 C 
ATOM     51  C   UNL     1     -49.250  25.480  26.284  1.00  0.00     0.101 C 
ATOM     52  H   UNL     1     -47.357  25.915  25.149  1.00  0.00     0.030 H 
ATOM     53  H   UNL     1     -47.347  26.506  26.830  1.00  0.00     0.030 H 
ATOM     54  H   UNL     1     -51.026  26.817  25.938  1.00  0.00     0.030 H 
ATOM     55  H   UNL     1     -50.117  27.189  27.426  1.00  0.00     0.030 H 
ATOM     56  F   UNL     1     -49.668  24.657  25.292  1.00  0.00    -0.247 F 
ATOM     57  H   UNL     1     -49.178  24.940  27.235  1.00  0.00     0.066 H 
ENDBRANCH  38  41
ENDBRANCH   6  38
TORSDOF 5
ENDMDL
MODEL 4
REMARK VINA RESULT:     -10.5      2.714      3.444
REMARK SMILES O=C(NCc1ccc2cc(CN3CC4(CC(F)C4)C3)[nH]c2c1)c1cc(=O)n2ccccc2n1
REMARK SMILES IDX 5 1 6 2 7 3 8 4 9 5 10 6 20 7 21 8 22 9 4 15 3 18 1 19 2 20
REMARK SMILES IDX 23 22 24 23 33 24 25 25 32 27 26 28 27 29 31 30 28 31 30 32
REMARK SMILES IDX 29 34 11 38 12 41 13 42 19 43 14 44 15 49 18 50 16 51 17 56
REMARK H PARENT 6 10 7 11 9 12 20 13 22 14 4 16 4 17 3 21 24 26 31 33 28 35
REMARK H PARENT 30 36 29 37 11 39 11 40 13 45 13 46 19 47 19 48 15 52 15 53
REMARK H PARENT 18 54 18 55 16 57
REMARK Flexibility Score: inf
ROOT
ATOM      1  C   UNL     1     -47.724  35.820  26.956  1.00  0.00    -0.027 A 
ATOM      2  C   UNL     1     -46.410  35.537  26.562  1.00  0.00    -0.057 A 
ATOM      3  C   UNL     1     -46.069  34.295  26.010  1.00  0.00    -0.052 A 
ATOM      4  C   UNL     1     -47.068  33.319  25.840  1.00  0.00    -0.000 A 
ATOM      5  C   UNL     1     -47.078  31.991  25.331  1.00  0.00    -0.032 A 
ATOM      6  C   UNL     1     -48.370  31.511  25.413  1.00  0.00     0.030 A 
ATOM      7  N   UNL     1     -49.140  32.514  25.951  1.00  0.00    -0.357 N 
ATOM      8  C   UNL     1     -48.373  33.622  26.225  1.00  0.00     0.046 A 
ATOM      9  C   UNL     1     -48.732  34.856  26.780  1.00  0.00    -0.033 A 
ATOM     10  H   UNL     1     -45.631  36.288  26.682  1.00  0.00     0.063 H 
ATOM     11  H   UNL     1     -45.044  34.091  25.716  1.00  0.00     0.063 H 
ATOM     12  H   UNL     1     -46.225  31.447  24.946  1.00  0.00     0.065 H 
ATOM     13  H   UNL     1     -50.128  32.420  26.148  1.00  0.00     0.166 HD
ATOM     14  H   UNL     1     -49.759  35.064  27.064  1.00  0.00     0.065 H 
ENDROOT
BRANCH   1  15
ATOM     15  C   UNL     1     -48.071  37.174  27.519  1.00  0.00     0.043 C 
ATOM     16  H   UNL     1     -48.496  37.082  28.525  1.00  0.00     0.054 H 
ATOM     17  H   UNL     1     -48.828  37.671  26.901  1.00  0.00     0.054 H 
BRANCH  15  18
ATOM     18  N   UNL     1     -46.904  38.011  27.589  1.00  0.00    -0.347 N 
ATOM     19  O   UNL     1     -47.717  39.669  26.225  1.00  0.00    -0.268 OA
ATOM     20  C   UNL     1     -46.828  39.215  26.936  1.00  0.00     0.270 C 
ATOM     21  H   UNL     1     -46.116  37.747  28.173  1.00  0.00     0.164 HD
BRANCH  20  22
ATOM     22  C   UNL     1     -45.523  39.929  27.192  1.00  0.00     0.136 A 
ATOM     23  C   UNL     1     -45.132  40.804  26.263  1.00  0.00     0.035 A 
ATOM     24  N   UNL     1     -44.827  39.643  28.345  1.00  0.00    -0.225 NA
ATOM     25  C   UNL     1     -43.868  41.521  26.472  1.00  0.00     0.258 A 
ATOM     26  H   UNL     1     -45.689  41.020  25.361  1.00  0.00     0.071 H 
ATOM     27  C   UNL     1     -43.710  40.279  28.526  1.00  0.00     0.140 A 
ATOM     28  O   UNL     1     -43.499  42.329  25.621  1.00  0.00    -0.269 OA
ATOM     29  N   UNL     1     -43.186  41.215  27.641  1.00  0.00    -0.268 N 
ATOM     30  C   UNL     1     -42.922  40.000  29.760  1.00  0.00    -0.019 A 
ATOM     31  C   UNL     1     -41.980  41.854  27.908  1.00  0.00     0.014 A 
ATOM     32  C   UNL     1     -41.766  40.641  29.973  1.00  0.00    -0.057 A 
ATOM     33  H   UNL     1     -43.323  39.272  30.454  1.00  0.00     0.066 H 
ATOM     34  C   UNL     1     -41.277  41.600  29.019  1.00  0.00    -0.045 A 
ATOM     35  H   UNL     1     -41.629  42.574  27.173  1.00  0.00     0.082 H 
ATOM     36  H   UNL     1     -41.178  40.451  30.865  1.00  0.00     0.062 H 
ATOM     37  H   UNL     1     -40.338  42.104  29.217  1.00  0.00     0.064 H 
ENDBRANCH  20  22
ENDBRANCH  15  18
ENDBRANCH   1  15
BRANCH   6  38
ATOM     38  C   UNL     1     -48.956  30.196  25.017  1.00  0.00     0.039 C 
ATOM     39  H   UNL     1     -50.042  30.210  25.174  1.00  0.00     0.050 H 
ATOM     40  H   UNL     1     -48.548  29.433  25.692  1.00  0.00     0.050 H 
BRANCH  38  41
ATOM     41  N   UNL     1     -48.592  29.850  23.637  1.00  0.00    -0.296 NA
ATOM     42  C   UNL     1     -49.809  29.456  22.869  1.00  0.00     0.006 C 
ATOM     43  C   UNL     1     -48.475  31.082  22.794  1.00  0.00     0.006 C 
ATOM     44  C   UNL     1     -49.335  30.372  21.778  1.00  0.00     0.001 C 
ATOM     45  H   UNL     1     -49.855  28.391  22.619  1.00  0.00     0.044 H 
ATOM     46  H   UNL     1     -50.768  29.749  23.315  1.00  0.00     0.044 H 
ATOM     47  H   UNL     1     -47.451  31.316  22.486  1.00  0.00     0.044 H 
ATOM     48  H   UNL     1     -48.927  31.991  23.212  1.00  0.00     0.044 H 
ATOM     49  C   UNL     1     -48.675  29.804  20.545  1.00  0.00    -0.013 C 
ATOM     50  C   UNL     1     -50.309  31.159  20.948  1.00  0.00    -0.013 C 
ATOM     51  C   UNL     1     -49.302  31.000  19.773  1.00  0.00     0.101 C 
ATOM     52  H   UNL     1     -47.582  29.769  20.540  1.00  0.00     0.030 H 
ATOM     53  H   UNL     1     -49.064  28.830  20.226  1.00  0.00     0.030 H 
ATOM     54  H   UNL     1     -50.501  32.190  21.260  1.00  0.00     0.030 H 
ATOM     55  H   UNL     1     -51.268  30.657  20.772  1.00  0.00     0.030 H 
ATOM     56  F   UNL     1     -48.475  32.056  19.584  1.00  0.00    -0.247 F 
ATOM     57  H   UNL     1     -49.780  30.704  18.832  1.00  0.00     0.066 H 
ENDBRANCH  38  41
ENDBRANCH   6  38
TORSDOF 5
ENDMDL
MODEL 5
REMARK VINA RESULT:     -10.4      2.840      4.711
REMARK SMILES O=C(NCc1ccc2cc(CN3CC4(CC(F)C4)C3)[nH]c2c1)c1cc(=O)n2ccccc2n1
REMARK SMILES IDX 5 1 6 2 7 3 8 4 9 5 10 6 20 7 21 8 22 9 4 15 3 18 1 19 2 20
REMARK SMILES IDX 23 22 24 23 33 24 25 25 32 27 26 28 27 29 31 30 28 31 30 32
REMARK SMILES IDX 29 34 11 38 12 41 13 42 19 43 14 44 15 49 18 50 16 51 17 56
REMARK H PARENT 6 10 7 11 9 12 20 13 22 14 4 16 4 17 3 21 24 26 31 33 28 35
REMARK H PARENT 30 36 29 37 11 39 11 40 13 45 13 46 19 47 19 48 15 52 15 53
REMARK H PARENT 18 54 18 55 16 57
REMARK Flexibility Score: inf
ROOT
ATOM      1  C   UNL     1     -45.562  37.700  28.287  1.00  0.00    -0.027 A 
ATOM      2  C   UNL     1     -46.798  38.090  27.756  1.00  0.00    -0.057 A 
ATOM      3  C   UNL     1     -47.639  37.167  27.120  1.00  0.00    -0.052 A 
ATOM      4  C   UNL     1     -47.235  35.821  27.023  1.00  0.00    -0.000 A 
ATOM      5  C   UNL     1     -47.818  34.652  26.459  1.00  0.00    -0.032 A 
ATOM      6  C   UNL     1     -46.949  33.599  26.667  1.00  0.00     0.030 A 
ATOM      7  N   UNL     1     -45.863  34.100  27.344  1.00  0.00    -0.357 N 
ATOM      8  C   UNL     1     -46.009  35.448  27.569  1.00  0.00     0.046 A 
ATOM      9  C   UNL     1     -45.156  36.357  28.206  1.00  0.00    -0.033 A 
ATOM     10  H   UNL     1     -47.122  39.126  27.833  1.00  0.00     0.063 H 
ATOM     11  H   UNL     1     -48.590  37.487  26.708  1.00  0.00     0.063 H 
ATOM     12  H   UNL     1     -48.774  34.593  25.955  1.00  0.00     0.065 H 
ATOM     13  H   UNL     1     -45.058  33.545  27.602  1.00  0.00     0.166 HD
ATOM     14  H   UNL     1     -44.208  36.033  28.627  1.00  0.00     0.065 H 
ENDROOT
BRANCH   1  15
ATOM     15  C   UNL     1     -44.690  38.706  28.994  1.00  0.00     0.043 C 
ATOM     16  H   UNL     1     -43.710  38.276  29.230  1.00  0.00     0.054 H 
ATOM     17  H   UNL     1     -45.139  39.011  29.946  1.00  0.00     0.054 H 
BRANCH  15  18
ATOM     18  N   UNL     1     -44.494  39.873  28.176  1.00  0.00    -0.347 N 
ATOM     19  O   UNL     1     -42.587  40.588  29.237  1.00  0.00    -0.268 OA
ATOM     20  C   UNL     1     -43.434  40.723  28.361  1.00  0.00     0.270 C 
ATOM     21  H   UNL     1     -45.120  40.069  27.401  1.00  0.00     0.164 HD
BRANCH  20  22
ATOM     22  C   UNL     1     -43.419  41.852  27.359  1.00  0.00     0.136 A 
ATOM     23  C   UNL     1     -42.258  42.081  26.740  1.00  0.00     0.035 A 
ATOM     24  N   UNL     1     -44.577  42.564  27.145  1.00  0.00    -0.225 NA
ATOM     25  C   UNL     1     -42.198  43.170  25.757  1.00  0.00     0.258 A 
ATOM     26  H   UNL     1     -41.354  41.514  26.916  1.00  0.00     0.071 H 
ATOM     27  C   UNL     1     -44.520  43.526  26.276  1.00  0.00     0.140 A 
ATOM     28  O   UNL     1     -41.133  43.389  25.182  1.00  0.00    -0.269 OA
ATOM     29  N   UNL     1     -43.379  43.872  25.560  1.00  0.00    -0.268 N 
ATOM     30  C   UNL     1     -45.751  44.324  26.013  1.00  0.00    -0.019 A 
ATOM     31  C   UNL     1     -43.400  44.918  24.644  1.00  0.00     0.014 A 
ATOM     32  C   UNL     1     -45.722  45.322  25.121  1.00  0.00    -0.057 A 
ATOM     33  H   UNL     1     -46.644  44.061  26.566  1.00  0.00     0.066 H 
ATOM     34  C   UNL     1     -44.509  45.631  24.412  1.00  0.00    -0.045 A 
ATOM     35  H   UNL     1     -42.472  45.135  24.120  1.00  0.00     0.082 H 
ATOM     36  H   UNL     1     -46.607  45.915  24.916  1.00  0.00     0.062 H 
ATOM     37  H   UNL     1     -44.514  46.445  23.695  1.00  0.00     0.064 H 
ENDBRANCH  20  22
ENDBRANCH  15  18
ENDBRANCH   1  15
BRANCH   6  38
ATOM     38  C   UNL     1     -47.051  32.155  26.300  1.00  0.00     0.039 C 
ATOM     39  H   UNL     1     -47.629  31.618  27.062  1.00  0.00     0.050 H 
ATOM     40  H   UNL     1     -46.036  31.736  26.316  1.00  0.00     0.050 H 
BRANCH  38  41
ATOM     41  N   UNL     1     -47.608  31.992  24.951  1.00  0.00    -0.296 NA
ATOM     42  C   UNL     1     -46.545  31.536  24.009  1.00  0.00     0.006 C 
ATOM     43  C   UNL     1     -48.283  30.662  24.813  1.00  0.00     0.006 C 
ATOM     44  C   UNL     1     -47.514  30.496  23.526  1.00  0.00     0.001 C 
ATOM     45  H   UNL     1     -46.243  32.291  23.276  1.00  0.00     0.044 H 
ATOM     46  H   UNL     1     -45.641  31.125  24.475  1.00  0.00     0.044 H 
ATOM     47  H   UNL     1     -49.372  30.722  24.724  1.00  0.00     0.044 H 
ATOM     48  H   UNL     1     -48.038  29.921  25.584  1.00  0.00     0.044 H 
ATOM     49  C   UNL     1     -48.244  30.689  22.219  1.00  0.00    -0.013 C 
ATOM     50  C   UNL     1     -47.043  29.130  23.112  1.00  0.00    -0.013 C 
ATOM     51  C   UNL     1     -48.203  29.141  22.075  1.00  0.00     0.101 C 
ATOM     52  H   UNL     1     -49.245  31.124  22.270  1.00  0.00     0.030 H 
ATOM     53  H   UNL     1     -47.668  31.212  21.446  1.00  0.00     0.030 H 
ATOM     54  H   UNL     1     -47.101  28.340  23.866  1.00  0.00     0.030 H 
ATOM     55  H   UNL     1     -46.048  29.111  22.652  1.00  0.00     0.030 H 
ATOM     56  F   UNL     1     -49.328  28.499  22.472  1.00  0.00    -0.247 F 
ATOM     57  H   UNL     1     -47.894  28.807  21.078  1.00  0.00     0.066 H 
ENDBRANCH  38  41
ENDBRANCH   6  38
TORSDOF 5
ENDMDL
MODEL 6
REMARK VINA RESULT:     -10.4      4.154     11.791
REMARK SMILES O=C(NCc1ccc2cc(CN3CC4(CC(F)C4)C3)[nH]c2c1)c1cc(=O)n2ccccc2n1
REMARK SMILES IDX 5 1 6 2 7 3 8 4 9 5 10 6 20 7 21 8 22 9 4 15 3 18 1 19 2 20
REMARK SMILES IDX 23 22 24 23 33 24 25 25 32 27 26 28 27 29 31 30 28 31 30 32
REMARK SMILES IDX 29 34 11 38 12 41 13 42 19 43 14 44 15 49 18 50 16 51 17 56
REMARK H PARENT 6 10 7 11 9 12 20 13 22 14 4 16 4 17 3 21 24 26 31 33 28 35
REMARK H PARENT 30 36 29 37 11 39 11 40 13 45 13 46 19 47 19 48 15 52 15 53
REMARK H PARENT 18 54 18 55 16 57
REMARK Flexibility Score: inf
ROOT
ATOM      1  C   UNL     1     -48.025  34.170  26.589  1.00  0.00    -0.027 A 
ATOM      2  C   UNL     1     -46.882  33.574  27.139  1.00  0.00    -0.057 A 
ATOM      3  C   UNL     1     -45.841  34.351  27.665  1.00  0.00    -0.052 A 
ATOM      4  C   UNL     1     -45.952  35.754  27.648  1.00  0.00    -0.000 A 
ATOM      5  C   UNL     1     -45.113  36.818  28.081  1.00  0.00    -0.032 A 
ATOM      6  C   UNL     1     -45.755  38.008  27.802  1.00  0.00     0.030 A 
ATOM      7  N   UNL     1     -46.958  37.691  27.220  1.00  0.00    -0.357 N 
ATOM      8  C   UNL     1     -47.102  36.329  27.109  1.00  0.00     0.046 A 
ATOM      9  C   UNL     1     -48.151  35.569  26.578  1.00  0.00    -0.033 A 
ATOM     10  H   UNL     1     -46.790  32.490  27.163  1.00  0.00     0.063 H 
ATOM     11  H   UNL     1     -44.960  33.873  28.082  1.00  0.00     0.063 H 
ATOM     12  H   UNL     1     -44.141  36.718  28.547  1.00  0.00     0.065 H 
ATOM     13  H   UNL     1     -47.621  38.381  26.889  1.00  0.00     0.166 HD
ATOM     14  H   UNL     1     -49.036  36.048  26.170  1.00  0.00     0.065 H 
ENDROOT
BRANCH   1  15
ATOM     15  C   UNL     1     -49.144  33.312  26.056  1.00  0.00     0.043 C 
ATOM     16  H   UNL     1     -49.494  33.683  25.086  1.00  0.00     0.054 H 
ATOM     17  H   UNL     1     -50.006  33.332  26.732  1.00  0.00     0.054 H 
BRANCH  15  18
ATOM     18  N   UNL     1     -48.710  31.950  25.896  1.00  0.00    -0.347 N 
ATOM     19  O   UNL     1     -49.266  31.783  23.675  1.00  0.00    -0.268 OA
ATOM     20  C   UNL     1     -48.797  31.293  24.695  1.00  0.00     0.270 C 
ATOM     21  H   UNL     1     -48.279  31.453  26.670  1.00  0.00     0.164 HD
BRANCH  20  22
ATOM     22  C   UNL     1     -48.245  29.890  24.765  1.00  0.00     0.136 A 
ATOM     23  C   UNL     1     -47.262  29.595  23.910  1.00  0.00     0.035 A 
ATOM     24  N   UNL     1     -48.774  29.014  25.685  1.00  0.00    -0.225 NA
ATOM     25  C   UNL     1     -46.695  28.242  23.943  1.00  0.00     0.258 A 
ATOM     26  H   UNL     1     -46.854  30.293  23.191  1.00  0.00     0.071 H 
ATOM     27  C   UNL     1     -48.270  27.818  25.711  1.00  0.00     0.140 A 
ATOM     28  O   UNL     1     -45.789  27.960  23.160  1.00  0.00    -0.269 OA
ATOM     29  N   UNL     1     -47.246  27.378  24.879  1.00  0.00    -0.268 N 
ATOM     30  C   UNL     1     -48.814  26.835  26.691  1.00  0.00    -0.019 A 
ATOM     31  C   UNL     1     -46.760  26.078  24.970  1.00  0.00     0.014 A 
ATOM     32  C   UNL     1     -48.313  25.595  26.741  1.00  0.00    -0.057 A 
ATOM     33  H   UNL     1     -49.612  27.170  27.342  1.00  0.00     0.066 H 
ATOM     34  C   UNL     1     -47.253  25.200  25.853  1.00  0.00    -0.045 A 
ATOM     35  H   UNL     1     -45.959  25.801  24.289  1.00  0.00     0.082 H 
ATOM     36  H   UNL     1     -48.696  24.866  27.447  1.00  0.00     0.062 H 
ATOM     37  H   UNL     1     -46.867  24.189  25.915  1.00  0.00     0.064 H 
ENDBRANCH  20  22
ENDBRANCH  15  18
ENDBRANCH   1  15
BRANCH   6  38
ATOM     38  C   UNL     1     -45.347  39.424  28.047  1.00  0.00     0.039 C 
ATOM     39  H   UNL     1     -44.581  39.460  28.832  1.00  0.00     0.050 H 
ATOM     40  H   UNL     1     -46.223  39.960  28.434  1.00  0.00     0.050 H 
BRANCH  38  41
ATOM     41  N   UNL     1     -44.909  40.070  26.803  1.00  0.00    -0.296 NA
ATOM     42  C   UNL     1     -45.652  41.348  26.600  1.00  0.00     0.006 C 
ATOM     43  C   UNL     1     -43.651  40.851  27.024  1.00  0.00     0.006 C 
ATOM     44  C   UNL     1     -44.328  41.992  26.305  1.00  0.00     0.001 C 
ATOM     45  H   UNL     1     -46.370  41.321  25.774  1.00  0.00     0.044 H 
ATOM     46  H   UNL     1     -46.159  41.750  27.486  1.00  0.00     0.044 H 
ATOM     47  H   UNL     1     -42.769  40.424  26.536  1.00  0.00     0.044 H 
ATOM     48  H   UNL     1     -43.399  41.063  28.072  1.00  0.00     0.044 H 
ATOM     49  C   UNL     1     -43.928  42.285  24.880  1.00  0.00    -0.013 C 
ATOM     50  C   UNL     1     -44.044  43.407  26.723  1.00  0.00    -0.013 C 
ATOM     51  C   UNL     1     -43.160  43.513  25.447  1.00  0.00     0.101 C 
ATOM     52  H   UNL     1     -43.306  41.540  24.376  1.00  0.00     0.030 H 
ATOM     53  H   UNL     1     -44.759  42.559  24.219  1.00  0.00     0.030 H 
ATOM     54  H   UNL     1     -43.512  43.544  27.669  1.00  0.00     0.030 H 
ATOM     55  H   UNL     1     -44.915  44.071  26.706  1.00  0.00     0.030 H 
ATOM     56  F   UNL     1     -41.836  43.316  25.652  1.00  0.00    -0.247 F 
ATOM     57  H   UNL     1     -43.335  44.433  24.876  1.00  0.00     0.066 H 
ENDBRANCH  38  41
ENDBRANCH   6  38
TORSDOF 5
ENDMDL
MODEL 7
REMARK VINA RESULT:     -10.1      1.476      2.057
REMARK SMILES O=C(NCc1ccc2cc(CN3CC4(CC(F)C4)C3)[nH]c2c1)c1cc(=O)n2ccccc2n1
REMARK SMILES IDX 5 1 6 2 7 3 8 4 9 5 10 6 20 7 21 8 22 9 4 15 3 18 1 19 2 20
REMARK SMILES IDX 23 22 24 23 33 24 25 25 32 27 26 28 27 29 31 30 28 31 30 32
REMARK SMILES IDX 29 34 11 38 12 41 13 42 19 43 14 44 15 49 18 50 16 51 17 56
REMARK H PARENT 6 10 7 11 9 12 20 13 22 14 4 16 4 17 3 21 24 26 31 33 28 35
REMARK H PARENT 30 36 29 37 11 39 11 40 13 45 13 46 19 47 19 48 15 52 15 53
REMARK H PARENT 18 54 18 55 16 57
REMARK Flexibility Score: inf
ROOT
ATOM      1  C   UNL     1     -46.651  34.313  27.018  1.00  0.00    -0.027 A 
ATOM      2  C   UNL     1     -48.010  34.647  27.088  1.00  0.00    -0.057 A 
ATOM      3  C   UNL     1     -48.973  33.922  26.373  1.00  0.00    -0.052 A 
ATOM      4  C   UNL     1     -48.566  32.834  25.578  1.00  0.00    -0.000 A 
ATOM      5  C   UNL     1     -49.251  31.909  24.743  1.00  0.00    -0.032 A 
ATOM      6  C   UNL     1     -48.317  31.045  24.206  1.00  0.00     0.030 A 
ATOM      7  N   UNL     1     -47.090  31.420  24.699  1.00  0.00    -0.357 N 
ATOM      8  C   UNL     1     -47.212  32.508  25.531  1.00  0.00     0.046 A 
ATOM      9  C   UNL     1     -46.236  33.221  26.237  1.00  0.00    -0.033 A 
ATOM     10  H   UNL     1     -48.335  35.482  27.706  1.00  0.00     0.063 H 
ATOM     11  H   UNL     1     -50.021  34.198  26.434  1.00  0.00     0.063 H 
ATOM     12  H   UNL     1     -50.317  31.882  24.557  1.00  0.00     0.065 H 
ATOM     13  H   UNL     1     -46.221  30.970  24.443  1.00  0.00     0.166 HD
ATOM     14  H   UNL     1     -45.189  32.937  26.184  1.00  0.00     0.065 H 
ENDROOT
BRANCH   1  15
ATOM     15  C   UNL     1     -45.639  35.088  27.821  1.00  0.00     0.043 C 
ATOM     16  H   UNL     1     -44.632  34.678  27.682  1.00  0.00     0.054 H 
ATOM     17  H   UNL     1     -45.860  35.026  28.892  1.00  0.00     0.054 H 
BRANCH  15  18
ATOM     18  N   UNL     1     -45.628  36.472  27.428  1.00  0.00    -0.347 N 
ATOM     19  O   UNL     1     -45.485  37.323  29.555  1.00  0.00    -0.268 OA
ATOM     20  C   UNL     1     -45.537  37.490  28.342  1.00  0.00     0.270 C 
ATOM     21  H   UNL     1     -45.639  36.727  26.444  1.00  0.00     0.164 HD
BRANCH  20  22
ATOM     22  C   UNL     1     -45.504  38.850  27.688  1.00  0.00     0.136 A 
ATOM     23  C   UNL     1     -46.665  39.310  27.214  1.00  0.00     0.035 A 
ATOM     24  N   UNL     1     -44.306  39.524  27.621  1.00  0.00    -0.225 NA
ATOM     25  C   UNL     1     -46.679  40.628  26.570  1.00  0.00     0.258 A 
ATOM     26  H   UNL     1     -47.601  38.771  27.274  1.00  0.00     0.071 H 
ATOM     27  C   UNL     1     -44.323  40.690  27.050  1.00  0.00     0.140 A 
ATOM     28  O   UNL     1     -47.743  41.061  26.129  1.00  0.00    -0.269 OA
ATOM     29  N   UNL     1     -45.458  41.287  26.514  1.00  0.00    -0.268 N 
ATOM     30  C   UNL     1     -43.047  41.455  26.954  1.00  0.00    -0.019 A 
ATOM     31  C   UNL     1     -45.392  42.542  25.918  1.00  0.00     0.014 A 
ATOM     32  C   UNL     1     -43.034  42.660  26.371  1.00  0.00    -0.057 A 
ATOM     33  H   UNL     1     -42.158  40.997  27.368  1.00  0.00     0.066 H 
ATOM     34  C   UNL     1     -44.243  43.225  25.835  1.00  0.00    -0.045 A 
ATOM     35  H   UNL     1     -46.319  42.949  25.520  1.00  0.00     0.082 H 
ATOM     36  H   UNL     1     -42.115  43.232  26.291  1.00  0.00     0.062 H 
ATOM     37  H   UNL     1     -44.204  44.202  25.368  1.00  0.00     0.064 H 
ENDBRANCH  20  22
ENDBRANCH  15  18
ENDBRANCH   1  15
BRANCH   6  38
ATOM     38  C   UNL     1     -48.471  29.884  23.279  1.00  0.00     0.039 C 
ATOM     39  H   UNL     1     -47.493  29.603  22.869  1.00  0.00     0.050 H 
ATOM     40  H   UNL     1     -49.089  30.213  22.434  1.00  0.00     0.050 H 
BRANCH  38  41
ATOM     41  N   UNL     1     -49.144  28.762  23.947  1.00  0.00    -0.296 NA
ATOM     42  C   UNL     1     -48.677  27.468  23.370  1.00  0.00     0.006 C 
ATOM     43  C   UNL     1     -48.459  28.421  25.233  1.00  0.00     0.006 C 
ATOM     44  C   UNL     1     -48.495  26.983  24.779  1.00  0.00     0.001 C 
ATOM     45  H   UNL     1     -49.432  26.946  22.774  1.00  0.00     0.044 H 
ATOM     46  H   UNL     1     -47.748  27.514  22.788  1.00  0.00     0.044 H 
ATOM     47  H   UNL     1     -49.041  28.663  26.128  1.00  0.00     0.044 H 
ATOM     48  H   UNL     1     -47.447  28.830  25.358  1.00  0.00     0.044 H 
ATOM     49  C   UNL     1     -49.512  26.056  25.399  1.00  0.00    -0.013 C 
ATOM     50  C   UNL     1     -47.366  26.060  25.142  1.00  0.00    -0.013 C 
ATOM     51  C   UNL     1     -48.327  25.443  26.199  1.00  0.00     0.101 C 
ATOM     52  H   UNL     1     -50.295  26.516  26.008  1.00  0.00     0.030 H 
ATOM     53  H   UNL     1     -49.974  25.350  24.699  1.00  0.00     0.030 H 
ATOM     54  H   UNL     1     -46.462  26.523  25.549  1.00  0.00     0.030 H 
ATOM     55  H   UNL     1     -47.080  25.357  24.351  1.00  0.00     0.030 H 
ATOM     56  F   UNL     1     -48.175  25.925  27.456  1.00  0.00    -0.247 F 
ATOM     57  H   UNL     1     -48.325  24.347  26.197  1.00  0.00     0.066 H 
ENDBRANCH  38  41
ENDBRANCH   6  38
TORSDOF 5
ENDMDL
