MODEL 1
REMARK VINA RESULT:     -10.5      0.000      0.000
REMARK SMILES CC1(C)CCCN1Cc1cc2ccc(CNC(=O)c3cc(=O)n4ccccc4n3)cc2[nH]1
REMARK SMILES IDX 9 1 10 2 11 3 12 4 13 5 14 6 30 7 31 8 32 9 8 15 7 18 2 19
REMARK SMILES IDX 4 20 5 21 6 24 1 29 3 33 15 37 16 40 17 41 18 43 19 44 20 45
REMARK SMILES IDX 29 46 21 47 28 49 22 50 23 51 27 52 24 53 26 54 25 56
REMARK H PARENT 10 10 12 11 13 12 30 13 32 14 8 16 8 17 4 22 4 23 5 25 5 26
REMARK H PARENT 6 27 6 28 1 30 1 31 1 32 3 34 3 35 3 36 15 38 15 39 16 42
REMARK H PARENT 20 48 27 55 24 57 26 58 25 59
REMARK Flexibility Score: inf
ROOT
ATOM      1  C   UNL     1     -48.588  31.302  25.178  1.00  0.00     0.030 A 
ATOM      2  C   UNL     1     -47.338  31.833  24.930  1.00  0.00    -0.032 A 
ATOM      3  C   UNL     1     -47.287  33.130  25.514  1.00  0.00    -0.000 A 
ATOM      4  C   UNL     1     -46.302  34.131  25.587  1.00  0.00    -0.052 A 
ATOM      5  C   UNL     1     -46.590  35.328  26.255  1.00  0.00    -0.057 A 
ATOM      6  C   UNL     1     -47.842  35.548  26.843  1.00  0.00    -0.027 A 
ATOM      7  C   UNL     1     -48.831  34.551  26.785  1.00  0.00    -0.033 A 
ATOM      8  C   UNL     1     -48.524  33.361  26.114  1.00  0.00     0.046 A 
ATOM      9  N   UNL     1     -49.289  32.238  25.901  1.00  0.00    -0.357 N 
ATOM     10  H   UNL     1     -46.541  31.344  24.385  1.00  0.00     0.065 H 
ATOM     11  H   UNL     1     -45.326  33.981  25.135  1.00  0.00     0.063 H 
ATOM     12  H   UNL     1     -45.820  36.097  26.315  1.00  0.00     0.063 H 
ATOM     13  H   UNL     1     -49.804  34.695  27.244  1.00  0.00     0.065 H 
ATOM     14  H   UNL     1     -50.250  32.116  26.189  1.00  0.00     0.166 HD
ENDROOT
BRANCH   1  15
ATOM     15  C   UNL     1     -49.191  29.984  24.817  1.00  0.00     0.039 C 
ATOM     16  H   UNL     1     -49.382  30.013  23.737  1.00  0.00     0.050 H 
ATOM     17  H   UNL     1     -50.166  29.872  25.309  1.00  0.00     0.050 H 
BRANCH  15  18
ATOM     18  N   UNL     1     -48.286  28.882  25.145  1.00  0.00    -0.292 NA
ATOM     19  C   UNL     1     -47.803  28.088  23.997  1.00  0.00     0.016 C 
ATOM     20  C   UNL     1     -47.191  26.881  24.723  1.00  0.00    -0.034 C 
ATOM     21  C   UNL     1     -48.108  26.634  25.911  1.00  0.00    -0.039 C 
ATOM     22  H   UNL     1     -46.185  27.115  25.095  1.00  0.00     0.029 H 
ATOM     23  H   UNL     1     -47.106  25.994  24.087  1.00  0.00     0.029 H 
ATOM     24  C   UNL     1     -48.887  27.932  26.095  1.00  0.00    -0.001 C 
ATOM     25  H   UNL     1     -48.794  25.805  25.704  1.00  0.00     0.028 H 
ATOM     26  H   UNL     1     -47.527  26.378  26.803  1.00  0.00     0.028 H 
ATOM     27  H   UNL     1     -48.803  28.291  27.126  1.00  0.00     0.043 H 
ATOM     28  H   UNL     1     -49.947  27.750  25.885  1.00  0.00     0.043 H 
BRANCH  19  29
ATOM     29  C   UNL     1     -46.711  28.839  23.223  1.00  0.00    -0.047 C 
ATOM     30  H   UNL     1     -46.275  28.199  22.447  1.00  0.00     0.025 H 
ATOM     31  H   UNL     1     -47.104  29.735  22.731  1.00  0.00     0.025 H 
ATOM     32  H   UNL     1     -45.895  29.155  23.883  1.00  0.00     0.025 H 
ENDBRANCH  19  29
BRANCH  19  33
ATOM     33  C   UNL     1     -48.903  27.631  23.019  1.00  0.00    -0.047 C 
ATOM     34  H   UNL     1     -49.879  27.533  23.506  1.00  0.00     0.025 H 
ATOM     35  H   UNL     1     -48.655  26.653  22.590  1.00  0.00     0.025 H 
ATOM     36  H   UNL     1     -49.015  28.332  22.183  1.00  0.00     0.025 H 
ENDBRANCH  19  33
ENDBRANCH  15  18
ENDBRANCH   1  15
BRANCH   6  37
ATOM     37  C   UNL     1     -48.112  36.841  27.574  1.00  0.00     0.043 C 
ATOM     38  H   UNL     1     -48.376  36.642  28.619  1.00  0.00     0.054 H 
ATOM     39  H   UNL     1     -48.960  37.364  27.118  1.00  0.00     0.054 H 
BRANCH  37  40
ATOM     40  N   UNL     1     -46.939  37.677  27.580  1.00  0.00    -0.347 N 
ATOM     41  C   UNL     1     -46.147  37.839  28.690  1.00  0.00     0.270 C 
ATOM     42  H   UNL     1     -46.808  38.355  26.837  1.00  0.00     0.164 HD
ATOM     43  O   UNL     1     -46.260  37.194  29.726  1.00  0.00    -0.268 OA
BRANCH  41  44
ATOM     44  C   UNL     1     -45.112  38.923  28.503  1.00  0.00     0.136 A 
ATOM     45  C   UNL     1     -44.215  39.063  29.481  1.00  0.00     0.035 A 
ATOM     46  N   UNL     1     -45.158  39.694  27.362  1.00  0.00    -0.225 NA
ATOM     47  C   UNL     1     -43.195  40.109  29.344  1.00  0.00     0.258 A 
ATOM     48  H   UNL     1     -44.192  38.452  30.375  1.00  0.00     0.071 H 
ATOM     49  C   UNL     1     -44.257  40.621  27.249  1.00  0.00     0.140 A 
ATOM     50  O   UNL     1     -42.360  40.242  30.239  1.00  0.00    -0.269 OA
ATOM     51  N   UNL     1     -43.265  40.874  28.189  1.00  0.00    -0.268 N 
ATOM     52  C   UNL     1     -44.269  41.483  26.032  1.00  0.00    -0.019 A 
ATOM     53  C   UNL     1     -42.334  41.888  27.990  1.00  0.00     0.014 A 
ATOM     54  C   UNL     1     -43.353  42.446  25.886  1.00  0.00    -0.057 A 
ATOM     55  H   UNL     1     -45.039  41.295  25.295  1.00  0.00     0.066 H 
ATOM     56  C   UNL     1     -42.351  42.658  26.896  1.00  0.00    -0.045 A 
ATOM     57  H   UNL     1     -41.585  42.030  28.768  1.00  0.00     0.082 H 
ATOM     58  H   UNL     1     -43.346  43.085  25.008  1.00  0.00     0.062 H 
ATOM     59  H   UNL     1     -41.618  43.446  26.752  1.00  0.00     0.064 H 
ENDBRANCH  41  44
ENDBRANCH  37  40
ENDBRANCH   6  37
TORSDOF 7
ENDMDL
MODEL 2
REMARK VINA RESULT:     -10.3      1.450      2.295
REMARK SMILES CC1(C)CCCN1Cc1cc2ccc(CNC(=O)c3cc(=O)n4ccccc4n3)cc2[nH]1
REMARK SMILES IDX 9 1 10 2 11 3 12 4 13 5 14 6 30 7 31 8 32 9 8 15 7 18 2 19
REMARK SMILES IDX 4 20 5 21 6 24 1 29 3 33 15 37 16 40 17 41 18 43 19 44 20 45
REMARK SMILES IDX 29 46 21 47 28 49 22 50 23 51 27 52 24 53 26 54 25 56
REMARK H PARENT 10 10 12 11 13 12 30 13 32 14 8 16 8 17 4 22 4 23 5 25 5 26
REMARK H PARENT 6 27 6 28 1 30 1 31 1 32 3 34 3 35 3 36 15 38 15 39 16 42
REMARK H PARENT 20 48 27 55 24 57 26 58 25 59
REMARK Flexibility Score: inf
ROOT
ATOM      1  C   UNL     1     -46.933  32.143  25.049  1.00  0.00     0.030 A 
ATOM      2  C   UNL     1     -48.024  32.985  25.131  1.00  0.00    -0.032 A 
ATOM      3  C   UNL     1     -47.793  33.901  26.195  1.00  0.00    -0.000 A 
ATOM      4  C   UNL     1     -48.528  34.966  26.746  1.00  0.00    -0.052 A 
ATOM      5  C   UNL     1     -47.994  35.682  27.825  1.00  0.00    -0.057 A 
ATOM      6  C   UNL     1     -46.746  35.352  28.369  1.00  0.00    -0.027 A 
ATOM      7  C   UNL     1     -45.998  34.296  27.821  1.00  0.00    -0.033 A 
ATOM      8  C   UNL     1     -46.548  33.593  26.742  1.00  0.00     0.046 A 
ATOM      9  N   UNL     1     -46.048  32.529  26.027  1.00  0.00    -0.357 N 
ATOM     10  H   UNL     1     -48.900  32.949  24.497  1.00  0.00     0.065 H 
ATOM     11  H   UNL     1     -49.498  35.236  26.340  1.00  0.00     0.063 H 
ATOM     12  H   UNL     1     -48.565  36.511  28.242  1.00  0.00     0.063 H 
ATOM     13  H   UNL     1     -45.024  34.030  28.219  1.00  0.00     0.065 H 
ATOM     14  H   UNL     1     -45.174  32.056  26.207  1.00  0.00     0.166 HD
ENDROOT
BRANCH   1  15
ATOM     15  C   UNL     1     -46.627  31.011  24.124  1.00  0.00     0.039 C 
ATOM     16  H   UNL     1     -46.101  30.254  24.718  1.00  0.00     0.050 H 
ATOM     17  H   UNL     1     -45.931  31.344  23.343  1.00  0.00     0.050 H 
BRANCH  15  18
ATOM     18  N   UNL     1     -47.854  30.449  23.555  1.00  0.00    -0.292 NA
ATOM     19  C   UNL     1     -48.153  29.053  23.935  1.00  0.00     0.016 C 
ATOM     20  C   UNL     1     -49.263  28.716  22.929  1.00  0.00    -0.034 C 
ATOM     21  C   UNL     1     -48.862  29.436  21.650  1.00  0.00    -0.039 C 
ATOM     22  H   UNL     1     -50.232  29.108  23.266  1.00  0.00     0.029 H 
ATOM     23  H   UNL     1     -49.384  27.640  22.766  1.00  0.00     0.029 H 
ATOM     24  C   UNL     1     -47.857  30.498  22.084  1.00  0.00    -0.001 C 
ATOM     25  H   UNL     1     -48.398  28.739  20.943  1.00  0.00     0.028 H 
ATOM     26  H   UNL     1     -49.738  29.878  21.163  1.00  0.00     0.028 H 
ATOM     27  H   UNL     1     -48.155  31.486  21.718  1.00  0.00     0.043 H 
ATOM     28  H   UNL     1     -46.875  30.261  21.657  1.00  0.00     0.043 H 
BRANCH  19  29
ATOM     29  C   UNL     1     -48.704  28.975  25.365  1.00  0.00    -0.047 C 
ATOM     30  H   UNL     1     -47.923  29.215  26.097  1.00  0.00     0.025 H 
ATOM     31  H   UNL     1     -49.530  29.676  25.522  1.00  0.00     0.025 H 
ATOM     32  H   UNL     1     -49.074  27.969  25.599  1.00  0.00     0.025 H 
ENDBRANCH  19  29
BRANCH  19  33
ATOM     33  C   UNL     1     -46.971  28.075  23.786  1.00  0.00    -0.047 C 
ATOM     34  H   UNL     1     -46.388  28.262  22.879  1.00  0.00     0.025 H 
ATOM     35  H   UNL     1     -47.333  27.041  23.731  1.00  0.00     0.025 H 
ATOM     36  H   UNL     1     -46.289  28.135  24.642  1.00  0.00     0.025 H 
ENDBRANCH  19  33
ENDBRANCH  15  18
ENDBRANCH   1  15
BRANCH   6  37
ATOM     37  C   UNL     1     -46.191  36.158  29.518  1.00  0.00     0.043 C 
ATOM     38  H   UNL     1     -45.563  35.529  30.158  1.00  0.00     0.054 H 
ATOM     39  H   UNL     1     -47.007  36.543  30.140  1.00  0.00     0.054 H 
BRANCH  37  40
ATOM     40  N   UNL     1     -45.366  37.235  29.034  1.00  0.00    -0.347 N 
ATOM     41  C   UNL     1     -44.696  38.093  29.870  1.00  0.00     0.270 C 
ATOM     42  H   UNL     1     -45.455  37.533  28.067  1.00  0.00     0.164 HD
ATOM     43  O   UNL     1     -44.607  37.953  31.084  1.00  0.00    -0.268 OA
BRANCH  41  44
ATOM     44  C   UNL     1     -44.080  39.254  29.127  1.00  0.00     0.136 A 
ATOM     45  C   UNL     1     -43.038  39.847  29.712  1.00  0.00     0.035 A 
ATOM     46  N   UNL     1     -44.623  39.631  27.918  1.00  0.00    -0.225 NA
ATOM     47  C   UNL     1     -42.412  40.986  29.028  1.00  0.00     0.258 A 
ATOM     48  H   UNL     1     -42.622  39.544  30.664  1.00  0.00     0.071 H 
ATOM     49  C   UNL     1     -44.069  40.641  27.321  1.00  0.00     0.140 A 
ATOM     50  O   UNL     1     -41.447  41.536  29.558  1.00  0.00    -0.269 OA
ATOM     51  N   UNL     1     -42.979  41.349  27.816  1.00  0.00    -0.268 N 
ATOM     52  C   UNL     1     -44.625  41.088  26.011  1.00  0.00    -0.019 A 
ATOM     53  C   UNL     1     -42.443  42.421  27.110  1.00  0.00     0.014 A 
ATOM     54  C   UNL     1     -44.075  42.126  25.371  1.00  0.00    -0.057 A 
ATOM     55  H   UNL     1     -45.475  40.545  25.619  1.00  0.00     0.066 H 
ATOM     56  C   UNL     1     -42.947  42.816  25.935  1.00  0.00    -0.045 A 
ATOM     57  H   UNL     1     -41.590  42.929  27.557  1.00  0.00     0.082 H 
ATOM     58  H   UNL     1     -44.467  42.466  24.417  1.00  0.00     0.062 H 
ATOM     59  H   UNL     1     -42.520  43.655  25.394  1.00  0.00     0.064 H 
ENDBRANCH  41  44
ENDBRANCH  37  40
ENDBRANCH   6  37
TORSDOF 7
ENDMDL
MODEL 3
REMARK VINA RESULT:     -10.1      1.937      2.980
REMARK SMILES CC1(C)CCCN1Cc1cc2ccc(CNC(=O)c3cc(=O)n4ccccc4n3)cc2[nH]1
REMARK SMILES IDX 9 1 10 2 11 3 12 4 13 5 14 6 30 7 31 8 32 9 8 15 7 18 2 19
REMARK SMILES IDX 4 20 5 21 6 24 1 29 3 33 15 37 16 40 17 41 18 43 19 44 20 45
REMARK SMILES IDX 29 46 21 47 28 49 22 50 23 51 27 52 24 53 26 54 25 56
REMARK H PARENT 10 10 12 11 13 12 30 13 32 14 8 16 8 17 4 22 4 23 5 25 5 26
REMARK H PARENT 6 27 6 28 1 30 1 31 1 32 3 34 3 35 3 36 15 38 15 39 16 42
REMARK H PARENT 20 48 27 55 24 57 26 58 25 59
REMARK Flexibility Score: inf
ROOT
ATOM      1  C   UNL     1     -46.755  32.204  24.805  1.00  0.00     0.030 A 
ATOM      2  C   UNL     1     -47.941  32.809  25.167  1.00  0.00    -0.032 A 
ATOM      3  C   UNL     1     -47.641  33.853  26.087  1.00  0.00    -0.000 A 
ATOM      4  C   UNL     1     -48.417  34.793  26.787  1.00  0.00    -0.052 A 
ATOM      5  C   UNL     1     -47.785  35.704  27.642  1.00  0.00    -0.057 A 
ATOM      6  C   UNL     1     -46.395  35.691  27.817  1.00  0.00    -0.027 A 
ATOM      7  C   UNL     1     -45.608  34.762  27.115  1.00  0.00    -0.033 A 
ATOM      8  C   UNL     1     -46.258  33.860  26.264  1.00  0.00     0.046 A 
ATOM      9  N   UNL     1     -45.747  32.857  25.475  1.00  0.00    -0.357 N 
ATOM     10  H   UNL     1     -48.925  32.533  24.811  1.00  0.00     0.065 H 
ATOM     11  H   UNL     1     -49.497  34.818  26.667  1.00  0.00     0.063 H 
ATOM     12  H   UNL     1     -48.391  36.436  28.175  1.00  0.00     0.063 H 
ATOM     13  H   UNL     1     -44.528  34.741  27.227  1.00  0.00     0.065 H 
ATOM     14  H   UNL     1     -44.773  32.592  25.414  1.00  0.00     0.166 HD
ENDROOT
BRANCH   1  15
ATOM     15  C   UNL     1     -46.466  31.074  23.872  1.00  0.00     0.039 C 
ATOM     16  H   UNL     1     -45.958  30.302  24.463  1.00  0.00     0.050 H 
ATOM     17  H   UNL     1     -45.759  31.399  23.099  1.00  0.00     0.050 H 
BRANCH  15  18
ATOM     18  N   UNL     1     -47.700  30.542  23.291  1.00  0.00    -0.292 NA
ATOM     19  C   UNL     1     -48.091  29.192  23.748  1.00  0.00     0.016 C 
ATOM     20  C   UNL     1     -49.180  28.850  22.721  1.00  0.00    -0.034 C 
ATOM     21  C   UNL     1     -48.693  29.461  21.416  1.00  0.00    -0.039 C 
ATOM     22  H   UNL     1     -50.138  29.313  22.994  1.00  0.00     0.029 H 
ATOM     23  H   UNL     1     -49.356  27.773  22.622  1.00  0.00     0.029 H 
ATOM     24  C   UNL     1     -47.648  30.494  21.822  1.00  0.00    -0.001 C 
ATOM     25  H   UNL     1     -48.244  28.695  20.775  1.00  0.00     0.028 H 
ATOM     26  H   UNL     1     -49.525  29.917  20.867  1.00  0.00     0.028 H 
ATOM     27  H   UNL     1     -47.876  31.470  21.381  1.00  0.00     0.043 H 
ATOM     28  H   UNL     1     -46.666  30.177  21.451  1.00  0.00     0.043 H 
BRANCH  19  29
ATOM     29  C   UNL     1     -48.698  29.237  25.157  1.00  0.00    -0.047 C 
ATOM     30  H   UNL     1     -48.256  30.051  25.744  1.00  0.00     0.025 H 
ATOM     31  H   UNL     1     -49.780  29.401  25.129  1.00  0.00     0.025 H 
ATOM     32  H   UNL     1     -48.517  28.304  25.702  1.00  0.00     0.025 H 
ENDBRANCH  19  29
BRANCH  19  33
ATOM     33  C   UNL     1     -46.961  28.144  23.709  1.00  0.00    -0.047 C 
ATOM     34  H   UNL     1     -46.264  28.314  22.881  1.00  0.00     0.025 H 
ATOM     35  H   UNL     1     -47.375  27.137  23.583  1.00  0.00     0.025 H 
ATOM     36  H   UNL     1     -46.382  28.143  24.639  1.00  0.00     0.025 H 
ENDBRANCH  19  33
ENDBRANCH  15  18
ENDBRANCH   1  15
BRANCH   6  37
ATOM     37  C   UNL     1     -45.743  36.702  28.729  1.00  0.00     0.043 C 
ATOM     38  H   UNL     1     -44.831  36.286  29.171  1.00  0.00     0.054 H 
ATOM     39  H   UNL     1     -46.417  36.957  29.555  1.00  0.00     0.054 H 
BRANCH  37  40
ATOM     40  N   UNL     1     -45.365  37.882  27.995  1.00  0.00    -0.347 N 
ATOM     41  C   UNL     1     -44.683  38.927  28.567  1.00  0.00     0.270 C 
ATOM     42  H   UNL     1     -45.805  38.073  27.100  1.00  0.00     0.164 HD
ATOM     43  O   UNL     1     -44.203  38.911  29.695  1.00  0.00    -0.268 OA
BRANCH  41  44
ATOM     44  C   UNL     1     -44.595  40.124  27.651  1.00  0.00     0.136 A 
ATOM     45  C   UNL     1     -45.738  40.537  27.101  1.00  0.00     0.035 A 
ATOM     46  N   UNL     1     -43.364  40.704  27.435  1.00  0.00    -0.225 NA
ATOM     47  C   UNL     1     -45.698  41.693  26.198  1.00  0.00     0.258 A 
ATOM     48  H   UNL     1     -46.699  40.070  27.277  1.00  0.00     0.071 H 
ATOM     49  C   UNL     1     -43.333  41.723  26.631  1.00  0.00     0.140 A 
ATOM     50  O   UNL     1     -46.748  42.084  25.690  1.00  0.00    -0.269 OA
ATOM     51  N   UNL     1     -44.447  42.256  25.993  1.00  0.00    -0.268 N 
ATOM     52  C   UNL     1     -42.022  42.381  26.363  1.00  0.00    -0.019 A 
ATOM     53  C   UNL     1     -44.328  43.354  25.146  1.00  0.00     0.014 A 
ATOM     54  C   UNL     1     -41.958  43.434  25.541  1.00  0.00    -0.057 A 
ATOM     55  H   UNL     1     -41.149  41.971  26.854  1.00  0.00     0.066 H 
ATOM     56  C   UNL     1     -43.148  43.939  24.911  1.00  0.00    -0.045 A 
ATOM     57  H   UNL     1     -45.241  43.719  24.680  1.00  0.00     0.082 H 
ATOM     58  H   UNL     1     -41.013  43.926  25.332  1.00  0.00     0.062 H 
ATOM     59  H   UNL     1     -43.068  44.796  24.248  1.00  0.00     0.064 H 
ENDBRANCH  41  44
ENDBRANCH  37  40
ENDBRANCH   6  37
TORSDOF 7
ENDMDL
MODEL 4
REMARK VINA RESULT:      -9.8      1.497      2.072
REMARK SMILES CC1(C)CCCN1Cc1cc2ccc(CNC(=O)c3cc(=O)n4ccccc4n3)cc2[nH]1
REMARK SMILES IDX 9 1 10 2 11 3 12 4 13 5 14 6 30 7 31 8 32 9 8 15 7 18 2 19
REMARK SMILES IDX 4 20 5 21 6 24 1 29 3 33 15 37 16 40 17 41 18 43 19 44 20 45
REMARK SMILES IDX 29 46 21 47 28 49 22 50 23 51 27 52 24 53 26 54 25 56
REMARK H PARENT 10 10 12 11 13 12 30 13 32 14 8 16 8 17 4 22 4 23 5 25 5 26
REMARK H PARENT 6 27 6 28 1 30 1 31 1 32 3 34 3 35 3 36 15 38 15 39 16 42
REMARK H PARENT 20 48 27 55 24 57 26 58 25 59
REMARK Flexibility Score: inf
ROOT
ATOM      1  C   UNL     1     -48.660  31.271  24.168  1.00  0.00     0.030 A 
ATOM      2  C   UNL     1     -47.345  31.688  24.175  1.00  0.00    -0.032 A 
ATOM      3  C   UNL     1     -47.234  32.782  25.078  1.00  0.00    -0.000 A 
ATOM      4  C   UNL     1     -46.171  33.603  25.494  1.00  0.00    -0.052 A 
ATOM      5  C   UNL     1     -46.415  34.623  26.423  1.00  0.00    -0.057 A 
ATOM      6  C   UNL     1     -47.699  34.843  26.938  1.00  0.00    -0.027 A 
ATOM      7  C   UNL     1     -48.767  34.022  26.537  1.00  0.00    -0.033 A 
ATOM      8  C   UNL     1     -48.503  33.008  25.609  1.00  0.00     0.046 A 
ATOM      9  N   UNL     1     -49.345  32.078  25.046  1.00  0.00    -0.357 N 
ATOM     10  H   UNL     1     -46.542  31.255  23.592  1.00  0.00     0.065 H 
ATOM     11  H   UNL     1     -45.169  33.450  25.104  1.00  0.00     0.063 H 
ATOM     12  H   UNL     1     -45.586  35.250  26.747  1.00  0.00     0.063 H 
ATOM     13  H   UNL     1     -49.768  34.167  26.933  1.00  0.00     0.065 H 
ATOM     14  H   UNL     1     -50.340  32.008  25.208  1.00  0.00     0.166 HD
ENDROOT
BRANCH   1  15
ATOM     15  C   UNL     1     -49.345  30.170  23.425  1.00  0.00     0.039 C 
ATOM     16  H   UNL     1     -48.996  30.229  22.387  1.00  0.00     0.050 H 
ATOM     17  H   UNL     1     -50.427  30.348  23.407  1.00  0.00     0.050 H 
BRANCH  15  18
ATOM     18  N   UNL     1     -49.017  28.864  24.000  1.00  0.00    -0.292 NA
ATOM     19  C   UNL     1     -49.981  27.782  23.715  1.00  0.00     0.016 C 
ATOM     20  C   UNL     1     -49.511  26.713  24.712  1.00  0.00    -0.034 C 
ATOM     21  C   UNL     1     -49.079  27.492  25.945  1.00  0.00    -0.039 C 
ATOM     22  H   UNL     1     -48.645  26.163  24.320  1.00  0.00     0.029 H 
ATOM     23  H   UNL     1     -50.285  25.975  24.951  1.00  0.00     0.029 H 
ATOM     24  C   UNL     1     -48.865  28.922  25.462  1.00  0.00    -0.001 C 
ATOM     25  H   UNL     1     -49.860  27.463  26.714  1.00  0.00     0.028 H 
ATOM     26  H   UNL     1     -48.166  27.066  26.374  1.00  0.00     0.028 H 
ATOM     27  H   UNL     1     -47.871  29.282  25.747  1.00  0.00     0.043 H 
ATOM     28  H   UNL     1     -49.609  29.577  25.932  1.00  0.00     0.043 H 
BRANCH  19  29
ATOM     29  C   UNL     1     -49.822  27.261  22.280  1.00  0.00    -0.047 C 
ATOM     30  H   UNL     1     -50.174  28.006  21.556  1.00  0.00     0.025 H 
ATOM     31  H   UNL     1     -48.778  27.037  22.041  1.00  0.00     0.025 H 
ATOM     32  H   UNL     1     -50.403  26.346  22.117  1.00  0.00     0.025 H 
ENDBRANCH  19  29
BRANCH  19  33
ATOM     33  C   UNL     1     -51.457  28.146  23.968  1.00  0.00    -0.047 C 
ATOM     34  H   UNL     1     -51.846  28.848  23.222  1.00  0.00     0.025 H 
ATOM     35  H   UNL     1     -51.574  28.620  24.950  1.00  0.00     0.025 H 
ATOM     36  H   UNL     1     -52.099  27.258  23.958  1.00  0.00     0.025 H 
ENDBRANCH  19  33
ENDBRANCH  15  18
ENDBRANCH   1  15
BRANCH   6  37
ATOM     37  C   UNL     1     -47.923  35.936  27.954  1.00  0.00     0.043 C 
ATOM     38  H   UNL     1     -47.885  35.528  28.970  1.00  0.00     0.054 H 
ATOM     39  H   UNL     1     -48.916  36.381  27.819  1.00  0.00     0.054 H 
BRANCH  37  40
ATOM     40  N   UNL     1     -46.895  36.941  27.857  1.00  0.00    -0.347 N 
ATOM     41  C   UNL     1     -46.146  37.344  28.934  1.00  0.00     0.270 C 
ATOM     42  H   UNL     1     -46.867  37.546  27.042  1.00  0.00     0.164 HD
ATOM     43  O   UNL     1     -46.164  36.807  30.035  1.00  0.00    -0.268 OA
BRANCH  41  44
ATOM     44  C   UNL     1     -45.291  38.549  28.619  1.00  0.00     0.136 A 
ATOM     45  C   UNL     1     -45.633  39.253  27.538  1.00  0.00     0.035 A 
ATOM     46  N   UNL     1     -44.226  38.841  29.443  1.00  0.00    -0.225 NA
ATOM     47  C   UNL     1     -44.825  40.429  27.190  1.00  0.00     0.258 A 
ATOM     48  H   UNL     1     -46.471  39.012  26.897  1.00  0.00     0.071 H 
ATOM     49  C   UNL     1     -43.513  39.878  29.128  1.00  0.00     0.140 A 
ATOM     50  O   UNL     1     -45.136  41.087  26.198  1.00  0.00    -0.269 OA
ATOM     51  N   UNL     1     -43.757  40.698  28.032  1.00  0.00    -0.268 N 
ATOM     52  C   UNL     1     -42.347  40.230  29.989  1.00  0.00    -0.019 A 
ATOM     53  C   UNL     1     -42.943  41.794  27.765  1.00  0.00     0.014 A 
ATOM     54  C   UNL     1     -41.593  41.294  29.690  1.00  0.00    -0.057 A 
ATOM     55  H   UNL     1     -42.148  39.596  30.843  1.00  0.00     0.066 H 
ATOM     56  C   UNL     1     -41.898  42.104  28.542  1.00  0.00    -0.045 A 
ATOM     57  H   UNL     1     -43.192  42.393  26.891  1.00  0.00     0.082 H 
ATOM     58  H   UNL     1     -40.740  41.566  30.304  1.00  0.00     0.062 H 
ATOM     59  H   UNL     1     -41.270  42.963  28.323  1.00  0.00     0.064 H 
ENDBRANCH  41  44
ENDBRANCH  37  40
ENDBRANCH   6  37
TORSDOF 7
ENDMDL
MODEL 5
REMARK VINA RESULT:      -9.7      1.621      2.335
REMARK SMILES CC1(C)CCCN1Cc1cc2ccc(CNC(=O)c3cc(=O)n4ccccc4n3)cc2[nH]1
REMARK SMILES IDX 9 1 10 2 11 3 12 4 13 5 14 6 30 7 31 8 32 9 8 15 7 18 2 19
REMARK SMILES IDX 4 20 5 21 6 24 1 29 3 33 15 37 16 40 17 41 18 43 19 44 20 45
REMARK SMILES IDX 29 46 21 47 28 49 22 50 23 51 27 52 24 53 26 54 25 56
REMARK H PARENT 10 10 12 11 13 12 30 13 32 14 8 16 8 17 4 22 4 23 5 25 5 26
REMARK H PARENT 6 27 6 28 1 30 1 31 1 32 3 34 3 35 3 36 15 38 15 39 16 42
REMARK H PARENT 20 48 27 55 24 57 26 58 25 59
REMARK Flexibility Score: inf
ROOT
ATOM      1  C   UNL     1     -48.678  31.695  24.720  1.00  0.00     0.030 A 
ATOM      2  C   UNL     1     -47.355  32.083  24.655  1.00  0.00    -0.032 A 
ATOM      3  C   UNL     1     -47.196  33.241  25.467  1.00  0.00    -0.000 A 
ATOM      4  C   UNL     1     -46.105  34.069  25.786  1.00  0.00    -0.052 A 
ATOM      5  C   UNL     1     -46.301  35.162  26.640  1.00  0.00    -0.057 A 
ATOM      6  C   UNL     1     -47.563  35.447  27.176  1.00  0.00    -0.027 A 
ATOM      7  C   UNL     1     -48.658  34.621  26.872  1.00  0.00    -0.033 A 
ATOM      8  C   UNL     1     -48.443  33.533  26.017  1.00  0.00     0.046 A 
ATOM      9  N   UNL     1     -49.320  32.580  25.553  1.00  0.00    -0.357 N 
ATOM     10  H   UNL     1     -46.580  31.591  24.083  1.00  0.00     0.065 H 
ATOM     11  H   UNL     1     -45.119  33.866  25.378  1.00  0.00     0.063 H 
ATOM     12  H   UNL     1     -45.450  35.795  26.889  1.00  0.00     0.063 H 
ATOM     13  H   UNL     1     -49.643  34.817  27.285  1.00  0.00     0.065 H 
ATOM     14  H   UNL     1     -50.310  32.544  25.751  1.00  0.00     0.166 HD
ENDROOT
BRANCH   1  15
ATOM     15  C   UNL     1     -49.406  30.555  24.086  1.00  0.00     0.039 C 
ATOM     16  H   UNL     1     -50.447  30.620  24.425  1.00  0.00     0.050 H 
ATOM     17  H   UNL     1     -49.008  29.603  24.460  1.00  0.00     0.050 H 
BRANCH  15  18
ATOM     18  N   UNL     1     -49.340  30.635  22.625  1.00  0.00    -0.292 NA
ATOM     19  C   UNL     1     -50.642  30.673  21.929  1.00  0.00     0.016 C 
ATOM     20  C   UNL     1     -50.198  30.420  20.481  1.00  0.00    -0.034 C 
ATOM     21  C   UNL     1     -49.049  29.429  20.593  1.00  0.00    -0.039 C 
ATOM     22  H   UNL     1     -49.825  31.343  20.017  1.00  0.00     0.029 H 
ATOM     23  H   UNL     1     -51.002  30.036  19.844  1.00  0.00     0.029 H 
ATOM     24  C   UNL     1     -48.579  29.521  22.040  1.00  0.00    -0.001 C 
ATOM     25  H   UNL     1     -49.392  28.413  20.367  1.00  0.00     0.028 H 
ATOM     26  H   UNL     1     -48.249  29.680  19.888  1.00  0.00     0.028 H 
ATOM     27  H   UNL     1     -47.500  29.706  22.086  1.00  0.00     0.043 H 
ATOM     28  H   UNL     1     -48.780  28.569  22.546  1.00  0.00     0.043 H 
BRANCH  19  29
ATOM     29  C   UNL     1     -51.291  32.060  22.040  1.00  0.00    -0.047 C 
ATOM     30  H   UNL     1     -52.018  32.084  22.860  1.00  0.00     0.025 H 
ATOM     31  H   UNL     1     -50.549  32.842  22.233  1.00  0.00     0.025 H 
ATOM     32  H   UNL     1     -51.825  32.329  21.121  1.00  0.00     0.025 H 
ENDBRANCH  19  29
BRANCH  19  33
ATOM     33  C   UNL     1     -51.650  29.598  22.382  1.00  0.00    -0.047 C 
ATOM     34  H   UNL     1     -51.542  28.664  21.820  1.00  0.00     0.025 H 
ATOM     35  H   UNL     1     -52.678  29.948  22.234  1.00  0.00     0.025 H 
ATOM     36  H   UNL     1     -51.537  29.363  23.446  1.00  0.00     0.025 H 
ENDBRANCH  19  33
ENDBRANCH  15  18
ENDBRANCH   1  15
BRANCH   6  37
ATOM     37  C   UNL     1     -47.734  36.620  28.111  1.00  0.00     0.043 C 
ATOM     38  H   UNL     1     -47.807  36.275  29.148  1.00  0.00     0.054 H 
ATOM     39  H   UNL     1     -48.662  37.156  27.880  1.00  0.00     0.054 H 
BRANCH  37  40
ATOM     40  N   UNL     1     -46.600  37.504  28.032  1.00  0.00    -0.347 N 
ATOM     41  C   UNL     1     -45.822  37.814  29.120  1.00  0.00     0.270 C 
ATOM     42  H   UNL     1     -46.495  38.108  27.223  1.00  0.00     0.164 HD
ATOM     43  O   UNL     1     -45.911  37.274  30.216  1.00  0.00    -0.268 OA
BRANCH  41  44
ATOM     44  C   UNL     1     -44.835  38.918  28.824  1.00  0.00     0.136 A 
ATOM     45  C   UNL     1     -43.905  39.148  29.752  1.00  0.00     0.035 A 
ATOM     46  N   UNL     1     -44.956  39.615  27.641  1.00  0.00    -0.225 NA
ATOM     47  C   UNL     1     -42.929  40.218  29.509  1.00  0.00     0.258 A 
ATOM     48  H   UNL     1     -43.823  38.595  30.679  1.00  0.00     0.071 H 
ATOM     49  C   UNL     1     -44.094  40.563  27.434  1.00  0.00     0.140 A 
ATOM     50  O   UNL     1     -42.064  40.434  30.357  1.00  0.00    -0.269 OA
ATOM     51  N   UNL     1     -43.074  40.907  28.315  1.00  0.00    -0.268 N 
ATOM     52  C   UNL     1     -44.187  41.348  26.169  1.00  0.00    -0.019 A 
ATOM     53  C   UNL     1     -42.189  41.938  28.015  1.00  0.00     0.014 A 
ATOM     54  C   UNL     1     -43.313  42.331  25.927  1.00  0.00    -0.057 A 
ATOM     55  H   UNL     1     -44.979  41.089  25.479  1.00  0.00     0.066 H 
ATOM     56  C   UNL     1     -42.279  42.638  26.878  1.00  0.00    -0.045 A 
ATOM     57  H   UNL     1     -41.415  42.153  28.750  1.00  0.00     0.082 H 
ATOM     58  H   UNL     1     -43.365  42.914  25.012  1.00  0.00     0.062 H 
ATOM     59  H   UNL     1     -41.582  43.440  26.655  1.00  0.00     0.064 H 
ENDBRANCH  41  44
ENDBRANCH  37  40
ENDBRANCH   6  37
TORSDOF 7
ENDMDL
MODEL 6
REMARK VINA RESULT:      -9.7      2.153      3.120
REMARK SMILES CC1(C)CCCN1Cc1cc2ccc(CNC(=O)c3cc(=O)n4ccccc4n3)cc2[nH]1
REMARK SMILES IDX 9 1 10 2 11 3 12 4 13 5 14 6 30 7 31 8 32 9 8 15 7 18 2 19
REMARK SMILES IDX 4 20 5 21 6 24 1 29 3 33 15 37 16 40 17 41 18 43 19 44 20 45
REMARK SMILES IDX 29 46 21 47 28 49 22 50 23 51 27 52 24 53 26 54 25 56
REMARK H PARENT 10 10 12 11 13 12 30 13 32 14 8 16 8 17 4 22 4 23 5 25 5 26
REMARK H PARENT 6 27 6 28 1 30 1 31 1 32 3 34 3 35 3 36 15 38 15 39 16 42
REMARK H PARENT 20 48 27 55 24 57 26 58 25 59
REMARK Flexibility Score: inf
ROOT
ATOM      1  C   UNL     1     -47.728  31.924  24.766  1.00  0.00     0.030 A 
ATOM      2  C   UNL     1     -46.456  32.362  25.073  1.00  0.00    -0.032 A 
ATOM      3  C   UNL     1     -46.575  33.523  25.888  1.00  0.00    -0.000 A 
ATOM      4  C   UNL     1     -45.650  34.391  26.494  1.00  0.00    -0.052 A 
ATOM      5  C   UNL     1     -46.119  35.473  27.250  1.00  0.00    -0.057 A 
ATOM      6  C   UNL     1     -47.491  35.709  27.407  1.00  0.00    -0.027 A 
ATOM      7  C   UNL     1     -48.425  34.842  26.814  1.00  0.00    -0.033 A 
ATOM      8  C   UNL     1     -47.937  33.766  26.063  1.00  0.00     0.046 A 
ATOM      9  N   UNL     1     -48.611  32.782  25.379  1.00  0.00    -0.357 N 
ATOM     10  H   UNL     1     -45.533  31.902  24.747  1.00  0.00     0.065 H 
ATOM     11  H   UNL     1     -44.582  34.227  26.382  1.00  0.00     0.063 H 
ATOM     12  H   UNL     1     -45.397  36.138  27.724  1.00  0.00     0.063 H 
ATOM     13  H   UNL     1     -49.493  34.999  26.932  1.00  0.00     0.065 H 
ATOM     14  H   UNL     1     -49.615  32.707  25.290  1.00  0.00     0.166 HD
ENDROOT
BRANCH   1  15
ATOM     15  C   UNL     1     -48.205  30.759  23.962  1.00  0.00     0.039 C 
ATOM     16  H   UNL     1     -49.041  30.316  24.517  1.00  0.00     0.050 H 
ATOM     17  H   UNL     1     -47.419  29.996  23.908  1.00  0.00     0.050 H 
BRANCH  15  18
ATOM     18  N   UNL     1     -48.645  31.182  22.631  1.00  0.00    -0.292 NA
ATOM     19  C   UNL     1     -50.011  30.769  22.249  1.00  0.00     0.016 C 
ATOM     20  C   UNL     1     -49.990  31.078  20.745  1.00  0.00    -0.034 C 
ATOM     21  C   UNL     1     -48.579  30.731  20.294  1.00  0.00    -0.039 C 
ATOM     22  H   UNL     1     -50.168  32.146  20.560  1.00  0.00     0.029 H 
ATOM     23  H   UNL     1     -50.744  30.519  20.180  1.00  0.00     0.029 H 
ATOM     24  C   UNL     1     -47.745  30.705  21.570  1.00  0.00    -0.001 C 
ATOM     25  H   UNL     1     -48.560  29.750  19.807  1.00  0.00     0.028 H 
ATOM     26  H   UNL     1     -48.207  31.471  19.578  1.00  0.00     0.028 H 
ATOM     27  H   UNL     1     -46.866  31.351  21.471  1.00  0.00     0.043 H 
ATOM     28  H   UNL     1     -47.394  29.682  21.751  1.00  0.00     0.043 H 
BRANCH  19  29
ATOM     29  C   UNL     1     -51.068  31.638  22.945  1.00  0.00    -0.047 C 
ATOM     30  H   UNL     1     -51.972  31.055  23.155  1.00  0.00     0.025 H 
ATOM     31  H   UNL     1     -50.704  32.038  23.897  1.00  0.00     0.025 H 
ATOM     32  H   UNL     1     -51.364  32.488  22.320  1.00  0.00     0.025 H 
ENDBRANCH  19  29
BRANCH  19  33
ATOM     33  C   UNL     1     -50.329  29.281  22.492  1.00  0.00    -0.047 C 
ATOM     34  H   UNL     1     -50.557  28.747  21.564  1.00  0.00     0.025 H 
ATOM     35  H   UNL     1     -51.200  29.176  23.149  1.00  0.00     0.025 H 
ATOM     36  H   UNL     1     -49.493  28.765  22.978  1.00  0.00     0.025 H 
ENDBRANCH  19  33
ENDBRANCH  15  18
ENDBRANCH   1  15
BRANCH   6  37
ATOM     37  C   UNL     1     -47.962  36.872  28.246  1.00  0.00     0.043 C 
ATOM     38  H   UNL     1     -48.143  36.550  29.278  1.00  0.00     0.054 H 
ATOM     39  H   UNL     1     -48.909  37.261  27.856  1.00  0.00     0.054 H 
BRANCH  37  40
ATOM     40  N   UNL     1     -46.962  37.908  28.290  1.00  0.00    -0.347 N 
ATOM     41  C   UNL     1     -46.818  38.845  27.297  1.00  0.00     0.270 C 
ATOM     42  H   UNL     1     -46.185  37.822  28.938  1.00  0.00     0.164 HD
ATOM     43  O   UNL     1     -47.596  38.993  26.362  1.00  0.00    -0.268 OA
BRANCH  41  44
ATOM     44  C   UNL     1     -45.573  39.681  27.474  1.00  0.00     0.136 A 
ATOM     45  C   UNL     1     -45.340  40.604  26.539  1.00  0.00     0.035 A 
ATOM     46  N   UNL     1     -44.763  39.442  28.563  1.00  0.00    -0.225 NA
ATOM     47  C   UNL     1     -44.137  41.435  26.666  1.00  0.00     0.258 A 
ATOM     48  H   UNL     1     -45.983  40.779  25.686  1.00  0.00     0.071 H 
ATOM     49  C   UNL     1     -43.698  40.176  28.668  1.00  0.00     0.140 A 
ATOM     50  O   UNL     1     -43.916  42.292  25.811  1.00  0.00    -0.269 OA
ATOM     51  N   UNL     1     -43.336  41.172  27.768  1.00  0.00    -0.268 N 
ATOM     52  C   UNL     1     -42.789  39.952  29.828  1.00  0.00    -0.019 A 
ATOM     53  C   UNL     1     -42.176  41.917  27.955  1.00  0.00     0.014 A 
ATOM     54  C   UNL     1     -41.684  40.693  29.964  1.00  0.00    -0.057 A 
ATOM     55  H   UNL     1     -43.061  39.177  30.533  1.00  0.00     0.066 H 
ATOM     56  C   UNL     1     -41.364  41.710  28.999  1.00  0.00    -0.045 A 
ATOM     57  H   UNL     1     -41.954  42.680  27.211  1.00  0.00     0.082 H 
ATOM     58  H   UNL     1     -41.009  40.544  30.802  1.00  0.00     0.062 H 
ATOM     59  H   UNL     1     -40.461  42.298  29.134  1.00  0.00     0.064 H 
ENDBRANCH  41  44
ENDBRANCH  37  40
ENDBRANCH   6  37
TORSDOF 7
ENDMDL
MODEL 7
REMARK VINA RESULT:      -9.5      1.947      2.740
REMARK SMILES CC1(C)CCCN1Cc1cc2ccc(CNC(=O)c3cc(=O)n4ccccc4n3)cc2[nH]1
REMARK SMILES IDX 9 1 10 2 11 3 12 4 13 5 14 6 30 7 31 8 32 9 8 15 7 18 2 19
REMARK SMILES IDX 4 20 5 21 6 24 1 29 3 33 15 37 16 40 17 41 18 43 19 44 20 45
REMARK SMILES IDX 29 46 21 47 28 49 22 50 23 51 27 52 24 53 26 54 25 56
REMARK H PARENT 10 10 12 11 13 12 30 13 32 14 8 16 8 17 4 22 4 23 5 25 5 26
REMARK H PARENT 6 27 6 28 1 30 1 31 1 32 3 34 3 35 3 36 15 38 15 39 16 42
REMARK H PARENT 20 48 27 55 24 57 26 58 25 59
REMARK Flexibility Score: inf
ROOT
ATOM      1  C   UNL     1     -47.769  32.706  25.803  1.00  0.00     0.030 A 
ATOM      2  C   UNL     1     -46.499  32.961  26.278  1.00  0.00    -0.032 A 
ATOM      3  C   UNL     1     -46.509  34.244  26.894  1.00  0.00    -0.000 A 
ATOM      4  C   UNL     1     -45.535  35.027  27.539  1.00  0.00    -0.052 A 
ATOM      5  C   UNL     1     -45.889  36.285  28.043  1.00  0.00    -0.057 A 
ATOM      6  C   UNL     1     -47.194  36.778  27.912  1.00  0.00    -0.027 A 
ATOM      7  C   UNL     1     -48.178  36.000  27.278  1.00  0.00    -0.033 A 
ATOM      8  C   UNL     1     -47.804  34.746  26.781  1.00  0.00     0.046 A 
ATOM      9  N   UNL     1     -48.547  33.794  26.122  1.00  0.00    -0.357 N 
ATOM     10  H   UNL     1     -45.647  32.299  26.192  1.00  0.00     0.065 H 
ATOM     11  H   UNL     1     -44.517  34.664  27.649  1.00  0.00     0.063 H 
ATOM     12  H   UNL     1     -45.132  36.883  28.549  1.00  0.00     0.063 H 
ATOM     13  H   UNL     1     -49.198  36.358  27.175  1.00  0.00     0.065 H 
ATOM     14  H   UNL     1     -49.519  33.881  25.861  1.00  0.00     0.166 HD
ENDROOT
BRANCH   1  15
ATOM     15  C   UNL     1     -48.338  31.524  25.089  1.00  0.00     0.039 C 
ATOM     16  H   UNL     1     -49.429  31.624  25.136  1.00  0.00     0.050 H 
ATOM     17  H   UNL     1     -48.079  30.602  25.625  1.00  0.00     0.050 H 
BRANCH  15  18
ATOM     18  N   UNL     1     -47.890  31.486  23.695  1.00  0.00    -0.292 NA
ATOM     19  C   UNL     1     -48.675  30.616  22.796  1.00  0.00     0.016 C 
ATOM     20  C   UNL     1     -47.752  30.567  21.570  1.00  0.00    -0.034 C 
ATOM     21  C   UNL     1     -46.342  30.555  22.144  1.00  0.00    -0.039 C 
ATOM     22  H   UNL     1     -47.873  31.464  20.949  1.00  0.00     0.029 H 
ATOM     23  H   UNL     1     -47.934  29.699  20.928  1.00  0.00     0.029 H 
ATOM     24  C   UNL     1     -46.486  31.065  23.573  1.00  0.00    -0.001 C 
ATOM     25  H   UNL     1     -45.933  29.538  22.141  1.00  0.00     0.028 H 
ATOM     26  H   UNL     1     -45.676  31.189  21.549  1.00  0.00     0.028 H 
ATOM     27  H   UNL     1     -45.801  31.900  23.757  1.00  0.00     0.043 H 
ATOM     28  H   UNL     1     -46.231  30.259  24.271  1.00  0.00     0.043 H 
BRANCH  19  29
ATOM     29  C   UNL     1     -50.010  31.271  22.416  1.00  0.00    -0.047 C 
ATOM     30  H   UNL     1     -49.945  32.362  22.501  1.00  0.00     0.025 H 
ATOM     31  H   UNL     1     -50.301  31.036  21.387  1.00  0.00     0.025 H 
ATOM     32  H   UNL     1     -50.822  30.940  23.074  1.00  0.00     0.025 H 
ENDBRANCH  19  29
BRANCH  19  33
ATOM     33  C   UNL     1     -48.936  29.196  23.335  1.00  0.00    -0.047 C 
ATOM     34  H   UNL     1     -48.442  29.019  24.297  1.00  0.00     0.025 H 
ATOM     35  H   UNL     1     -48.558  28.442  22.634  1.00  0.00     0.025 H 
ATOM     36  H   UNL     1     -50.007  29.006  23.468  1.00  0.00     0.025 H 
ENDBRANCH  19  33
ENDBRANCH  15  18
ENDBRANCH   1  15
BRANCH   6  37
ATOM     37  C   UNL     1     -47.548  38.128  28.487  1.00  0.00     0.043 C 
ATOM     38  H   UNL     1     -47.590  38.079  29.581  1.00  0.00     0.054 H 
ATOM     39  H   UNL     1     -48.538  38.440  28.137  1.00  0.00     0.054 H 
BRANCH  37  40
ATOM     40  N   UNL     1     -46.550  39.107  28.140  1.00  0.00    -0.347 N 
ATOM     41  C   UNL     1     -46.572  39.804  26.957  1.00  0.00     0.270 C 
ATOM     42  H   UNL     1     -45.676  39.130  28.655  1.00  0.00     0.164 HD
ATOM     43  O   UNL     1     -47.495  39.780  26.152  1.00  0.00    -0.268 OA
BRANCH  41  44
ATOM     44  C   UNL     1     -45.311  40.607  26.742  1.00  0.00     0.136 A 
ATOM     45  C   UNL     1     -44.357  40.474  27.665  1.00  0.00     0.035 A 
ATOM     46  N   UNL     1     -45.224  41.420  25.633  1.00  0.00    -0.225 NA
ATOM     47  C   UNL     1     -43.117  41.242  27.500  1.00  0.00     0.258 A 
ATOM     48  H   UNL     1     -44.439  39.834  28.535  1.00  0.00     0.071 H 
ATOM     49  C   UNL     1     -44.127  42.101  25.495  1.00  0.00     0.140 A 
ATOM     50  O   UNL     1     -42.229  41.121  28.344  1.00  0.00    -0.269 OA
ATOM     51  N   UNL     1     -43.055  42.056  26.379  1.00  0.00    -0.268 N 
ATOM     52  C   UNL     1     -43.989  42.998  24.311  1.00  0.00    -0.019 A 
ATOM     53  C   UNL     1     -41.913  42.818  26.156  1.00  0.00     0.014 A 
ATOM     54  C   UNL     1     -42.871  43.712  24.141  1.00  0.00    -0.057 A 
ATOM     55  H   UNL     1     -44.819  43.041  23.618  1.00  0.00     0.066 H 
ATOM     56  C   UNL     1     -41.796  43.620  25.092  1.00  0.00    -0.045 A 
ATOM     57  H   UNL     1     -41.113  42.733  26.889  1.00  0.00     0.082 H 
ATOM     58  H   UNL     1     -42.752  44.371  23.286  1.00  0.00     0.062 H 
ATOM     59  H   UNL     1     -40.899  44.210  24.928  1.00  0.00     0.064 H 
ENDBRANCH  41  44
ENDBRANCH  37  40
ENDBRANCH   6  37
TORSDOF 7
ENDMDL
