MODEL 1
REMARK VINA RESULT:     -11.2      0.000      0.000
REMARK SMILES Nc1ncnc2c1c(-n1cccn1)cn2[C@@H]1C[C@H](CCc2cc3nc(N4CCC4)ccc3cc2F)[C@@H](O)C1
REMARK SMILES IDX 19 1 18 4 16 5 17 6 38 7 36 11 15 16 2 17 3 18 7 19 4 20
REMARK SMILES IDX 6 21 8 22 5 23 14 25 1 27 9 30 10 31 13 32 11 33 12 35 37 38
REMARK SMILES IDX 20 40 21 43 22 44 34 45 23 46 33 48 35 49 24 50 32 51 25 53
REMARK SMILES IDX 31 54 30 55 26 58 27 59 29 60 28 61
REMARK H PARENT 19 2 19 3 16 8 17 9 17 10 38 12 38 13 18 14 36 15 4 24 14 26
REMARK H PARENT 1 28 1 29 10 34 11 36 12 37 37 39 20 41 20 42 22 47 33 52
REMARK H PARENT 31 56 30 57 27 62 27 63 29 64 29 65 28 66 28 67
REMARK Flexibility Score: inf
ROOT
ATOM      1  C   UNL     1     -46.930  34.488  26.887  1.00  0.00    -0.044 C 
ATOM      2  H   UNL     1     -46.794  33.735  27.674  1.00  0.00     0.027 H 
ATOM      3  H   UNL     1     -45.922  34.748  26.535  1.00  0.00     0.027 H 
ENDROOT
BRANCH   1   4
ATOM      4  C   UNL     1     -47.739  33.870  25.741  1.00  0.00    -0.013 C 
ATOM      5  C   UNL     1     -48.123  31.925  24.326  1.00  0.00     0.038 C 
ATOM      6  C   UNL     1     -47.008  32.768  24.973  1.00  0.00    -0.027 C 
ATOM      7  C   UNL     1     -49.434  32.338  25.017  1.00  0.00    -0.006 C 
ATOM      8  H   UNL     1     -48.209  32.196  23.267  1.00  0.00     0.054 H 
ATOM      9  H   UNL     1     -46.388  32.169  25.652  1.00  0.00     0.029 H 
ATOM     10  H   UNL     1     -46.341  33.186  24.211  1.00  0.00     0.029 H 
ATOM     11  C   UNL     1     -48.994  33.145  26.232  1.00  0.00     0.059 C 
ATOM     12  H   UNL     1     -50.079  31.500  25.301  1.00  0.00     0.031 H 
ATOM     13  H   UNL     1     -50.027  32.969  24.343  1.00  0.00     0.031 H 
ATOM     14  H   UNL     1     -48.029  34.674  25.050  1.00  0.00     0.033 H 
ATOM     15  H   UNL     1     -48.759  32.477  27.069  1.00  0.00     0.060 H 
BRANCH   5  16
ATOM     16  N   UNL     1     -47.843  30.497  24.385  1.00  0.00    -0.327 N 
ATOM     17  C   UNL     1     -45.842  27.733  23.421  1.00  0.00     0.138 A 
ATOM     18  N   UNL     1     -44.985  28.314  22.555  1.00  0.00    -0.219 NA
ATOM     19  C   UNL     1     -46.850  28.516  24.016  1.00  0.00     0.087 A 
ATOM     20  C   UNL     1     -45.096  29.633  22.330  1.00  0.00     0.120 A 
ATOM     21  C   UNL     1     -46.834  29.871  23.695  1.00  0.00     0.148 A 
ATOM     22  C   UNL     1     -47.953  28.331  24.912  1.00  0.00     0.095 A 
ATOM     23  N   UNL     1     -45.980  30.488  22.861  1.00  0.00    -0.218 NA
ATOM     24  H   UNL     1     -44.377  30.056  21.635  1.00  0.00     0.106 H 
ATOM     25  C   UNL     1     -48.521  29.573  25.142  1.00  0.00     0.033 A 
ATOM     26  H   UNL     1     -49.359  29.868  25.759  1.00  0.00     0.084 H 
BRANCH  17  27
ATOM     27  N   UNL     1     -45.648  26.387  23.670  1.00  0.00    -0.383 N 
ATOM     28  H   UNL     1     -46.459  25.909  24.068  1.00  0.00     0.158 HD
ATOM     29  H   UNL     1     -45.142  25.919  22.932  1.00  0.00     0.158 HD
ENDBRANCH  17  27
BRANCH  22  30
ATOM     30  N   UNL     1     -48.414  27.100  25.467  1.00  0.00    -0.239 N 
ATOM     31  C   UNL     1     -47.762  26.351  26.432  1.00  0.00     0.031 A 
ATOM     32  N   UNL     1     -49.600  26.517  25.137  1.00  0.00    -0.176 NA
ATOM     33  C   UNL     1     -48.542  25.255  26.706  1.00  0.00    -0.024 A 
ATOM     34  H   UNL     1     -46.807  26.659  26.828  1.00  0.00     0.084 H 
ATOM     35  C   UNL     1     -49.659  25.410  25.878  1.00  0.00     0.049 A 
ATOM     36  H   UNL     1     -48.331  24.460  27.406  1.00  0.00     0.066 H 
ATOM     37  H   UNL     1     -50.522  24.762  25.783  1.00  0.00     0.086 H 
ENDBRANCH  22  30
ENDBRANCH   5  16
BRANCH  11  38
ATOM     38  O   UNL     1     -50.003  34.040  26.657  1.00  0.00    -0.393 OA
ATOM     39  H   UNL     1     -49.632  34.637  27.330  1.00  0.00     0.210 HD
ENDBRANCH  11  38
ENDBRANCH   1   4
BRANCH   1  40
ATOM     40  C   UNL     1     -47.604  35.729  27.478  1.00  0.00    -0.025 C 
ATOM     41  H   UNL     1     -48.191  36.250  26.711  1.00  0.00     0.032 H 
ATOM     42  H   UNL     1     -48.320  35.437  28.257  1.00  0.00     0.032 H 
BRANCH  40  43
ATOM     43  C   UNL     1     -46.594  36.684  28.058  1.00  0.00    -0.010 A 
ATOM     44  C   UNL     1     -46.124  37.773  27.307  1.00  0.00    -0.030 A 
ATOM     45  C   UNL     1     -46.083  36.491  29.339  1.00  0.00     0.127 A 
ATOM     46  C   UNL     1     -45.178  38.661  27.807  1.00  0.00     0.073 A 
ATOM     47  H   UNL     1     -46.501  37.942  26.300  1.00  0.00     0.065 H 
ATOM     48  C   UNL     1     -45.138  37.359  29.871  1.00  0.00    -0.017 A 
ATOM     49  F   UNL     1     -46.499  35.453  30.078  1.00  0.00    -0.207 F 
ATOM     50  N   UNL     1     -44.769  39.685  27.040  1.00  0.00    -0.231 NA
ATOM     51  C   UNL     1     -44.682  38.446  29.109  1.00  0.00     0.003 A 
ATOM     52  H   UNL     1     -44.764  37.177  30.873  1.00  0.00     0.066 H 
ATOM     53  C   UNL     1     -43.847  40.549  27.523  1.00  0.00     0.129 A 
ATOM     54  C   UNL     1     -43.735  39.346  29.601  1.00  0.00    -0.049 A 
ATOM     55  C   UNL     1     -43.318  40.407  28.801  1.00  0.00    -0.019 A 
ATOM     56  H   UNL     1     -43.323  39.235  30.600  1.00  0.00     0.063 H 
ATOM     57  H   UNL     1     -42.595  41.117  29.183  1.00  0.00     0.066 H 
BRANCH  53  58
ATOM     58  N   UNL     1     -43.441  41.625  26.712  1.00  0.00    -0.356 N 
ATOM     59  C   UNL     1     -44.114  42.883  26.562  1.00  0.00     0.021 C 
ATOM     60  C   UNL     1     -42.150  42.250  26.784  1.00  0.00     0.021 C 
ATOM     61  C   UNL     1     -42.781  43.435  26.046  1.00  0.00    -0.018 C 
ATOM     62  H   UNL     1     -44.452  43.304  27.515  1.00  0.00     0.049 H 
ATOM     63  H   UNL     1     -44.930  42.859  25.837  1.00  0.00     0.049 H 
ATOM     64  H   UNL     1     -41.373  41.708  26.241  1.00  0.00     0.049 H 
ATOM     65  H   UNL     1     -41.831  42.463  27.810  1.00  0.00     0.049 H 
ATOM     66  H   UNL     1     -42.669  43.400  24.956  1.00  0.00     0.030 H 
ATOM     67  H   UNL     1     -42.503  44.427  26.410  1.00  0.00     0.030 H 
ENDBRANCH  53  58
ENDBRANCH  40  43
ENDBRANCH   1  40
TORSDOF 8
ENDMDL
MODEL 2
REMARK VINA RESULT:     -10.7      2.079     12.270
REMARK SMILES Nc1ncnc2c1c(-n1cccn1)cn2[C@@H]1C[C@H](CCc2cc3nc(N4CCC4)ccc3cc2F)[C@@H](O)C1
REMARK SMILES IDX 19 1 18 4 16 5 17 6 38 7 36 11 15 16 2 17 3 18 7 19 4 20
REMARK SMILES IDX 6 21 8 22 5 23 14 25 1 27 9 30 10 31 13 32 11 33 12 35 37 38
REMARK SMILES IDX 20 40 21 43 22 44 34 45 23 46 33 48 35 49 24 50 32 51 25 53
REMARK SMILES IDX 31 54 30 55 26 58 27 59 29 60 28 61
REMARK H PARENT 19 2 19 3 16 8 17 9 17 10 38 12 38 13 18 14 36 15 4 24 14 26
REMARK H PARENT 1 28 1 29 10 34 11 36 12 37 37 39 20 41 20 42 22 47 33 52
REMARK H PARENT 31 56 30 57 27 62 27 63 29 64 29 65 28 66 28 67
REMARK Flexibility Score: inf
ROOT
ATOM      1  C   UNL     1     -47.186  35.557  26.385  1.00  0.00    -0.044 C 
ATOM      2  H   UNL     1     -47.670  36.141  25.592  1.00  0.00     0.027 H 
ATOM      3  H   UNL     1     -46.242  35.189  25.961  1.00  0.00     0.027 H 
ENDROOT
BRANCH   1   4
ATOM      4  C   UNL     1     -46.899  36.476  27.577  1.00  0.00    -0.013 C 
ATOM      5  C   UNL     1     -45.711  38.433  28.410  1.00  0.00     0.038 C 
ATOM      6  C   UNL     1     -45.548  37.191  27.513  1.00  0.00    -0.027 C 
ATOM      7  C   UNL     1     -47.220  38.587  28.666  1.00  0.00    -0.006 C 
ATOM      8  H   UNL     1     -45.230  38.243  29.377  1.00  0.00     0.054 H 
ATOM      9  H   UNL     1     -45.304  37.466  26.479  1.00  0.00     0.029 H 
ATOM     10  H   UNL     1     -44.738  36.549  27.876  1.00  0.00     0.029 H 
ATOM     11  C   UNL     1     -47.881  37.646  27.666  1.00  0.00     0.059 C 
ATOM     12  H   UNL     1     -47.593  39.611  28.565  1.00  0.00     0.031 H 
ATOM     13  H   UNL     1     -47.456  38.272  29.690  1.00  0.00     0.031 H 
ATOM     14  H   UNL     1     -46.959  35.879  28.497  1.00  0.00     0.033 H 
ATOM     15  H   UNL     1     -47.992  38.141  26.694  1.00  0.00     0.060 H 
BRANCH   5  16
ATOM     16  N   UNL     1     -45.080  39.616  27.839  1.00  0.00    -0.327 N 
ATOM     17  C   UNL     1     -42.462  42.005  27.886  1.00  0.00     0.138 A 
ATOM     18  N   UNL     1     -41.790  41.643  28.999  1.00  0.00    -0.219 NA
ATOM     19  C   UNL     1     -43.626  41.299  27.528  1.00  0.00     0.087 A 
ATOM     20  C   UNL     1     -42.232  40.586  29.700  1.00  0.00     0.120 A 
ATOM     21  C   UNL     1     -43.955  40.219  28.344  1.00  0.00     0.148 A 
ATOM     22  C   UNL     1     -44.634  41.354  26.512  1.00  0.00     0.095 A 
ATOM     23  N   UNL     1     -43.295  39.813  29.442  1.00  0.00    -0.218 NA
ATOM     24  H   UNL     1     -41.653  40.327  30.581  1.00  0.00     0.106 H 
ATOM     25  C   UNL     1     -45.494  40.287  26.714  1.00  0.00     0.033 A 
ATOM     26  H   UNL     1     -46.370  39.966  26.168  1.00  0.00     0.084 H 
BRANCH  17  27
ATOM     27  N   UNL     1     -41.932  43.058  27.163  1.00  0.00    -0.383 N 
ATOM     28  H   UNL     1     -42.265  43.980  27.452  1.00  0.00     0.158 HD
ATOM     29  H   UNL     1     -40.945  42.951  26.978  1.00  0.00     0.158 HD
ENDBRANCH  17  27
BRANCH  22  30
ATOM     30  N   UNL     1     -44.764  42.329  25.478  1.00  0.00    -0.239 N 
ATOM     31  C   UNL     1     -44.046  42.356  24.295  1.00  0.00     0.031 A 
ATOM     32  N   UNL     1     -45.659  43.355  25.512  1.00  0.00    -0.176 NA
ATOM     33  C   UNL     1     -44.480  43.437  23.569  1.00  0.00    -0.024 A 
ATOM     34  H   UNL     1     -43.292  41.614  24.082  1.00  0.00     0.084 H 
ATOM     35  C   UNL     1     -45.472  44.015  24.369  1.00  0.00     0.049 A 
ATOM     36  H   UNL     1     -44.128  43.759  22.599  1.00  0.00     0.066 H 
ATOM     37  H   UNL     1     -46.073  44.893  24.167  1.00  0.00     0.086 H 
ENDBRANCH  22  30
ENDBRANCH   5  16
BRANCH  11  38
ATOM     38  O   UNL     1     -49.164  37.242  28.100  1.00  0.00    -0.393 OA
ATOM     39  H   UNL     1     -49.599  36.749  27.382  1.00  0.00     0.210 HD
ENDBRANCH  11  38
ENDBRANCH   1   4
BRANCH   1  40
ATOM     40  C   UNL     1     -48.078  34.370  26.762  1.00  0.00    -0.025 C 
ATOM     41  H   UNL     1     -47.945  34.110  27.820  1.00  0.00     0.032 H 
ATOM     42  H   UNL     1     -49.136  34.640  26.649  1.00  0.00     0.032 H 
BRANCH  40  43
ATOM     43  C   UNL     1     -47.776  33.161  25.917  1.00  0.00    -0.010 A 
ATOM     44  C   UNL     1     -48.461  31.953  26.122  1.00  0.00    -0.030 A 
ATOM     45  C   UNL     1     -46.790  33.206  24.933  1.00  0.00     0.127 A 
ATOM     46  C   UNL     1     -48.192  30.814  25.371  1.00  0.00     0.073 A 
ATOM     47  H   UNL     1     -49.231  31.889  26.889  1.00  0.00     0.065 H 
ATOM     48  C   UNL     1     -46.496  32.088  24.163  1.00  0.00    -0.017 A 
ATOM     49  F   UNL     1     -46.106  34.339  24.720  1.00  0.00    -0.207 F 
ATOM     50  N   UNL     1     -48.884  29.689  25.613  1.00  0.00    -0.231 NA
ATOM     51  C   UNL     1     -47.194  30.889  24.377  1.00  0.00     0.003 A 
ATOM     52  H   UNL     1     -45.722  32.162  23.405  1.00  0.00     0.066 H 
ATOM     53  C   UNL     1     -48.621  28.579  24.886  1.00  0.00     0.129 A 
ATOM     54  C   UNL     1     -46.935  29.741  23.628  1.00  0.00    -0.049 A 
ATOM     55  C   UNL     1     -47.657  28.578  23.884  1.00  0.00    -0.019 A 
ATOM     56  H   UNL     1     -46.183  29.741  22.844  1.00  0.00     0.063 H 
ATOM     57  H   UNL     1     -47.472  27.688  23.295  1.00  0.00     0.066 H 
BRANCH  53  58
ATOM     58  N   UNL     1     -49.366  27.412  25.143  1.00  0.00    -0.356 N 
ATOM     59  C   UNL     1     -49.337  26.627  26.343  1.00  0.00     0.021 C 
ATOM     60  C   UNL     1     -50.797  27.329  25.045  1.00  0.00     0.021 C 
ATOM     61  C   UNL     1     -50.692  26.064  25.902  1.00  0.00    -0.018 C 
ATOM     62  H   UNL     1     -49.362  27.235  27.253  1.00  0.00     0.049 H 
ATOM     63  H   UNL     1     -48.514  25.910  26.377  1.00  0.00     0.049 H 
ATOM     64  H   UNL     1     -51.155  27.186  24.024  1.00  0.00     0.049 H 
ATOM     65  H   UNL     1     -51.311  28.170  25.524  1.00  0.00     0.049 H 
ATOM     66  H   UNL     1     -50.630  25.133  25.327  1.00  0.00     0.030 H 
ATOM     67  H   UNL     1     -51.443  25.958  26.689  1.00  0.00     0.030 H 
ENDBRANCH  53  58
ENDBRANCH  40  43
ENDBRANCH   1  40
TORSDOF 8
ENDMDL
MODEL 3
REMARK VINA RESULT:     -10.7      2.143     11.800
REMARK SMILES Nc1ncnc2c1c(-n1cccn1)cn2[C@@H]1C[C@H](CCc2cc3nc(N4CCC4)ccc3cc2F)[C@@H](O)C1
REMARK SMILES IDX 19 1 18 4 16 5 17 6 38 7 36 11 15 16 2 17 3 18 7 19 4 20
REMARK SMILES IDX 6 21 8 22 5 23 14 25 1 27 9 30 10 31 13 32 11 33 12 35 37 38
REMARK SMILES IDX 20 40 21 43 22 44 34 45 23 46 33 48 35 49 24 50 32 51 25 53
REMARK SMILES IDX 31 54 30 55 26 58 27 59 29 60 28 61
REMARK H PARENT 19 2 19 3 16 8 17 9 17 10 38 12 38 13 18 14 36 15 4 24 14 26
REMARK H PARENT 1 28 1 29 10 34 11 36 12 37 37 39 20 41 20 42 22 47 33 52
REMARK H PARENT 31 56 30 57 27 62 27 63 29 64 29 65 28 66 28 67
REMARK Flexibility Score: inf
ROOT
ATOM      1  C   UNL     1     -46.108  35.248  27.947  1.00  0.00    -0.044 C 
ATOM      2  H   UNL     1     -45.054  34.947  27.880  1.00  0.00     0.027 H 
ATOM      3  H   UNL     1     -46.631  34.422  28.447  1.00  0.00     0.027 H 
ENDROOT
BRANCH   1   4
ATOM      4  C   UNL     1     -46.209  36.519  28.797  1.00  0.00    -0.013 C 
ATOM      5  C   UNL     1     -45.448  38.807  29.152  1.00  0.00     0.038 C 
ATOM      6  C   UNL     1     -44.956  37.397  28.772  1.00  0.00    -0.027 C 
ATOM      7  C   UNL     1     -46.982  38.776  29.033  1.00  0.00    -0.006 C 
ATOM      8  H   UNL     1     -45.203  39.001  30.203  1.00  0.00     0.054 H 
ATOM      9  H   UNL     1     -44.493  37.383  27.777  1.00  0.00     0.029 H 
ATOM     10  H   UNL     1     -44.203  37.040  29.484  1.00  0.00     0.029 H 
ATOM     11  C   UNL     1     -47.288  37.480  28.292  1.00  0.00     0.059 C 
ATOM     12  H   UNL     1     -47.413  39.644  28.524  1.00  0.00     0.031 H 
ATOM     13  H   UNL     1     -47.431  38.750  30.034  1.00  0.00     0.031 H 
ATOM     14  H   UNL     1     -46.436  36.227  29.831  1.00  0.00     0.033 H 
ATOM     15  H   UNL     1     -47.203  37.632  27.209  1.00  0.00     0.060 H 
BRANCH   5  16
ATOM     16  N   UNL     1     -44.810  39.849  28.359  1.00  0.00    -0.327 N 
ATOM     17  C   UNL     1     -42.036  41.978  27.779  1.00  0.00     0.138 A 
ATOM     18  N   UNL     1     -41.255  41.694  28.842  1.00  0.00    -0.219 NA
ATOM     19  C   UNL     1     -43.286  41.343  27.658  1.00  0.00     0.087 A 
ATOM     20  C   UNL     1     -41.679  40.775  29.723  1.00  0.00     0.120 A 
ATOM     21  C   UNL     1     -43.587  40.405  28.643  1.00  0.00     0.148 A 
ATOM     22  C   UNL     1     -44.411  41.366  26.772  1.00  0.00     0.095 A 
ATOM     23  N   UNL     1     -42.822  40.076  29.698  1.00  0.00    -0.218 NA
ATOM     24  H   UNL     1     -41.012  40.572  30.555  1.00  0.00     0.106 H 
ATOM     25  C   UNL     1     -45.315  40.413  27.213  1.00  0.00     0.033 A 
ATOM     26  H   UNL     1     -46.276  40.110  26.823  1.00  0.00     0.084 H 
BRANCH  17  27
ATOM     27  N   UNL     1     -41.527  42.883  26.866  1.00  0.00    -0.383 N 
ATOM     28  H   UNL     1     -40.628  43.291  27.129  1.00  0.00     0.158 HD
ATOM     29  H   UNL     1     -41.645  42.584  25.908  1.00  0.00     0.158 HD
ENDBRANCH  17  27
BRANCH  22  30
ATOM     30  N   UNL     1     -44.601  42.216  25.642  1.00  0.00    -0.239 N 
ATOM     31  C   UNL     1     -43.962  42.094  24.419  1.00  0.00     0.031 A 
ATOM     32  N   UNL     1     -45.482  43.254  25.613  1.00  0.00    -0.176 NA
ATOM     33  C   UNL     1     -44.434  43.090  23.602  1.00  0.00    -0.024 A 
ATOM     34  H   UNL     1     -43.231  41.320  24.245  1.00  0.00     0.084 H 
ATOM     35  C   UNL     1     -45.366  43.773  24.391  1.00  0.00     0.049 A 
ATOM     36  H   UNL     1     -44.145  43.292  22.580  1.00  0.00     0.066 H 
ATOM     37  H   UNL     1     -45.971  44.632  24.127  1.00  0.00     0.086 H 
ENDBRANCH  22  30
ENDBRANCH   5  16
BRANCH  11  38
ATOM     38  O   UNL     1     -48.595  37.017  28.568  1.00  0.00    -0.393 OA
ATOM     39  H   UNL     1     -49.208  37.773  28.540  1.00  0.00     0.210 HD
ENDBRANCH  11  38
ENDBRANCH   1   4
BRANCH   1  40
ATOM     40  C   UNL     1     -46.675  35.439  26.538  1.00  0.00    -0.025 C 
ATOM     41  H   UNL     1     -47.369  36.289  26.515  1.00  0.00     0.032 H 
ATOM     42  H   UNL     1     -45.870  35.690  25.836  1.00  0.00     0.032 H 
BRANCH  40  43
ATOM     43  C   UNL     1     -47.392  34.205  26.058  1.00  0.00    -0.010 A 
ATOM     44  C   UNL     1     -46.698  33.191  25.377  1.00  0.00    -0.030 A 
ATOM     45  C   UNL     1     -48.763  34.054  26.252  1.00  0.00     0.127 A 
ATOM     46  C   UNL     1     -47.335  32.049  24.906  1.00  0.00     0.073 A 
ATOM     47  H   UNL     1     -45.628  33.288  25.205  1.00  0.00     0.065 H 
ATOM     48  C   UNL     1     -49.432  32.926  25.796  1.00  0.00    -0.017 A 
ATOM     49  F   UNL     1     -49.459  35.009  26.886  1.00  0.00    -0.207 F 
ATOM     50  N   UNL     1     -46.616  31.114  24.263  1.00  0.00    -0.231 NA
ATOM     51  C   UNL     1     -48.722  31.920  25.122  1.00  0.00     0.003 A 
ATOM     52  H   UNL     1     -50.500  32.844  25.968  1.00  0.00     0.066 H 
ATOM     53  C   UNL     1     -47.234  30.003  23.801  1.00  0.00     0.129 A 
ATOM     54  C   UNL     1     -49.350  30.767  24.647  1.00  0.00    -0.049 A 
ATOM     55  C   UNL     1     -48.598  29.801  23.984  1.00  0.00    -0.019 A 
ATOM     56  H   UNL     1     -50.415  30.609  24.791  1.00  0.00     0.063 H 
ATOM     57  H   UNL     1     -49.076  28.897  23.627  1.00  0.00     0.066 H 
BRANCH  53  58
ATOM     58  N   UNL     1     -46.462  29.026  23.144  1.00  0.00    -0.356 N 
ATOM     59  C   UNL     1     -45.156  29.206  22.581  1.00  0.00     0.021 C 
ATOM     60  C   UNL     1     -46.114  27.755  23.713  1.00  0.00     0.021 C 
ATOM     61  C   UNL     1     -45.011  27.682  22.652  1.00  0.00    -0.018 C 
ATOM     62  H   UNL     1     -44.480  29.767  23.235  1.00  0.00     0.049 H 
ATOM     63  H   UNL     1     -45.168  29.635  21.576  1.00  0.00     0.049 H 
ATOM     64  H   UNL     1     -46.906  27.008  23.630  1.00  0.00     0.049 H 
ATOM     65  H   UNL     1     -45.755  27.829  24.746  1.00  0.00     0.049 H 
ATOM     66  H   UNL     1     -45.301  27.157  21.734  1.00  0.00     0.030 H 
ATOM     67  H   UNL     1     -44.043  27.311  22.995  1.00  0.00     0.030 H 
ENDBRANCH  53  58
ENDBRANCH  40  43
ENDBRANCH   1  40
TORSDOF 8
ENDMDL
MODEL 4
REMARK VINA RESULT:     -10.6      2.028      3.464
REMARK SMILES Nc1ncnc2c1c(-n1cccn1)cn2[C@@H]1C[C@H](CCc2cc3nc(N4CCC4)ccc3cc2F)[C@@H](O)C1
REMARK SMILES IDX 19 1 18 4 16 5 17 6 38 7 36 11 15 16 2 17 3 18 7 19 4 20
REMARK SMILES IDX 6 21 8 22 5 23 14 25 1 27 9 30 10 31 13 32 11 33 12 35 37 38
REMARK SMILES IDX 20 40 21 43 22 44 34 45 23 46 33 48 35 49 24 50 32 51 25 53
REMARK SMILES IDX 31 54 30 55 26 58 27 59 29 60 28 61
REMARK H PARENT 19 2 19 3 16 8 17 9 17 10 38 12 38 13 18 14 36 15 4 24 14 26
REMARK H PARENT 1 28 1 29 10 34 11 36 12 37 37 39 20 41 20 42 22 47 33 52
REMARK H PARENT 31 56 30 57 27 62 27 63 29 64 29 65 28 66 28 67
REMARK Flexibility Score: inf
ROOT
ATOM      1  C   UNL     1     -47.831  35.504  26.272  1.00  0.00    -0.044 C 
ATOM      2  H   UNL     1     -46.827  35.762  25.909  1.00  0.00     0.027 H 
ATOM      3  H   UNL     1     -48.505  35.610  25.412  1.00  0.00     0.027 H 
ENDROOT
BRANCH   1   4
ATOM      4  C   UNL     1     -47.826  34.050  26.756  1.00  0.00    -0.013 C 
ATOM      5  C   UNL     1     -48.367  31.727  26.256  1.00  0.00     0.038 C 
ATOM      6  C   UNL     1     -48.897  33.167  26.113  1.00  0.00    -0.027 C 
ATOM      7  C   UNL     1     -46.882  31.850  26.641  1.00  0.00    -0.006 C 
ATOM      8  H   UNL     1     -48.884  31.236  27.089  1.00  0.00     0.054 H 
ATOM      9  H   UNL     1     -49.045  33.442  25.061  1.00  0.00     0.029 H 
ATOM     10  H   UNL     1     -49.864  33.279  26.615  1.00  0.00     0.029 H 
ATOM     11  C   UNL     1     -46.536  33.313  26.392  1.00  0.00     0.059 C 
ATOM     12  H   UNL     1     -46.216  31.177  26.091  1.00  0.00     0.031 H 
ATOM     13  H   UNL     1     -46.753  31.610  27.704  1.00  0.00     0.031 H 
ATOM     14  H   UNL     1     -47.951  34.048  27.848  1.00  0.00     0.033 H 
ATOM     15  H   UNL     1     -46.279  33.468  25.337  1.00  0.00     0.060 H 
BRANCH   5  16
ATOM     16  N   UNL     1     -48.609  30.926  25.064  1.00  0.00    -0.327 N 
ATOM     17  C   UNL     1     -49.197  27.761  23.578  1.00  0.00     0.138 A 
ATOM     18  N   UNL     1     -49.082  26.941  24.643  1.00  0.00    -0.219 NA
ATOM     19  C   UNL     1     -48.991  29.143  23.752  1.00  0.00     0.087 A 
ATOM     20  C   UNL     1     -48.823  27.481  25.845  1.00  0.00     0.120 A 
ATOM     21  C   UNL     1     -48.741  29.559  25.058  1.00  0.00     0.148 A 
ATOM     22  C   UNL     1     -48.966  30.326  22.945  1.00  0.00     0.095 A 
ATOM     23  N   UNL     1     -48.648  28.775  26.145  1.00  0.00    -0.218 NA
ATOM     24  H   UNL     1     -48.750  26.783  26.672  1.00  0.00     0.106 H 
ATOM     25  C   UNL     1     -48.760  31.406  23.786  1.00  0.00     0.033 A 
ATOM     26  H   UNL     1     -48.687  32.465  23.580  1.00  0.00     0.084 H 
BRANCH  17  27
ATOM     27  N   UNL     1     -49.528  27.166  22.375  1.00  0.00    -0.383 N 
ATOM     28  H   UNL     1     -50.320  27.595  21.893  1.00  0.00     0.158 HD
ATOM     29  H   UNL     1     -48.719  26.920  21.822  1.00  0.00     0.158 HD
ENDBRANCH  17  27
BRANCH  22  30
ATOM     30  N   UNL     1     -49.106  30.405  21.526  1.00  0.00    -0.239 N 
ATOM     31  C   UNL     1     -50.212  30.000  20.798  1.00  0.00     0.031 A 
ATOM     32  N   UNL     1     -48.163  30.935  20.700  1.00  0.00    -0.176 NA
ATOM     33  C   UNL     1     -49.958  30.261  19.475  1.00  0.00    -0.024 A 
ATOM     34  H   UNL     1     -51.071  29.561  21.283  1.00  0.00     0.084 H 
ATOM     35  C   UNL     1     -48.681  30.834  19.475  1.00  0.00     0.049 A 
ATOM     36  H   UNL     1     -50.604  30.065  18.632  1.00  0.00     0.066 H 
ATOM     37  H   UNL     1     -48.102  31.188  18.631  1.00  0.00     0.086 H 
ENDBRANCH  22  30
ENDBRANCH   5  16
BRANCH  11  38
ATOM     38  O   UNL     1     -45.436  33.729  27.176  1.00  0.00    -0.393 OA
ATOM     39  H   UNL     1     -45.113  32.971  27.693  1.00  0.00     0.210 HD
ENDBRANCH  11  38
ENDBRANCH   1   4
BRANCH   1  40
ATOM     40  C   UNL     1     -48.244  36.486  27.373  1.00  0.00    -0.025 C 
ATOM     41  H   UNL     1     -49.035  37.155  27.013  1.00  0.00     0.032 H 
ATOM     42  H   UNL     1     -48.673  35.943  28.224  1.00  0.00     0.032 H 
BRANCH  40  43
ATOM     43  C   UNL     1     -47.076  37.312  27.842  1.00  0.00    -0.010 A 
ATOM     44  C   UNL     1     -46.603  38.388  27.074  1.00  0.00    -0.030 A 
ATOM     45  C   UNL     1     -46.420  37.010  29.034  1.00  0.00     0.127 A 
ATOM     46  C   UNL     1     -45.516  39.158  27.471  1.00  0.00     0.073 A 
ATOM     47  H   UNL     1     -47.092  38.641  26.135  1.00  0.00     0.065 H 
ATOM     48  C   UNL     1     -45.331  37.758  29.463  1.00  0.00    -0.017 A 
ATOM     49  F   UNL     1     -46.836  35.981  29.786  1.00  0.00    -0.207 F 
ATOM     50  N   UNL     1     -45.112  40.176  26.693  1.00  0.00    -0.231 NA
ATOM     51  C   UNL     1     -44.875  38.834  28.685  1.00  0.00     0.003 A 
ATOM     52  H   UNL     1     -44.848  37.493  30.397  1.00  0.00     0.066 H 
ATOM     53  C   UNL     1     -44.053  40.924  27.076  1.00  0.00     0.129 A 
ATOM     54  C   UNL     1     -43.787  39.616  29.075  1.00  0.00    -0.049 A 
ATOM     55  C   UNL     1     -43.376  40.671  28.264  1.00  0.00    -0.019 A 
ATOM     56  H   UNL     1     -43.258  39.418  30.003  1.00  0.00     0.063 H 
ATOM     57  H   UNL     1     -42.541  41.291  28.569  1.00  0.00     0.066 H 
BRANCH  53  58
ATOM     58  N   UNL     1     -43.653  41.997  26.257  1.00  0.00    -0.356 N 
ATOM     59  C   UNL     1     -44.369  43.221  26.043  1.00  0.00     0.021 C 
ATOM     60  C   UNL     1     -42.394  42.676  26.372  1.00  0.00     0.021 C 
ATOM     61  C   UNL     1     -43.037  43.815  25.574  1.00  0.00    -0.018 C 
ATOM     62  H   UNL     1     -44.769  43.651  26.967  1.00  0.00     0.049 H 
ATOM     63  H   UNL     1     -45.148  43.145  25.281  1.00  0.00     0.049 H 
ATOM     64  H   UNL     1     -41.570  42.155  25.880  1.00  0.00     0.049 H 
ATOM     65  H   UNL     1     -42.133  42.928  27.406  1.00  0.00     0.049 H 
ATOM     66  H   UNL     1     -42.872  43.758  24.492  1.00  0.00     0.030 H 
ATOM     67  H   UNL     1     -42.817  44.827  25.925  1.00  0.00     0.030 H 
ENDBRANCH  53  58
ENDBRANCH  40  43
ENDBRANCH   1  40
TORSDOF 8
ENDMDL
MODEL 5
REMARK VINA RESULT:     -10.2      2.025      2.494
REMARK SMILES Nc1ncnc2c1c(-n1cccn1)cn2[C@@H]1C[C@H](CCc2cc3nc(N4CCC4)ccc3cc2F)[C@@H](O)C1
REMARK SMILES IDX 19 1 18 4 16 5 17 6 38 7 36 11 15 16 2 17 3 18 7 19 4 20
REMARK SMILES IDX 6 21 8 22 5 23 14 25 1 27 9 30 10 31 13 32 11 33 12 35 37 38
REMARK SMILES IDX 20 40 21 43 22 44 34 45 23 46 33 48 35 49 24 50 32 51 25 53
REMARK SMILES IDX 31 54 30 55 26 58 27 59 29 60 28 61
REMARK H PARENT 19 2 19 3 16 8 17 9 17 10 38 12 38 13 18 14 36 15 4 24 14 26
REMARK H PARENT 1 28 1 29 10 34 11 36 12 37 37 39 20 41 20 42 22 47 33 52
REMARK H PARENT 31 56 30 57 27 62 27 63 29 64 29 65 28 66 28 67
REMARK Flexibility Score: inf
ROOT
ATOM      1  C   UNL     1     -47.126  36.175  26.445  1.00  0.00    -0.044 C 
ATOM      2  H   UNL     1     -46.071  36.320  26.176  1.00  0.00     0.027 H 
ATOM      3  H   UNL     1     -47.694  36.248  25.509  1.00  0.00     0.027 H 
ENDROOT
BRANCH   1   4
ATOM      4  C   UNL     1     -47.297  34.778  27.053  1.00  0.00    -0.013 C 
ATOM      5  C   UNL     1     -47.962  32.462  26.696  1.00  0.00     0.038 C 
ATOM      6  C   UNL     1     -48.352  33.914  26.361  1.00  0.00    -0.027 C 
ATOM      7  C   UNL     1     -46.528  32.517  27.251  1.00  0.00    -0.006 C 
ATOM      8  H   UNL     1     -48.611  32.092  27.498  1.00  0.00     0.054 H 
ATOM      9  H   UNL     1     -48.353  34.095  25.279  1.00  0.00     0.029 H 
ATOM     10  H   UNL     1     -49.360  34.143  26.727  1.00  0.00     0.029 H 
ATOM     11  C   UNL     1     -46.037  33.921  26.918  1.00  0.00     0.059 C 
ATOM     12  H   UNL     1     -45.858  31.749  26.850  1.00  0.00     0.031 H 
ATOM     13  H   UNL     1     -46.545  32.374  28.339  1.00  0.00     0.031 H 
ATOM     14  H   UNL     1     -47.549  34.892  28.116  1.00  0.00     0.033 H 
ATOM     15  H   UNL     1     -45.646  33.954  25.895  1.00  0.00     0.060 H 
BRANCH   5  16
ATOM     16  N   UNL     1     -48.126  31.567  25.558  1.00  0.00    -0.327 N 
ATOM     17  C   UNL     1     -47.152  30.550  22.305  1.00  0.00     0.138 A 
ATOM     18  N   UNL     1     -46.238  31.492  21.994  1.00  0.00    -0.219 NA
ATOM     19  C   UNL     1     -47.819  30.625  23.543  1.00  0.00     0.087 A 
ATOM     20  C   UNL     1     -45.960  32.442  22.901  1.00  0.00     0.120 A 
ATOM     21  C   UNL     1     -47.418  31.659  24.385  1.00  0.00     0.148 A 
ATOM     22  C   UNL     1     -48.844  29.912  24.245  1.00  0.00     0.095 A 
ATOM     23  N   UNL     1     -46.492  32.596  24.121  1.00  0.00    -0.218 NA
ATOM     24  H   UNL     1     -45.210  33.170  22.610  1.00  0.00     0.106 H 
ATOM     25  C   UNL     1     -48.986  30.498  25.492  1.00  0.00     0.033 A 
ATOM     26  H   UNL     1     -49.637  30.257  26.321  1.00  0.00     0.084 H 
BRANCH  17  27
ATOM     27  N   UNL     1     -47.357  29.557  21.365  1.00  0.00    -0.383 N 
ATOM     28  H   UNL     1     -47.390  29.888  20.399  1.00  0.00     0.158 HD
ATOM     29  H   UNL     1     -46.827  28.719  21.557  1.00  0.00     0.158 HD
ENDBRANCH  17  27
BRANCH  22  30
ATOM     30  N   UNL     1     -49.610  28.807  23.764  1.00  0.00    -0.239 N 
ATOM     31  C   UNL     1     -49.920  27.664  24.481  1.00  0.00     0.031 A 
ATOM     32  N   UNL     1     -50.174  28.758  22.526  1.00  0.00    -0.176 NA
ATOM     33  C   UNL     1     -50.682  26.860  23.672  1.00  0.00    -0.024 A 
ATOM     34  H   UNL     1     -49.568  27.525  25.491  1.00  0.00     0.084 H 
ATOM     35  C   UNL     1     -50.804  27.584  22.480  1.00  0.00     0.049 A 
ATOM     36  H   UNL     1     -51.092  25.889  23.911  1.00  0.00     0.066 H 
ATOM     37  H   UNL     1     -51.331  27.307  21.575  1.00  0.00     0.086 H 
ENDBRANCH  22  30
ENDBRANCH   5  16
BRANCH  11  38
ATOM     38  O   UNL     1     -45.007  34.334  27.794  1.00  0.00    -0.393 OA
ATOM     39  H   UNL     1     -44.990  33.739  28.564  1.00  0.00     0.210 HD
ENDBRANCH  11  38
ENDBRANCH   1   4
BRANCH   1  40
ATOM     40  C   UNL     1     -47.566  37.287  27.402  1.00  0.00    -0.025 C 
ATOM     41  H   UNL     1     -48.236  37.991  26.892  1.00  0.00     0.032 H 
ATOM     42  H   UNL     1     -48.148  36.866  28.232  1.00  0.00     0.032 H 
BRANCH  40  43
ATOM     43  C   UNL     1     -46.385  38.043  27.951  1.00  0.00    -0.010 A 
ATOM     44  C   UNL     1     -45.925  39.211  27.323  1.00  0.00    -0.030 A 
ATOM     45  C   UNL     1     -45.704  37.585  29.077  1.00  0.00     0.127 A 
ATOM     46  C   UNL     1     -44.827  39.921  27.794  1.00  0.00     0.073 A 
ATOM     47  H   UNL     1     -46.434  39.587  26.436  1.00  0.00     0.065 H 
ATOM     48  C   UNL     1     -44.603  38.269  29.577  1.00  0.00    -0.017 A 
ATOM     49  F   UNL     1     -46.107  36.465  29.694  1.00  0.00    -0.207 F 
ATOM     50  N   UNL     1     -44.436  41.033  27.149  1.00  0.00    -0.231 NA
ATOM     51  C   UNL     1     -44.161  39.438  28.939  1.00  0.00     0.003 A 
ATOM     52  H   UNL     1     -44.101  37.881  30.457  1.00  0.00     0.066 H 
ATOM     53  C   UNL     1     -43.366  41.723  27.604  1.00  0.00     0.129 A 
ATOM     54  C   UNL     1     -43.061  40.161  29.405  1.00  0.00    -0.049 A 
ATOM     55  C   UNL     1     -42.664  41.313  28.733  1.00  0.00    -0.019 A 
ATOM     56  H   UNL     1     -42.513  39.841  30.286  1.00  0.00     0.063 H 
ATOM     57  H   UNL     1     -41.820  41.887  29.098  1.00  0.00     0.066 H 
BRANCH  53  58
ATOM     58  N   UNL     1     -42.981  42.895  26.926  1.00  0.00    -0.356 N 
ATOM     59  C   UNL     1     -42.035  42.988  25.851  1.00  0.00     0.021 C 
ATOM     60  C   UNL     1     -43.897  43.796  26.285  1.00  0.00     0.021 C 
ATOM     61  C   UNL     1     -42.689  44.331  25.510  1.00  0.00    -0.018 C 
ATOM     62  H   UNL     1     -42.165  42.204  25.097  1.00  0.00     0.049 H 
ATOM     63  H   UNL     1     -40.997  43.038  26.185  1.00  0.00     0.049 H 
ATOM     64  H   UNL     1     -44.371  44.497  26.974  1.00  0.00     0.049 H 
ATOM     65  H   UNL     1     -44.648  43.284  25.673  1.00  0.00     0.049 H 
ATOM     66  H   UNL     1     -42.206  45.200  25.971  1.00  0.00     0.030 H 
ATOM     67  H   UNL     1     -42.853  44.524  24.447  1.00  0.00     0.030 H 
ENDBRANCH  53  58
ENDBRANCH  40  43
ENDBRANCH   1  40
TORSDOF 8
ENDMDL
MODEL 6
REMARK VINA RESULT:     -10.1      3.171     11.773
REMARK SMILES Nc1ncnc2c1c(-n1cccn1)cn2[C@@H]1C[C@H](CCc2cc3nc(N4CCC4)ccc3cc2F)[C@@H](O)C1
REMARK SMILES IDX 19 1 18 4 16 5 17 6 38 7 36 11 15 16 2 17 3 18 7 19 4 20
REMARK SMILES IDX 6 21 8 22 5 23 14 25 1 27 9 30 10 31 13 32 11 33 12 35 37 38
REMARK SMILES IDX 20 40 21 43 22 44 34 45 23 46 33 48 35 49 24 50 32 51 25 53
REMARK SMILES IDX 31 54 30 55 26 58 27 59 29 60 28 61
REMARK H PARENT 19 2 19 3 16 8 17 9 17 10 38 12 38 13 18 14 36 15 4 24 14 26
REMARK H PARENT 1 28 1 29 10 34 11 36 12 37 37 39 20 41 20 42 22 47 33 52
REMARK H PARENT 31 56 30 57 27 62 27 63 29 64 29 65 28 66 28 67
REMARK Flexibility Score: inf
ROOT
ATOM      1  C   UNL     1     -47.124  35.023  28.119  1.00  0.00    -0.044 C 
ATOM      2  H   UNL     1     -46.610  34.056  28.198  1.00  0.00     0.027 H 
ATOM      3  H   UNL     1     -47.803  35.081  28.980  1.00  0.00     0.027 H 
ENDROOT
BRANCH   1   4
ATOM      4  C   UNL     1     -46.084  36.146  28.198  1.00  0.00    -0.013 C 
ATOM      5  C   UNL     1     -45.514  38.447  27.636  1.00  0.00     0.038 C 
ATOM      6  C   UNL     1     -46.182  37.178  27.073  1.00  0.00    -0.027 C 
ATOM      7  C   UNL     1     -45.379  38.229  29.152  1.00  0.00    -0.006 C 
ATOM      8  H   UNL     1     -44.501  38.532  27.223  1.00  0.00     0.054 H 
ATOM      9  H   UNL     1     -47.230  37.357  26.802  1.00  0.00     0.029 H 
ATOM     10  H   UNL     1     -45.669  36.834  26.168  1.00  0.00     0.029 H 
ATOM     11  C   UNL     1     -46.249  37.013  29.448  1.00  0.00     0.059 C 
ATOM     12  H   UNL     1     -45.669  39.091  29.761  1.00  0.00     0.031 H 
ATOM     13  H   UNL     1     -44.333  38.012  29.405  1.00  0.00     0.031 H 
ATOM     14  H   UNL     1     -45.083  35.692  28.198  1.00  0.00     0.033 H 
ATOM     15  H   UNL     1     -47.294  37.317  29.581  1.00  0.00     0.060 H 
BRANCH   5  16
ATOM     16  N   UNL     1     -46.232  39.661  27.270  1.00  0.00    -0.327 N 
ATOM     17  C   UNL     1     -46.232  42.881  25.787  1.00  0.00     0.138 A 
ATOM     18  N   UNL     1     -44.927  43.033  25.480  1.00  0.00    -0.219 NA
ATOM     19  C   UNL     1     -46.649  41.707  26.443  1.00  0.00     0.087 A 
ATOM     20  C   UNL     1     -44.079  42.033  25.768  1.00  0.00     0.120 A 
ATOM     21  C   UNL     1     -45.659  40.753  26.667  1.00  0.00     0.148 A 
ATOM     22  C   UNL     1     -47.860  41.159  26.978  1.00  0.00     0.095 A 
ATOM     23  N   UNL     1     -44.358  40.859  26.350  1.00  0.00    -0.218 NA
ATOM     24  H   UNL     1     -43.042  42.197  25.492  1.00  0.00     0.106 H 
ATOM     25  C   UNL     1     -47.574  39.888  27.450  1.00  0.00     0.033 A 
ATOM     26  H   UNL     1     -48.206  39.143  27.914  1.00  0.00     0.084 H 
BRANCH  17  27
ATOM     27  N   UNL     1     -47.077  43.909  25.413  1.00  0.00    -0.383 N 
ATOM     28  H   UNL     1     -47.852  43.623  24.811  1.00  0.00     0.158 HD
ATOM     29  H   UNL     1     -47.281  44.546  26.169  1.00  0.00     0.158 HD
ENDBRANCH  17  27
BRANCH  22  30
ATOM     30  N   UNL     1     -49.138  41.791  27.043  1.00  0.00    -0.239 N 
ATOM     31  C   UNL     1     -49.846  42.071  28.200  1.00  0.00     0.031 A 
ATOM     32  N   UNL     1     -49.816  42.243  25.952  1.00  0.00    -0.176 NA
ATOM     33  C   UNL     1     -51.011  42.696  27.833  1.00  0.00    -0.024 A 
ATOM     34  H   UNL     1     -49.463  41.796  29.170  1.00  0.00     0.084 H 
ATOM     35  C   UNL     1     -50.939  42.773  26.438  1.00  0.00     0.049 A 
ATOM     36  H   UNL     1     -51.799  43.047  28.484  1.00  0.00     0.066 H 
ATOM     37  H   UNL     1     -51.658  43.197  25.749  1.00  0.00     0.086 H 
ENDBRANCH  22  30
ENDBRANCH   5  16
BRANCH  11  38
ATOM     38  O   UNL     1     -45.833  36.348  30.625  1.00  0.00    -0.393 OA
ATOM     39  H   UNL     1     -45.769  36.998  31.347  1.00  0.00     0.210 HD
ENDBRANCH  11  38
ENDBRANCH   1   4
BRANCH   1  40
ATOM     40  C   UNL     1     -47.934  35.066  26.820  1.00  0.00    -0.025 C 
ATOM     41  H   UNL     1     -49.005  35.168  27.038  1.00  0.00     0.032 H 
ATOM     42  H   UNL     1     -47.662  35.952  26.232  1.00  0.00     0.032 H 
BRANCH  40  43
ATOM     43  C   UNL     1     -47.716  33.828  25.992  1.00  0.00    -0.010 A 
ATOM     44  C   UNL     1     -48.787  32.974  25.683  1.00  0.00    -0.030 A 
ATOM     45  C   UNL     1     -46.444  33.486  25.539  1.00  0.00     0.127 A 
ATOM     46  C   UNL     1     -48.615  31.814  24.936  1.00  0.00     0.073 A 
ATOM     47  H   UNL     1     -49.790  33.213  26.031  1.00  0.00     0.065 H 
ATOM     48  C   UNL     1     -46.235  32.335  24.789  1.00  0.00    -0.017 A 
ATOM     49  F   UNL     1     -45.396  34.271  25.827  1.00  0.00    -0.207 F 
ATOM     50  N   UNL     1     -49.680  31.038  24.672  1.00  0.00    -0.231 NA
ATOM     51  C   UNL     1     -47.318  31.496  24.485  1.00  0.00     0.003 A 
ATOM     52  H   UNL     1     -45.230  32.104  24.453  1.00  0.00     0.066 H 
ATOM     53  C   UNL     1     -49.514  29.907  23.949  1.00  0.00     0.129 A 
ATOM     54  C   UNL     1     -47.158  30.330  23.734  1.00  0.00    -0.049 A 
ATOM     55  C   UNL     1     -48.267  29.533  23.462  1.00  0.00    -0.019 A 
ATOM     56  H   UNL     1     -46.184  30.037  23.353  1.00  0.00     0.063 H 
ATOM     57  H   UNL     1     -48.152  28.635  22.866  1.00  0.00     0.066 H 
BRANCH  53  58
ATOM     58  N   UNL     1     -50.644  29.115  23.668  1.00  0.00    -0.356 N 
ATOM     59  C   UNL     1     -50.964  27.846  24.255  1.00  0.00     0.021 C 
ATOM     60  C   UNL     1     -52.000  29.578  23.766  1.00  0.00     0.021 C 
ATOM     61  C   UNL     1     -52.406  28.101  23.803  1.00  0.00    -0.018 C 
ATOM     62  H   UNL     1     -50.816  27.826  25.340  1.00  0.00     0.049 H 
ATOM     63  H   UNL     1     -50.460  27.003  23.778  1.00  0.00     0.049 H 
ATOM     64  H   UNL     1     -52.332  30.143  22.893  1.00  0.00     0.049 H 
ATOM     65  H   UNL     1     -52.200  30.134  24.689  1.00  0.00     0.049 H 
ATOM     66  H   UNL     1     -52.655  27.676  22.823  1.00  0.00     0.030 H 
ATOM     67  H   UNL     1     -53.185  27.838  24.523  1.00  0.00     0.030 H 
ENDBRANCH  53  58
ENDBRANCH  40  43
ENDBRANCH   1  40
TORSDOF 8
ENDMDL
MODEL 7
REMARK VINA RESULT:      -9.8      3.032     12.216
REMARK SMILES Nc1ncnc2c1c(-n1cccn1)cn2[C@@H]1C[C@H](CCc2cc3nc(N4CCC4)ccc3cc2F)[C@@H](O)C1
REMARK SMILES IDX 19 1 18 4 16 5 17 6 38 7 36 11 15 16 2 17 3 18 7 19 4 20
REMARK SMILES IDX 6 21 8 22 5 23 14 25 1 27 9 30 10 31 13 32 11 33 12 35 37 38
REMARK SMILES IDX 20 40 21 43 22 44 34 45 23 46 33 48 35 49 24 50 32 51 25 53
REMARK SMILES IDX 31 54 30 55 26 58 27 59 29 60 28 61
REMARK H PARENT 19 2 19 3 16 8 17 9 17 10 38 12 38 13 18 14 36 15 4 24 14 26
REMARK H PARENT 1 28 1 29 10 34 11 36 12 37 37 39 20 41 20 42 22 47 33 52
REMARK H PARENT 31 56 30 57 27 62 27 63 29 64 29 65 28 66 28 67
REMARK Flexibility Score: inf
ROOT
ATOM      1  C   UNL     1     -45.740  37.504  27.940  1.00  0.00    -0.044 C 
ATOM      2  H   UNL     1     -45.286  36.504  27.949  1.00  0.00     0.027 H 
ATOM      3  H   UNL     1     -46.149  37.663  28.946  1.00  0.00     0.027 H 
ENDROOT
BRANCH   1   4
ATOM      4  C   UNL     1     -44.651  38.542  27.649  1.00  0.00    -0.013 C 
ATOM      5  C   UNL     1     -44.090  40.687  26.638  1.00  0.00     0.038 C 
ATOM      6  C   UNL     1     -44.916  39.405  26.414  1.00  0.00    -0.027 C 
ATOM      7  C   UNL     1     -43.673  40.679  28.119  1.00  0.00    -0.006 C 
ATOM      8  H   UNL     1     -43.174  40.632  26.037  1.00  0.00     0.054 H 
ATOM      9  H   UNL     1     -45.987  39.625  26.318  1.00  0.00     0.029 H 
ATOM     10  H   UNL     1     -44.607  38.896  25.495  1.00  0.00     0.029 H 
ATOM     11  C   UNL     1     -44.527  39.590  28.757  1.00  0.00     0.059 C 
ATOM     12  H   UNL     1     -43.797  41.641  28.628  1.00  0.00     0.031 H 
ATOM     13  H   UNL     1     -42.610  40.420  28.204  1.00  0.00     0.031 H 
ATOM     14  H   UNL     1     -43.693  38.017  27.535  1.00  0.00     0.033 H 
ATOM     15  H   UNL     1     -45.510  39.990  29.032  1.00  0.00     0.060 H 
BRANCH   5  16
ATOM     16  N   UNL     1     -44.806  41.887  26.226  1.00  0.00    -0.327 N 
ATOM     17  C   UNL     1     -44.803  45.041  24.609  1.00  0.00     0.138 A 
ATOM     18  N   UNL     1     -43.500  45.175  24.286  1.00  0.00    -0.219 NA
ATOM     19  C   UNL     1     -45.221  43.898  25.317  1.00  0.00     0.087 A 
ATOM     20  C   UNL     1     -42.654  44.184  24.611  1.00  0.00     0.120 A 
ATOM     21  C   UNL     1     -44.233  42.951  25.574  1.00  0.00     0.148 A 
ATOM     22  C   UNL     1     -46.430  43.379  25.883  1.00  0.00     0.095 A 
ATOM     23  N   UNL     1     -42.933  43.037  25.244  1.00  0.00    -0.218 NA
ATOM     24  H   UNL     1     -41.619  44.332  24.320  1.00  0.00     0.106 H 
ATOM     25  C   UNL     1     -46.146  42.128  26.406  1.00  0.00     0.033 A 
ATOM     26  H   UNL     1     -46.777  41.406  26.906  1.00  0.00     0.084 H 
BRANCH  17  27
ATOM     27  N   UNL     1     -45.647  46.057  24.197  1.00  0.00    -0.383 N 
ATOM     28  H   UNL     1     -46.574  46.038  24.626  1.00  0.00     0.158 HD
ATOM     29  H   UNL     1     -45.181  46.950  24.126  1.00  0.00     0.158 HD
ENDBRANCH  17  27
BRANCH  22  30
ATOM     30  N   UNL     1     -47.704  44.019  25.930  1.00  0.00    -0.239 N 
ATOM     31  C   UNL     1     -48.056  45.063  26.768  1.00  0.00     0.031 A 
ATOM     32  N   UNL     1     -48.743  43.699  25.110  1.00  0.00    -0.176 NA
ATOM     33  C   UNL     1     -49.357  45.401  26.489  1.00  0.00    -0.024 A 
ATOM     34  H   UNL     1     -47.358  45.463  27.487  1.00  0.00     0.084 H 
ATOM     35  C   UNL     1     -49.728  44.527  25.461  1.00  0.00     0.049 A 
ATOM     36  H   UNL     1     -49.950  46.171  26.961  1.00  0.00     0.066 H 
ATOM     37  H   UNL     1     -50.679  44.458  24.947  1.00  0.00     0.086 H 
ENDBRANCH  22  30
ENDBRANCH   5  16
BRANCH  11  38
ATOM     38  O   UNL     1     -43.923  39.072  29.925  1.00  0.00    -0.393 OA
ATOM     39  H   UNL     1     -42.969  39.266  29.900  1.00  0.00     0.210 HD
ENDBRANCH  11  38
ENDBRANCH   1   4
BRANCH   1  40
ATOM     40  C   UNL     1     -46.874  37.540  26.911  1.00  0.00    -0.025 C 
ATOM     41  H   UNL     1     -47.682  38.199  27.253  1.00  0.00     0.032 H 
ATOM     42  H   UNL     1     -46.515  37.968  25.967  1.00  0.00     0.032 H 
BRANCH  40  43
ATOM     43  C   UNL     1     -47.434  36.165  26.658  1.00  0.00    -0.010 A 
ATOM     44  C   UNL     1     -46.746  35.248  25.848  1.00  0.00    -0.030 A 
ATOM     45  C   UNL     1     -48.661  35.784  27.197  1.00  0.00     0.127 A 
ATOM     46  C   UNL     1     -47.246  33.979  25.581  1.00  0.00     0.073 A 
ATOM     47  H   UNL     1     -45.789  35.523  25.408  1.00  0.00     0.065 H 
ATOM     48  C   UNL     1     -49.191  34.524  26.952  1.00  0.00    -0.017 A 
ATOM     49  F   UNL     1     -49.352  36.640  27.964  1.00  0.00    -0.207 F 
ATOM     50  N   UNL     1     -46.540  33.145  24.799  1.00  0.00    -0.231 NA
ATOM     51  C   UNL     1     -48.487  33.617  26.144  1.00  0.00     0.003 A 
ATOM     52  H   UNL     1     -50.148  34.263  27.391  1.00  0.00     0.066 H 
ATOM     53  C   UNL     1     -47.026  31.911  24.535  1.00  0.00     0.129 A 
ATOM     54  C   UNL     1     -48.978  32.339  25.871  1.00  0.00    -0.049 A 
ATOM     55  C   UNL     1     -48.239  31.480  25.062  1.00  0.00    -0.019 A 
ATOM     56  H   UNL     1     -49.925  32.002  26.283  1.00  0.00     0.063 H 
ATOM     57  H   UNL     1     -48.607  30.481  24.859  1.00  0.00     0.066 H 
BRANCH  53  58
ATOM     58  N   UNL     1     -46.265  31.045  23.727  1.00  0.00    -0.356 N 
ATOM     59  C   UNL     1     -46.590  29.691  23.384  1.00  0.00     0.021 C 
ATOM     60  C   UNL     1     -45.841  31.352  22.390  1.00  0.00     0.021 C 
ATOM     61  C   UNL     1     -45.615  29.847  22.213  1.00  0.00    -0.018 C 
ATOM     62  H   UNL     1     -47.639  29.561  23.100  1.00  0.00     0.049 H 
ATOM     63  H   UNL     1     -46.301  28.965  24.148  1.00  0.00     0.049 H 
ATOM     64  H   UNL     1     -44.947  31.977  22.349  1.00  0.00     0.049 H 
ATOM     65  H   UNL     1     -46.640  31.774  21.770  1.00  0.00     0.049 H 
ATOM     66  H   UNL     1     -44.592  29.515  22.428  1.00  0.00     0.030 H 
ATOM     67  H   UNL     1     -45.943  29.424  21.260  1.00  0.00     0.030 H 
ENDBRANCH  53  58
ENDBRANCH  40  43
ENDBRANCH   1  40
TORSDOF 8
ENDMDL
