MODEL 1
REMARK VINA RESULT:     -10.2      0.000      0.000
REMARK SMILES CCc1cc(C)c2ccc(OCc3cncc(-n4cc([C@@H]5CCCO5)c5c(N)ncnc54)c3)cc2n1
REMARK SMILES IDX 12 1 11 4 10 5 3 6 4 7 36 8 5 9 35 11 7 12 34 13 8 14 9 16
REMARK SMILES IDX 2 19 1 22 6 26 13 30 14 31 33 32 15 33 17 35 16 37 18 39
REMARK SMILES IDX 19 40 32 41 20 42 26 44 31 45 27 46 30 47 29 48 21 50 22 51
REMARK SMILES IDX 25 52 23 54 24 57 28 62
REMARK H PARENT 12 2 12 3 4 10 34 15 8 17 9 18 2 20 2 21 1 23 1 24 1 25 6 27
REMARK H PARENT 6 28 6 29 14 34 33 36 16 38 19 43 30 49 21 53 22 55 22 56
REMARK H PARENT 23 58 23 59 24 60 24 61 28 63 28 64
REMARK Flexibility Score: inf
ROOT
ATOM      1  C   UNL     1     -46.836  34.610  27.373  1.00  0.00     0.115 C 
ATOM      2  H   UNL     1     -46.398  34.180  28.281  1.00  0.00     0.076 H 
ATOM      3  H   UNL     1     -46.055  34.511  26.608  1.00  0.00     0.076 H 
ENDROOT
BRANCH   1   4
ATOM      4  O   UNL     1     -47.958  33.852  26.914  1.00  0.00    -0.489 OA
BRANCH   4   5
ATOM      5  C   UNL     1     -47.737  32.818  26.047  1.00  0.00     0.122 A 
ATOM      6  C   UNL     1     -48.679  28.566  24.143  1.00  0.00     0.041 A 
ATOM      7  C   UNL     1     -47.670  28.679  23.196  1.00  0.00    -0.037 A 
ATOM      8  N   UNL     1     -48.928  29.528  25.059  1.00  0.00    -0.253 NA
ATOM      9  C   UNL     1     -46.871  29.827  23.179  1.00  0.00    -0.040 A 
ATOM     10  H   UNL     1     -47.511  27.882  22.475  1.00  0.00     0.065 H 
ATOM     11  C   UNL     1     -48.168  30.637  25.052  1.00  0.00     0.074 A 
ATOM     12  C   UNL     1     -47.121  30.846  24.128  1.00  0.00     0.003 A 
ATOM     13  C   UNL     1     -48.442  31.616  25.999  1.00  0.00     0.006 A 
ATOM     14  C   UNL     1     -46.386  32.049  24.199  1.00  0.00    -0.049 A 
ATOM     15  H   UNL     1     -49.235  31.396  26.704  1.00  0.00     0.069 H 
ATOM     16  C   UNL     1     -46.695  33.022  25.149  1.00  0.00    -0.019 A 
ATOM     17  H   UNL     1     -45.571  32.248  23.507  1.00  0.00     0.063 H 
ATOM     18  H   UNL     1     -46.127  33.948  25.179  1.00  0.00     0.066 H 
BRANCH   6  19
ATOM     19  C   UNL     1     -49.578  27.358  24.162  1.00  0.00    -0.013 C 
ATOM     20  H   UNL     1     -49.011  26.481  23.825  1.00  0.00     0.033 H 
ATOM     21  H   UNL     1     -50.398  27.494  23.447  1.00  0.00     0.033 H 
BRANCH  19  22
ATOM     22  C   UNL     1     -50.132  27.092  25.553  1.00  0.00    -0.060 C 
ATOM     23  H   UNL     1     -49.397  27.335  26.327  1.00  0.00     0.023 H 
ATOM     24  H   UNL     1     -50.403  26.036  25.658  1.00  0.00     0.023 H 
ATOM     25  H   UNL     1     -51.030  27.690  25.746  1.00  0.00     0.023 H 
ENDBRANCH  19  22
ENDBRANCH   6  19
BRANCH   9  26
ATOM     26  C   UNL     1     -45.783  29.943  22.148  1.00  0.00    -0.039 C 
ATOM     27  H   UNL     1     -44.827  29.614  22.565  1.00  0.00     0.028 H 
ATOM     28  H   UNL     1     -45.655  30.978  21.812  1.00  0.00     0.028 H 
ATOM     29  H   UNL     1     -46.027  29.341  21.267  1.00  0.00     0.028 H 
ENDBRANCH   9  26
ENDBRANCH   4   5
ENDBRANCH   1   4
BRANCH   1  30
ATOM     30  C   UNL     1     -47.159  36.074  27.514  1.00  0.00     0.010 A 
ATOM     31  C   UNL     1     -48.452  36.491  27.790  1.00  0.00     0.034 A 
ATOM     32  C   UNL     1     -46.172  37.062  27.396  1.00  0.00    -0.028 A 
ATOM     33  N   UNL     1     -48.809  37.784  27.936  1.00  0.00    -0.262 NA
ATOM     34  H   UNL     1     -49.264  35.776  27.909  1.00  0.00     0.084 H 
ATOM     35  C   UNL     1     -46.494  38.416  27.569  1.00  0.00     0.066 A 
ATOM     36  H   UNL     1     -45.161  36.745  27.161  1.00  0.00     0.065 H 
ATOM     37  C   UNL     1     -47.827  38.715  27.827  1.00  0.00     0.051 A 
ATOM     38  H   UNL     1     -48.190  39.723  27.995  1.00  0.00     0.086 H 
BRANCH  35  39
ATOM     39  N   UNL     1     -45.485  39.428  27.510  1.00  0.00    -0.299 N 
ATOM     40  C   UNL     1     -45.379  40.384  26.508  1.00  0.00     0.018 A 
ATOM     41  C   UNL     1     -44.438  39.650  28.401  1.00  0.00     0.150 A 
ATOM     42  C   UNL     1     -44.273  41.187  26.721  1.00  0.00     0.012 A 
ATOM     43  H   UNL     1     -46.077  40.408  25.686  1.00  0.00     0.083 H 
ATOM     44  C   UNL     1     -43.678  40.722  27.936  1.00  0.00     0.067 A 
ATOM     45  N   UNL     1     -44.195  38.972  29.539  1.00  0.00    -0.218 NA
ATOM     46  C   UNL     1     -42.566  41.096  28.712  1.00  0.00     0.136 A 
ATOM     47  C   UNL     1     -43.116  39.422  30.194  1.00  0.00     0.120 A 
ATOM     48  N   UNL     1     -42.296  40.425  29.844  1.00  0.00    -0.219 NA
ATOM     49  H   UNL     1     -42.872  38.912  31.121  1.00  0.00     0.106 H 
BRANCH  42  50
ATOM     50  C   UNL     1     -43.792  42.336  25.884  1.00  0.00     0.085 C 
ATOM     51  C   UNL     1     -44.215  43.722  26.362  1.00  0.00    -0.020 C 
ATOM     52  O   UNL     1     -44.262  42.231  24.518  1.00  0.00    -0.373 OA
ATOM     53  H   UNL     1     -42.696  42.292  25.836  1.00  0.00     0.066 H 
ATOM     54  C   UNL     1     -44.176  44.522  25.084  1.00  0.00    -0.027 C 
ATOM     55  H   UNL     1     -45.242  43.721  26.749  1.00  0.00     0.030 H 
ATOM     56  H   UNL     1     -43.561  44.120  27.143  1.00  0.00     0.030 H 
ATOM     57  C   UNL     1     -44.714  43.522  24.087  1.00  0.00     0.048 C 
ATOM     58  H   UNL     1     -44.760  45.444  25.125  1.00  0.00     0.029 H 
ATOM     59  H   UNL     1     -43.138  44.779  24.839  1.00  0.00     0.029 H 
ATOM     60  H   UNL     1     -45.809  43.511  24.086  1.00  0.00     0.057 H 
ATOM     61  H   UNL     1     -44.366  43.714  23.070  1.00  0.00     0.057 H 
ENDBRANCH  42  50
BRANCH  46  62
ATOM     62  N   UNL     1     -41.699  42.126  28.364  1.00  0.00    -0.383 N 
ATOM     63  H   UNL     1     -41.457  42.109  27.373  1.00  0.00     0.158 HD
ATOM     64  H   UNL     1     -40.913  42.148  29.003  1.00  0.00     0.158 HD
ENDBRANCH  46  62
ENDBRANCH  35  39
ENDBRANCH   1  30
TORSDOF 9
ENDMDL
MODEL 2
REMARK VINA RESULT:     -10.2      2.489     12.023
REMARK SMILES CCc1cc(C)c2ccc(OCc3cncc(-n4cc([C@@H]5CCCO5)c5c(N)ncnc54)c3)cc2n1
REMARK SMILES IDX 12 1 11 4 10 5 3 6 4 7 36 8 5 9 35 11 7 12 34 13 8 14 9 16
REMARK SMILES IDX 2 19 1 22 6 26 13 30 14 31 33 32 15 33 17 35 16 37 18 39
REMARK SMILES IDX 19 40 32 41 20 42 26 44 31 45 27 46 30 47 29 48 21 50 22 51
REMARK SMILES IDX 25 52 23 54 24 57 28 62
REMARK H PARENT 12 2 12 3 4 10 34 15 8 17 9 18 2 20 2 21 1 23 1 24 1 25 6 27
REMARK H PARENT 6 28 6 29 14 34 33 36 16 38 19 43 30 49 21 53 22 55 22 56
REMARK H PARENT 23 58 23 59 24 60 24 61 28 63 28 64
REMARK Flexibility Score: inf
ROOT
ATOM      1  C   UNL     1     -48.869  34.738  26.769  1.00  0.00     0.115 C 
ATOM      2  H   UNL     1     -49.914  34.415  26.832  1.00  0.00     0.076 H 
ATOM      3  H   UNL     1     -48.901  35.694  26.231  1.00  0.00     0.076 H 
ENDROOT
BRANCH   1   4
ATOM      4  O   UNL     1     -48.320  35.013  28.061  1.00  0.00    -0.489 OA
BRANCH   4   5
ATOM      5  C   UNL     1     -47.400  36.019  28.180  1.00  0.00     0.122 A 
ATOM      6  C   UNL     1     -45.378  40.126  26.905  1.00  0.00     0.041 A 
ATOM      7  C   UNL     1     -44.477  40.102  27.961  1.00  0.00    -0.037 A 
ATOM      8  N   UNL     1     -46.286  39.146  26.700  1.00  0.00    -0.253 NA
ATOM      9  C   UNL     1     -44.499  39.026  28.855  1.00  0.00    -0.040 A 
ATOM     10  H   UNL     1     -43.769  40.915  28.089  1.00  0.00     0.065 H 
ATOM     11  C   UNL     1     -46.318  38.108  27.553  1.00  0.00     0.074 A 
ATOM     12  C   UNL     1     -45.447  37.994  28.658  1.00  0.00     0.003 A 
ATOM     13  C   UNL     1     -47.261  37.114  27.328  1.00  0.00     0.006 A 
ATOM     14  C   UNL     1     -45.566  36.868  29.501  1.00  0.00    -0.049 A 
ATOM     15  H   UNL     1     -47.886  37.232  26.451  1.00  0.00     0.069 H 
ATOM     16  C   UNL     1     -46.535  35.893  29.260  1.00  0.00    -0.019 A 
ATOM     17  H   UNL     1     -44.913  36.741  30.360  1.00  0.00     0.063 H 
ATOM     18  H   UNL     1     -46.620  35.040  29.928  1.00  0.00     0.066 H 
BRANCH   6  19
ATOM     19  C   UNL     1     -45.402  41.289  25.947  1.00  0.00    -0.013 C 
ATOM     20  H   UNL     1     -46.214  41.971  26.228  1.00  0.00     0.033 H 
ATOM     21  H   UNL     1     -45.630  40.932  24.936  1.00  0.00     0.033 H 
BRANCH  19  22
ATOM     22  C   UNL     1     -44.084  42.049  25.952  1.00  0.00    -0.060 C 
ATOM     23  H   UNL     1     -44.032  42.748  26.792  1.00  0.00     0.023 H 
ATOM     24  H   UNL     1     -43.973  42.619  25.024  1.00  0.00     0.023 H 
ATOM     25  H   UNL     1     -43.231  41.366  26.032  1.00  0.00     0.023 H 
ENDBRANCH  19  22
ENDBRANCH   6  19
BRANCH   9  26
ATOM     26  C   UNL     1     -43.523  39.009  29.999  1.00  0.00    -0.039 C 
ATOM     27  H   UNL     1     -42.496  39.046  29.623  1.00  0.00     0.028 H 
ATOM     28  H   UNL     1     -43.620  38.097  30.597  1.00  0.00     0.028 H 
ATOM     29  H   UNL     1     -43.703  39.858  30.666  1.00  0.00     0.028 H 
ENDBRANCH   9  26
ENDBRANCH   4   5
ENDBRANCH   1   4
BRANCH   1  30
ATOM     30  C   UNL     1     -48.008  33.791  25.976  1.00  0.00     0.010 A 
ATOM     31  C   UNL     1     -46.659  34.048  25.787  1.00  0.00     0.034 A 
ATOM     32  C   UNL     1     -48.526  32.613  25.421  1.00  0.00    -0.028 A 
ATOM     33  N   UNL     1     -45.830  33.240  25.094  1.00  0.00    -0.262 NA
ATOM     34  H   UNL     1     -46.189  34.937  26.203  1.00  0.00     0.084 H 
ATOM     35  C   UNL     1     -47.693  31.730  24.719  1.00  0.00     0.066 A 
ATOM     36  H   UNL     1     -49.585  32.414  25.549  1.00  0.00     0.065 H 
ATOM     37  C   UNL     1     -46.361  32.101  24.580  1.00  0.00     0.051 A 
ATOM     38  H   UNL     1     -45.622  31.491  24.072  1.00  0.00     0.086 H 
BRANCH  35  39
ATOM     39  N   UNL     1     -48.197  30.496  24.199  1.00  0.00    -0.299 N 
ATOM     40  C   UNL     1     -48.502  29.378  24.964  1.00  0.00     0.018 A 
ATOM     41  C   UNL     1     -48.467  30.170  22.872  1.00  0.00     0.150 A 
ATOM     42  C   UNL     1     -48.926  28.339  24.156  1.00  0.00     0.012 A 
ATOM     43  H   UNL     1     -48.361  29.381  26.034  1.00  0.00     0.083 H 
ATOM     44  C   UNL     1     -48.912  28.851  22.820  1.00  0.00     0.067 A 
ATOM     45  N   UNL     1     -48.349  30.984  21.805  1.00  0.00    -0.218 NA
ATOM     46  C   UNL     1     -49.235  28.338  21.550  1.00  0.00     0.136 A 
ATOM     47  C   UNL     1     -48.689  30.389  20.654  1.00  0.00     0.120 A 
ATOM     48  N   UNL     1     -49.111  29.128  20.470  1.00  0.00    -0.219 NA
ATOM     49  H   UNL     1     -48.614  30.999  19.760  1.00  0.00     0.106 H 
BRANCH  42  50
ATOM     50  C   UNL     1     -49.351  26.961  24.570  1.00  0.00     0.085 C 
ATOM     51  C   UNL     1     -50.574  26.894  25.481  1.00  0.00    -0.020 C 
ATOM     52  O   UNL     1     -48.294  26.271  25.281  1.00  0.00    -0.373 OA
ATOM     53  H   UNL     1     -49.546  26.373  23.664  1.00  0.00     0.066 H 
ATOM     54  C   UNL     1     -50.357  25.589  26.204  1.00  0.00    -0.027 C 
ATOM     55  H   UNL     1     -50.578  27.710  26.214  1.00  0.00     0.030 H 
ATOM     56  H   UNL     1     -51.516  26.933  24.929  1.00  0.00     0.030 H 
ATOM     57  C   UNL     1     -48.862  25.608  26.419  1.00  0.00     0.048 C 
ATOM     58  H   UNL     1     -50.923  25.503  27.135  1.00  0.00     0.029 H 
ATOM     59  H   UNL     1     -50.634  24.752  25.551  1.00  0.00     0.029 H 
ATOM     60  H   UNL     1     -48.596  26.185  27.311  1.00  0.00     0.057 H 
ATOM     61  H   UNL     1     -48.437  24.606  26.512  1.00  0.00     0.057 H 
ENDBRANCH  42  50
BRANCH  46  62
ATOM     62  N   UNL     1     -49.665  27.034  21.335  1.00  0.00    -0.383 N 
ATOM     63  H   UNL     1     -49.748  26.507  22.205  1.00  0.00     0.158 HD
ATOM     64  H   UNL     1     -49.102  26.597  20.615  1.00  0.00     0.158 HD
ENDBRANCH  46  62
ENDBRANCH  35  39
ENDBRANCH   1  30
TORSDOF 9
ENDMDL
MODEL 3
REMARK VINA RESULT:      -9.8      2.505     11.532
REMARK SMILES CCc1cc(C)c2ccc(OCc3cncc(-n4cc([C@@H]5CCCO5)c5c(N)ncnc54)c3)cc2n1
REMARK SMILES IDX 12 1 11 4 10 5 3 6 4 7 36 8 5 9 35 11 7 12 34 13 8 14 9 16
REMARK SMILES IDX 2 19 1 22 6 26 13 30 14 31 33 32 15 33 17 35 16 37 18 39
REMARK SMILES IDX 19 40 32 41 20 42 26 44 31 45 27 46 30 47 29 48 21 50 22 51
REMARK SMILES IDX 25 52 23 54 24 57 28 62
REMARK H PARENT 12 2 12 3 4 10 34 15 8 17 9 18 2 20 2 21 1 23 1 24 1 25 6 27
REMARK H PARENT 6 28 6 29 14 34 33 36 16 38 19 43 30 49 21 53 22 55 22 56
REMARK H PARENT 23 58 23 59 24 60 24 61 28 63 28 64
REMARK Flexibility Score: inf
ROOT
ATOM      1  C   UNL     1     -47.190  36.598  26.959  1.00  0.00     0.115 C 
ATOM      2  H   UNL     1     -48.203  36.918  26.685  1.00  0.00     0.076 H 
ATOM      3  H   UNL     1     -46.540  37.029  26.187  1.00  0.00     0.076 H 
ENDROOT
BRANCH   1   4
ATOM      4  O   UNL     1     -46.776  37.161  28.206  1.00  0.00    -0.489 OA
BRANCH   4   5
ATOM      5  C   UNL     1     -45.822  38.141  28.195  1.00  0.00     0.122 A 
ATOM      6  C   UNL     1     -43.611  41.927  26.358  1.00  0.00     0.041 A 
ATOM      7  C   UNL     1     -42.740  42.038  27.433  1.00  0.00    -0.037 A 
ATOM      8  N   UNL     1     -44.551  40.958  26.280  1.00  0.00    -0.253 NA
ATOM      9  C   UNL     1     -42.826  41.118  28.483  1.00  0.00    -0.040 A 
ATOM     10  H   UNL     1     -42.004  42.837  27.455  1.00  0.00     0.065 H 
ATOM     11  C   UNL     1     -44.645  40.069  27.284  1.00  0.00     0.074 A 
ATOM     12  C   UNL     1     -43.807  40.101  28.420  1.00  0.00     0.003 A 
ATOM     13  C   UNL     1     -45.619  39.084  27.187  1.00  0.00     0.006 A 
ATOM     14  C   UNL     1     -43.991  39.126  29.424  1.00  0.00    -0.049 A 
ATOM     15  H   UNL     1     -46.216  39.084  26.283  1.00  0.00     0.069 H 
ATOM     16  C   UNL     1     -44.990  38.159  29.308  1.00  0.00    -0.019 A 
ATOM     17  H   UNL     1     -43.366  39.114  30.313  1.00  0.00     0.063 H 
ATOM     18  H   UNL     1     -45.125  37.425  30.099  1.00  0.00     0.066 H 
BRANCH   6  19
ATOM     19  C   UNL     1     -43.566  42.924  25.230  1.00  0.00    -0.013 C 
ATOM     20  H   UNL     1     -43.174  42.434  24.330  1.00  0.00     0.033 H 
ATOM     21  H   UNL     1     -42.866  43.731  25.476  1.00  0.00     0.033 H 
BRANCH  19  22
ATOM     22  C   UNL     1     -44.943  43.496  24.930  1.00  0.00    -0.060 C 
ATOM     23  H   UNL     1     -45.426  42.957  24.109  1.00  0.00     0.023 H 
ATOM     24  H   UNL     1     -44.862  44.550  24.647  1.00  0.00     0.023 H 
ATOM     25  H   UNL     1     -45.600  43.431  25.804  1.00  0.00     0.023 H 
ENDBRANCH  19  22
ENDBRANCH   6  19
BRANCH   9  26
ATOM     26  C   UNL     1     -41.881  41.248  29.646  1.00  0.00    -0.039 C 
ATOM     27  H   UNL     1     -40.855  41.041  29.327  1.00  0.00     0.028 H 
ATOM     28  H   UNL     1     -42.126  40.540  30.444  1.00  0.00     0.028 H 
ATOM     29  H   UNL     1     -41.938  42.255  30.072  1.00  0.00     0.028 H 
ENDBRANCH   9  26
ENDBRANCH   4   5
ENDBRANCH   1   4
BRANCH   1  30
ATOM     30  C   UNL     1     -47.018  35.102  26.925  1.00  0.00     0.010 A 
ATOM     31  C   UNL     1     -46.344  34.444  27.942  1.00  0.00     0.034 A 
ATOM     32  C   UNL     1     -47.547  34.322  25.888  1.00  0.00    -0.028 A 
ATOM     33  N   UNL     1     -46.160  33.108  27.979  1.00  0.00    -0.262 NA
ATOM     34  H   UNL     1     -45.921  34.987  28.785  1.00  0.00     0.084 H 
ATOM     35  C   UNL     1     -47.404  32.927  25.902  1.00  0.00     0.066 A 
ATOM     36  H   UNL     1     -48.059  34.832  25.079  1.00  0.00     0.065 H 
ATOM     37  C   UNL     1     -46.694  32.380  26.964  1.00  0.00     0.051 A 
ATOM     38  H   UNL     1     -46.534  31.315  27.089  1.00  0.00     0.086 H 
BRANCH  35  39
ATOM     39  N   UNL     1     -47.989  32.115  24.880  1.00  0.00    -0.299 N 
ATOM     40  C   UNL     1     -49.349  31.874  24.740  1.00  0.00     0.018 A 
ATOM     41  C   UNL     1     -47.343  31.419  23.861  1.00  0.00     0.150 A 
ATOM     42  C   UNL     1     -49.582  31.017  23.680  1.00  0.00     0.012 A 
ATOM     43  H   UNL     1     -50.063  32.300  25.428  1.00  0.00     0.083 H 
ATOM     44  C   UNL     1     -48.298  30.735  23.114  1.00  0.00     0.067 A 
ATOM     45  N   UNL     1     -46.019  31.414  23.607  1.00  0.00    -0.218 NA
ATOM     46  C   UNL     1     -47.830  29.967  22.032  1.00  0.00     0.136 A 
ATOM     47  C   UNL     1     -45.694  30.654  22.551  1.00  0.00     0.120 A 
ATOM     48  N   UNL     1     -46.513  29.936  21.768  1.00  0.00    -0.219 NA
ATOM     49  H   UNL     1     -44.640  30.613  22.299  1.00  0.00     0.106 H 
BRANCH  42  50
ATOM     50  C   UNL     1     -50.900  30.500  23.183  1.00  0.00     0.085 C 
ATOM     51  C   UNL     1     -51.130  29.002  23.358  1.00  0.00    -0.020 C 
ATOM     52  O   UNL     1     -51.073  30.761  21.768  1.00  0.00    -0.373 OA
ATOM     53  H   UNL     1     -51.701  31.048  23.696  1.00  0.00     0.066 H 
ATOM     54  C   UNL     1     -52.123  28.705  22.263  1.00  0.00    -0.027 C 
ATOM     55  H   UNL     1     -50.215  28.427  23.172  1.00  0.00     0.030 H 
ATOM     56  H   UNL     1     -51.494  28.743  24.356  1.00  0.00     0.030 H 
ATOM     57  C   UNL     1     -51.613  29.587  21.147  1.00  0.00     0.048 C 
ATOM     58  H   UNL     1     -52.171  27.649  21.987  1.00  0.00     0.029 H 
ATOM     59  H   UNL     1     -53.125  29.028  22.571  1.00  0.00     0.029 H 
ATOM     60  H   UNL     1     -50.804  29.099  20.592  1.00  0.00     0.057 H 
ATOM     61  H   UNL     1     -52.398  29.870  20.442  1.00  0.00     0.057 H 
ENDBRANCH  42  50
BRANCH  46  62
ATOM     62  N   UNL     1     -48.659  29.209  21.213  1.00  0.00    -0.383 N 
ATOM     63  H   UNL     1     -49.562  29.657  21.057  1.00  0.00     0.158 HD
ATOM     64  H   UNL     1     -48.700  28.254  21.551  1.00  0.00     0.158 HD
ENDBRANCH  46  62
ENDBRANCH  35  39
ENDBRANCH   1  30
TORSDOF 9
ENDMDL
MODEL 4
REMARK VINA RESULT:      -9.7      2.224     12.049
REMARK SMILES CCc1cc(C)c2ccc(OCc3cncc(-n4cc([C@@H]5CCCO5)c5c(N)ncnc54)c3)cc2n1
REMARK SMILES IDX 12 1 11 4 10 5 3 6 4 7 36 8 5 9 35 11 7 12 34 13 8 14 9 16
REMARK SMILES IDX 2 19 1 22 6 26 13 30 14 31 33 32 15 33 17 35 16 37 18 39
REMARK SMILES IDX 19 40 32 41 20 42 26 44 31 45 27 46 30 47 29 48 21 50 22 51
REMARK SMILES IDX 25 52 23 54 24 57 28 62
REMARK H PARENT 12 2 12 3 4 10 34 15 8 17 9 18 2 20 2 21 1 23 1 24 1 25 6 27
REMARK H PARENT 6 28 6 29 14 34 33 36 16 38 19 43 30 49 21 53 22 55 22 56
REMARK H PARENT 23 58 23 59 24 60 24 61 28 63 28 64
REMARK Flexibility Score: inf
ROOT
ATOM      1  C   UNL     1     -46.268  35.036  26.663  1.00  0.00     0.115 C 
ATOM      2  H   UNL     1     -45.908  35.532  25.753  1.00  0.00     0.076 H 
ATOM      3  H   UNL     1     -45.498  34.291  26.901  1.00  0.00     0.076 H 
ENDROOT
BRANCH   1   4
ATOM      4  O   UNL     1     -46.323  35.938  27.772  1.00  0.00    -0.489 OA
BRANCH   4   5
ATOM      5  C   UNL     1     -45.988  37.248  27.565  1.00  0.00     0.122 A 
ATOM      6  C   UNL     1     -43.325  41.128  28.226  1.00  0.00     0.041 A 
ATOM      7  C   UNL     1     -44.051  41.879  27.311  1.00  0.00    -0.037 A 
ATOM      8  N   UNL     1     -43.624  39.841  28.512  1.00  0.00    -0.253 NA
ATOM      9  C   UNL     1     -45.138  41.293  26.654  1.00  0.00    -0.040 A 
ATOM     10  H   UNL     1     -43.770  42.908  27.109  1.00  0.00     0.065 H 
ATOM     11  C   UNL     1     -44.666  39.267  27.886  1.00  0.00     0.074 A 
ATOM     12  C   UNL     1     -45.462  39.945  26.939  1.00  0.00     0.003 A 
ATOM     13  C   UNL     1     -44.954  37.943  28.191  1.00  0.00     0.006 A 
ATOM     14  C   UNL     1     -46.530  39.251  26.330  1.00  0.00    -0.049 A 
ATOM     15  H   UNL     1     -44.333  37.476  28.945  1.00  0.00     0.069 H 
ATOM     16  C   UNL     1     -46.786  37.916  26.644  1.00  0.00    -0.019 A 
ATOM     17  H   UNL     1     -47.169  39.738  25.598  1.00  0.00     0.063 H 
ATOM     18  H   UNL     1     -47.604  37.393  26.154  1.00  0.00     0.066 H 
BRANCH   6  19
ATOM     19  C   UNL     1     -42.127  41.720  28.922  1.00  0.00    -0.013 C 
ATOM     20  H   UNL     1     -42.401  42.695  29.344  1.00  0.00     0.033 H 
ATOM     21  H   UNL     1     -41.330  41.908  28.193  1.00  0.00     0.033 H 
BRANCH  19  22
ATOM     22  C   UNL     1     -41.620  40.816  30.035  1.00  0.00    -0.060 C 
ATOM     23  H   UNL     1     -42.415  40.166  30.412  1.00  0.00     0.023 H 
ATOM     24  H   UNL     1     -41.244  41.417  30.869  1.00  0.00     0.023 H 
ATOM     25  H   UNL     1     -40.802  40.176  29.686  1.00  0.00     0.023 H 
ENDBRANCH  19  22
ENDBRANCH   6  19
BRANCH   9  26
ATOM     26  C   UNL     1     -45.918  42.111  25.662  1.00  0.00    -0.039 C 
ATOM     27  H   UNL     1     -45.396  42.143  24.701  1.00  0.00     0.028 H 
ATOM     28  H   UNL     1     -46.042  43.145  26.002  1.00  0.00     0.028 H 
ATOM     29  H   UNL     1     -46.919  41.690  25.524  1.00  0.00     0.028 H 
ENDBRANCH   9  26
ENDBRANCH   4   5
ENDBRANCH   1   4
BRANCH   1  30
ATOM     30  C   UNL     1     -47.568  34.306  26.458  1.00  0.00     0.010 A 
ATOM     31  C   UNL     1     -48.771  34.883  26.835  1.00  0.00     0.034 A 
ATOM     32  C   UNL     1     -47.616  33.037  25.865  1.00  0.00    -0.028 A 
ATOM     33  N   UNL     1     -49.972  34.288  26.675  1.00  0.00    -0.262 NA
ATOM     34  H   UNL     1     -48.808  35.871  27.288  1.00  0.00     0.084 H 
ATOM     35  C   UNL     1     -48.845  32.396  25.652  1.00  0.00     0.066 A 
ATOM     36  H   UNL     1     -46.678  32.572  25.584  1.00  0.00     0.065 H 
ATOM     37  C   UNL     1     -49.984  33.064  26.086  1.00  0.00     0.051 A 
ATOM     38  H   UNL     1     -50.988  32.674  25.960  1.00  0.00     0.086 H 
BRANCH  35  39
ATOM     39  N   UNL     1     -48.912  31.128  24.994  1.00  0.00    -0.299 N 
ATOM     40  C   UNL     1     -48.668  29.904  25.603  1.00  0.00     0.018 A 
ATOM     41  C   UNL     1     -49.213  30.868  23.659  1.00  0.00     0.150 A 
ATOM     42  C   UNL     1     -48.774  28.876  24.683  1.00  0.00     0.012 A 
ATOM     43  H   UNL     1     -48.398  29.846  26.646  1.00  0.00     0.083 H 
ATOM     44  C   UNL     1     -49.131  29.494  23.444  1.00  0.00     0.067 A 
ATOM     45  N   UNL     1     -49.554  31.774  22.722  1.00  0.00    -0.218 NA
ATOM     46  C   UNL     1     -49.404  29.037  22.141  1.00  0.00     0.136 A 
ATOM     47  C   UNL     1     -49.795  31.221  21.525  1.00  0.00     0.120 A 
ATOM     48  N   UNL     1     -49.732  29.924  21.187  1.00  0.00    -0.219 NA
ATOM     49  H   UNL     1     -50.075  31.905  20.731  1.00  0.00     0.106 H 
BRANCH  42  50
ATOM     50  C   UNL     1     -48.590  27.405  24.918  1.00  0.00     0.085 C 
ATOM     51  C   UNL     1     -49.858  26.627  25.254  1.00  0.00    -0.020 C 
ATOM     52  O   UNL     1     -47.673  27.153  26.012  1.00  0.00    -0.373 OA
ATOM     53  H   UNL     1     -48.127  26.969  24.023  1.00  0.00     0.066 H 
ATOM     54  C   UNL     1     -49.313  25.454  26.029  1.00  0.00    -0.027 C 
ATOM     55  H   UNL     1     -50.527  27.203  25.905  1.00  0.00     0.030 H 
ATOM     56  H   UNL     1     -50.424  26.334  24.365  1.00  0.00     0.030 H 
ATOM     57  C   UNL     1     -48.215  26.110  26.833  1.00  0.00     0.048 C 
ATOM     58  H   UNL     1     -50.059  24.953  26.650  1.00  0.00     0.029 H 
ATOM     59  H   UNL     1     -48.886  24.718  25.338  1.00  0.00     0.029 H 
ATOM     60  H   UNL     1     -48.611  26.572  27.744  1.00  0.00     0.057 H 
ATOM     61  H   UNL     1     -47.423  25.411  27.112  1.00  0.00     0.057 H 
ENDBRANCH  42  50
BRANCH  46  62
ATOM     62  N   UNL     1     -49.336  27.700  21.767  1.00  0.00    -0.383 N 
ATOM     63  H   UNL     1     -50.124  27.422  21.181  1.00  0.00     0.158 HD
ATOM     64  H   UNL     1     -49.176  27.120  22.583  1.00  0.00     0.158 HD
ENDBRANCH  46  62
ENDBRANCH  35  39
ENDBRANCH   1  30
TORSDOF 9
ENDMDL
MODEL 5
REMARK VINA RESULT:      -9.7      2.507      4.386
REMARK SMILES CCc1cc(C)c2ccc(OCc3cncc(-n4cc([C@@H]5CCCO5)c5c(N)ncnc54)c3)cc2n1
REMARK SMILES IDX 12 1 11 4 10 5 3 6 4 7 36 8 5 9 35 11 7 12 34 13 8 14 9 16
REMARK SMILES IDX 2 19 1 22 6 26 13 30 14 31 33 32 15 33 17 35 16 37 18 39
REMARK SMILES IDX 19 40 32 41 20 42 26 44 31 45 27 46 30 47 29 48 21 50 22 51
REMARK SMILES IDX 25 52 23 54 24 57 28 62
REMARK H PARENT 12 2 12 3 4 10 34 15 8 17 9 18 2 20 2 21 1 23 1 24 1 25 6 27
REMARK H PARENT 6 28 6 29 14 34 33 36 16 38 19 43 30 49 21 53 22 55 22 56
REMARK H PARENT 23 58 23 59 24 60 24 61 28 63 28 64
REMARK Flexibility Score: inf
ROOT
ATOM      1  C   UNL     1     -46.710  32.534  24.643  1.00  0.00     0.115 C 
ATOM      2  H   UNL     1     -46.197  31.565  24.646  1.00  0.00     0.076 H 
ATOM      3  H   UNL     1     -46.187  33.126  23.881  1.00  0.00     0.076 H 
ENDROOT
BRANCH   1   4
ATOM      4  O   UNL     1     -48.068  32.414  24.210  1.00  0.00    -0.489 OA
BRANCH   4   5
ATOM      5  C   UNL     1     -48.667  31.186  24.274  1.00  0.00     0.122 A 
ATOM      6  C   UNL     1     -48.863  26.586  25.455  1.00  0.00     0.041 A 
ATOM      7  C   UNL     1     -50.161  26.440  24.985  1.00  0.00    -0.037 A 
ATOM      8  N   UNL     1     -48.192  27.758  25.386  1.00  0.00    -0.253 NA
ATOM      9  C   UNL     1     -50.811  27.539  24.414  1.00  0.00    -0.040 A 
ATOM     10  H   UNL     1     -50.663  25.480  25.067  1.00  0.00     0.065 H 
ATOM     11  C   UNL     1     -48.807  28.822  24.841  1.00  0.00     0.074 A 
ATOM     12  C   UNL     1     -50.125  28.774  24.338  1.00  0.00     0.003 A 
ATOM     13  C   UNL     1     -48.102  30.017  24.783  1.00  0.00     0.006 A 
ATOM     14  C   UNL     1     -50.685  29.949  23.792  1.00  0.00    -0.049 A 
ATOM     15  H   UNL     1     -47.085  29.995  25.155  1.00  0.00     0.069 H 
ATOM     16  C   UNL     1     -49.959  31.140  23.763  1.00  0.00    -0.019 A 
ATOM     17  H   UNL     1     -51.695  29.954  23.392  1.00  0.00     0.063 H 
ATOM     18  H   UNL     1     -50.412  32.039  23.351  1.00  0.00     0.066 H 
BRANCH   6  19
ATOM     19  C   UNL     1     -48.151  25.431  26.107  1.00  0.00    -0.013 C 
ATOM     20  H   UNL     1     -47.966  24.651  25.358  1.00  0.00     0.033 H 
ATOM     21  H   UNL     1     -48.795  24.982  26.873  1.00  0.00     0.033 H 
BRANCH  19  22
ATOM     22  C   UNL     1     -46.826  25.860  26.720  1.00  0.00    -0.060 C 
ATOM     23  H   UNL     1     -46.349  26.643  26.124  1.00  0.00     0.023 H 
ATOM     24  H   UNL     1     -46.142  25.008  26.778  1.00  0.00     0.023 H 
ATOM     25  H   UNL     1     -46.965  26.250  27.735  1.00  0.00     0.023 H 
ENDBRANCH  19  22
ENDBRANCH   6  19
BRANCH   9  26
ATOM     26  C   UNL     1     -52.218  27.373  23.910  1.00  0.00    -0.039 C 
ATOM     27  H   UNL     1     -52.932  27.783  24.631  1.00  0.00     0.028 H 
ATOM     28  H   UNL     1     -52.472  26.317  23.763  1.00  0.00     0.028 H 
ATOM     29  H   UNL     1     -52.339  27.875  22.945  1.00  0.00     0.028 H 
ENDBRANCH   9  26
ENDBRANCH   4   5
ENDBRANCH   1   4
BRANCH   1  30
ATOM     30  C   UNL     1     -46.594  33.264  25.955  1.00  0.00     0.010 A 
ATOM     31  C   UNL     1     -46.216  32.592  27.108  1.00  0.00     0.034 A 
ATOM     32  C   UNL     1     -46.839  34.639  26.057  1.00  0.00    -0.028 A 
ATOM     33  N   UNL     1     -46.086  33.185  28.313  1.00  0.00    -0.262 NA
ATOM     34  H   UNL     1     -45.997  31.527  27.096  1.00  0.00     0.084 H 
ATOM     35  C   UNL     1     -46.687  35.301  27.285  1.00  0.00     0.066 A 
ATOM     36  H   UNL     1     -47.153  35.168  25.164  1.00  0.00     0.065 H 
ATOM     37  C   UNL     1     -46.320  34.521  28.375  1.00  0.00     0.051 A 
ATOM     38  H   UNL     1     -46.157  34.925  29.369  1.00  0.00     0.086 H 
BRANCH  35  39
ATOM     39  N   UNL     1     -46.877  36.714  27.390  1.00  0.00    -0.299 N 
ATOM     40  C   UNL     1     -45.880  37.664  27.213  1.00  0.00     0.018 A 
ATOM     41  C   UNL     1     -48.050  37.404  27.689  1.00  0.00     0.150 A 
ATOM     42  C   UNL     1     -46.380  38.936  27.424  1.00  0.00     0.012 A 
ATOM     43  H   UNL     1     -44.866  37.371  26.984  1.00  0.00     0.083 H 
ATOM     44  C   UNL     1     -47.770  38.768  27.719  1.00  0.00     0.067 A 
ATOM     45  N   UNL     1     -49.268  36.864  27.894  1.00  0.00    -0.218 NA
ATOM     46  C   UNL     1     -48.841  39.631  28.009  1.00  0.00     0.136 A 
ATOM     47  C   UNL     1     -50.208  37.783  28.154  1.00  0.00     0.120 A 
ATOM     48  N   UNL     1     -50.062  39.115  28.230  1.00  0.00    -0.219 NA
ATOM     49  H   UNL     1     -51.210  37.405  28.327  1.00  0.00     0.106 H 
BRANCH  42  50
ATOM     50  C   UNL     1     -45.647  40.243  27.335  1.00  0.00     0.085 C 
ATOM     51  C   UNL     1     -44.993  40.543  25.989  1.00  0.00    -0.020 C 
ATOM     52  O   UNL     1     -44.582  40.322  28.315  1.00  0.00    -0.373 OA
ATOM     53  H   UNL     1     -46.350  41.050  27.580  1.00  0.00     0.066 H 
ATOM     54  C   UNL     1     -43.880  41.481  26.381  1.00  0.00    -0.027 C 
ATOM     55  H   UNL     1     -44.557  39.642  25.541  1.00  0.00     0.030 H 
ATOM     56  H   UNL     1     -45.690  40.975  25.266  1.00  0.00     0.030 H 
ATOM     57  C   UNL     1     -43.417  40.870  27.684  1.00  0.00     0.048 C 
ATOM     58  H   UNL     1     -43.084  41.554  25.636  1.00  0.00     0.029 H 
ATOM     59  H   UNL     1     -44.284  42.485  26.557  1.00  0.00     0.029 H 
ATOM     60  H   UNL     1     -42.712  40.051  27.511  1.00  0.00     0.057 H 
ATOM     61  H   UNL     1     -42.948  41.601  28.347  1.00  0.00     0.057 H 
ENDBRANCH  42  50
BRANCH  46  62
ATOM     62  N   UNL     1     -48.711  41.012  28.100  1.00  0.00    -0.383 N 
ATOM     63  H   UNL     1     -48.377  41.427  27.230  1.00  0.00     0.158 HD
ATOM     64  H   UNL     1     -48.182  41.256  28.929  1.00  0.00     0.158 HD
ENDBRANCH  46  62
ENDBRANCH  35  39
ENDBRANCH   1  30
TORSDOF 9
ENDMDL
MODEL 6
REMARK VINA RESULT:      -9.6      2.134     11.775
REMARK SMILES CCc1cc(C)c2ccc(OCc3cncc(-n4cc([C@@H]5CCCO5)c5c(N)ncnc54)c3)cc2n1
REMARK SMILES IDX 12 1 11 4 10 5 3 6 4 7 36 8 5 9 35 11 7 12 34 13 8 14 9 16
REMARK SMILES IDX 2 19 1 22 6 26 13 30 14 31 33 32 15 33 17 35 16 37 18 39
REMARK SMILES IDX 19 40 32 41 20 42 26 44 31 45 27 46 30 47 29 48 21 50 22 51
REMARK SMILES IDX 25 52 23 54 24 57 28 62
REMARK H PARENT 12 2 12 3 4 10 34 15 8 17 9 18 2 20 2 21 1 23 1 24 1 25 6 27
REMARK H PARENT 6 28 6 29 14 34 33 36 16 38 19 43 30 49 21 53 22 55 22 56
REMARK H PARENT 23 58 23 59 24 60 24 61 28 63 28 64
REMARK Flexibility Score: inf
ROOT
ATOM      1  C   UNL     1     -46.344  36.024  27.470  1.00  0.00     0.115 C 
ATOM      2  H   UNL     1     -45.382  35.769  27.009  1.00  0.00     0.076 H 
ATOM      3  H   UNL     1     -46.188  35.879  28.546  1.00  0.00     0.076 H 
ENDROOT
BRANCH   1   4
ATOM      4  O   UNL     1     -46.672  37.404  27.284  1.00  0.00    -0.489 OA
BRANCH   4   5
ATOM      5  C   UNL     1     -45.725  38.345  27.577  1.00  0.00     0.122 A 
ATOM      6  C   UNL     1     -43.416  42.441  26.879  1.00  0.00     0.041 A 
ATOM      7  C   UNL     1     -42.619  42.274  28.003  1.00  0.00    -0.037 A 
ATOM      8  N   UNL     1     -44.344  41.532  26.503  1.00  0.00    -0.253 NA
ATOM      9  C   UNL     1     -42.770  41.125  28.786  1.00  0.00    -0.040 A 
ATOM     10  H   UNL     1     -41.890  43.034  28.269  1.00  0.00     0.065 H 
ATOM     11  C   UNL     1     -44.499  40.424  27.249  1.00  0.00     0.074 A 
ATOM     12  C   UNL     1     -43.739  40.165  28.410  1.00  0.00     0.003 A 
ATOM     13  C   UNL     1     -45.460  39.504  26.849  1.00  0.00     0.006 A 
ATOM     14  C   UNL     1     -43.985  38.976  29.128  1.00  0.00    -0.049 A 
ATOM     15  H   UNL     1     -45.996  39.734  25.935  1.00  0.00     0.069 H 
ATOM     16  C   UNL     1     -44.968  38.078  28.712  1.00  0.00    -0.019 A 
ATOM     17  H   UNL     1     -43.420  38.738  30.026  1.00  0.00     0.063 H 
ATOM     18  H   UNL     1     -45.152  37.174  29.287  1.00  0.00     0.066 H 
BRANCH   6  19
ATOM     19  C   UNL     1     -43.301  43.684  26.037  1.00  0.00    -0.013 C 
ATOM     20  H   UNL     1     -43.171  44.554  26.694  1.00  0.00     0.033 H 
ATOM     21  H   UNL     1     -44.235  43.847  25.485  1.00  0.00     0.033 H 
BRANCH  19  22
ATOM     22  C   UNL     1     -42.127  43.605  25.073  1.00  0.00    -0.060 C 
ATOM     23  H   UNL     1     -41.283  43.070  25.518  1.00  0.00     0.023 H 
ATOM     24  H   UNL     1     -41.791  44.611  24.802  1.00  0.00     0.023 H 
ATOM     25  H   UNL     1     -42.405  43.082  24.150  1.00  0.00     0.023 H 
ENDBRANCH  19  22
ENDBRANCH   6  19
BRANCH   9  26
ATOM     26  C   UNL     1     -41.905  40.954  30.004  1.00  0.00    -0.039 C 
ATOM     27  H   UNL     1     -40.865  41.204  29.771  1.00  0.00     0.028 H 
ATOM     28  H   UNL     1     -41.919  39.920  30.366  1.00  0.00     0.028 H 
ATOM     29  H   UNL     1     -42.264  41.591  30.819  1.00  0.00     0.028 H 
ENDBRANCH   9  26
ENDBRANCH   4   5
ENDBRANCH   1   4
BRANCH   1  30
ATOM     30  C   UNL     1     -47.461  35.111  27.038  1.00  0.00     0.010 A 
ATOM     31  C   UNL     1     -48.786  35.490  27.194  1.00  0.00     0.034 A 
ATOM     32  C   UNL     1     -47.209  33.865  26.449  1.00  0.00    -0.028 A 
ATOM     33  N   UNL     1     -49.834  34.725  26.823  1.00  0.00    -0.262 NA
ATOM     34  H   UNL     1     -49.052  36.450  27.630  1.00  0.00     0.084 H 
ATOM     35  C   UNL     1     -48.269  33.051  26.023  1.00  0.00     0.066 A 
ATOM     36  H   UNL     1     -46.176  33.553  26.342  1.00  0.00     0.065 H 
ATOM     37  C   UNL     1     -49.555  33.529  26.245  1.00  0.00     0.051 A 
ATOM     38  H   UNL     1     -50.449  32.995  25.944  1.00  0.00     0.086 H 
BRANCH  35  39
ATOM     39  N   UNL     1     -48.023  31.804  25.367  1.00  0.00    -0.299 N 
ATOM     40  C   UNL     1     -48.590  30.590  25.733  1.00  0.00     0.018 A 
ATOM     41  C   UNL     1     -47.193  31.555  24.277  1.00  0.00     0.150 A 
ATOM     42  C   UNL     1     -48.116  29.572  24.925  1.00  0.00     0.012 A 
ATOM     43  H   UNL     1     -49.269  30.522  26.570  1.00  0.00     0.083 H 
ATOM     44  C   UNL     1     -47.230  30.193  23.990  1.00  0.00     0.067 A 
ATOM     45  N   UNL     1     -46.482  32.468  23.586  1.00  0.00    -0.218 NA
ATOM     46  C   UNL     1     -46.445  29.748  22.911  1.00  0.00     0.136 A 
ATOM     47  C   UNL     1     -45.780  31.928  22.580  1.00  0.00     0.120 A 
ATOM     48  N   UNL     1     -45.717  30.638  22.215  1.00  0.00    -0.219 NA
ATOM     49  H   UNL     1     -45.188  32.618  21.987  1.00  0.00     0.106 H 
BRANCH  42  50
ATOM     50  C   UNL     1     -48.468  28.113  24.976  1.00  0.00     0.085 C 
ATOM     51  C   UNL     1     -49.535  27.657  23.986  1.00  0.00    -0.020 C 
ATOM     52  O   UNL     1     -48.959  27.732  26.285  1.00  0.00    -0.373 OA
ATOM     53  H   UNL     1     -47.552  27.532  24.811  1.00  0.00     0.066 H 
ATOM     54  C   UNL     1     -50.105  26.442  24.673  1.00  0.00    -0.027 C 
ATOM     55  H   UNL     1     -50.328  28.406  23.871  1.00  0.00     0.030 H 
ATOM     56  H   UNL     1     -49.128  27.443  22.993  1.00  0.00     0.030 H 
ATOM     57  C   UNL     1     -50.105  26.887  26.117  1.00  0.00     0.048 C 
ATOM     58  H   UNL     1     -51.096  26.158  24.312  1.00  0.00     0.029 H 
ATOM     59  H   UNL     1     -49.429  25.589  24.541  1.00  0.00     0.029 H 
ATOM     60  H   UNL     1     -50.996  27.479  26.351  1.00  0.00     0.057 H 
ATOM     61  H   UNL     1     -50.051  26.048  26.815  1.00  0.00     0.057 H 
ENDBRANCH  42  50
BRANCH  46  62
ATOM     62  N   UNL     1     -46.359  28.417  22.521  1.00  0.00    -0.383 N 
ATOM     63  H   UNL     1     -45.476  27.989  22.802  1.00  0.00     0.158 HD
ATOM     64  H   UNL     1     -46.592  28.327  21.539  1.00  0.00     0.158 HD
ENDBRANCH  46  62
ENDBRANCH  35  39
ENDBRANCH   1  30
TORSDOF 9
ENDMDL
MODEL 7
REMARK VINA RESULT:      -9.5      2.304     11.786
REMARK SMILES CCc1cc(C)c2ccc(OCc3cncc(-n4cc([C@@H]5CCCO5)c5c(N)ncnc54)c3)cc2n1
REMARK SMILES IDX 12 1 11 4 10 5 3 6 4 7 36 8 5 9 35 11 7 12 34 13 8 14 9 16
REMARK SMILES IDX 2 19 1 22 6 26 13 30 14 31 33 32 15 33 17 35 16 37 18 39
REMARK SMILES IDX 19 40 32 41 20 42 26 44 31 45 27 46 30 47 29 48 21 50 22 51
REMARK SMILES IDX 25 52 23 54 24 57 28 62
REMARK H PARENT 12 2 12 3 4 10 34 15 8 17 9 18 2 20 2 21 1 23 1 24 1 25 6 27
REMARK H PARENT 6 28 6 29 14 34 33 36 16 38 19 43 30 49 21 53 22 55 22 56
REMARK H PARENT 23 58 23 59 24 60 24 61 28 63 28 64
REMARK Flexibility Score: inf
ROOT
ATOM      1  C   UNL     1     -47.364  36.371  26.594  1.00  0.00     0.115 C 
ATOM      2  H   UNL     1     -48.411  36.590  26.357  1.00  0.00     0.076 H 
ATOM      3  H   UNL     1     -46.797  36.731  25.726  1.00  0.00     0.076 H 
ENDROOT
BRANCH   1   4
ATOM      4  O   UNL     1     -46.908  37.121  27.723  1.00  0.00    -0.489 OA
BRANCH   4   5
ATOM      5  C   UNL     1     -46.291  38.322  27.502  1.00  0.00     0.122 A 
ATOM      6  C   UNL     1     -42.861  41.545  28.166  1.00  0.00     0.041 A 
ATOM      7  C   UNL     1     -43.386  42.414  27.219  1.00  0.00    -0.037 A 
ATOM      8  N   UNL     1     -43.440  40.360  28.467  1.00  0.00    -0.253 NA
ATOM      9  C   UNL     1     -44.559  42.064  26.544  1.00  0.00    -0.040 A 
ATOM     10  H   UNL     1     -42.883  43.353  27.006  1.00  0.00     0.065 H 
ATOM     11  C   UNL     1     -44.567  40.012  27.823  1.00  0.00     0.074 A 
ATOM     12  C   UNL     1     -45.176  40.825  26.843  1.00  0.00     0.003 A 
ATOM     13  C   UNL     1     -45.144  38.790  28.143  1.00  0.00     0.006 A 
ATOM     14  C   UNL     1     -46.355  40.366  26.218  1.00  0.00    -0.049 A 
ATOM     15  H   UNL     1     -44.656  38.216  28.922  1.00  0.00     0.069 H 
ATOM     16  C   UNL     1     -46.903  39.126  26.548  1.00  0.00    -0.019 A 
ATOM     17  H   UNL     1     -46.856  40.963  25.461  1.00  0.00     0.063 H 
ATOM     18  H   UNL     1     -47.804  38.783  26.046  1.00  0.00     0.066 H 
BRANCH   6  19
ATOM     19  C   UNL     1     -41.579  41.878  28.883  1.00  0.00    -0.013 C 
ATOM     20  H   UNL     1     -41.575  42.945  29.137  1.00  0.00     0.033 H 
ATOM     21  H   UNL     1     -40.726  41.713  28.214  1.00  0.00     0.033 H 
BRANCH  19  22
ATOM     22  C   UNL     1     -41.416  41.059  30.154  1.00  0.00    -0.060 C 
ATOM     23  H   UNL     1     -41.736  40.024  30.003  1.00  0.00     0.023 H 
ATOM     24  H   UNL     1     -42.018  41.489  30.961  1.00  0.00     0.023 H 
ATOM     25  H   UNL     1     -40.372  41.041  30.485  1.00  0.00     0.023 H 
ENDBRANCH  19  22
ENDBRANCH   6  19
BRANCH   9  26
ATOM     26  C   UNL     1     -45.120  43.009  25.517  1.00  0.00    -0.039 C 
ATOM     27  H   UNL     1     -44.751  44.024  25.693  1.00  0.00     0.028 H 
ATOM     28  H   UNL     1     -46.213  43.046  25.558  1.00  0.00     0.028 H 
ATOM     29  H   UNL     1     -44.840  42.686  24.509  1.00  0.00     0.028 H 
ENDBRANCH   9  26
ENDBRANCH   4   5
ENDBRANCH   1   4
BRANCH   1  30
ATOM     30  C   UNL     1     -47.092  34.897  26.743  1.00  0.00     0.010 A 
ATOM     31  C   UNL     1     -46.392  34.414  27.838  1.00  0.00     0.034 A 
ATOM     32  C   UNL     1     -47.549  33.964  25.803  1.00  0.00    -0.028 A 
ATOM     33  N   UNL     1     -46.119  33.107  28.037  1.00  0.00    -0.262 NA
ATOM     34  H   UNL     1     -46.020  35.081  28.612  1.00  0.00     0.084 H 
ATOM     35  C   UNL     1     -47.313  32.594  25.987  1.00  0.00     0.066 A 
ATOM     36  H   UNL     1     -48.081  34.337  24.934  1.00  0.00     0.065 H 
ATOM     37  C   UNL     1     -46.587  32.228  27.113  1.00  0.00     0.051 A 
ATOM     38  H   UNL     1     -46.358  31.199  27.367  1.00  0.00     0.086 H 
BRANCH  35  39
ATOM     39  N   UNL     1     -47.826  31.627  25.065  1.00  0.00    -0.299 N 
ATOM     40  C   UNL     1     -48.945  30.835  25.287  1.00  0.00     0.018 A 
ATOM     41  C   UNL     1     -47.325  31.286  23.811  1.00  0.00     0.150 A 
ATOM     42  C   UNL     1     -49.149  29.976  24.222  1.00  0.00     0.012 A 
ATOM     43  H   UNL     1     -49.504  30.907  26.207  1.00  0.00     0.083 H 
ATOM     44  C   UNL     1     -48.117  30.273  23.275  1.00  0.00     0.067 A 
ATOM     45  N   UNL     1     -46.268  31.846  23.190  1.00  0.00    -0.218 NA
ATOM     46  C   UNL     1     -47.762  29.794  22.002  1.00  0.00     0.136 A 
ATOM     47  C   UNL     1     -46.031  31.312  21.984  1.00  0.00     0.120 A 
ATOM     48  N   UNL     1     -46.703  30.327  21.369  1.00  0.00    -0.219 NA
ATOM     49  H   UNL     1     -45.190  31.725  21.436  1.00  0.00     0.106 H 
BRANCH  42  50
ATOM     50  C   UNL     1     -50.238  28.958  24.052  1.00  0.00     0.085 C 
ATOM     51  C   UNL     1     -49.776  27.507  23.957  1.00  0.00    -0.020 C 
ATOM     52  O   UNL     1     -51.011  29.204  22.852  1.00  0.00    -0.373 OA
ATOM     53  H   UNL     1     -50.937  29.058  24.893  1.00  0.00     0.066 H 
ATOM     54  C   UNL     1     -50.900  26.868  23.182  1.00  0.00    -0.027 C 
ATOM     55  H   UNL     1     -48.848  27.415  23.379  1.00  0.00     0.030 H 
ATOM     56  H   UNL     1     -49.609  27.050  24.936  1.00  0.00     0.030 H 
ATOM     57  C   UNL     1     -51.233  27.954  22.185  1.00  0.00     0.048 C 
ATOM     58  H   UNL     1     -50.626  25.922  22.710  1.00  0.00     0.029 H 
ATOM     59  H   UNL     1     -51.755  26.690  23.845  1.00  0.00     0.029 H 
ATOM     60  H   UNL     1     -50.566  27.914  21.316  1.00  0.00     0.057 H 
ATOM     61  H   UNL     1     -52.266  27.901  21.834  1.00  0.00     0.057 H 
ENDBRANCH  42  50
BRANCH  46  62
ATOM     62  N   UNL     1     -48.439  28.769  21.351  1.00  0.00    -0.383 N 
ATOM     63  H   UNL     1     -49.194  29.120  20.760  1.00  0.00     0.158 HD
ATOM     64  H   UNL     1     -48.705  28.052  22.016  1.00  0.00     0.158 HD
ENDBRANCH  46  62
ENDBRANCH  35  39
ENDBRANCH   1  30
TORSDOF 9
ENDMDL
