MODEL 1
REMARK VINA RESULT:     -10.3      0.000      0.000
REMARK SMILES Nc1ccc2ccc(OC[C@H]3O[C@@H](n4cc(Br)c5c(N)ncnc54)[C@H](O)[C@@H]3O)cc2n1
REMARK SMILES IDX 10 1 9 4 8 5 2 6 3 7 31 8 4 9 30 11 5 12 29 14 6 15 7 17
REMARK SMILES IDX 1 20 11 23 12 24 27 25 13 27 25 28 28 32 14 34 15 35 24 36
REMARK SMILES IDX 16 37 18 39 23 40 17 41 19 42 22 43 21 44 20 46 26 49
REMARK H PARENT 10 2 10 3 3 10 4 13 29 16 6 18 7 19 1 21 1 22 11 26 27 29
REMARK H PARENT 13 30 25 31 28 33 15 38 22 45 20 47 20 48 26 50
REMARK Flexibility Score: inf
ROOT
ATOM      1  C   UNL     1     -46.257  35.373  27.002  1.00  0.00     0.117 C 
ATOM      2  H   UNL     1     -47.112  35.799  26.463  1.00  0.00     0.073 H 
ATOM      3  H   UNL     1     -45.392  35.475  26.337  1.00  0.00     0.073 H 
ENDROOT
BRANCH   1   4
ATOM      4  O   UNL     1     -46.424  33.966  27.209  1.00  0.00    -0.491 OA
BRANCH   4   5
ATOM      5  C   UNL     1     -47.127  33.243  26.286  1.00  0.00     0.121 A 
ATOM      6  C   UNL     1     -46.616  30.507  22.432  1.00  0.00     0.124 A 
ATOM      7  C   UNL     1     -47.980  30.298  22.319  1.00  0.00    -0.019 A 
ATOM      8  N   UNL     1     -46.066  31.252  23.404  1.00  0.00    -0.231 NA
ATOM      9  C   UNL     1     -48.823  30.896  23.248  1.00  0.00    -0.049 A 
ATOM     10  H   UNL     1     -48.381  29.672  21.531  1.00  0.00     0.066 H 
ATOM     11  C   UNL     1     -46.878  31.833  24.308  1.00  0.00     0.076 A 
ATOM     12  C   UNL     1     -48.278  31.683  24.268  1.00  0.00     0.001 A 
ATOM     13  H   UNL     1     -49.896  30.740  23.175  1.00  0.00     0.063 H 
ATOM     14  C   UNL     1     -46.335  32.611  25.321  1.00  0.00     0.007 A 
ATOM     15  C   UNL     1     -49.084  32.308  25.233  1.00  0.00    -0.049 A 
ATOM     16  H   UNL     1     -45.254  32.729  25.362  1.00  0.00     0.069 H 
ATOM     17  C   UNL     1     -48.509  33.085  26.240  1.00  0.00    -0.019 A 
ATOM     18  H   UNL     1     -50.165  32.189  25.209  1.00  0.00     0.063 H 
ATOM     19  H   UNL     1     -49.170  33.540  26.969  1.00  0.00     0.066 H 
BRANCH   6  20
ATOM     20  N   UNL     1     -45.734  29.912  21.533  1.00  0.00    -0.384 N 
ATOM     21  H   UNL     1     -46.089  28.974  21.356  1.00  0.00     0.158 HD
ATOM     22  H   UNL     1     -44.789  29.891  21.899  1.00  0.00     0.158 HD
ENDBRANCH   6  20
ENDBRANCH   4   5
ENDBRANCH   1   4
BRANCH   1  23
ATOM     23  C   UNL     1     -45.962  36.099  28.317  1.00  0.00     0.123 C 
ATOM     24  O   UNL     1     -44.792  36.930  28.191  1.00  0.00    -0.345 OA
ATOM     25  C   UNL     1     -47.083  37.050  28.714  1.00  0.00     0.114 C 
ATOM     26  H   UNL     1     -45.764  35.372  29.114  1.00  0.00     0.067 H 
ATOM     27  C   UNL     1     -44.940  38.026  29.123  1.00  0.00     0.164 C 
ATOM     28  C   UNL     1     -46.370  37.978  29.686  1.00  0.00     0.128 C 
ATOM     29  H   UNL     1     -47.454  37.586  27.836  1.00  0.00     0.066 H 
ATOM     30  H   UNL     1     -44.219  37.858  29.932  1.00  0.00     0.088 H 
ATOM     31  H   UNL     1     -46.858  38.949  29.799  1.00  0.00     0.068 H 
BRANCH  25  32
ATOM     32  O   UNL     1     -48.175  36.379  29.341  1.00  0.00    -0.387 OA
ATOM     33  H   UNL     1     -48.386  35.602  28.788  1.00  0.00     0.211 HD
ENDBRANCH  25  32
BRANCH  27  34
ATOM     34  N   UNL     1     -44.531  39.247  28.448  1.00  0.00    -0.302 N 
ATOM     35  C   UNL     1     -45.148  39.728  27.311  1.00  0.00     0.023 A 
ATOM     36  C   UNL     1     -43.524  40.111  28.814  1.00  0.00     0.148 A 
ATOM     37  C   UNL     1     -44.521  40.899  26.966  1.00  0.00     0.049 A 
ATOM     38  H   UNL     1     -45.981  39.203  26.861  1.00  0.00     0.083 H 
ATOM     39  C   UNL     1     -43.493  41.164  27.900  1.00  0.00     0.075 A 
ATOM     40  N   UNL     1     -42.707  39.960  29.872  1.00  0.00    -0.218 NA
ATOM     41  Br  UNL     1     -44.964  41.971  25.490  1.00  0.00    -0.048 Br
ATOM     42  C   UNL     1     -42.523  42.155  28.116  1.00  0.00     0.137 A 
ATOM     43  C   UNL     1     -41.824  40.968  29.971  1.00  0.00     0.120 A 
ATOM     44  N   UNL     1     -41.683  42.030  29.162  1.00  0.00    -0.219 NA
ATOM     45  H   UNL     1     -41.134  40.918  30.808  1.00  0.00     0.106 H 
BRANCH  42  46
ATOM     46  N   UNL     1     -42.352  43.267  27.309  1.00  0.00    -0.383 N 
ATOM     47  H   UNL     1     -43.044  43.997  27.410  1.00  0.00     0.158 HD
ATOM     48  H   UNL     1     -42.071  43.016  26.370  1.00  0.00     0.158 HD
ENDBRANCH  42  46
ENDBRANCH  27  34
BRANCH  28  49
ATOM     49  O   UNL     1     -46.367  37.381  31.001  1.00  0.00    -0.386 OA
ATOM     50  H   UNL     1     -47.247  37.562  31.387  1.00  0.00     0.211 HD
ENDBRANCH  28  49
ENDBRANCH   1  23
TORSDOF 8
ENDMDL
MODEL 2
REMARK VINA RESULT:      -9.7      3.050      9.703
REMARK SMILES Nc1ccc2ccc(OC[C@H]3O[C@@H](n4cc(Br)c5c(N)ncnc54)[C@H](O)[C@@H]3O)cc2n1
REMARK SMILES IDX 10 1 9 4 8 5 2 6 3 7 31 8 4 9 30 11 5 12 29 14 6 15 7 17
REMARK SMILES IDX 1 20 11 23 12 24 27 25 13 27 25 28 28 32 14 34 15 35 24 36
REMARK SMILES IDX 16 37 18 39 23 40 17 41 19 42 22 43 21 44 20 46 26 49
REMARK H PARENT 10 2 10 3 3 10 4 13 29 16 6 18 7 19 1 21 1 22 11 26 27 29
REMARK H PARENT 13 30 25 31 28 33 15 38 22 45 20 47 20 48 26 50
REMARK Flexibility Score: inf
ROOT
ATOM      1  C   UNL     1     -48.503  35.729  26.898  1.00  0.00     0.117 C 
ATOM      2  H   UNL     1     -48.043  36.239  26.044  1.00  0.00     0.073 H 
ATOM      3  H   UNL     1     -49.577  35.677  26.683  1.00  0.00     0.073 H 
ENDROOT
BRANCH   1   4
ATOM      4  O   UNL     1     -48.386  36.509  28.093  1.00  0.00    -0.491 OA
BRANCH   4   5
ATOM      5  C   UNL     1     -47.273  37.286  28.266  1.00  0.00     0.121 A 
ATOM      6  C   UNL     1     -44.732  40.762  26.252  1.00  0.00     0.124 A 
ATOM      7  C   UNL     1     -43.818  40.785  27.292  1.00  0.00    -0.019 A 
ATOM      8  N   UNL     1     -45.787  39.932  26.221  1.00  0.00    -0.231 NA
ATOM      9  C   UNL     1     -43.992  39.901  28.349  1.00  0.00    -0.049 A 
ATOM     10  H   UNL     1     -42.992  41.486  27.287  1.00  0.00     0.066 H 
ATOM     11  C   UNL     1     -45.961  39.074  27.244  1.00  0.00     0.076 A 
ATOM     12  C   UNL     1     -45.079  39.020  28.340  1.00  0.00     0.001 A 
ATOM     13  H   UNL     1     -43.285  39.908  29.174  1.00  0.00     0.063 H 
ATOM     14  C   UNL     1     -47.042  38.204  27.235  1.00  0.00     0.007 A 
ATOM     15  C   UNL     1     -45.303  38.108  29.385  1.00  0.00    -0.049 A 
ATOM     16  H   UNL     1     -47.731  38.240  26.394  1.00  0.00     0.069 H 
ATOM     17  C   UNL     1     -46.397  37.244  29.347  1.00  0.00    -0.019 A 
ATOM     18  H   UNL     1     -44.626  38.069  30.236  1.00  0.00     0.063 H 
ATOM     19  H   UNL     1     -46.536  36.564  30.181  1.00  0.00     0.066 H 
BRANCH   6  20
ATOM     20  N   UNL     1     -44.606  41.644  25.181  1.00  0.00    -0.384 N 
ATOM     21  H   UNL     1     -43.633  41.600  24.882  1.00  0.00     0.158 HD
ATOM     22  H   UNL     1     -44.874  42.585  25.442  1.00  0.00     0.158 HD
ENDBRANCH   6  20
ENDBRANCH   4   5
ENDBRANCH   1   4
BRANCH   1  23
ATOM     23  C   UNL     1     -47.967  34.311  27.105  1.00  0.00     0.123 C 
ATOM     24  O   UNL     1     -48.862  33.337  26.532  1.00  0.00    -0.345 OA
ATOM     25  C   UNL     1     -46.636  34.090  26.398  1.00  0.00     0.114 C 
ATOM     26  H   UNL     1     -47.884  34.090  28.176  1.00  0.00     0.067 H 
ATOM     27  C   UNL     1     -48.066  32.189  26.155  1.00  0.00     0.164 C 
ATOM     28  C   UNL     1     -46.585  32.572  26.306  1.00  0.00     0.128 C 
ATOM     29  H   UNL     1     -46.650  34.558  25.410  1.00  0.00     0.066 H 
ATOM     30  H   UNL     1     -48.313  31.385  26.858  1.00  0.00     0.088 H 
ATOM     31  H   UNL     1     -45.928  32.205  25.514  1.00  0.00     0.068 H 
BRANCH  25  32
ATOM     32  O   UNL     1     -45.531  34.605  27.137  1.00  0.00    -0.387 OA
ATOM     33  H   UNL     1     -44.725  34.207  26.756  1.00  0.00     0.211 HD
ENDBRANCH  25  32
BRANCH  27  34
ATOM     34  N   UNL     1     -48.511  31.748  24.843  1.00  0.00    -0.302 N 
ATOM     35  C   UNL     1     -49.819  31.840  24.415  1.00  0.00     0.023 A 
ATOM     36  C   UNL     1     -47.743  31.211  23.835  1.00  0.00     0.148 A 
ATOM     37  C   UNL     1     -49.868  31.356  23.132  1.00  0.00     0.049 A 
ATOM     38  H   UNL     1     -50.590  32.251  25.054  1.00  0.00     0.083 H 
ATOM     39  C   UNL     1     -48.570  30.953  22.742  1.00  0.00     0.075 A 
ATOM     40  N   UNL     1     -46.421  30.970  23.899  1.00  0.00    -0.218 NA
ATOM     41  Br  UNL     1     -51.413  31.248  22.072  1.00  0.00    -0.048 Br
ATOM     42  C   UNL     1     -47.956  30.400  21.607  1.00  0.00     0.137 A 
ATOM     43  C   UNL     1     -45.952  30.442  22.756  1.00  0.00     0.120 A 
ATOM     44  N   UNL     1     -46.635  30.140  21.640  1.00  0.00    -0.219 NA
ATOM     45  H   UNL     1     -44.888  30.228  22.730  1.00  0.00     0.106 H 
BRANCH  42  46
ATOM     46  N   UNL     1     -48.624  30.083  20.436  1.00  0.00    -0.383 N 
ATOM     47  H   UNL     1     -48.439  29.165  20.056  1.00  0.00     0.158 HD
ATOM     48  H   UNL     1     -48.647  30.861  19.789  1.00  0.00     0.158 HD
ENDBRANCH  42  46
ENDBRANCH  27  34
BRANCH  28  49
ATOM     49  O   UNL     1     -46.056  32.037  27.538  1.00  0.00    -0.386 OA
ATOM     50  H   UNL     1     -46.746  32.178  28.218  1.00  0.00     0.211 HD
ENDBRANCH  28  49
ENDBRANCH   1  23
TORSDOF 8
ENDMDL
MODEL 3
REMARK VINA RESULT:      -9.5      2.785      9.951
REMARK SMILES Nc1ccc2ccc(OC[C@H]3O[C@@H](n4cc(Br)c5c(N)ncnc54)[C@H](O)[C@@H]3O)cc2n1
REMARK SMILES IDX 10 1 9 4 8 5 2 6 3 7 31 8 4 9 30 11 5 12 29 14 6 15 7 17
REMARK SMILES IDX 1 20 11 23 12 24 27 25 13 27 25 28 28 32 14 34 15 35 24 36
REMARK SMILES IDX 16 37 18 39 23 40 17 41 19 42 22 43 21 44 20 46 26 49
REMARK H PARENT 10 2 10 3 3 10 4 13 29 16 6 18 7 19 1 21 1 22 11 26 27 29
REMARK H PARENT 13 30 25 31 28 33 15 38 22 45 20 47 20 48 26 50
REMARK Flexibility Score: inf
ROOT
ATOM      1  C   UNL     1     -47.574  36.188  26.844  1.00  0.00     0.117 C 
ATOM      2  H   UNL     1     -47.058  36.442  25.911  1.00  0.00     0.073 H 
ATOM      3  H   UNL     1     -48.643  36.333  26.654  1.00  0.00     0.073 H 
ENDROOT
BRANCH   1   4
ATOM      4  O   UNL     1     -47.238  37.107  27.889  1.00  0.00    -0.491 OA
BRANCH   4   5
ATOM      5  C   UNL     1     -46.438  38.176  27.593  1.00  0.00     0.121 A 
ATOM      6  C   UNL     1     -42.733  40.689  29.193  1.00  0.00     0.124 A 
ATOM      7  C   UNL     1     -42.755  41.540  28.101  1.00  0.00    -0.019 A 
ATOM      8  N   UNL     1     -43.595  39.671  29.347  1.00  0.00    -0.231 NA
ATOM      9  C   UNL     1     -43.722  41.341  27.122  1.00  0.00    -0.049 A 
ATOM     10  H   UNL     1     -42.027  42.336  28.004  1.00  0.00     0.066 H 
ATOM     11  C   UNL     1     -44.533  39.473  28.402  1.00  0.00     0.076 A 
ATOM     12  C   UNL     1     -44.637  40.292  27.261  1.00  0.00     0.001 A 
ATOM     13  H   UNL     1     -43.751  41.999  26.258  1.00  0.00     0.063 H 
ATOM     14  C   UNL     1     -45.438  38.430  28.539  1.00  0.00     0.007 A 
ATOM     15  C   UNL     1     -45.632  40.045  26.301  1.00  0.00    -0.049 A 
ATOM     16  H   UNL     1     -45.363  37.790  29.415  1.00  0.00     0.069 H 
ATOM     17  C   UNL     1     -46.529  38.990  26.467  1.00  0.00    -0.019 A 
ATOM     18  H   UNL     1     -45.711  40.673  25.416  1.00  0.00     0.063 H 
ATOM     19  H   UNL     1     -47.274  38.831  25.695  1.00  0.00     0.066 H 
BRANCH   6  20
ATOM     20  N   UNL     1     -41.769  40.842  30.187  1.00  0.00    -0.384 N 
ATOM     21  H   UNL     1     -42.271  40.899  31.071  1.00  0.00     0.158 HD
ATOM     22  H   UNL     1     -41.198  41.663  30.028  1.00  0.00     0.158 HD
ENDBRANCH   6  20
ENDBRANCH   4   5
ENDBRANCH   1   4
BRANCH   1  23
ATOM     23  C   UNL     1     -47.338  34.740  27.280  1.00  0.00     0.123 C 
ATOM     24  O   UNL     1     -48.142  33.834  26.499  1.00  0.00    -0.345 OA
ATOM     25  C   UNL     1     -45.901  34.295  27.047  1.00  0.00     0.114 C 
ATOM     26  H   UNL     1     -47.625  34.609  28.330  1.00  0.00     0.067 H 
ATOM     27  C   UNL     1     -47.443  32.568  26.452  1.00  0.00     0.164 C 
ATOM     28  C   UNL     1     -46.043  32.780  27.050  1.00  0.00     0.128 C 
ATOM     29  H   UNL     1     -45.539  34.669  26.085  1.00  0.00     0.066 H 
ATOM     30  H   UNL     1     -48.009  31.867  27.077  1.00  0.00     0.088 H 
ATOM     31  H   UNL     1     -45.232  32.266  26.529  1.00  0.00     0.068 H 
BRANCH  25  32
ATOM     32  O   UNL     1     -45.017  34.738  28.076  1.00  0.00    -0.387 OA
ATOM     33  H   UNL     1     -44.472  35.452  27.694  1.00  0.00     0.211 HD
ENDBRANCH  25  32
BRANCH  27  34
ATOM     34  N   UNL     1     -47.516  32.065  25.090  1.00  0.00    -0.302 N 
ATOM     35  C   UNL     1     -46.404  31.819  24.312  1.00  0.00     0.023 A 
ATOM     36  C   UNL     1     -48.647  31.737  24.378  1.00  0.00     0.148 A 
ATOM     37  C   UNL     1     -46.844  31.335  23.105  1.00  0.00     0.049 A 
ATOM     38  H   UNL     1     -45.405  31.997  24.689  1.00  0.00     0.083 H 
ATOM     39  C   UNL     1     -48.257  31.272  23.122  1.00  0.00     0.075 A 
ATOM     40  N   UNL     1     -49.913  31.851  24.818  1.00  0.00    -0.218 NA
ATOM     41  Br  UNL     1     -45.742  30.838  21.669  1.00  0.00    -0.048 Br
ATOM     42  C   UNL     1     -49.285  30.884  22.248  1.00  0.00     0.137 A 
ATOM     43  C   UNL     1     -50.803  31.451  23.895  1.00  0.00     0.120 A 
ATOM     44  N   UNL     1     -50.564  30.993  22.655  1.00  0.00    -0.219 NA
ATOM     45  H   UNL     1     -51.849  31.508  24.183  1.00  0.00     0.106 H 
BRANCH  42  46
ATOM     46  N   UNL     1     -49.078  30.400  20.968  1.00  0.00    -0.383 N 
ATOM     47  H   UNL     1     -49.662  30.798  20.244  1.00  0.00     0.158 HD
ATOM     48  H   UNL     1     -48.941  29.397  20.958  1.00  0.00     0.158 HD
ENDBRANCH  42  46
ENDBRANCH  27  34
BRANCH  28  49
ATOM     49  O   UNL     1     -46.005  32.300  28.411  1.00  0.00    -0.386 OA
ATOM     50  H   UNL     1     -46.929  32.085  28.653  1.00  0.00     0.211 HD
ENDBRANCH  28  49
ENDBRANCH   1  23
TORSDOF 8
ENDMDL
MODEL 4
REMARK VINA RESULT:      -9.3      2.025      2.663
REMARK SMILES Nc1ccc2ccc(OC[C@H]3O[C@@H](n4cc(Br)c5c(N)ncnc54)[C@H](O)[C@@H]3O)cc2n1
REMARK SMILES IDX 10 1 9 4 8 5 2 6 3 7 31 8 4 9 30 11 5 12 29 14 6 15 7 17
REMARK SMILES IDX 1 20 11 23 12 24 27 25 13 27 25 28 28 32 14 34 15 35 24 36
REMARK SMILES IDX 16 37 18 39 23 40 17 41 19 42 22 43 21 44 20 46 26 49
REMARK H PARENT 10 2 10 3 3 10 4 13 29 16 6 18 7 19 1 21 1 22 11 26 27 29
REMARK H PARENT 13 30 25 31 28 33 15 38 22 45 20 47 20 48 26 50
REMARK Flexibility Score: inf
ROOT
ATOM      1  C   UNL     1     -46.279  34.042  26.548  1.00  0.00     0.117 C 
ATOM      2  H   UNL     1     -45.342  34.471  26.175  1.00  0.00     0.073 H 
ATOM      3  H   UNL     1     -46.021  33.071  26.985  1.00  0.00     0.073 H 
ENDROOT
BRANCH   1   4
ATOM      4  O   UNL     1     -47.182  33.755  25.474  1.00  0.00    -0.491 OA
BRANCH   4   5
ATOM      5  C   UNL     1     -47.133  32.522  24.884  1.00  0.00     0.121 A 
ATOM      6  C   UNL     1     -49.095  28.193  24.994  1.00  0.00     0.124 A 
ATOM      7  C   UNL     1     -48.299  27.735  23.959  1.00  0.00    -0.019 A 
ATOM      8  N   UNL     1     -49.027  29.446  25.472  1.00  0.00    -0.231 NA
ATOM      9  C   UNL     1     -47.375  28.606  23.394  1.00  0.00    -0.049 A 
ATOM     10  H   UNL     1     -48.401  26.721  23.589  1.00  0.00     0.066 H 
ATOM     11  C   UNL     1     -48.135  30.296  24.928  1.00  0.00     0.076 A 
ATOM     12  C   UNL     1     -47.278  29.915  23.877  1.00  0.00     0.001 A 
ATOM     13  H   UNL     1     -46.744  28.262  22.580  1.00  0.00     0.063 H 
ATOM     14  C   UNL     1     -48.043  31.595  25.406  1.00  0.00     0.007 A 
ATOM     15  C   UNL     1     -46.365  30.837  23.341  1.00  0.00    -0.049 A 
ATOM     16  H   UNL     1     -48.704  31.899  26.215  1.00  0.00     0.069 H 
ATOM     17  C   UNL     1     -46.293  32.137  23.843  1.00  0.00    -0.019 A 
ATOM     18  H   UNL     1     -45.705  30.548  22.525  1.00  0.00     0.063 H 
ATOM     19  H   UNL     1     -45.580  32.817  23.391  1.00  0.00     0.066 H 
BRANCH   6  20
ATOM     20  N   UNL     1     -50.046  27.358  25.576  1.00  0.00    -0.384 N 
ATOM     21  H   UNL     1     -49.998  27.520  26.580  1.00  0.00     0.158 HD
ATOM     22  H   UNL     1     -49.878  26.386  25.346  1.00  0.00     0.158 HD
ENDBRANCH   6  20
ENDBRANCH   4   5
ENDBRANCH   1   4
BRANCH   1  23
ATOM     23  C   UNL     1     -46.946  34.909  27.618  1.00  0.00     0.123 C 
ATOM     24  O   UNL     1     -45.995  35.819  28.205  1.00  0.00    -0.345 OA
ATOM     25  C   UNL     1     -48.040  35.796  27.042  1.00  0.00     0.114 C 
ATOM     26  H   UNL     1     -47.337  34.279  28.427  1.00  0.00     0.067 H 
ATOM     27  C   UNL     1     -46.730  36.982  28.652  1.00  0.00     0.164 C 
ATOM     28  C   UNL     1     -48.166  36.867  28.115  1.00  0.00     0.128 C 
ATOM     29  H   UNL     1     -47.722  36.216  26.083  1.00  0.00     0.066 H 
ATOM     30  H   UNL     1     -46.742  36.950  29.748  1.00  0.00     0.088 H 
ATOM     31  H   UNL     1     -48.602  37.801  27.750  1.00  0.00     0.068 H 
BRANCH  25  32
ATOM     32  O   UNL     1     -49.270  35.099  26.855  1.00  0.00    -0.387 OA
ATOM     33  H   UNL     1     -49.758  35.567  26.150  1.00  0.00     0.211 HD
ENDBRANCH  25  32
BRANCH  27  34
ATOM     34  N   UNL     1     -45.971  38.164  28.277  1.00  0.00    -0.302 N 
ATOM     35  C   UNL     1     -46.277  38.947  27.183  1.00  0.00     0.023 A 
ATOM     36  C   UNL     1     -44.882  38.701  28.926  1.00  0.00     0.148 A 
ATOM     37  C   UNL     1     -45.374  39.979  27.149  1.00  0.00     0.049 A 
ATOM     38  H   UNL     1     -47.114  38.707  26.539  1.00  0.00     0.083 H 
ATOM     39  C   UNL     1     -44.483  39.847  28.240  1.00  0.00     0.075 A 
ATOM     40  N   UNL     1     -44.301  38.201  30.031  1.00  0.00    -0.218 NA
ATOM     41  Br  UNL     1     -45.333  41.342  25.859  1.00  0.00    -0.048 Br
ATOM     42  C   UNL     1     -43.378  40.539  28.760  1.00  0.00     0.137 A 
ATOM     43  C   UNL     1     -43.258  38.947  30.431  1.00  0.00     0.120 A 
ATOM     44  N   UNL     1     -42.768  40.060  29.862  1.00  0.00    -0.219 NA
ATOM     45  H   UNL     1     -42.743  38.608  31.325  1.00  0.00     0.106 H 
BRANCH  42  46
ATOM     46  N   UNL     1     -42.849  41.693  28.208  1.00  0.00    -0.383 N 
ATOM     47  H   UNL     1     -43.519  42.397  27.927  1.00  0.00     0.158 HD
ATOM     48  H   UNL     1     -42.085  41.496  27.574  1.00  0.00     0.158 HD
ENDBRANCH  42  46
ENDBRANCH  27  34
BRANCH  28  49
ATOM     49  O   UNL     1     -49.050  36.398  29.156  1.00  0.00    -0.386 OA
ATOM     50  H   UNL     1     -48.524  35.785  29.708  1.00  0.00     0.211 HD
ENDBRANCH  28  49
ENDBRANCH   1  23
TORSDOF 8
ENDMDL
MODEL 5
REMARK VINA RESULT:      -9.3      2.552      3.202
REMARK SMILES Nc1ccc2ccc(OC[C@H]3O[C@@H](n4cc(Br)c5c(N)ncnc54)[C@H](O)[C@@H]3O)cc2n1
REMARK SMILES IDX 10 1 9 4 8 5 2 6 3 7 31 8 4 9 30 11 5 12 29 14 6 15 7 17
REMARK SMILES IDX 1 20 11 23 12 24 27 25 13 27 25 28 28 32 14 34 15 35 24 36
REMARK SMILES IDX 16 37 18 39 23 40 17 41 19 42 22 43 21 44 20 46 26 49
REMARK H PARENT 10 2 10 3 3 10 4 13 29 16 6 18 7 19 1 21 1 22 11 26 27 29
REMARK H PARENT 13 30 25 31 28 33 15 38 22 45 20 47 20 48 26 50
REMARK Flexibility Score: inf
ROOT
ATOM      1  C   UNL     1     -46.037  34.781  26.753  1.00  0.00     0.117 C 
ATOM      2  H   UNL     1     -46.142  35.266  25.776  1.00  0.00     0.073 H 
ATOM      3  H   UNL     1     -45.228  34.049  26.649  1.00  0.00     0.073 H 
ENDROOT
BRANCH   1   4
ATOM      4  O   UNL     1     -47.205  34.022  27.083  1.00  0.00    -0.491 OA
BRANCH   4   5
ATOM      5  C   UNL     1     -47.720  33.166  26.148  1.00  0.00     0.121 A 
ATOM      6  C   UNL     1     -46.494  30.274  22.579  1.00  0.00     0.124 A 
ATOM      7  C   UNL     1     -47.807  29.902  22.344  1.00  0.00    -0.019 A 
ATOM      8  N   UNL     1     -46.139  31.137  23.545  1.00  0.00    -0.231 NA
ATOM      9  C   UNL     1     -48.807  30.455  23.135  1.00  0.00    -0.049 A 
ATOM     10  H   UNL     1     -48.049  29.186  21.568  1.00  0.00     0.066 H 
ATOM     11  C   UNL     1     -47.103  31.675  24.316  1.00  0.00     0.076 A 
ATOM     12  C   UNL     1     -48.466  31.361  24.144  1.00  0.00     0.001 A 
ATOM     13  H   UNL     1     -49.842  30.171  22.965  1.00  0.00     0.063 H 
ATOM     14  C   UNL     1     -46.763  32.571  25.319  1.00  0.00     0.007 A 
ATOM     15  C   UNL     1     -49.436  31.947  24.974  1.00  0.00    -0.049 A 
ATOM     16  H   UNL     1     -45.712  32.816  25.461  1.00  0.00     0.069 H 
ATOM     17  C   UNL     1     -49.063  32.846  25.973  1.00  0.00    -0.019 A 
ATOM     18  H   UNL     1     -50.489  31.702  24.848  1.00  0.00     0.063 H 
ATOM     19  H   UNL     1     -49.846  33.266  26.596  1.00  0.00     0.066 H 
BRANCH   6  20
ATOM     20  N   UNL     1     -45.460  29.731  21.822  1.00  0.00    -0.384 N 
ATOM     21  H   UNL     1     -45.244  30.411  21.096  1.00  0.00     0.158 HD
ATOM     22  H   UNL     1     -45.719  28.834  21.429  1.00  0.00     0.158 HD
ENDBRANCH   6  20
ENDBRANCH   4   5
ENDBRANCH   1   4
BRANCH   1  23
ATOM     23  C   UNL     1     -45.678  35.764  27.870  1.00  0.00     0.123 C 
ATOM     24  O   UNL     1     -45.781  37.125  27.406  1.00  0.00    -0.345 OA
ATOM     25  C   UNL     1     -46.638  35.673  29.048  1.00  0.00     0.114 C 
ATOM     26  H   UNL     1     -44.642  35.607  28.195  1.00  0.00     0.067 H 
ATOM     27  C   UNL     1     -46.097  37.948  28.553  1.00  0.00     0.164 C 
ATOM     28  C   UNL     1     -46.416  37.014  29.732  1.00  0.00     0.128 C 
ATOM     29  H   UNL     1     -47.666  35.563  28.691  1.00  0.00     0.066 H 
ATOM     30  H   UNL     1     -45.199  38.536  28.781  1.00  0.00     0.088 H 
ATOM     31  H   UNL     1     -47.253  37.327  30.360  1.00  0.00     0.068 H 
BRANCH  25  32
ATOM     32  O   UNL     1     -46.334  34.586  29.920  1.00  0.00    -0.387 OA
ATOM     33  H   UNL     1     -47.054  34.540  30.578  1.00  0.00     0.211 HD
ENDBRANCH  25  32
BRANCH  27  34
ATOM     34  N   UNL     1     -47.126  38.895  28.155  1.00  0.00    -0.302 N 
ATOM     35  C   UNL     1     -48.463  38.733  28.458  1.00  0.00     0.023 A 
ATOM     36  C   UNL     1     -46.960  40.073  27.465  1.00  0.00     0.148 A 
ATOM     37  C   UNL     1     -49.134  39.817  27.952  1.00  0.00     0.049 A 
ATOM     38  H   UNL     1     -48.811  37.872  29.015  1.00  0.00     0.083 H 
ATOM     39  C   UNL     1     -48.207  40.679  27.321  1.00  0.00     0.075 A 
ATOM     40  N   UNL     1     -45.791  40.554  27.003  1.00  0.00    -0.218 NA
ATOM     41  Br  UNL     1     -50.985  40.103  28.080  1.00  0.00    -0.048 Br
ATOM     42  C   UNL     1     -48.236  41.904  26.637  1.00  0.00     0.137 A 
ATOM     43  C   UNL     1     -45.948  41.727  26.368  1.00  0.00     0.120 A 
ATOM     44  N   UNL     1     -47.084  42.410  26.155  1.00  0.00    -0.219 NA
ATOM     45  H   UNL     1     -45.044  42.182  25.973  1.00  0.00     0.106 H 
BRANCH  42  46
ATOM     46  N   UNL     1     -49.385  42.642  26.405  1.00  0.00    -0.383 N 
ATOM     47  H   UNL     1     -49.777  43.114  27.208  1.00  0.00     0.158 HD
ATOM     48  H   UNL     1     -50.026  42.162  25.786  1.00  0.00     0.158 HD
ENDBRANCH  42  46
ENDBRANCH  27  34
BRANCH  28  49
ATOM     49  O   UNL     1     -45.275  36.917  30.612  1.00  0.00    -0.386 OA
ATOM     50  H   UNL     1     -44.571  36.467  30.102  1.00  0.00     0.211 HD
ENDBRANCH  28  49
ENDBRANCH   1  23
TORSDOF 8
ENDMDL
MODEL 6
REMARK VINA RESULT:      -9.2      1.762      2.182
REMARK SMILES Nc1ccc2ccc(OC[C@H]3O[C@@H](n4cc(Br)c5c(N)ncnc54)[C@H](O)[C@@H]3O)cc2n1
REMARK SMILES IDX 10 1 9 4 8 5 2 6 3 7 31 8 4 9 30 11 5 12 29 14 6 15 7 17
REMARK SMILES IDX 1 20 11 23 12 24 27 25 13 27 25 28 28 32 14 34 15 35 24 36
REMARK SMILES IDX 16 37 18 39 23 40 17 41 19 42 22 43 21 44 20 46 26 49
REMARK H PARENT 10 2 10 3 3 10 4 13 29 16 6 18 7 19 1 21 1 22 11 26 27 29
REMARK H PARENT 13 30 25 31 28 33 15 38 22 45 20 47 20 48 26 50
REMARK Flexibility Score: inf
ROOT
ATOM      1  C   UNL     1     -46.044  35.911  27.737  1.00  0.00     0.117 C 
ATOM      2  H   UNL     1     -45.514  36.047  26.787  1.00  0.00     0.073 H 
ATOM      3  H   UNL     1     -45.349  35.389  28.405  1.00  0.00     0.073 H 
ENDROOT
BRANCH   1   4
ATOM      4  O   UNL     1     -47.166  35.034  27.584  1.00  0.00    -0.491 OA
BRANCH   4   5
ATOM      5  C   UNL     1     -47.138  34.097  26.588  1.00  0.00     0.121 A 
ATOM      6  C   UNL     1     -49.908  31.165  24.071  1.00  0.00     0.124 A 
ATOM      7  C   UNL     1     -48.841  30.692  23.327  1.00  0.00    -0.019 A 
ATOM      8  N   UNL     1     -49.777  32.098  25.029  1.00  0.00    -0.231 NA
ATOM      9  C   UNL     1     -47.572  31.195  23.589  1.00  0.00    -0.049 A 
ATOM     10  H   UNL     1     -48.994  29.954  22.548  1.00  0.00     0.066 H 
ATOM     11  C   UNL     1     -48.551  32.590  25.286  1.00  0.00     0.076 A 
ATOM     12  C   UNL     1     -47.406  32.162  24.585  1.00  0.00     0.001 A 
ATOM     13  H   UNL     1     -46.725  30.835  23.011  1.00  0.00     0.063 H 
ATOM     14  C   UNL     1     -48.388  33.552  26.272  1.00  0.00     0.007 A 
ATOM     15  C   UNL     1     -46.147  32.705  24.888  1.00  0.00    -0.049 A 
ATOM     16  H   UNL     1     -49.267  33.891  26.817  1.00  0.00     0.069 H 
ATOM     17  C   UNL     1     -46.014  33.671  25.886  1.00  0.00    -0.019 A 
ATOM     18  H   UNL     1     -45.262  32.381  24.344  1.00  0.00     0.063 H 
ATOM     19  H   UNL     1     -45.024  34.069  26.079  1.00  0.00     0.066 H 
BRANCH   6  20
ATOM     20  N   UNL     1     -51.199  30.702  23.830  1.00  0.00    -0.384 N 
ATOM     21  H   UNL     1     -51.696  30.752  24.717  1.00  0.00     0.158 HD
ATOM     22  H   UNL     1     -51.192  29.760  23.458  1.00  0.00     0.158 HD
ENDBRANCH   6  20
ENDBRANCH   4   5
ENDBRANCH   1   4
BRANCH   1  23
ATOM     23  C   UNL     1     -46.456  37.235  28.384  1.00  0.00     0.123 C 
ATOM     24  O   UNL     1     -45.313  38.095  28.563  1.00  0.00    -0.345 OA
ATOM     25  C   UNL     1     -47.416  38.029  27.509  1.00  0.00     0.114 C 
ATOM     26  H   UNL     1     -46.888  37.054  29.376  1.00  0.00     0.067 H 
ATOM     27  C   UNL     1     -45.790  39.460  28.520  1.00  0.00     0.164 C 
ATOM     28  C   UNL     1     -47.261  39.433  28.076  1.00  0.00     0.128 C 
ATOM     29  H   UNL     1     -47.106  37.977  26.461  1.00  0.00     0.066 H 
ATOM     30  H   UNL     1     -45.720  39.855  29.541  1.00  0.00     0.088 H 
ATOM     31  H   UNL     1     -47.550  40.220  27.375  1.00  0.00     0.068 H 
BRANCH  25  32
ATOM     32  O   UNL     1     -48.762  37.570  27.615  1.00  0.00    -0.387 OA
ATOM     33  H   UNL     1     -49.251  38.239  28.131  1.00  0.00     0.211 HD
ENDBRANCH  25  32
BRANCH  27  34
ATOM     34  N   UNL     1     -44.863  40.233  27.709  1.00  0.00    -0.302 N 
ATOM     35  C   UNL     1     -45.162  40.688  26.442  1.00  0.00     0.023 A 
ATOM     36  C   UNL     1     -43.597  40.651  28.051  1.00  0.00     0.148 A 
ATOM     37  C   UNL     1     -44.075  41.393  25.989  1.00  0.00     0.049 A 
ATOM     38  H   UNL     1     -46.121  40.481  25.983  1.00  0.00     0.083 H 
ATOM     39  C   UNL     1     -43.074  41.385  26.988  1.00  0.00     0.075 A 
ATOM     40  N   UNL     1     -42.971  40.388  29.212  1.00  0.00    -0.218 NA
ATOM     41  Br  UNL     1     -43.947  42.230  24.314  1.00  0.00    -0.048 Br
ATOM     42  C   UNL     1     -41.779  41.900  27.156  1.00  0.00     0.137 A 
ATOM     43  C   UNL     1     -41.743  40.931  29.254  1.00  0.00     0.120 A 
ATOM     44  N   UNL     1     -41.120  41.649  28.305  1.00  0.00    -0.219 NA
ATOM     45  H   UNL     1     -41.178  40.767  30.167  1.00  0.00     0.106 H 
BRANCH  42  46
ATOM     46  N   UNL     1     -41.108  42.651  26.206  1.00  0.00    -0.383 N 
ATOM     47  H   UNL     1     -41.569  43.500  25.907  1.00  0.00     0.158 HD
ATOM     48  H   UNL     1     -40.687  42.071  25.491  1.00  0.00     0.158 HD
ENDBRANCH  42  46
ENDBRANCH  27  34
BRANCH  28  49
ATOM     49  O   UNL     1     -48.129  39.583  29.220  1.00  0.00    -0.386 OA
ATOM     50  H   UNL     1     -47.772  40.332  29.739  1.00  0.00     0.211 HD
ENDBRANCH  28  49
ENDBRANCH   1  23
TORSDOF 8
ENDMDL
MODEL 7
REMARK VINA RESULT:      -9.1      2.324      3.132
REMARK SMILES Nc1ccc2ccc(OC[C@H]3O[C@@H](n4cc(Br)c5c(N)ncnc54)[C@H](O)[C@@H]3O)cc2n1
REMARK SMILES IDX 10 1 9 4 8 5 2 6 3 7 31 8 4 9 30 11 5 12 29 14 6 15 7 17
REMARK SMILES IDX 1 20 11 23 12 24 27 25 13 27 25 28 28 32 14 34 15 35 24 36
REMARK SMILES IDX 16 37 18 39 23 40 17 41 19 42 22 43 21 44 20 46 26 49
REMARK H PARENT 10 2 10 3 3 10 4 13 29 16 6 18 7 19 1 21 1 22 11 26 27 29
REMARK H PARENT 13 30 25 31 28 33 15 38 22 45 20 47 20 48 26 50
REMARK Flexibility Score: inf
ROOT
ATOM      1  C   UNL     1     -46.217  34.300  27.016  1.00  0.00     0.117 C 
ATOM      2  H   UNL     1     -46.195  34.567  25.953  1.00  0.00     0.073 H 
ATOM      3  H   UNL     1     -45.185  34.387  27.376  1.00  0.00     0.073 H 
ENDROOT
BRANCH   1   4
ATOM      4  O   UNL     1     -46.575  32.926  27.198  1.00  0.00    -0.491 OA
BRANCH   4   5
ATOM      5  C   UNL     1     -47.172  32.258  26.164  1.00  0.00     0.121 A 
ATOM      6  C   UNL     1     -46.602  31.063  21.597  1.00  0.00     0.124 A 
ATOM      7  C   UNL     1     -47.804  30.378  21.560  1.00  0.00    -0.019 A 
ATOM      8  N   UNL     1     -46.143  31.677  22.700  1.00  0.00    -0.231 NA
ATOM      9  C   UNL     1     -48.580  30.331  22.712  1.00  0.00    -0.049 A 
ATOM     10  H   UNL     1     -48.128  29.877  20.655  1.00  0.00     0.066 H 
ATOM     11  C   UNL     1     -46.890  31.635  23.820  1.00  0.00     0.076 A 
ATOM     12  C   UNL     1     -48.129  30.968  23.873  1.00  0.00     0.001 A 
ATOM     13  H   UNL     1     -49.525  29.795  22.699  1.00  0.00     0.063 H 
ATOM     14  C   UNL     1     -46.439  32.264  24.971  1.00  0.00     0.007 A 
ATOM     15  C   UNL     1     -48.872  30.949  25.064  1.00  0.00    -0.049 A 
ATOM     16  H   UNL     1     -45.481  32.779  24.941  1.00  0.00     0.069 H 
ATOM     17  C   UNL     1     -48.394  31.592  26.206  1.00  0.00    -0.019 A 
ATOM     18  H   UNL     1     -49.827  30.430  25.110  1.00  0.00     0.063 H 
ATOM     19  H   UNL     1     -48.997  31.543  27.107  1.00  0.00     0.066 H 
BRANCH   6  20
ATOM     20  N   UNL     1     -45.785  31.120  20.471  1.00  0.00    -0.384 N 
ATOM     21  H   UNL     1     -44.956  30.569  20.686  1.00  0.00     0.158 HD
ATOM     22  H   UNL     1     -45.548  32.075  20.232  1.00  0.00     0.158 HD
ENDBRANCH   6  20
ENDBRANCH   4   5
ENDBRANCH   1   4
BRANCH   1  23
ATOM     23  C   UNL     1     -47.113  35.224  27.844  1.00  0.00     0.123 C 
ATOM     24  O   UNL     1     -46.391  36.400  28.258  1.00  0.00    -0.345 OA
ATOM     25  C   UNL     1     -48.297  35.747  27.042  1.00  0.00     0.114 C 
ATOM     26  H   UNL     1     -47.450  34.710  28.752  1.00  0.00     0.067 H 
ATOM     27  C   UNL     1     -47.357  37.467  28.411  1.00  0.00     0.164 C 
ATOM     28  C   UNL     1     -48.700  36.971  27.851  1.00  0.00     0.128 C 
ATOM     29  H   UNL     1     -47.982  36.013  26.030  1.00  0.00     0.066 H 
ATOM     30  H   UNL     1     -47.453  37.659  29.486  1.00  0.00     0.088 H 
ATOM     31  H   UNL     1     -49.264  37.708  27.275  1.00  0.00     0.068 H 
BRANCH  25  32
ATOM     32  O   UNL     1     -49.363  34.803  26.960  1.00  0.00    -0.387 OA
ATOM     33  H   UNL     1     -50.196  35.310  27.013  1.00  0.00     0.211 HD
ENDBRANCH  25  32
BRANCH  27  34
ATOM     34  N   UNL     1     -46.792  38.670  27.821  1.00  0.00    -0.302 N 
ATOM     35  C   UNL     1     -45.448  38.824  27.553  1.00  0.00     0.023 A 
ATOM     36  C   UNL     1     -47.465  39.802  27.420  1.00  0.00     0.148 A 
ATOM     37  C   UNL     1     -45.280  40.061  26.983  1.00  0.00     0.049 A 
ATOM     38  H   UNL     1     -44.737  38.039  27.779  1.00  0.00     0.083 H 
ATOM     39  C   UNL     1     -46.539  40.698  26.887  1.00  0.00     0.075 A 
ATOM     40  N   UNL     1     -48.790  40.008  27.532  1.00  0.00    -0.218 NA
ATOM     41  Br  UNL     1     -43.641  40.784  26.424  1.00  0.00    -0.048 Br
ATOM     42  C   UNL     1     -47.046  41.921  26.419  1.00  0.00     0.137 A 
ATOM     43  C   UNL     1     -49.152  41.210  27.052  1.00  0.00     0.120 A 
ATOM     44  N   UNL     1     -48.367  42.163  26.523  1.00  0.00    -0.219 NA
ATOM     45  H   UNL     1     -50.211  41.445  27.102  1.00  0.00     0.106 H 
BRANCH  42  46
ATOM     46  N   UNL     1     -46.271  42.923  25.860  1.00  0.00    -0.383 N 
ATOM     47  H   UNL     1     -46.690  43.843  25.833  1.00  0.00     0.158 HD
ATOM     48  H   UNL     1     -45.782  42.608  25.032  1.00  0.00     0.158 HD
ENDBRANCH  42  46
ENDBRANCH  27  34
BRANCH  28  49
ATOM     49  O   UNL     1     -49.568  36.564  28.931  1.00  0.00    -0.386 OA
ATOM     50  H   UNL     1     -49.435  37.214  29.651  1.00  0.00     0.211 HD
ENDBRANCH  28  49
ENDBRANCH   1  23
TORSDOF 8
ENDMDL
