MODEL 1
REMARK VINA RESULT:     -11.1      0.000      0.000
REMARK SMILES O=C(NCc1ccc2cc(CNCC3(F)CCC3)[nH]c2c1)c1cc(=O)n2ccccc2n1
REMARK SMILES IDX 5 1 6 2 7 3 8 4 9 5 10 6 19 7 20 8 21 9 4 15 3 18 1 19 2 20
REMARK SMILES IDX 22 22 23 23 32 24 24 25 31 27 25 28 26 29 30 30 27 31 29 32
REMARK SMILES IDX 28 34 11 38 12 41 13 43 14 46 15 47 16 48 18 49 17 50
REMARK H PARENT 6 10 7 11 9 12 19 13 21 14 4 16 4 17 3 21 23 26 30 33 27 35
REMARK H PARENT 29 36 28 37 11 39 11 40 12 42 13 44 13 45 16 51 16 52 18 53
REMARK H PARENT 18 54 17 55 17 56
REMARK Flexibility Score: inf
ROOT
ATOM      1  C   UNL     1     -47.839  35.141  26.708  1.00  0.00    -0.027 A 
ATOM      2  C   UNL     1     -46.580  35.113  26.093  1.00  0.00    -0.057 A 
ATOM      3  C   UNL     1     -46.179  34.025  25.309  1.00  0.00    -0.052 A 
ATOM      4  C   UNL     1     -47.056  32.939  25.138  1.00  0.00    -0.000 A 
ATOM      5  C   UNL     1     -46.979  31.707  24.433  1.00  0.00    -0.032 A 
ATOM      6  C   UNL     1     -48.167  31.028  24.622  1.00  0.00     0.030 A 
ATOM      7  N   UNL     1     -48.951  31.808  25.439  1.00  0.00    -0.357 N 
ATOM      8  C   UNL     1     -48.302  32.979  25.760  1.00  0.00     0.046 A 
ATOM      9  C   UNL     1     -48.720  34.056  26.552  1.00  0.00    -0.033 A 
ATOM     10  H   UNL     1     -45.893  35.948  26.227  1.00  0.00     0.063 H 
ATOM     11  H   UNL     1     -45.199  34.023  24.840  1.00  0.00     0.063 H 
ATOM     12  H   UNL     1     -46.143  31.358  23.841  1.00  0.00     0.065 H 
ATOM     13  H   UNL     1     -49.878  31.564  25.759  1.00  0.00     0.166 HD
ATOM     14  H   UNL     1     -49.695  34.053  27.028  1.00  0.00     0.065 H 
ENDROOT
BRANCH   1  15
ATOM     15  C   UNL     1     -48.229  36.320  27.564  1.00  0.00     0.043 C 
ATOM     16  H   UNL     1     -48.462  35.992  28.583  1.00  0.00     0.054 H 
ATOM     17  H   UNL     1     -49.130  36.798  27.163  1.00  0.00     0.054 H 
BRANCH  15  18
ATOM     18  N   UNL     1     -47.146  37.266  27.656  1.00  0.00    -0.347 N 
ATOM     19  O   UNL     1     -48.442  39.151  27.898  1.00  0.00    -0.268 OA
ATOM     20  C   UNL     1     -47.349  38.621  27.747  1.00  0.00     0.270 C 
ATOM     21  H   UNL     1     -46.205  36.970  27.420  1.00  0.00     0.164 HD
BRANCH  20  22
ATOM     22  C   UNL     1     -46.062  39.402  27.624  1.00  0.00     0.136 A 
ATOM     23  C   UNL     1     -45.890  40.087  26.492  1.00  0.00     0.035 A 
ATOM     24  N   UNL     1     -45.159  39.361  28.663  1.00  0.00    -0.225 NA
ATOM     25  C   UNL     1     -44.652  40.857  26.326  1.00  0.00     0.258 A 
ATOM     26  H   UNL     1     -46.607  40.111  25.681  1.00  0.00     0.071 H 
ATOM     27  C   UNL     1     -44.063  40.040  28.509  1.00  0.00     0.140 A 
ATOM     28  O   UNL     1     -44.486  41.496  25.288  1.00  0.00    -0.269 OA
ATOM     29  N   UNL     1     -43.756  40.795  27.383  1.00  0.00    -0.268 N 
ATOM     30  C   UNL     1     -43.053  40.020  29.606  1.00  0.00    -0.019 A 
ATOM     31  C   UNL     1     -42.558  41.497  27.299  1.00  0.00     0.014 A 
ATOM     32  C   UNL     1     -41.914  40.712  29.477  1.00  0.00    -0.057 A 
ATOM     33  H   UNL     1     -43.282  39.433  30.486  1.00  0.00     0.066 H 
ATOM     34  C   UNL     1     -41.656  41.476  28.288  1.00  0.00    -0.045 A 
ATOM     35  H   UNL     1     -42.384  42.068  26.389  1.00  0.00     0.082 H 
ATOM     36  H   UNL     1     -41.166  40.710  30.264  1.00  0.00     0.062 H 
ATOM     37  H   UNL     1     -40.724  42.027  28.210  1.00  0.00     0.064 H 
ENDBRANCH  20  22
ENDBRANCH  15  18
ENDBRANCH   1  15
BRANCH   6  38
ATOM     38  C   UNL     1     -48.628  29.704  24.120  1.00  0.00     0.036 C 
ATOM     39  H   UNL     1     -48.498  29.670  23.031  1.00  0.00     0.049 H 
ATOM     40  H   UNL     1     -49.702  29.571  24.296  1.00  0.00     0.049 H 
BRANCH  38  41
ATOM     41  N   UNL     1     -47.851  28.611  24.701  1.00  0.00    -0.308 NA
ATOM     42  H   UNL     1     -47.355  28.963  25.518  1.00  0.00     0.123 HD
BRANCH  41  43
ATOM     43  C   UNL     1     -48.701  27.478  25.105  1.00  0.00     0.030 C 
ATOM     44  H   UNL     1     -49.693  27.838  25.398  1.00  0.00     0.046 H 
ATOM     45  H   UNL     1     -48.836  26.803  24.252  1.00  0.00     0.046 H 
BRANCH  43  46
ATOM     46  C   UNL     1     -48.124  26.651  26.265  1.00  0.00     0.123 C 
ATOM     47  F   UNL     1     -48.207  27.415  27.390  1.00  0.00    -0.242 F 
ATOM     48  C   UNL     1     -46.724  25.990  26.074  1.00  0.00    -0.017 C 
ATOM     49  C   UNL     1     -48.674  25.204  26.460  1.00  0.00    -0.017 C 
ATOM     50  C   UNL     1     -47.252  24.807  26.908  1.00  0.00    -0.047 C 
ATOM     51  H   UNL     1     -45.885  26.533  26.516  1.00  0.00     0.030 H 
ATOM     52  H   UNL     1     -46.462  25.715  25.047  1.00  0.00     0.030 H 
ATOM     53  H   UNL     1     -49.001  24.697  25.546  1.00  0.00     0.030 H 
ATOM     54  H   UNL     1     -49.450  25.096  27.221  1.00  0.00     0.030 H 
ATOM     55  H   UNL     1     -46.916  23.815  26.595  1.00  0.00     0.027 H 
ATOM     56  H   UNL     1     -47.085  24.916  27.986  1.00  0.00     0.027 H 
ENDBRANCH  43  46
ENDBRANCH  41  43
ENDBRANCH  38  41
ENDBRANCH   6  38
TORSDOF 7
ENDMDL
MODEL 2
REMARK VINA RESULT:     -10.4      1.603      2.290
REMARK SMILES O=C(NCc1ccc2cc(CNCC3(F)CCC3)[nH]c2c1)c1cc(=O)n2ccccc2n1
REMARK SMILES IDX 5 1 6 2 7 3 8 4 9 5 10 6 19 7 20 8 21 9 4 15 3 18 1 19 2 20
REMARK SMILES IDX 22 22 23 23 32 24 24 25 31 27 25 28 26 29 30 30 27 31 29 32
REMARK SMILES IDX 28 34 11 38 12 41 13 43 14 46 15 47 16 48 18 49 17 50
REMARK H PARENT 6 10 7 11 9 12 19 13 21 14 4 16 4 17 3 21 23 26 30 33 27 35
REMARK H PARENT 29 36 28 37 11 39 11 40 12 42 13 44 13 45 16 51 16 52 18 53
REMARK H PARENT 18 54 17 55 17 56
REMARK Flexibility Score: inf
ROOT
ATOM      1  C   UNL     1     -47.616  36.019  26.986  1.00  0.00    -0.027 A 
ATOM      2  C   UNL     1     -46.304  35.658  26.652  1.00  0.00    -0.057 A 
ATOM      3  C   UNL     1     -46.005  34.384  26.157  1.00  0.00    -0.052 A 
ATOM      4  C   UNL     1     -47.041  33.448  25.994  1.00  0.00    -0.000 A 
ATOM      5  C   UNL     1     -47.098  32.104  25.533  1.00  0.00    -0.032 A 
ATOM      6  C   UNL     1     -48.412  31.685  25.588  1.00  0.00     0.030 A 
ATOM      7  N   UNL     1     -49.149  32.733  26.088  1.00  0.00    -0.357 N 
ATOM      8  C   UNL     1     -48.340  33.819  26.336  1.00  0.00     0.046 A 
ATOM      9  C   UNL     1     -48.659  35.088  26.837  1.00  0.00    -0.033 A 
ATOM     10  H   UNL     1     -45.495  36.377  26.782  1.00  0.00     0.063 H 
ATOM     11  H   UNL     1     -44.981  34.124  25.903  1.00  0.00     0.063 H 
ATOM     12  H   UNL     1     -46.261  31.509  25.189  1.00  0.00     0.065 H 
ATOM     13  H   UNL     1     -50.146  32.716  26.250  1.00  0.00     0.166 HD
ATOM     14  H   UNL     1     -49.680  35.343  27.100  1.00  0.00     0.065 H 
ENDROOT
BRANCH   1  15
ATOM     15  C   UNL     1     -47.898  37.394  27.538  1.00  0.00     0.043 C 
ATOM     16  H   UNL     1     -48.077  37.343  28.617  1.00  0.00     0.054 H 
ATOM     17  H   UNL     1     -48.803  37.809  27.078  1.00  0.00     0.054 H 
BRANCH  15  18
ATOM     18  N   UNL     1     -46.772  38.270  27.332  1.00  0.00    -0.347 N 
ATOM     19  O   UNL     1     -45.879  38.077  29.443  1.00  0.00    -0.268 OA
ATOM     20  C   UNL     1     -45.890  38.593  28.332  1.00  0.00     0.270 C 
ATOM     21  H   UNL     1     -46.740  38.853  26.502  1.00  0.00     0.164 HD
BRANCH  20  22
ATOM     22  C   UNL     1     -44.927  39.680  27.918  1.00  0.00     0.136 A 
ATOM     23  C   UNL     1     -43.912  39.923  28.750  1.00  0.00     0.035 A 
ATOM     24  N   UNL     1     -45.149  40.347  26.733  1.00  0.00    -0.225 NA
ATOM     25  C   UNL     1     -42.955  40.975  28.390  1.00  0.00     0.258 A 
ATOM     26  H   UNL     1     -43.749  39.393  29.679  1.00  0.00     0.071 H 
ATOM     27  C   UNL     1     -44.302  41.280  26.422  1.00  0.00     0.140 A 
ATOM     28  O   UNL     1     -42.013  41.203  29.149  1.00  0.00    -0.269 OA
ATOM     29  N   UNL     1     -43.203  41.635  27.196  1.00  0.00    -0.268 N 
ATOM     30  C   UNL     1     -44.505  42.032  25.151  1.00  0.00    -0.019 A 
ATOM     31  C   UNL     1     -42.339  42.648  26.789  1.00  0.00     0.014 A 
ATOM     32  C   UNL     1     -43.646  42.999  24.803  1.00  0.00    -0.057 A 
ATOM     33  H   UNL     1     -45.358  41.764  24.542  1.00  0.00     0.066 H 
ATOM     34  C   UNL     1     -42.527  43.319  25.646  1.00  0.00    -0.045 A 
ATOM     35  H   UNL     1     -41.500  42.872  27.443  1.00  0.00     0.082 H 
ATOM     36  H   UNL     1     -43.777  43.558  23.882  1.00  0.00     0.062 H 
ATOM     37  H   UNL     1     -41.847  44.107  25.340  1.00  0.00     0.064 H 
ENDBRANCH  20  22
ENDBRANCH  15  18
ENDBRANCH   1  15
BRANCH   6  38
ATOM     38  C   UNL     1     -49.040  30.384  25.230  1.00  0.00     0.036 C 
ATOM     39  H   UNL     1     -49.470  30.460  24.223  1.00  0.00     0.049 H 
ATOM     40  H   UNL     1     -49.881  30.158  25.896  1.00  0.00     0.049 H 
BRANCH  38  41
ATOM     41  N   UNL     1     -48.059  29.300  25.219  1.00  0.00    -0.308 NA
ATOM     42  H   UNL     1     -47.764  29.120  26.177  1.00  0.00     0.123 HD
BRANCH  41  43
ATOM     43  C   UNL     1     -48.606  28.060  24.643  1.00  0.00     0.030 C 
ATOM     44  H   UNL     1     -49.701  28.110  24.613  1.00  0.00     0.046 H 
ATOM     45  H   UNL     1     -48.254  27.953  23.610  1.00  0.00     0.046 H 
BRANCH  43  46
ATOM     46  C   UNL     1     -48.202  26.789  25.406  1.00  0.00     0.123 C 
ATOM     47  F   UNL     1     -49.087  25.811  25.066  1.00  0.00    -0.242 F 
ATOM     48  C   UNL     1     -47.967  26.896  26.944  1.00  0.00    -0.017 C 
ATOM     49  C   UNL     1     -46.712  26.334  25.308  1.00  0.00    -0.017 C 
ATOM     50  C   UNL     1     -46.842  25.858  26.770  1.00  0.00    -0.047 C 
ATOM     51  H   UNL     1     -48.805  26.574  27.569  1.00  0.00     0.030 H 
ATOM     52  H   UNL     1     -47.612  27.867  27.306  1.00  0.00     0.030 H 
ATOM     53  H   UNL     1     -45.982  27.138  25.174  1.00  0.00     0.030 H 
ATOM     54  H   UNL     1     -46.509  25.547  24.578  1.00  0.00     0.030 H 
ATOM     55  H   UNL     1     -45.958  26.004  27.396  1.00  0.00     0.027 H 
ATOM     56  H   UNL     1     -47.180  24.820  26.866  1.00  0.00     0.027 H 
ENDBRANCH  43  46
ENDBRANCH  41  43
ENDBRANCH  38  41
ENDBRANCH   6  38
TORSDOF 7
ENDMDL
MODEL 3
REMARK VINA RESULT:     -10.0      1.738      2.376
REMARK SMILES O=C(NCc1ccc2cc(CNCC3(F)CCC3)[nH]c2c1)c1cc(=O)n2ccccc2n1
REMARK SMILES IDX 5 1 6 2 7 3 8 4 9 5 10 6 19 7 20 8 21 9 4 15 3 18 1 19 2 20
REMARK SMILES IDX 22 22 23 23 32 24 24 25 31 27 25 28 26 29 30 30 27 31 29 32
REMARK SMILES IDX 28 34 11 38 12 41 13 43 14 46 15 47 16 48 18 49 17 50
REMARK H PARENT 6 10 7 11 9 12 19 13 21 14 4 16 4 17 3 21 23 26 30 33 27 35
REMARK H PARENT 29 36 28 37 11 39 11 40 12 42 13 44 13 45 16 51 16 52 18 53
REMARK H PARENT 18 54 17 55 17 56
REMARK Flexibility Score: inf
ROOT
ATOM      1  C   UNL     1     -46.629  34.967  27.686  1.00  0.00    -0.027 A 
ATOM      2  C   UNL     1     -47.988  35.253  27.501  1.00  0.00    -0.057 A 
ATOM      3  C   UNL     1     -48.786  34.475  26.654  1.00  0.00    -0.052 A 
ATOM      4  C   UNL     1     -48.210  33.387  25.975  1.00  0.00    -0.000 A 
ATOM      5  C   UNL     1     -48.707  32.415  25.064  1.00  0.00    -0.032 A 
ATOM      6  C   UNL     1     -47.667  31.572  24.725  1.00  0.00     0.030 A 
ATOM      7  N   UNL     1     -46.551  32.021  25.391  1.00  0.00    -0.357 N 
ATOM      8  C   UNL     1     -46.856  33.119  26.163  1.00  0.00     0.046 A 
ATOM      9  C   UNL     1     -46.041  33.888  27.003  1.00  0.00    -0.033 A 
ATOM     10  H   UNL     1     -48.439  36.099  28.020  1.00  0.00     0.063 H 
ATOM     11  H   UNL     1     -49.838  34.713  26.525  1.00  0.00     0.063 H 
ATOM     12  H   UNL     1     -49.724  32.337  24.701  1.00  0.00     0.065 H 
ATOM     13  H   UNL     1     -45.632  31.605  25.329  1.00  0.00     0.166 HD
ATOM     14  H   UNL     1     -44.987  33.656  27.123  1.00  0.00     0.065 H 
ENDROOT
BRANCH   1  15
ATOM     15  C   UNL     1     -45.794  35.841  28.589  1.00  0.00     0.043 C 
ATOM     16  H   UNL     1     -44.824  35.372  28.785  1.00  0.00     0.054 H 
ATOM     17  H   UNL     1     -46.293  35.973  29.556  1.00  0.00     0.054 H 
BRANCH  15  18
ATOM     18  N   UNL     1     -45.535  37.116  27.969  1.00  0.00    -0.347 N 
ATOM     19  O   UNL     1     -44.621  38.142  29.814  1.00  0.00    -0.268 OA
ATOM     20  C   UNL     1     -45.030  38.189  28.660  1.00  0.00     0.270 C 
ATOM     21  H   UNL     1     -45.940  37.320  27.062  1.00  0.00     0.164 HD
BRANCH  20  22
ATOM     22  C   UNL     1     -45.044  39.457  27.841  1.00  0.00     0.136 A 
ATOM     23  C   UNL     1     -46.219  39.814  27.320  1.00  0.00     0.035 A 
ATOM     24  N   UNL     1     -43.867  40.155  27.678  1.00  0.00    -0.225 NA
ATOM     25  C   UNL     1     -46.279  41.038  26.512  1.00  0.00     0.258 A 
ATOM     26  H   UNL     1     -47.137  39.257  27.454  1.00  0.00     0.071 H 
ATOM     27  C   UNL     1     -43.925  41.234  26.959  1.00  0.00     0.140 A 
ATOM     28  O   UNL     1     -47.359  41.378  26.032  1.00  0.00    -0.269 OA
ATOM     29  N   UNL     1     -45.080  41.719  26.358  1.00  0.00    -0.268 N 
ATOM     30  C   UNL     1     -42.674  42.019  26.751  1.00  0.00    -0.019 A 
ATOM     31  C   UNL     1     -45.057  42.888  25.603  1.00  0.00     0.014 A 
ATOM     32  C   UNL     1     -42.703  43.137  26.014  1.00  0.00    -0.057 A 
ATOM     33  H   UNL     1     -41.768  41.649  27.213  1.00  0.00     0.066 H 
ATOM     34  C   UNL     1     -43.932  43.589  25.421  1.00  0.00    -0.045 A 
ATOM     35  H   UNL     1     -45.999  43.209  25.163  1.00  0.00     0.082 H 
ATOM     36  H   UNL     1     -41.803  43.723  25.851  1.00  0.00     0.062 H 
ATOM     37  H   UNL     1     -43.926  44.498  24.829  1.00  0.00     0.064 H 
ENDBRANCH  20  22
ENDBRANCH  15  18
ENDBRANCH   1  15
BRANCH   6  38
ATOM     38  C   UNL     1     -47.619  30.392  23.818  1.00  0.00     0.036 C 
ATOM     39  H   UNL     1     -46.822  30.541  23.079  1.00  0.00     0.049 H 
ATOM     40  H   UNL     1     -48.547  30.304  23.240  1.00  0.00     0.049 H 
BRANCH  38  41
ATOM     41  N   UNL     1     -47.328  29.163  24.553  1.00  0.00    -0.308 NA
ATOM     42  H   UNL     1     -46.897  29.410  25.442  1.00  0.00     0.123 HD
BRANCH  41  43
ATOM     43  C   UNL     1     -48.541  28.368  24.811  1.00  0.00     0.030 C 
ATOM     44  H   UNL     1     -49.193  28.895  25.516  1.00  0.00     0.046 H 
ATOM     45  H   UNL     1     -49.100  28.246  23.876  1.00  0.00     0.046 H 
BRANCH  43  46
ATOM     46  C   UNL     1     -48.258  26.965  25.370  1.00  0.00     0.123 C 
ATOM     47  F   UNL     1     -49.204  26.126  24.866  1.00  0.00    -0.242 F 
ATOM     48  C   UNL     1     -48.060  26.812  26.910  1.00  0.00    -0.017 C 
ATOM     49  C   UNL     1     -46.805  26.414  25.227  1.00  0.00    -0.017 C 
ATOM     50  C   UNL     1     -47.013  25.727  26.593  1.00  0.00    -0.047 C 
ATOM     51  H   UNL     1     -48.938  26.465  27.462  1.00  0.00     0.030 H 
ATOM     52  H   UNL     1     -47.643  27.683  27.426  1.00  0.00     0.030 H 
ATOM     53  H   UNL     1     -46.011  27.168  25.234  1.00  0.00     0.030 H 
ATOM     54  H   UNL     1     -46.641  25.736  24.385  1.00  0.00     0.030 H 
ATOM     55  H   UNL     1     -46.140  25.702  27.250  1.00  0.00     0.027 H 
ATOM     56  H   UNL     1     -47.432  24.717  26.518  1.00  0.00     0.027 H 
ENDBRANCH  43  46
ENDBRANCH  41  43
ENDBRANCH  38  41
ENDBRANCH   6  38
TORSDOF 7
ENDMDL
MODEL 4
REMARK VINA RESULT:      -9.9      3.292      4.162
REMARK SMILES O=C(NCc1ccc2cc(CNCC3(F)CCC3)[nH]c2c1)c1cc(=O)n2ccccc2n1
REMARK SMILES IDX 5 1 6 2 7 3 8 4 9 5 10 6 19 7 20 8 21 9 4 15 3 18 1 19 2 20
REMARK SMILES IDX 22 22 23 23 32 24 24 25 31 27 25 28 26 29 30 30 27 31 29 32
REMARK SMILES IDX 28 34 11 38 12 41 13 43 14 46 15 47 16 48 18 49 17 50
REMARK H PARENT 6 10 7 11 9 12 19 13 21 14 4 16 4 17 3 21 23 26 30 33 27 35
REMARK H PARENT 29 36 28 37 11 39 11 40 12 42 13 44 13 45 16 51 16 52 18 53
REMARK H PARENT 18 54 17 55 17 56
REMARK Flexibility Score: inf
ROOT
ATOM      1  C   UNL     1     -46.664  35.607  28.394  1.00  0.00    -0.027 A 
ATOM      2  C   UNL     1     -47.988  35.787  27.971  1.00  0.00    -0.057 A 
ATOM      3  C   UNL     1     -48.525  35.030  26.924  1.00  0.00    -0.052 A 
ATOM      4  C   UNL     1     -47.719  34.072  26.284  1.00  0.00    -0.000 A 
ATOM      5  C   UNL     1     -47.930  33.155  25.217  1.00  0.00    -0.032 A 
ATOM      6  C   UNL     1     -46.760  32.448  25.020  1.00  0.00     0.030 A 
ATOM      7  N   UNL     1     -45.843  32.926  25.926  1.00  0.00    -0.357 N 
ATOM      8  C   UNL     1     -46.403  33.908  26.711  1.00  0.00     0.046 A 
ATOM      9  C   UNL     1     -45.846  34.659  27.754  1.00  0.00    -0.033 A 
ATOM     10  H   UNL     1     -48.616  36.533  28.459  1.00  0.00     0.063 H 
ATOM     11  H   UNL     1     -49.554  35.184  26.612  1.00  0.00     0.063 H 
ATOM     12  H   UNL     1     -48.847  33.023  24.657  1.00  0.00     0.065 H 
ATOM     13  H   UNL     1     -44.889  32.602  26.012  1.00  0.00     0.166 HD
ATOM     14  H   UNL     1     -44.815  34.512  28.059  1.00  0.00     0.065 H 
ENDROOT
BRANCH   1  15
ATOM     15  C   UNL     1     -46.111  36.457  29.511  1.00  0.00     0.043 C 
ATOM     16  H   UNL     1     -45.479  35.856  30.172  1.00  0.00     0.054 H 
ATOM     17  H   UNL     1     -46.928  36.861  30.120  1.00  0.00     0.054 H 
BRANCH  15  18
ATOM     18  N   UNL     1     -45.292  37.521  28.986  1.00  0.00    -0.347 N 
ATOM     19  O   UNL     1     -44.453  38.246  31.002  1.00  0.00    -0.268 OA
ATOM     20  C   UNL     1     -44.580  38.376  29.790  1.00  0.00     0.270 C 
ATOM     21  H   UNL     1     -45.408  37.809  28.020  1.00  0.00     0.164 HD
BRANCH  20  22
ATOM     22  C   UNL     1     -43.973  39.521  29.015  1.00  0.00     0.136 A 
ATOM     23  C   UNL     1     -42.920  40.122  29.571  1.00  0.00     0.035 A 
ATOM     24  N   UNL     1     -44.532  39.873  27.806  1.00  0.00    -0.225 NA
ATOM     25  C   UNL     1     -42.301  41.243  28.855  1.00  0.00     0.258 A 
ATOM     26  H   UNL     1     -42.491  39.837  30.522  1.00  0.00     0.071 H 
ATOM     27  C   UNL     1     -43.983  40.868  27.178  1.00  0.00     0.140 A 
ATOM     28  O   UNL     1     -41.326  41.801  29.357  1.00  0.00    -0.269 OA
ATOM     29  N   UNL     1     -42.885  41.582  27.643  1.00  0.00    -0.268 N 
ATOM     30  C   UNL     1     -44.558  41.288  25.868  1.00  0.00    -0.019 A 
ATOM     31  C   UNL     1     -42.354  42.637  26.906  1.00  0.00     0.014 A 
ATOM     32  C   UNL     1     -44.012  42.311  25.197  1.00  0.00    -0.057 A 
ATOM     33  H   UNL     1     -45.415  40.740  25.499  1.00  0.00     0.066 H 
ATOM     34  C   UNL     1     -42.874  43.009  25.730  1.00  0.00    -0.045 A 
ATOM     35  H   UNL     1     -41.494  43.150  27.330  1.00  0.00     0.082 H 
ATOM     36  H   UNL     1     -44.416  42.632  24.242  1.00  0.00     0.062 H 
ATOM     37  H   UNL     1     -42.453  43.834  25.165  1.00  0.00     0.064 H 
ENDBRANCH  20  22
ENDBRANCH  15  18
ENDBRANCH   1  15
BRANCH   6  38
ATOM     38  C   UNL     1     -46.418  31.374  24.048  1.00  0.00     0.036 C 
ATOM     39  H   UNL     1     -46.640  30.399  24.499  1.00  0.00     0.049 H 
ATOM     40  H   UNL     1     -45.343  31.366  23.835  1.00  0.00     0.049 H 
BRANCH  38  41
ATOM     41  N   UNL     1     -47.204  31.492  22.821  1.00  0.00    -0.308 NA
ATOM     42  H   UNL     1     -46.571  31.459  22.024  1.00  0.00     0.123 HD
BRANCH  41  43
ATOM     43  C   UNL     1     -48.198  30.411  22.691  1.00  0.00     0.030 C 
ATOM     44  H   UNL     1     -47.733  29.525  22.244  1.00  0.00     0.046 H 
ATOM     45  H   UNL     1     -48.556  30.126  23.687  1.00  0.00     0.046 H 
BRANCH  43  46
ATOM     46  C   UNL     1     -49.424  30.792  21.847  1.00  0.00     0.123 C 
ATOM     47  F   UNL     1     -48.966  31.349  20.691  1.00  0.00    -0.242 F 
ATOM     48  C   UNL     1     -50.554  31.627  22.524  1.00  0.00    -0.017 C 
ATOM     49  C   UNL     1     -50.507  29.694  21.616  1.00  0.00    -0.017 C 
ATOM     50  C   UNL     1     -51.556  30.824  21.672  1.00  0.00    -0.047 C 
ATOM     51  H   UNL     1     -50.528  32.702  22.322  1.00  0.00     0.030 H 
ATOM     52  H   UNL     1     -50.679  31.476  23.601  1.00  0.00     0.030 H 
ATOM     53  H   UNL     1     -50.614  28.959  22.421  1.00  0.00     0.030 H 
ATOM     54  H   UNL     1     -50.443  29.165  20.661  1.00  0.00     0.030 H 
ATOM     55  H   UNL     1     -52.501  30.571  22.160  1.00  0.00     0.027 H 
ATOM     56  H   UNL     1     -51.768  31.276  20.696  1.00  0.00     0.027 H 
ENDBRANCH  43  46
ENDBRANCH  41  43
ENDBRANCH  38  41
ENDBRANCH   6  38
TORSDOF 7
ENDMDL
MODEL 5
REMARK VINA RESULT:      -9.8      2.075      3.479
REMARK SMILES O=C(NCc1ccc2cc(CNCC3(F)CCC3)[nH]c2c1)c1cc(=O)n2ccccc2n1
REMARK SMILES IDX 5 1 6 2 7 3 8 4 9 5 10 6 19 7 20 8 21 9 4 15 3 18 1 19 2 20
REMARK SMILES IDX 22 22 23 23 32 24 24 25 31 27 25 28 26 29 30 30 27 31 29 32
REMARK SMILES IDX 28 34 11 38 12 41 13 43 14 46 15 47 16 48 18 49 17 50
REMARK H PARENT 6 10 7 11 9 12 19 13 21 14 4 16 4 17 3 21 23 26 30 33 27 35
REMARK H PARENT 29 36 28 37 11 39 11 40 12 42 13 44 13 45 16 51 16 52 18 53
REMARK H PARENT 18 54 17 55 17 56
REMARK Flexibility Score: inf
ROOT
ATOM      1  C   UNL     1     -46.415  36.718  28.651  1.00  0.00    -0.027 A 
ATOM      2  C   UNL     1     -47.762  36.815  28.277  1.00  0.00    -0.057 A 
ATOM      3  C   UNL     1     -48.309  35.967  27.306  1.00  0.00    -0.052 A 
ATOM      4  C   UNL     1     -47.490  35.001  26.696  1.00  0.00    -0.000 A 
ATOM      5  C   UNL     1     -47.704  34.007  25.702  1.00  0.00    -0.032 A 
ATOM      6  C   UNL     1     -46.515  33.336  25.500  1.00  0.00     0.030 A 
ATOM      7  N   UNL     1     -45.582  33.911  26.331  1.00  0.00    -0.357 N 
ATOM      8  C   UNL     1     -46.151  34.921  27.073  1.00  0.00     0.046 A 
ATOM      9  C   UNL     1     -45.584  35.763  28.039  1.00  0.00    -0.033 A 
ATOM     10  H   UNL     1     -48.401  37.565  28.742  1.00  0.00     0.063 H 
ATOM     11  H   UNL     1     -49.356  36.058  27.031  1.00  0.00     0.063 H 
ATOM     12  H   UNL     1     -48.637  33.800  25.194  1.00  0.00     0.065 H 
ATOM     13  H   UNL     1     -44.612  33.633  26.395  1.00  0.00     0.166 HD
ATOM     14  H   UNL     1     -44.536  35.678  28.306  1.00  0.00     0.065 H 
ENDROOT
BRANCH   1  15
ATOM     15  C   UNL     1     -45.854  37.663  29.684  1.00  0.00     0.043 C 
ATOM     16  H   UNL     1     -45.180  37.131  30.364  1.00  0.00     0.054 H 
ATOM     17  H   UNL     1     -46.663  38.084  30.292  1.00  0.00     0.054 H 
BRANCH  15  18
ATOM     18  N   UNL     1     -45.088  38.710  29.056  1.00  0.00    -0.347 N 
ATOM     19  O   UNL     1     -46.873  39.913  28.245  1.00  0.00    -0.268 OA
ATOM     20  C   UNL     1     -45.666  39.717  28.324  1.00  0.00     0.270 C 
ATOM     21  H   UNL     1     -44.086  38.595  28.943  1.00  0.00     0.164 HD
BRANCH  20  22
ATOM     22  C   UNL     1     -44.644  40.564  27.605  1.00  0.00     0.136 A 
ATOM     23  C   UNL     1     -43.453  40.685  28.195  1.00  0.00     0.035 A 
ATOM     24  N   UNL     1     -44.992  41.153  26.409  1.00  0.00    -0.225 NA
ATOM     25  C   UNL     1     -42.430  41.503  27.534  1.00  0.00     0.258 A 
ATOM     26  H   UNL     1     -43.191  40.218  29.135  1.00  0.00     0.071 H 
ATOM     27  C   UNL     1     -44.085  41.878  25.831  1.00  0.00     0.140 A 
ATOM     28  O   UNL     1     -41.327  41.617  28.067  1.00  0.00    -0.269 OA
ATOM     29  N   UNL     1     -42.807  42.089  26.334  1.00  0.00    -0.268 N 
ATOM     30  C   UNL     1     -44.420  42.540  24.537  1.00  0.00    -0.019 A 
ATOM     31  C   UNL     1     -41.890  42.881  25.649  1.00  0.00     0.014 A 
ATOM     32  C   UNL     1     -43.503  43.294  23.916  1.00  0.00    -0.057 A 
ATOM     33  H   UNL     1     -45.413  42.383  24.138  1.00  0.00     0.066 H 
ATOM     34  C   UNL     1     -42.196  43.471  24.488  1.00  0.00    -0.045 A 
ATOM     35  H   UNL     1     -40.908  43.002  26.101  1.00  0.00     0.082 H 
ATOM     36  H   UNL     1     -43.727  43.783  22.974  1.00  0.00     0.062 H 
ATOM     37  H   UNL     1     -41.473  44.088  23.963  1.00  0.00     0.064 H 
ENDBRANCH  20  22
ENDBRANCH  15  18
ENDBRANCH   1  15
BRANCH   6  38
ATOM     38  C   UNL     1     -46.167  32.214  24.586  1.00  0.00     0.036 C 
ATOM     39  H   UNL     1     -45.159  31.854  24.829  1.00  0.00     0.049 H 
ATOM     40  H   UNL     1     -46.118  32.557  23.546  1.00  0.00     0.049 H 
BRANCH  38  41
ATOM     41  N   UNL     1     -47.093  31.093  24.736  1.00  0.00    -0.308 NA
ATOM     42  H   UNL     1     -48.024  31.463  24.919  1.00  0.00     0.123 HD
BRANCH  41  43
ATOM     43  C   UNL     1     -47.139  30.245  23.533  1.00  0.00     0.030 C 
ATOM     44  H   UNL     1     -47.849  30.659  22.808  1.00  0.00     0.046 H 
ATOM     45  H   UNL     1     -46.152  30.236  23.056  1.00  0.00     0.046 H 
BRANCH  43  46
ATOM     46  C   UNL     1     -47.533  28.786  23.816  1.00  0.00     0.123 C 
ATOM     47  F   UNL     1     -46.382  28.066  23.918  1.00  0.00    -0.242 F 
ATOM     48  C   UNL     1     -48.594  28.117  22.888  1.00  0.00    -0.017 C 
ATOM     49  C   UNL     1     -48.532  28.524  24.985  1.00  0.00    -0.017 C 
ATOM     50  C   UNL     1     -49.105  27.371  24.137  1.00  0.00    -0.047 C 
ATOM     51  H   UNL     1     -48.190  27.479  22.098  1.00  0.00     0.030 H 
ATOM     52  H   UNL     1     -49.338  28.791  22.450  1.00  0.00     0.030 H 
ATOM     53  H   UNL     1     -49.253  29.325  25.178  1.00  0.00     0.030 H 
ATOM     54  H   UNL     1     -48.076  28.225  25.933  1.00  0.00     0.030 H 
ATOM     55  H   UNL     1     -50.187  27.229  24.197  1.00  0.00     0.027 H 
ATOM     56  H   UNL     1     -48.608  26.409  24.310  1.00  0.00     0.027 H 
ENDBRANCH  43  46
ENDBRANCH  41  43
ENDBRANCH  38  41
ENDBRANCH   6  38
TORSDOF 7
ENDMDL
MODEL 6
REMARK VINA RESULT:      -9.8      3.162      4.742
REMARK SMILES O=C(NCc1ccc2cc(CNCC3(F)CCC3)[nH]c2c1)c1cc(=O)n2ccccc2n1
REMARK SMILES IDX 5 1 6 2 7 3 8 4 9 5 10 6 19 7 20 8 21 9 4 15 3 18 1 19 2 20
REMARK SMILES IDX 22 22 23 23 32 24 24 25 31 27 25 28 26 29 30 30 27 31 29 32
REMARK SMILES IDX 28 34 11 38 12 41 13 43 14 46 15 47 16 48 18 49 17 50
REMARK H PARENT 6 10 7 11 9 12 19 13 21 14 4 16 4 17 3 21 23 26 30 33 27 35
REMARK H PARENT 29 36 28 37 11 39 11 40 12 42 13 44 13 45 16 51 16 52 18 53
REMARK H PARENT 18 54 17 55 17 56
REMARK Flexibility Score: inf
ROOT
ATOM      1  C   UNL     1     -45.772  37.715  28.332  1.00  0.00    -0.027 A 
ATOM      2  C   UNL     1     -47.082  38.013  27.931  1.00  0.00    -0.057 A 
ATOM      3  C   UNL     1     -47.887  37.053  27.307  1.00  0.00    -0.052 A 
ATOM      4  C   UNL     1     -47.370  35.767  27.076  1.00  0.00    -0.000 A 
ATOM      5  C   UNL     1     -47.890  34.583  26.484  1.00  0.00    -0.032 A 
ATOM      6  C   UNL     1     -46.913  33.609  26.539  1.00  0.00     0.030 A 
ATOM      7  N   UNL     1     -45.809  34.178  27.131  1.00  0.00    -0.357 N 
ATOM      8  C   UNL     1     -46.064  35.487  27.473  1.00  0.00     0.046 A 
ATOM      9  C   UNL     1     -45.241  36.435  28.096  1.00  0.00    -0.033 A 
ATOM     10  H   UNL     1     -47.486  39.011  28.102  1.00  0.00     0.063 H 
ATOM     11  H   UNL     1     -48.900  37.305  27.006  1.00  0.00     0.063 H 
ATOM     12  H   UNL     1     -48.881  34.457  26.067  1.00  0.00     0.065 H 
ATOM     13  H   UNL     1     -44.932  33.705  27.298  1.00  0.00     0.166 HD
ATOM     14  H   UNL     1     -44.226  36.186  28.387  1.00  0.00     0.065 H 
ENDROOT
BRANCH   1  15
ATOM     15  C   UNL     1     -44.925  38.781  28.981  1.00  0.00     0.043 C 
ATOM     16  H   UNL     1     -43.988  38.351  29.351  1.00  0.00     0.054 H 
ATOM     17  H   UNL     1     -45.450  39.209  29.843  1.00  0.00     0.054 H 
BRANCH  15  18
ATOM     18  N   UNL     1     -44.579  39.808  28.032  1.00  0.00    -0.347 N 
ATOM     19  O   UNL     1     -42.768  40.647  29.176  1.00  0.00    -0.268 OA
ATOM     20  C   UNL     1     -43.563  40.706  28.246  1.00  0.00     0.270 C 
ATOM     21  H   UNL     1     -45.230  40.040  27.289  1.00  0.00     0.164 HD
BRANCH  20  22
ATOM     22  C   UNL     1     -43.536  41.801  27.206  1.00  0.00     0.136 A 
ATOM     23  C   UNL     1     -42.341  42.112  26.702  1.00  0.00     0.035 A 
ATOM     24  N   UNL     1     -44.722  42.405  26.848  1.00  0.00    -0.225 NA
ATOM     25  C   UNL     1     -42.267  43.174  25.692  1.00  0.00     0.258 A 
ATOM     26  H   UNL     1     -41.416  41.630  26.992  1.00  0.00     0.071 H 
ATOM     27  C   UNL     1     -44.650  43.346  25.958  1.00  0.00     0.140 A 
ATOM     28  O   UNL     1     -41.169  43.464  25.218  1.00  0.00    -0.269 OA
ATOM     29  N   UNL     1     -43.472  43.770  25.353  1.00  0.00    -0.268 N 
ATOM     30  C   UNL     1     -45.907  44.033  25.543  1.00  0.00    -0.019 A 
ATOM     31  C   UNL     1     -43.482  44.787  24.403  1.00  0.00     0.014 A 
ATOM     32  C   UNL     1     -45.865  45.007  24.625  1.00  0.00    -0.057 A 
ATOM     33  H   UNL     1     -46.829  43.711  26.010  1.00  0.00     0.066 H 
ATOM     34  C   UNL     1     -44.614  45.398  24.034  1.00  0.00    -0.045 A 
ATOM     35  H   UNL     1     -42.524  45.066  23.970  1.00  0.00     0.082 H 
ATOM     36  H   UNL     1     -46.769  45.518  24.310  1.00  0.00     0.062 H 
ATOM     37  H   UNL     1     -44.609  46.191  23.294  1.00  0.00     0.064 H 
ENDBRANCH  20  22
ENDBRANCH  15  18
ENDBRANCH   1  15
BRANCH   6  38
ATOM     38  C   UNL     1     -46.912  32.196  26.071  1.00  0.00     0.036 C 
ATOM     39  H   UNL     1     -47.882  31.972  25.609  1.00  0.00     0.049 H 
ATOM     40  H   UNL     1     -46.819  31.503  26.916  1.00  0.00     0.049 H 
BRANCH  38  41
ATOM     41  N   UNL     1     -45.873  31.963  25.071  1.00  0.00    -0.308 NA
ATOM     42  H   UNL     1     -45.493  31.028  25.208  1.00  0.00     0.123 HD
BRANCH  41  43
ATOM     43  C   UNL     1     -46.390  32.074  23.695  1.00  0.00     0.030 C 
ATOM     44  H   UNL     1     -47.096  32.909  23.626  1.00  0.00     0.046 H 
ATOM     45  H   UNL     1     -45.560  32.290  23.012  1.00  0.00     0.046 H 
BRANCH  43  46
ATOM     46  C   UNL     1     -47.092  30.804  23.190  1.00  0.00     0.123 C 
ATOM     47  F   UNL     1     -46.601  29.755  23.906  1.00  0.00    -0.242 F 
ATOM     48  C   UNL     1     -47.117  30.539  21.653  1.00  0.00    -0.017 C 
ATOM     49  C   UNL     1     -48.650  30.825  23.114  1.00  0.00    -0.017 C 
ATOM     50  C   UNL     1     -48.524  29.944  21.854  1.00  0.00    -0.047 C 
ATOM     51  H   UNL     1     -46.363  29.837  21.286  1.00  0.00     0.030 H 
ATOM     52  H   UNL     1     -47.108  31.429  21.015  1.00  0.00     0.030 H 
ATOM     53  H   UNL     1     -49.100  31.804  22.919  1.00  0.00     0.030 H 
ATOM     54  H   UNL     1     -49.167  30.361  23.958  1.00  0.00     0.030 H 
ATOM     55  H   UNL     1     -49.246  30.147  21.058  1.00  0.00     0.027 H 
ATOM     56  H   UNL     1     -48.523  28.869  22.068  1.00  0.00     0.027 H 
ENDBRANCH  43  46
ENDBRANCH  41  43
ENDBRANCH  38  41
ENDBRANCH   6  38
TORSDOF 7
ENDMDL
MODEL 7
REMARK VINA RESULT:      -9.7      3.761     11.679
REMARK SMILES O=C(NCc1ccc2cc(CNCC3(F)CCC3)[nH]c2c1)c1cc(=O)n2ccccc2n1
REMARK SMILES IDX 5 1 6 2 7 3 8 4 9 5 10 6 19 7 20 8 21 9 4 15 3 18 1 19 2 20
REMARK SMILES IDX 22 22 23 23 32 24 24 25 31 27 25 28 26 29 30 30 27 31 29 32
REMARK SMILES IDX 28 34 11 38 12 41 13 43 14 46 15 47 16 48 18 49 17 50
REMARK H PARENT 6 10 7 11 9 12 19 13 21 14 4 16 4 17 3 21 23 26 30 33 27 35
REMARK H PARENT 29 36 28 37 11 39 11 40 12 42 13 44 13 45 16 51 16 52 18 53
REMARK H PARENT 18 54 17 55 17 56
REMARK Flexibility Score: inf
ROOT
ATOM      1  C   UNL     1     -46.732  33.672  25.568  1.00  0.00    -0.027 A 
ATOM      2  C   UNL     1     -48.092  33.877  25.838  1.00  0.00    -0.057 A 
ATOM      3  C   UNL     1     -48.508  34.749  26.851  1.00  0.00    -0.052 A 
ATOM      4  C   UNL     1     -47.541  35.430  27.612  1.00  0.00    -0.000 A 
ATOM      5  C   UNL     1     -47.603  36.360  28.686  1.00  0.00    -0.032 A 
ATOM      6  C   UNL     1     -46.311  36.700  29.036  1.00  0.00     0.030 A 
ATOM      7  N   UNL     1     -45.470  35.985  28.217  1.00  0.00    -0.357 N 
ATOM      8  C   UNL     1     -46.193  35.211  27.337  1.00  0.00     0.046 A 
ATOM      9  C   UNL     1     -45.757  34.339  26.330  1.00  0.00    -0.033 A 
ATOM     10  H   UNL     1     -48.846  33.348  25.255  1.00  0.00     0.063 H 
ATOM     11  H   UNL     1     -49.567  34.895  27.043  1.00  0.00     0.063 H 
ATOM     12  H   UNL     1     -48.503  36.746  29.148  1.00  0.00     0.065 H 
ATOM     13  H   UNL     1     -44.461  36.021  28.247  1.00  0.00     0.166 HD
ATOM     14  H   UNL     1     -44.699  34.186  26.145  1.00  0.00     0.065 H 
ENDROOT
BRANCH   1  15
ATOM     15  C   UNL     1     -46.320  32.707  24.484  1.00  0.00     0.043 C 
ATOM     16  H   UNL     1     -45.234  32.564  24.493  1.00  0.00     0.054 H 
ATOM     17  H   UNL     1     -46.588  33.107  23.499  1.00  0.00     0.054 H 
BRANCH  15  18
ATOM     18  N   UNL     1     -46.923  31.415  24.693  1.00  0.00    -0.347 N 
ATOM     19  O   UNL     1     -47.416  30.978  22.489  1.00  0.00    -0.268 OA
ATOM     20  C   UNL     1     -47.487  30.685  23.676  1.00  0.00     0.270 C 
ATOM     21  H   UNL     1     -47.155  31.120  25.636  1.00  0.00     0.164 HD
BRANCH  20  22
ATOM     22  C   UNL     1     -48.228  29.472  24.184  1.00  0.00     0.136 A 
ATOM     23  C   UNL     1     -49.555  29.486  24.045  1.00  0.00     0.035 A 
ATOM     24  N   UNL     1     -47.508  28.444  24.753  1.00  0.00    -0.225 NA
ATOM     25  C   UNL     1     -50.318  28.329  24.529  1.00  0.00     0.258 A 
ATOM     26  H   UNL     1     -50.110  30.300  23.596  1.00  0.00     0.071 H 
ATOM     27  C   UNL     1     -48.188  27.426  25.184  1.00  0.00     0.140 A 
ATOM     28  O   UNL     1     -51.542  28.331  24.400  1.00  0.00    -0.269 OA
ATOM     29  N   UNL     1     -49.571  27.311  25.103  1.00  0.00    -0.268 N 
ATOM     30  C   UNL     1     -47.451  26.292  25.813  1.00  0.00    -0.019 A 
ATOM     31  C   UNL     1     -50.224  26.181  25.588  1.00  0.00     0.014 A 
ATOM     32  C   UNL     1     -48.125  25.227  26.265  1.00  0.00    -0.057 A 
ATOM     33  H   UNL     1     -46.374  26.373  25.882  1.00  0.00     0.066 H 
ATOM     34  C   UNL     1     -49.556  25.167  26.150  1.00  0.00    -0.045 A 
ATOM     35  H   UNL     1     -51.307  26.159  25.490  1.00  0.00     0.082 H 
ATOM     36  H   UNL     1     -47.607  24.392  26.726  1.00  0.00     0.062 H 
ATOM     37  H   UNL     1     -50.077  24.292  26.525  1.00  0.00     0.064 H 
ENDBRANCH  20  22
ENDBRANCH  15  18
ENDBRANCH   1  15
BRANCH   6  38
ATOM     38  C   UNL     1     -45.792  37.622  30.083  1.00  0.00     0.036 C 
ATOM     39  H   UNL     1     -45.264  37.035  30.846  1.00  0.00     0.049 H 
ATOM     40  H   UNL     1     -46.614  38.122  30.609  1.00  0.00     0.049 H 
BRANCH  38  41
ATOM     41  N   UNL     1     -44.847  38.587  29.526  1.00  0.00    -0.308 NA
ATOM     42  H   UNL     1     -44.020  38.086  29.206  1.00  0.00     0.123 HD
BRANCH  41  43
ATOM     43  C   UNL     1     -45.421  39.338  28.395  1.00  0.00     0.030 C 
ATOM     44  H   UNL     1     -45.958  38.656  27.725  1.00  0.00     0.046 H 
ATOM     45  H   UNL     1     -46.149  40.065  28.774  1.00  0.00     0.046 H 
BRANCH  43  46
ATOM     46  C   UNL     1     -44.381  40.108  27.568  1.00  0.00     0.123 C 
ATOM     47  F   UNL     1     -43.913  39.261  26.609  1.00  0.00    -0.242 F 
ATOM     48  C   UNL     1     -43.245  40.860  28.329  1.00  0.00    -0.017 C 
ATOM     49  C   UNL     1     -44.797  41.504  27.009  1.00  0.00    -0.017 C 
ATOM     50  C   UNL     1     -43.338  41.947  27.241  1.00  0.00    -0.047 C 
ATOM     51  H   UNL     1     -42.288  40.334  28.380  1.00  0.00     0.030 H 
ATOM     52  H   UNL     1     -43.500  41.223  29.330  1.00  0.00     0.030 H 
ATOM     53  H   UNL     1     -45.523  42.057  27.613  1.00  0.00     0.030 H 
ATOM     54  H   UNL     1     -45.126  41.513  25.966  1.00  0.00     0.030 H 
ATOM     55  H   UNL     1     -43.203  42.977  27.583  1.00  0.00     0.027 H 
ATOM     56  H   UNL     1     -42.682  41.769  26.381  1.00  0.00     0.027 H 
ENDBRANCH  43  46
ENDBRANCH  41  43
ENDBRANCH  38  41
ENDBRANCH   6  38
TORSDOF 7
ENDMDL
