MODEL 1
REMARK VINA RESULT:     -10.8      0.000      0.000
REMARK SMILES c1cc2cc(-c3cn(Cc4ccc5cc(CNCC6CCC6)[nH]c5c4)cn3)cnc2[nH]1
REMARK SMILES IDX 10 1 11 2 12 3 13 4 14 5 15 6 23 7 24 8 25 9 9 15 8 18 6 19
REMARK SMILES IDX 7 20 27 21 26 23 5 25 1 26 2 27 31 28 3 30 30 32 4 34 29 35
REMARK SMILES IDX 28 37 16 39 17 42 18 44 19 47 20 48 22 49 21 51
REMARK H PARENT 11 10 12 11 14 12 23 13 25 14 9 16 9 17 7 22 26 24 1 29 2 31
REMARK H PARENT 31 33 4 36 28 38 16 40 16 41 17 43 18 45 18 46 19 50 20 52
REMARK H PARENT 20 53 22 54 22 55 21 56 21 57
REMARK Flexibility Score: inf
ROOT
ATOM      1  C   UNL     1     -47.798  35.734  26.984  1.00  0.00    -0.026 A 
ATOM      2  C   UNL     1     -46.504  35.508  26.491  1.00  0.00    -0.056 A 
ATOM      3  C   UNL     1     -46.167  34.302  25.862  1.00  0.00    -0.052 A 
ATOM      4  C   UNL     1     -47.145  33.300  25.722  1.00  0.00    -0.000 A 
ATOM      5  C   UNL     1     -47.150  31.996  25.153  1.00  0.00    -0.032 A 
ATOM      6  C   UNL     1     -48.417  31.470  25.305  1.00  0.00     0.030 A 
ATOM      7  N   UNL     1     -49.176  32.420  25.946  1.00  0.00    -0.357 N 
ATOM      8  C   UNL     1     -48.425  33.540  26.216  1.00  0.00     0.046 A 
ATOM      9  C   UNL     1     -48.781  34.735  26.852  1.00  0.00    -0.033 A 
ATOM     10  H   UNL     1     -45.735  36.272  26.589  1.00  0.00     0.063 H 
ATOM     11  H   UNL     1     -45.162  34.145  25.484  1.00  0.00     0.063 H 
ATOM     12  H   UNL     1     -46.313  31.500  24.679  1.00  0.00     0.065 H 
ATOM     13  H   UNL     1     -50.145  32.286  26.203  1.00  0.00     0.166 HD
ATOM     14  H   UNL     1     -49.791  34.885  27.222  1.00  0.00     0.065 H 
ENDROOT
BRANCH   1  15
ATOM     15  C   UNL     1     -48.129  37.039  27.665  1.00  0.00     0.049 C 
ATOM     16  H   UNL     1     -48.610  36.880  28.637  1.00  0.00     0.055 H 
ATOM     17  H   UNL     1     -48.823  37.619  27.045  1.00  0.00     0.055 H 
BRANCH  15  18
ATOM     18  N   UNL     1     -46.944  37.844  27.911  1.00  0.00    -0.332 N 
ATOM     19  C   UNL     1     -45.359  39.342  27.772  1.00  0.00     0.090 A 
ATOM     20  C   UNL     1     -46.457  38.838  27.105  1.00  0.00     0.032 A 
ATOM     21  N   UNL     1     -45.188  38.675  28.967  1.00  0.00    -0.237 NA
ATOM     22  H   UNL     1     -46.919  39.088  26.160  1.00  0.00     0.084 H 
ATOM     23  C   UNL     1     -46.150  37.782  29.019  1.00  0.00     0.096 A 
ATOM     24  H   UNL     1     -46.313  37.078  29.824  1.00  0.00     0.104 H 
BRANCH  19  25
ATOM     25  C   UNL     1     -44.485  40.414  27.333  1.00  0.00     0.021 A 
ATOM     26  C   UNL     1     -42.510  43.807  24.965  1.00  0.00     0.003 A 
ATOM     27  C   UNL     1     -43.617  43.026  24.703  1.00  0.00    -0.035 A 
ATOM     28  N   UNL     1     -41.992  43.408  26.171  1.00  0.00    -0.346 N 
ATOM     29  H   UNL     1     -42.049  44.607  24.401  1.00  0.00     0.082 H 
ATOM     30  C   UNL     1     -43.774  42.123  25.789  1.00  0.00     0.019 A 
ATOM     31  H   UNL     1     -44.245  43.098  23.824  1.00  0.00     0.065 H 
ATOM     32  C   UNL     1     -42.746  42.389  26.685  1.00  0.00     0.137 A 
ATOM     33  H   UNL     1     -41.181  43.788  26.635  1.00  0.00     0.167 HD
ATOM     34  C   UNL     1     -44.678  41.098  26.124  1.00  0.00    -0.040 A 
ATOM     35  N   UNL     1     -42.499  41.778  27.856  1.00  0.00    -0.238 NA
ATOM     36  H   UNL     1     -45.493  40.861  25.453  1.00  0.00     0.064 H 
ATOM     37  C   UNL     1     -43.402  40.797  28.129  1.00  0.00     0.039 A 
ATOM     38  H   UNL     1     -43.218  40.288  29.076  1.00  0.00     0.085 H 
ENDBRANCH  19  25
ENDBRANCH  15  18
ENDBRANCH   1  15
BRANCH   6  39
ATOM     39  C   UNL     1     -48.998  30.163  24.891  1.00  0.00     0.036 C 
ATOM     40  H   UNL     1     -49.927  30.012  25.450  1.00  0.00     0.049 H 
ATOM     41  H   UNL     1     -49.242  30.192  23.823  1.00  0.00     0.049 H 
BRANCH  39  42
ATOM     42  N   UNL     1     -48.033  29.102  25.173  1.00  0.00    -0.311 NA
ATOM     43  H   UNL     1     -47.315  29.155  24.448  1.00  0.00     0.123 HD
BRANCH  42  44
ATOM     44  C   UNL     1     -48.634  27.766  25.119  1.00  0.00    -0.002 C 
ATOM     45  H   UNL     1     -49.729  27.821  25.099  1.00  0.00     0.043 H 
ATOM     46  H   UNL     1     -48.333  27.322  24.162  1.00  0.00     0.043 H 
BRANCH  44  47
ATOM     47  C   UNL     1     -48.133  26.857  26.235  1.00  0.00    -0.029 C 
ATOM     48  C   UNL     1     -48.789  25.458  26.417  1.00  0.00    -0.049 C 
ATOM     49  C   UNL     1     -46.824  26.088  25.899  1.00  0.00    -0.049 C 
ATOM     50  H   UNL     1     -48.039  27.400  27.188  1.00  0.00     0.032 H 
ATOM     51  C   UNL     1     -47.380  24.917  26.731  1.00  0.00    -0.053 C 
ATOM     52  H   UNL     1     -49.511  25.372  27.232  1.00  0.00     0.027 H 
ATOM     53  H   UNL     1     -49.226  25.040  25.504  1.00  0.00     0.027 H 
ATOM     54  H   UNL     1     -46.696  25.848  24.837  1.00  0.00     0.027 H 
ATOM     55  H   UNL     1     -45.901  26.538  26.274  1.00  0.00     0.027 H 
ATOM     56  H   UNL     1     -47.159  23.916  26.350  1.00  0.00     0.027 H 
ATOM     57  H   UNL     1     -47.116  24.964  27.793  1.00  0.00     0.027 H 
ENDBRANCH  44  47
ENDBRANCH  42  44
ENDBRANCH  39  42
ENDBRANCH   6  39
TORSDOF 7
ENDMDL
MODEL 2
REMARK VINA RESULT:     -10.3      1.496      2.335
REMARK SMILES c1cc2cc(-c3cn(Cc4ccc5cc(CNCC6CCC6)[nH]c5c4)cn3)cnc2[nH]1
REMARK SMILES IDX 10 1 11 2 12 3 13 4 14 5 15 6 23 7 24 8 25 9 9 15 8 18 6 19
REMARK SMILES IDX 7 20 27 21 26 23 5 25 1 26 2 27 31 28 3 30 30 32 4 34 29 35
REMARK SMILES IDX 28 37 16 39 17 42 18 44 19 47 20 48 22 49 21 51
REMARK H PARENT 11 10 12 11 14 12 23 13 25 14 9 16 9 17 7 22 26 24 1 29 2 31
REMARK H PARENT 31 33 4 36 28 38 16 40 16 41 17 43 18 45 18 46 19 50 20 52
REMARK H PARENT 20 53 22 54 22 55 21 56 21 57
REMARK Flexibility Score: inf
ROOT
ATOM      1  C   UNL     1     -46.766  36.077  28.930  1.00  0.00    -0.026 A 
ATOM      2  C   UNL     1     -48.037  36.316  28.386  1.00  0.00    -0.056 A 
ATOM      3  C   UNL     1     -48.484  35.620  27.255  1.00  0.00    -0.052 A 
ATOM      4  C   UNL     1     -47.644  34.665  26.655  1.00  0.00    -0.000 A 
ATOM      5  C   UNL     1     -47.772  33.801  25.532  1.00  0.00    -0.032 A 
ATOM      6  C   UNL     1     -46.607  33.070  25.420  1.00  0.00     0.030 A 
ATOM      7  N   UNL     1     -45.781  33.467  26.446  1.00  0.00    -0.357 N 
ATOM      8  C   UNL     1     -46.385  34.439  27.207  1.00  0.00     0.046 A 
ATOM      9  C   UNL     1     -45.917  35.127  28.333  1.00  0.00    -0.033 A 
ATOM     10  H   UNL     1     -48.701  37.051  28.836  1.00  0.00     0.063 H 
ATOM     11  H   UNL     1     -49.472  35.816  26.848  1.00  0.00     0.063 H 
ATOM     12  H   UNL     1     -48.631  33.722  24.878  1.00  0.00     0.065 H 
ATOM     13  H   UNL     1     -44.848  33.103  26.589  1.00  0.00     0.166 HD
ATOM     14  H   UNL     1     -44.929  34.920  28.735  1.00  0.00     0.065 H 
ENDROOT
BRANCH   1  15
ATOM     15  C   UNL     1     -46.307  36.849  30.143  1.00  0.00     0.049 C 
ATOM     16  H   UNL     1     -45.850  36.194  30.893  1.00  0.00     0.055 H 
ATOM     17  H   UNL     1     -47.164  37.344  30.616  1.00  0.00     0.055 H 
BRANCH  15  18
ATOM     18  N   UNL     1     -45.316  37.858  29.807  1.00  0.00    -0.332 N 
ATOM     19  C   UNL     1     -44.229  39.494  28.851  1.00  0.00     0.090 A 
ATOM     20  C   UNL     1     -45.335  38.681  28.713  1.00  0.00     0.032 A 
ATOM     21  N   UNL     1     -43.556  39.180  30.013  1.00  0.00    -0.237 NA
ATOM     22  H   UNL     1     -46.108  38.615  27.959  1.00  0.00     0.084 H 
ATOM     23  C   UNL     1     -44.230  38.195  30.561  1.00  0.00     0.096 A 
ATOM     24  H   UNL     1     -43.976  37.697  31.488  1.00  0.00     0.104 H 
BRANCH  19  25
ATOM     25  C   UNL     1     -43.795  40.541  27.944  1.00  0.00     0.021 A 
ATOM     26  C   UNL     1     -43.357  43.386  24.376  1.00  0.00     0.003 A 
ATOM     27  C   UNL     1     -44.228  42.345  24.620  1.00  0.00    -0.035 A 
ATOM     28  N   UNL     1     -42.522  43.496  25.459  1.00  0.00    -0.346 N 
ATOM     29  H   UNL     1     -43.258  44.054  23.531  1.00  0.00     0.082 H 
ATOM     30  C   UNL     1     -43.910  41.806  25.896  1.00  0.00     0.019 A 
ATOM     31  H   UNL     1     -45.010  42.009  23.951  1.00  0.00     0.065 H 
ATOM     32  C   UNL     1     -42.843  42.546  26.390  1.00  0.00     0.137 A 
ATOM     33  H   UNL     1     -41.776  44.164  25.581  1.00  0.00     0.167 HD
ATOM     34  C   UNL     1     -44.405  40.764  26.702  1.00  0.00    -0.040 A 
ATOM     35  N   UNL     1     -42.210  42.391  27.565  1.00  0.00    -0.238 NA
ATOM     36  H   UNL     1     -45.236  40.165  26.353  1.00  0.00     0.064 H 
ATOM     37  C   UNL     1     -42.729  41.371  28.302  1.00  0.00     0.039 A 
ATOM     38  H   UNL     1     -42.228  41.228  29.260  1.00  0.00     0.085 H 
ENDBRANCH  19  25
ENDBRANCH  15  18
ENDBRANCH   1  15
BRANCH   6  39
ATOM     39  C   UNL     1     -46.191  32.017  24.454  1.00  0.00     0.036 C 
ATOM     40  H   UNL     1     -46.175  32.460  23.454  1.00  0.00     0.049 H 
ATOM     41  H   UNL     1     -45.175  31.678  24.694  1.00  0.00     0.049 H 
BRANCH  39  42
ATOM     42  N   UNL     1     -47.137  30.905  24.525  1.00  0.00    -0.311 NA
ATOM     43  H   UNL     1     -46.883  30.352  25.346  1.00  0.00     0.123 HD
BRANCH  42  44
ATOM     44  C   UNL     1     -47.067  30.031  23.351  1.00  0.00    -0.002 C 
ATOM     45  H   UNL     1     -47.486  30.520  22.464  1.00  0.00     0.043 H 
ATOM     46  H   UNL     1     -46.003  29.871  23.138  1.00  0.00     0.043 H 
BRANCH  44  47
ATOM     47  C   UNL     1     -47.704  28.669  23.600  1.00  0.00    -0.029 C 
ATOM     48  C   UNL     1     -46.820  27.514  24.153  1.00  0.00    -0.049 C 
ATOM     49  C   UNL     1     -48.496  28.565  24.934  1.00  0.00    -0.049 C 
ATOM     50  H   UNL     1     -48.322  28.349  22.748  1.00  0.00     0.032 H 
ATOM     51  C   UNL     1     -48.025  27.101  25.020  1.00  0.00    -0.053 C 
ATOM     52  H   UNL     1     -46.497  26.768  23.422  1.00  0.00     0.027 H 
ATOM     53  H   UNL     1     -45.953  27.845  24.736  1.00  0.00     0.027 H 
ATOM     54  H   UNL     1     -48.112  29.196  25.744  1.00  0.00     0.027 H 
ATOM     55  H   UNL     1     -49.577  28.710  24.856  1.00  0.00     0.027 H 
ATOM     56  H   UNL     1     -47.787  26.736  26.024  1.00  0.00     0.027 H 
ATOM     57  H   UNL     1     -48.699  26.390  24.530  1.00  0.00     0.027 H 
ENDBRANCH  44  47
ENDBRANCH  42  44
ENDBRANCH  39  42
ENDBRANCH   6  39
TORSDOF 7
ENDMDL
MODEL 3
REMARK VINA RESULT:      -9.9      1.684     11.791
REMARK SMILES c1cc2cc(-c3cn(Cc4ccc5cc(CNCC6CCC6)[nH]c5c4)cn3)cnc2[nH]1
REMARK SMILES IDX 10 1 11 2 12 3 13 4 14 5 15 6 23 7 24 8 25 9 9 15 8 18 6 19
REMARK SMILES IDX 7 20 27 21 26 23 5 25 1 26 2 27 31 28 3 30 30 32 4 34 29 35
REMARK SMILES IDX 28 37 16 39 17 42 18 44 19 47 20 48 22 49 21 51
REMARK H PARENT 11 10 12 11 14 12 23 13 25 14 9 16 9 17 7 22 26 24 1 29 2 31
REMARK H PARENT 31 33 4 36 28 38 16 40 16 41 17 43 18 45 18 46 19 50 20 52
REMARK H PARENT 20 53 22 54 22 55 21 56 21 57
REMARK Flexibility Score: inf
ROOT
ATOM      1  C   UNL     1     -47.201  36.478  27.908  1.00  0.00    -0.026 A 
ATOM      2  C   UNL     1     -46.910  35.981  29.187  1.00  0.00    -0.056 A 
ATOM      3  C   UNL     1     -45.936  36.582  29.995  1.00  0.00    -0.052 A 
ATOM      4  C   UNL     1     -45.237  37.704  29.513  1.00  0.00    -0.000 A 
ATOM      5  C   UNL     1     -44.215  38.538  30.049  1.00  0.00    -0.032 A 
ATOM      6  C   UNL     1     -43.916  39.502  29.109  1.00  0.00     0.030 A 
ATOM      7  N   UNL     1     -44.729  39.276  28.023  1.00  0.00    -0.357 N 
ATOM      8  C   UNL     1     -45.537  38.185  28.241  1.00  0.00     0.046 A 
ATOM      9  C   UNL     1     -46.503  37.597  27.417  1.00  0.00    -0.033 A 
ATOM     10  H   UNL     1     -47.441  35.115  29.577  1.00  0.00     0.063 H 
ATOM     11  H   UNL     1     -45.725  36.186  30.984  1.00  0.00     0.063 H 
ATOM     12  H   UNL     1     -43.754  38.441  31.023  1.00  0.00     0.065 H 
ATOM     13  H   UNL     1     -44.702  39.828  27.176  1.00  0.00     0.166 HD
ATOM     14  H   UNL     1     -46.710  38.003  26.431  1.00  0.00     0.065 H 
ENDROOT
BRANCH   1  15
ATOM     15  C   UNL     1     -48.250  35.803  27.057  1.00  0.00     0.049 C 
ATOM     16  H   UNL     1     -48.651  36.480  26.294  1.00  0.00     0.055 H 
ATOM     17  H   UNL     1     -49.088  35.480  27.685  1.00  0.00     0.055 H 
BRANCH  15  18
ATOM     18  N   UNL     1     -47.722  34.645  26.355  1.00  0.00    -0.332 N 
ATOM     19  C   UNL     1     -47.497  32.687  25.411  1.00  0.00     0.090 A 
ATOM     20  C   UNL     1     -48.361  33.447  26.173  1.00  0.00     0.032 A 
ATOM     21  N   UNL     1     -46.359  33.412  25.125  1.00  0.00    -0.237 NA
ATOM     22  H   UNL     1     -49.339  33.249  26.589  1.00  0.00     0.084 H 
ATOM     23  C   UNL     1     -46.524  34.579  25.707  1.00  0.00     0.096 A 
ATOM     24  H   UNL     1     -45.815  35.397  25.690  1.00  0.00     0.104 H 
BRANCH  19  25
ATOM     25  C   UNL     1     -47.704  31.327  24.948  1.00  0.00     0.021 A 
ATOM     26  C   UNL     1     -49.184  27.019  24.434  1.00  0.00     0.003 A 
ATOM     27  C   UNL     1     -49.521  28.005  25.338  1.00  0.00    -0.035 A 
ATOM     28  N   UNL     1     -48.230  27.531  23.591  1.00  0.00    -0.346 N 
ATOM     29  H   UNL     1     -49.537  26.003  24.318  1.00  0.00     0.082 H 
ATOM     30  C   UNL     1     -48.744  29.155  25.031  1.00  0.00     0.019 A 
ATOM     31  H   UNL     1     -50.248  27.907  26.134  1.00  0.00     0.065 H 
ATOM     32  C   UNL     1     -47.952  28.825  23.938  1.00  0.00     0.137 A 
ATOM     33  H   UNL     1     -47.783  27.053  22.824  1.00  0.00     0.167 HD
ATOM     34  C   UNL     1     -48.617  30.454  25.556  1.00  0.00    -0.040 A 
ATOM     35  N   UNL     1     -47.060  29.605  23.305  1.00  0.00    -0.238 NA
ATOM     36  H   UNL     1     -49.217  30.749  26.407  1.00  0.00     0.064 H 
ATOM     37  C   UNL     1     -46.978  30.848  23.854  1.00  0.00     0.039 A 
ATOM     38  H   UNL     1     -46.258  31.497  23.355  1.00  0.00     0.085 H 
ENDBRANCH  19  25
ENDBRANCH  15  18
ENDBRANCH   1  15
BRANCH   6  39
ATOM     39  C   UNL     1     -42.949  40.635  29.130  1.00  0.00     0.036 C 
ATOM     40  H   UNL     1     -42.946  41.060  30.138  1.00  0.00     0.049 H 
ATOM     41  H   UNL     1     -41.941  40.261  28.912  1.00  0.00     0.049 H 
BRANCH  39  42
ATOM     42  N   UNL     1     -43.358  41.628  28.138  1.00  0.00    -0.311 NA
ATOM     43  H   UNL     1     -44.240  41.302  27.739  1.00  0.00     0.123 HD
BRANCH  42  44
ATOM     44  C   UNL     1     -42.389  41.764  27.047  1.00  0.00    -0.002 C 
ATOM     45  H   UNL     1     -41.359  41.705  27.418  1.00  0.00     0.043 H 
ATOM     46  H   UNL     1     -42.527  40.897  26.390  1.00  0.00     0.043 H 
BRANCH  44  47
ATOM     47  C   UNL     1     -42.619  43.022  26.218  1.00  0.00    -0.029 C 
ATOM     48  C   UNL     1     -41.587  43.395  25.115  1.00  0.00    -0.049 C 
ATOM     49  C   UNL     1     -43.642  42.850  25.060  1.00  0.00    -0.049 C 
ATOM     50  H   UNL     1     -42.882  43.883  26.852  1.00  0.00     0.032 H 
ATOM     51  C   UNL     1     -42.782  43.833  24.244  1.00  0.00    -0.053 C 
ATOM     52  H   UNL     1     -40.883  44.191  25.370  1.00  0.00     0.027 H 
ATOM     53  H   UNL     1     -41.034  42.544  24.704  1.00  0.00     0.027 H 
ATOM     54  H   UNL     1     -43.680  41.842  24.630  1.00  0.00     0.027 H 
ATOM     55  H   UNL     1     -44.662  43.180  25.275  1.00  0.00     0.027 H 
ATOM     56  H   UNL     1     -42.696  43.618  23.176  1.00  0.00     0.027 H 
ATOM     57  H   UNL     1     -43.064  44.884  24.378  1.00  0.00     0.027 H 
ENDBRANCH  44  47
ENDBRANCH  42  44
ENDBRANCH  39  42
ENDBRANCH   6  39
TORSDOF 7
ENDMDL
MODEL 4
REMARK VINA RESULT:      -9.9      1.727      2.496
REMARK SMILES c1cc2cc(-c3cn(Cc4ccc5cc(CNCC6CCC6)[nH]c5c4)cn3)cnc2[nH]1
REMARK SMILES IDX 10 1 11 2 12 3 13 4 14 5 15 6 23 7 24 8 25 9 9 15 8 18 6 19
REMARK SMILES IDX 7 20 27 21 26 23 5 25 1 26 2 27 31 28 3 30 30 32 4 34 29 35
REMARK SMILES IDX 28 37 16 39 17 42 18 44 19 47 20 48 22 49 21 51
REMARK H PARENT 11 10 12 11 14 12 23 13 25 14 9 16 9 17 7 22 26 24 1 29 2 31
REMARK H PARENT 31 33 4 36 28 38 16 40 16 41 17 43 18 45 18 46 19 50 20 52
REMARK H PARENT 20 53 22 54 22 55 21 56 21 57
REMARK Flexibility Score: inf
ROOT
ATOM      1  C   UNL     1     -47.792  35.971  27.020  1.00  0.00    -0.026 A 
ATOM      2  C   UNL     1     -46.502  35.701  26.540  1.00  0.00    -0.056 A 
ATOM      3  C   UNL     1     -46.186  34.463  25.965  1.00  0.00    -0.052 A 
ATOM      4  C   UNL     1     -47.181  33.473  25.868  1.00  0.00    -0.000 A 
ATOM      5  C   UNL     1     -47.209  32.146  25.357  1.00  0.00    -0.032 A 
ATOM      6  C   UNL     1     -48.485  31.649  25.529  1.00  0.00     0.030 A 
ATOM      7  N   UNL     1     -49.228  32.640  26.127  1.00  0.00    -0.357 N 
ATOM      8  C   UNL     1     -48.457  33.757  26.348  1.00  0.00     0.046 A 
ATOM      9  C   UNL     1     -48.792  34.985  26.931  1.00  0.00    -0.033 A 
ATOM     10  H   UNL     1     -45.720  36.454  26.607  1.00  0.00     0.063 H 
ATOM     11  H   UNL     1     -45.183  34.271  25.597  1.00  0.00     0.063 H 
ATOM     12  H   UNL     1     -46.380  31.615  24.907  1.00  0.00     0.065 H 
ATOM     13  H   UNL     1     -50.199  32.535  26.387  1.00  0.00     0.166 HD
ATOM     14  H   UNL     1     -49.800  35.169  27.292  1.00  0.00     0.065 H 
ENDROOT
BRANCH   1  15
ATOM     15  C   UNL     1     -48.100  37.311  27.644  1.00  0.00     0.049 C 
ATOM     16  H   UNL     1     -48.586  37.203  28.620  1.00  0.00     0.055 H 
ATOM     17  H   UNL     1     -48.783  37.876  26.997  1.00  0.00     0.055 H 
BRANCH  15  18
ATOM     18  N   UNL     1     -46.901  38.104  27.857  1.00  0.00    -0.332 N 
ATOM     19  C   UNL     1     -45.297  39.574  27.664  1.00  0.00     0.090 A 
ATOM     20  C   UNL     1     -46.408  39.069  27.020  1.00  0.00     0.032 A 
ATOM     21  N   UNL     1     -45.123  38.936  28.875  1.00  0.00    -0.237 NA
ATOM     22  H   UNL     1     -46.876  39.302  26.074  1.00  0.00     0.084 H 
ATOM     23  C   UNL     1     -46.098  38.059  28.959  1.00  0.00     0.096 A 
ATOM     24  H   UNL     1     -46.263  37.378  29.784  1.00  0.00     0.104 H 
BRANCH  19  25
ATOM     25  C   UNL     1     -44.411  40.621  27.189  1.00  0.00     0.021 A 
ATOM     26  C   UNL     1     -42.393  43.901  24.701  1.00  0.00     0.003 A 
ATOM     27  C   UNL     1     -43.503  43.117  24.461  1.00  0.00    -0.035 A 
ATOM     28  N   UNL     1     -41.888  43.548  25.927  1.00  0.00    -0.346 N 
ATOM     29  H   UNL     1     -41.921  44.673  24.109  1.00  0.00     0.082 H 
ATOM     30  C   UNL     1     -43.676  42.260  25.582  1.00  0.00     0.019 A 
ATOM     31  H   UNL     1     -44.123  43.158  23.575  1.00  0.00     0.065 H 
ATOM     32  C   UNL     1     -42.653  42.556  26.475  1.00  0.00     0.137 A 
ATOM     33  H   UNL     1     -41.078  43.941  26.381  1.00  0.00     0.167 HD
ATOM     34  C   UNL     1     -44.589  41.256  25.952  1.00  0.00    -0.040 A 
ATOM     35  N   UNL     1     -42.420  41.992  27.672  1.00  0.00    -0.238 NA
ATOM     36  H   UNL     1     -45.400  40.998  25.283  1.00  0.00     0.064 H 
ATOM     37  C   UNL     1     -43.332  41.029  27.978  1.00  0.00     0.039 A 
ATOM     38  H   UNL     1     -43.159  40.558  28.946  1.00  0.00     0.085 H 
ENDBRANCH  19  25
ENDBRANCH  15  18
ENDBRANCH   1  15
BRANCH   6  39
ATOM     39  C   UNL     1     -49.089  30.336  25.172  1.00  0.00     0.036 C 
ATOM     40  H   UNL     1     -48.604  29.563  25.776  1.00  0.00     0.049 H 
ATOM     41  H   UNL     1     -50.158  30.344  25.420  1.00  0.00     0.049 H 
BRANCH  39  42
ATOM     42  N   UNL     1     -48.892  30.093  23.745  1.00  0.00    -0.311 NA
ATOM     43  H   UNL     1     -49.752  29.669  23.394  1.00  0.00     0.123 HD
BRANCH  42  44
ATOM     44  C   UNL     1     -47.788  29.166  23.479  1.00  0.00    -0.002 C 
ATOM     45  H   UNL     1     -47.154  29.036  24.365  1.00  0.00     0.043 H 
ATOM     46  H   UNL     1     -48.239  28.186  23.280  1.00  0.00     0.043 H 
BRANCH  44  47
ATOM     47  C   UNL     1     -46.974  29.566  22.255  1.00  0.00    -0.029 C 
ATOM     48  C   UNL     1     -47.463  30.757  21.382  1.00  0.00    -0.049 C 
ATOM     49  C   UNL     1     -45.727  30.440  22.569  1.00  0.00    -0.049 C 
ATOM     50  H   UNL     1     -46.699  28.690  21.647  1.00  0.00     0.032 H 
ATOM     51  C   UNL     1     -45.984  31.166  21.235  1.00  0.00    -0.053 C 
ATOM     52  H   UNL     1     -47.966  30.491  20.449  1.00  0.00     0.027 H 
ATOM     53  H   UNL     1     -48.071  31.494  21.919  1.00  0.00     0.027 H 
ATOM     54  H   UNL     1     -45.834  31.088  23.446  1.00  0.00     0.027 H 
ATOM     55  H   UNL     1     -44.777  29.903  22.640  1.00  0.00     0.027 H 
ATOM     56  H   UNL     1     -45.785  32.241  21.232  1.00  0.00     0.027 H 
ATOM     57  H   UNL     1     -45.482  30.705  20.377  1.00  0.00     0.027 H 
ENDBRANCH  44  47
ENDBRANCH  42  44
ENDBRANCH  39  42
ENDBRANCH   6  39
TORSDOF 7
ENDMDL
MODEL 5
REMARK VINA RESULT:      -9.8      2.460      3.902
REMARK SMILES c1cc2cc(-c3cn(Cc4ccc5cc(CNCC6CCC6)[nH]c5c4)cn3)cnc2[nH]1
REMARK SMILES IDX 10 1 11 2 12 3 13 4 14 5 15 6 23 7 24 8 25 9 9 15 8 18 6 19
REMARK SMILES IDX 7 20 27 21 26 23 5 25 1 26 2 27 31 28 3 30 30 32 4 34 29 35
REMARK SMILES IDX 28 37 16 39 17 42 18 44 19 47 20 48 22 49 21 51
REMARK H PARENT 11 10 12 11 14 12 23 13 25 14 9 16 9 17 7 22 26 24 1 29 2 31
REMARK H PARENT 31 33 4 36 28 38 16 40 16 41 17 43 18 45 18 46 19 50 20 52
REMARK H PARENT 20 53 22 54 22 55 21 56 21 57
REMARK Flexibility Score: inf
ROOT
ATOM      1  C   UNL     1     -47.957  34.452  26.474  1.00  0.00    -0.026 A 
ATOM      2  C   UNL     1     -46.621  34.473  26.047  1.00  0.00    -0.056 A 
ATOM      3  C   UNL     1     -46.113  33.478  25.202  1.00  0.00    -0.052 A 
ATOM      4  C   UNL     1     -46.958  32.438  24.774  1.00  0.00    -0.000 A 
ATOM      5  C   UNL     1     -46.782  31.299  23.940  1.00  0.00    -0.032 A 
ATOM      6  C   UNL     1     -47.985  30.627  23.876  1.00  0.00     0.030 A 
ATOM      7  N   UNL     1     -48.883  31.329  24.645  1.00  0.00    -0.357 N 
ATOM      8  C   UNL     1     -48.282  32.431  25.207  1.00  0.00     0.046 A 
ATOM      9  C   UNL     1     -48.808  33.413  26.055  1.00  0.00    -0.033 A 
ATOM     10  H   UNL     1     -45.952  35.270  26.367  1.00  0.00     0.063 H 
ATOM     11  H   UNL     1     -45.076  33.510  24.880  1.00  0.00     0.063 H 
ATOM     12  H   UNL     1     -45.868  31.008  23.438  1.00  0.00     0.065 H 
ATOM     13  H   UNL     1     -49.842  31.044  24.790  1.00  0.00     0.166 HD
ATOM     14  H   UNL     1     -49.848  33.373  26.368  1.00  0.00     0.065 H 
ENDROOT
BRANCH   1  15
ATOM     15  C   UNL     1     -48.473  35.533  27.392  1.00  0.00     0.049 C 
ATOM     16  H   UNL     1     -49.078  35.120  28.207  1.00  0.00     0.055 H 
ATOM     17  H   UNL     1     -49.108  36.228  26.830  1.00  0.00     0.055 H 
BRANCH  15  18
ATOM     18  N   UNL     1     -47.395  36.287  28.010  1.00  0.00    -0.332 N 
ATOM     19  C   UNL     1     -45.888  37.801  28.467  1.00  0.00     0.090 A 
ATOM     20  C   UNL     1     -46.816  37.426  27.517  1.00  0.00     0.032 A 
ATOM     21  N   UNL     1     -45.909  36.914  29.523  1.00  0.00    -0.237 NA
ATOM     22  H   UNL     1     -47.106  37.852  26.567  1.00  0.00     0.084 H 
ATOM     23  C   UNL     1     -46.819  36.017  29.217  1.00  0.00     0.096 A 
ATOM     24  H   UNL     1     -47.094  35.166  29.826  1.00  0.00     0.104 H 
BRANCH  19  25
ATOM     25  C   UNL     1     -45.000  38.949  28.417  1.00  0.00     0.021 A 
ATOM     26  C   UNL     1     -41.655  41.978  29.224  1.00  0.00     0.003 A 
ATOM     27  C   UNL     1     -41.981  40.785  29.835  1.00  0.00    -0.035 A 
ATOM     28  N   UNL     1     -42.558  42.193  28.214  1.00  0.00    -0.346 N 
ATOM     29  H   UNL     1     -40.863  42.689  29.419  1.00  0.00     0.082 H 
ATOM     30  C   UNL     1     -43.123  40.258  29.170  1.00  0.00     0.019 A 
ATOM     31  H   UNL     1     -41.454  40.339  30.669  1.00  0.00     0.065 H 
ATOM     32  C   UNL     1     -43.455  41.160  28.167  1.00  0.00     0.137 A 
ATOM     33  H   UNL     1     -42.585  42.981  27.585  1.00  0.00     0.167 HD
ATOM     34  C   UNL     1     -43.924  39.110  29.301  1.00  0.00    -0.040 A 
ATOM     35  N   UNL     1     -44.466  41.074  27.287  1.00  0.00    -0.238 NA
ATOM     36  H   UNL     1     -43.697  38.383  30.070  1.00  0.00     0.064 H 
ATOM     37  C   UNL     1     -45.208  39.945  27.459  1.00  0.00     0.039 A 
ATOM     38  H   UNL     1     -46.035  39.857  26.755  1.00  0.00     0.085 H 
ENDBRANCH  19  25
ENDBRANCH  15  18
ENDBRANCH   1  15
BRANCH   6  39
ATOM     39  C   UNL     1     -48.388  29.392  23.148  1.00  0.00     0.036 C 
ATOM     40  H   UNL     1     -47.925  28.536  23.648  1.00  0.00     0.049 H 
ATOM     41  H   UNL     1     -49.477  29.273  23.202  1.00  0.00     0.049 H 
BRANCH  39  42
ATOM     42  N   UNL     1     -47.948  29.495  21.758  1.00  0.00    -0.311 NA
ATOM     43  H   UNL     1     -46.947  29.700  21.778  1.00  0.00     0.123 HD
BRANCH  42  44
ATOM     44  C   UNL     1     -48.619  30.578  21.034  1.00  0.00    -0.002 C 
ATOM     45  H   UNL     1     -48.248  31.560  21.351  1.00  0.00     0.043 H 
ATOM     46  H   UNL     1     -48.342  30.473  19.978  1.00  0.00     0.043 H 
BRANCH  44  47
ATOM     47  C   UNL     1     -50.138  30.490  21.131  1.00  0.00    -0.029 C 
ATOM     48  C   UNL     1     -50.930  31.718  21.667  1.00  0.00    -0.049 C 
ATOM     49  C   UNL     1     -50.883  30.724  19.787  1.00  0.00    -0.049 C 
ATOM     50  H   UNL     1     -50.459  29.549  21.603  1.00  0.00     0.032 H 
ATOM     51  C   UNL     1     -51.999  31.403  20.602  1.00  0.00    -0.053 C 
ATOM     52  H   UNL     1     -51.273  31.650  22.702  1.00  0.00     0.027 H 
ATOM     53  H   UNL     1     -50.430  32.681  21.516  1.00  0.00     0.027 H 
ATOM     54  H   UNL     1     -50.372  31.403  19.094  1.00  0.00     0.027 H 
ATOM     55  H   UNL     1     -51.176  29.821  19.244  1.00  0.00     0.027 H 
ATOM     56  H   UNL     1     -52.472  32.269  20.131  1.00  0.00     0.027 H 
ATOM     57  H   UNL     1     -52.777  30.712  20.948  1.00  0.00     0.027 H 
ENDBRANCH  44  47
ENDBRANCH  42  44
ENDBRANCH  39  42
ENDBRANCH   6  39
TORSDOF 7
ENDMDL
MODEL 6
REMARK VINA RESULT:      -9.8      2.328      3.294
REMARK SMILES c1cc2cc(-c3cn(Cc4ccc5cc(CNCC6CCC6)[nH]c5c4)cn3)cnc2[nH]1
REMARK SMILES IDX 10 1 11 2 12 3 13 4 14 5 15 6 23 7 24 8 25 9 9 15 8 18 6 19
REMARK SMILES IDX 7 20 27 21 26 23 5 25 1 26 2 27 31 28 3 30 30 32 4 34 29 35
REMARK SMILES IDX 28 37 16 39 17 42 18 44 19 47 20 48 22 49 21 51
REMARK H PARENT 11 10 12 11 14 12 23 13 25 14 9 16 9 17 7 22 26 24 1 29 2 31
REMARK H PARENT 31 33 4 36 28 38 16 40 16 41 17 43 18 45 18 46 19 50 20 52
REMARK H PARENT 20 53 22 54 22 55 21 56 21 57
REMARK Flexibility Score: inf
ROOT
ATOM      1  C   UNL     1     -46.599  35.494  28.003  1.00  0.00    -0.026 A 
ATOM      2  C   UNL     1     -47.975  35.478  27.727  1.00  0.00    -0.056 A 
ATOM      3  C   UNL     1     -48.509  34.628  26.751  1.00  0.00    -0.052 A 
ATOM      4  C   UNL     1     -47.651  33.774  26.034  1.00  0.00    -0.000 A 
ATOM      5  C   UNL     1     -47.847  32.810  25.006  1.00  0.00    -0.032 A 
ATOM      6  C   UNL     1     -46.618  32.270  24.688  1.00  0.00     0.030 A 
ATOM      7  N   UNL     1     -45.687  32.879  25.497  1.00  0.00    -0.357 N 
ATOM      8  C   UNL     1     -46.288  33.801  26.320  1.00  0.00     0.046 A 
ATOM      9  C   UNL     1     -45.733  34.647  27.287  1.00  0.00    -0.033 A 
ATOM     10  H   UNL     1     -48.654  36.132  28.271  1.00  0.00     0.063 H 
ATOM     11  H   UNL     1     -49.577  34.627  26.551  1.00  0.00     0.063 H 
ATOM     12  H   UNL     1     -48.792  32.539  24.553  1.00  0.00     0.065 H 
ATOM     13  H   UNL     1     -44.695  32.683  25.458  1.00  0.00     0.166 HD
ATOM     14  H   UNL     1     -44.664  34.637  27.482  1.00  0.00     0.065 H 
ENDROOT
BRANCH   1  15
ATOM     15  C   UNL     1     -46.051  36.429  29.053  1.00  0.00     0.049 C 
ATOM     16  H   UNL     1     -45.010  36.194  29.303  1.00  0.00     0.055 H 
ATOM     17  H   UNL     1     -46.639  36.341  29.975  1.00  0.00     0.055 H 
BRANCH  15  18
ATOM     18  N   UNL     1     -46.075  37.815  28.619  1.00  0.00    -0.332 N 
ATOM     19  C   UNL     1     -45.613  39.718  27.649  1.00  0.00     0.090 A 
ATOM     20  C   UNL     1     -45.137  38.437  27.836  1.00  0.00     0.032 A 
ATOM     21  N   UNL     1     -46.822  39.872  28.294  1.00  0.00    -0.237 NA
ATOM     22  H   UNL     1     -44.246  37.928  27.496  1.00  0.00     0.084 H 
ATOM     23  C   UNL     1     -47.069  38.716  28.868  1.00  0.00     0.096 A 
ATOM     24  H   UNL     1     -47.940  38.483  29.467  1.00  0.00     0.104 H 
BRANCH  19  25
ATOM     25  C   UNL     1     -44.981  40.783  26.892  1.00  0.00     0.021 A 
ATOM     26  C   UNL     1     -41.964  43.741  25.112  1.00  0.00     0.003 A 
ATOM     27  C   UNL     1     -41.820  42.722  26.031  1.00  0.00    -0.035 A 
ATOM     28  N   UNL     1     -43.283  43.783  24.736  1.00  0.00    -0.346 N 
ATOM     29  H   UNL     1     -41.248  44.437  24.696  1.00  0.00     0.082 H 
ATOM     30  C   UNL     1     -43.097  42.126  26.217  1.00  0.00     0.019 A 
ATOM     31  H   UNL     1     -40.894  42.437  26.515  1.00  0.00     0.065 H 
ATOM     32  C   UNL     1     -43.984  42.811  25.396  1.00  0.00     0.137 A 
ATOM     33  H   UNL     1     -43.703  44.421  24.078  1.00  0.00     0.167 HD
ATOM     34  C   UNL     1     -43.613  41.073  26.994  1.00  0.00    -0.040 A 
ATOM     35  N   UNL     1     -45.301  42.591  25.247  1.00  0.00    -0.238 NA
ATOM     36  H   UNL     1     -42.953  40.514  27.645  1.00  0.00     0.064 H 
ATOM     37  C   UNL     1     -45.746  41.564  26.020  1.00  0.00     0.039 A 
ATOM     38  H   UNL     1     -46.813  41.371  25.914  1.00  0.00     0.085 H 
ENDBRANCH  19  25
ENDBRANCH  15  18
ENDBRANCH   1  15
BRANCH   6  39
ATOM     39  C   UNL     1     -46.224  31.220  23.708  1.00  0.00     0.036 C 
ATOM     40  H   UNL     1     -46.553  31.542  22.715  1.00  0.00     0.049 H 
ATOM     41  H   UNL     1     -45.132  31.123  23.693  1.00  0.00     0.049 H 
BRANCH  39  42
ATOM     42  N   UNL     1     -46.851  29.955  24.088  1.00  0.00    -0.311 NA
ATOM     43  H   UNL     1     -46.098  29.274  24.202  1.00  0.00     0.123 HD
BRANCH  42  44
ATOM     44  C   UNL     1     -47.768  29.451  23.062  1.00  0.00    -0.002 C 
ATOM     45  H   UNL     1     -47.334  28.600  22.523  1.00  0.00     0.043 H 
ATOM     46  H   UNL     1     -48.649  29.063  23.588  1.00  0.00     0.043 H 
BRANCH  44  47
ATOM     47  C   UNL     1     -48.234  30.545  22.110  1.00  0.00    -0.029 C 
ATOM     48  C   UNL     1     -48.714  30.147  20.684  1.00  0.00    -0.049 C 
ATOM     49  C   UNL     1     -49.690  31.033  22.353  1.00  0.00    -0.049 C 
ATOM     50  H   UNL     1     -47.532  31.393  22.091  1.00  0.00     0.032 H 
ATOM     51  C   UNL     1     -49.810  31.222  20.830  1.00  0.00    -0.053 C 
ATOM     52  H   UNL     1     -48.000  30.320  19.874  1.00  0.00     0.027 H 
ATOM     53  H   UNL     1     -49.106  29.128  20.606  1.00  0.00     0.027 H 
ATOM     54  H   UNL     1     -50.366  30.268  22.753  1.00  0.00     0.027 H 
ATOM     55  H   UNL     1     -49.792  31.942  22.952  1.00  0.00     0.027 H 
ATOM     56  H   UNL     1     -50.781  30.973  20.394  1.00  0.00     0.027 H 
ATOM     57  H   UNL     1     -49.504  32.215  20.482  1.00  0.00     0.027 H 
ENDBRANCH  44  47
ENDBRANCH  42  44
ENDBRANCH  39  42
ENDBRANCH   6  39
TORSDOF 7
ENDMDL
MODEL 7
REMARK VINA RESULT:      -9.8      2.347      3.769
REMARK SMILES c1cc2cc(-c3cn(Cc4ccc5cc(CNCC6CCC6)[nH]c5c4)cn3)cnc2[nH]1
REMARK SMILES IDX 10 1 11 2 12 3 13 4 14 5 15 6 23 7 24 8 25 9 9 15 8 18 6 19
REMARK SMILES IDX 7 20 27 21 26 23 5 25 1 26 2 27 31 28 3 30 30 32 4 34 29 35
REMARK SMILES IDX 28 37 16 39 17 42 18 44 19 47 20 48 22 49 21 51
REMARK H PARENT 11 10 12 11 14 12 23 13 25 14 9 16 9 17 7 22 26 24 1 29 2 31
REMARK H PARENT 31 33 4 36 28 38 16 40 16 41 17 43 18 45 18 46 19 50 20 52
REMARK H PARENT 20 53 22 54 22 55 21 56 21 57
REMARK Flexibility Score: inf
ROOT
ATOM      1  C   UNL     1     -45.368  37.847  28.587  1.00  0.00    -0.026 A 
ATOM      2  C   UNL     1     -46.247  38.364  27.623  1.00  0.00    -0.056 A 
ATOM      3  C   UNL     1     -46.906  37.523  26.717  1.00  0.00    -0.052 A 
ATOM      4  C   UNL     1     -46.681  36.136  26.774  1.00  0.00    -0.000 A 
ATOM      5  C   UNL     1     -47.168  35.023  26.031  1.00  0.00    -0.032 A 
ATOM      6  C   UNL     1     -46.592  33.881  26.548  1.00  0.00     0.030 A 
ATOM      7  N   UNL     1     -45.774  34.272  27.583  1.00  0.00    -0.357 N 
ATOM      8  C   UNL     1     -45.807  35.638  27.737  1.00  0.00     0.046 A 
ATOM      9  C   UNL     1     -45.135  36.461  28.648  1.00  0.00    -0.033 A 
ATOM     10  H   UNL     1     -46.434  39.435  27.564  1.00  0.00     0.063 H 
ATOM     11  H   UNL     1     -47.584  37.940  25.978  1.00  0.00     0.063 H 
ATOM     12  H   UNL     1     -47.869  35.060  25.208  1.00  0.00     0.065 H 
ATOM     13  H   UNL     1     -45.211  33.632  28.127  1.00  0.00     0.166 HD
ATOM     14  H   UNL     1     -44.462  36.034  29.386  1.00  0.00     0.065 H 
ENDROOT
BRANCH   1  15
ATOM     15  C   UNL     1     -44.666  38.779  29.545  1.00  0.00     0.049 C 
ATOM     16  H   UNL     1     -43.949  38.245  30.179  1.00  0.00     0.055 H 
ATOM     17  H   UNL     1     -45.399  39.257  30.205  1.00  0.00     0.055 H 
BRANCH  15  18
ATOM     18  N   UNL     1     -43.921  39.816  28.851  1.00  0.00    -0.332 N 
ATOM     19  C   UNL     1     -43.266  41.319  27.406  1.00  0.00     0.090 A 
ATOM     20  C   UNL     1     -44.211  40.336  27.617  1.00  0.00     0.032 A 
ATOM     21  N   UNL     1     -42.423  41.404  28.495  1.00  0.00    -0.237 NA
ATOM     22  H   UNL     1     -45.036  39.972  27.021  1.00  0.00     0.084 H 
ATOM     23  C   UNL     1     -42.839  40.489  29.341  1.00  0.00     0.096 A 
ATOM     24  H   UNL     1     -42.399  40.276  30.306  1.00  0.00     0.104 H 
BRANCH  19  25
ATOM     25  C   UNL     1     -43.134  42.169  26.237  1.00  0.00     0.021 A 
ATOM     26  C   UNL     1     -43.927  44.540  22.394  1.00  0.00     0.003 A 
ATOM     27  C   UNL     1     -44.741  43.730  23.159  1.00  0.00    -0.035 A 
ATOM     28  N   UNL     1     -42.688  44.564  22.983  1.00  0.00    -0.346 N 
ATOM     29  H   UNL     1     -44.120  45.097  21.487  1.00  0.00     0.082 H 
ATOM     30  C   UNL     1     -43.967  43.248  24.250  1.00  0.00     0.019 A 
ATOM     31  H   UNL     1     -45.781  43.510  22.955  1.00  0.00     0.065 H 
ATOM     32  C   UNL     1     -42.695  43.787  24.108  1.00  0.00     0.137 A 
ATOM     33  H   UNL     1     -41.876  45.067  22.659  1.00  0.00     0.167 HD
ATOM     34  C   UNL     1     -44.197  42.408  25.354  1.00  0.00    -0.040 A 
ATOM     35  N   UNL     1     -41.632  43.604  24.910  1.00  0.00    -0.238 NA
ATOM     36  H   UNL     1     -45.176  41.969  25.500  1.00  0.00     0.064 H 
ATOM     37  C   UNL     1     -41.910  42.784  25.960  1.00  0.00     0.039 A 
ATOM     38  H   UNL     1     -41.059  42.622  26.622  1.00  0.00     0.085 H 
ENDBRANCH  19  25
ENDBRANCH  15  18
ENDBRANCH   1  15
BRANCH   6  39
ATOM     39  C   UNL     1     -46.743  32.446  26.180  1.00  0.00     0.036 C 
ATOM     40  H   UNL     1     -46.593  31.846  27.083  1.00  0.00     0.049 H 
ATOM     41  H   UNL     1     -47.762  32.267  25.815  1.00  0.00     0.049 H 
BRANCH  39  42
ATOM     42  N   UNL     1     -45.759  32.112  25.153  1.00  0.00    -0.311 NA
ATOM     43  H   UNL     1     -45.059  32.856  25.160  1.00  0.00     0.123 HD
BRANCH  42  44
ATOM     44  C   UNL     1     -46.345  32.053  23.811  1.00  0.00    -0.002 C 
ATOM     45  H   UNL     1     -47.297  32.596  23.767  1.00  0.00     0.043 H 
ATOM     46  H   UNL     1     -45.659  32.587  23.142  1.00  0.00     0.043 H 
BRANCH  44  47
ATOM     47  C   UNL     1     -46.484  30.625  23.298  1.00  0.00    -0.029 C 
ATOM     48  C   UNL     1     -47.558  29.697  23.937  1.00  0.00    -0.049 C 
ATOM     49  C   UNL     1     -47.298  30.491  21.980  1.00  0.00    -0.049 C 
ATOM     50  H   UNL     1     -45.505  30.129  23.209  1.00  0.00     0.032 H 
ATOM     51  C   UNL     1     -47.823  29.148  22.521  1.00  0.00    -0.053 C 
ATOM     52  H   UNL     1     -47.187  28.964  24.657  1.00  0.00     0.027 H 
ATOM     53  H   UNL     1     -48.414  30.226  24.370  1.00  0.00     0.027 H 
ATOM     54  H   UNL     1     -48.082  31.246  21.850  1.00  0.00     0.027 H 
ATOM     55  H   UNL     1     -46.708  30.433  21.062  1.00  0.00     0.027 H 
ATOM     56  H   UNL     1     -48.866  28.915  22.288  1.00  0.00     0.027 H 
ATOM     57  H   UNL     1     -47.196  28.289  22.256  1.00  0.00     0.027 H 
ENDBRANCH  44  47
ENDBRANCH  42  44
ENDBRANCH  39  42
ENDBRANCH   6  39
TORSDOF 7
ENDMDL
