MODEL 1
REMARK VINA RESULT:     -10.1      0.000      0.000
REMARK SMILES C[C@]12C[C@](CNCc3cc4ccc(CNC(=O)c5cc(=O)n6ccccc6n5)cc4[nH]3)(C1)C2
REMARK SMILES IDX 7 1 6 4 5 6 4 9 2 10 3 11 33 12 32 13 1 20 8 24 9 25 31 26
REMARK SMILES IDX 10 27 30 29 11 31 29 32 12 33 13 35 14 38 15 41 16 42 17 44
REMARK SMILES IDX 18 45 19 46 28 47 20 48 27 50 21 51 22 52 26 53 23 54 25 55
REMARK SMILES IDX 24 57
REMARK H PARENT 7 2 7 3 6 5 5 7 5 8 3 14 3 15 33 16 33 17 32 18 32 19 1 21
REMARK H PARENT 1 22 1 23 9 28 31 30 11 34 29 36 12 37 14 39 14 40 15 43 19 49
REMARK H PARENT 26 56 23 58 25 59 24 60
REMARK Flexibility Score: inf
ROOT
ATOM      1  C   UNL     1     -49.212  29.310  23.387  1.00  0.00     0.036 C 
ATOM      2  H   UNL     1     -49.717  29.597  22.457  1.00  0.00     0.049 H 
ATOM      3  H   UNL     1     -48.378  28.664  23.098  1.00  0.00     0.049 H 
ENDROOT
BRANCH   1   4
ATOM      4  N   UNL     1     -50.180  28.612  24.231  1.00  0.00    -0.311 NA
ATOM      5  H   UNL     1     -51.117  28.782  23.871  1.00  0.00     0.123 HD
BRANCH   4   6
ATOM      6  C   UNL     1     -49.953  27.166  24.317  1.00  0.00     0.001 C 
ATOM      7  H   UNL     1     -49.658  26.832  23.315  1.00  0.00     0.043 H 
ATOM      8  H   UNL     1     -50.879  26.626  24.544  1.00  0.00     0.043 H 
BRANCH   6   9
ATOM      9  C   UNL     1     -48.877  26.805  25.279  1.00  0.00    -0.016 C 
ATOM     10  C   UNL     1     -47.348  26.404  26.467  1.00  0.00    -0.031 C 
ATOM     11  C   UNL     1     -47.333  26.782  24.939  1.00  0.00    -0.041 C 
ATOM     12  C   UNL     1     -48.425  27.548  26.598  1.00  0.00    -0.041 C 
ATOM     13  C   UNL     1     -48.567  25.481  26.086  1.00  0.00    -0.041 C 
ATOM     14  H   UNL     1     -46.871  27.739  24.671  1.00  0.00     0.028 H 
ATOM     15  H   UNL     1     -46.991  26.011  24.240  1.00  0.00     0.028 H 
ATOM     16  H   UNL     1     -48.069  28.578  26.489  1.00  0.00     0.028 H 
ATOM     17  H   UNL     1     -49.105  27.491  27.454  1.00  0.00     0.028 H 
ATOM     18  H   UNL     1     -49.249  25.217  26.900  1.00  0.00     0.028 H 
ATOM     19  H   UNL     1     -48.345  24.584  25.498  1.00  0.00     0.028 H 
BRANCH  10  20
ATOM     20  C   UNL     1     -46.203  26.104  27.356  1.00  0.00    -0.060 C 
ATOM     21  H   UNL     1     -46.544  25.759  28.336  1.00  0.00     0.024 H 
ATOM     22  H   UNL     1     -45.582  26.992  27.512  1.00  0.00     0.024 H 
ATOM     23  H   UNL     1     -45.567  25.323  26.931  1.00  0.00     0.024 H 
ENDBRANCH  10  20
ENDBRANCH   6   9
ENDBRANCH   4   6
ENDBRANCH   1   4
BRANCH   1  24
ATOM     24  C   UNL     1     -48.716  30.556  24.033  1.00  0.00     0.030 A 
ATOM     25  C   UNL     1     -47.481  31.172  23.996  1.00  0.00    -0.032 A 
ATOM     26  N   UNL     1     -49.532  31.335  24.818  1.00  0.00    -0.357 N 
ATOM     27  C   UNL     1     -47.553  32.354  24.785  1.00  0.00    -0.000 A 
ATOM     28  H   UNL     1     -46.612  30.812  23.459  1.00  0.00     0.065 H 
ATOM     29  C   UNL     1     -48.850  32.432  25.289  1.00  0.00     0.046 A 
ATOM     30  H   UNL     1     -50.490  31.097  25.036  1.00  0.00     0.166 HD
ATOM     31  C   UNL     1     -46.634  33.364  25.121  1.00  0.00    -0.052 A 
ATOM     32  C   UNL     1     -49.278  33.476  26.119  1.00  0.00    -0.033 A 
ATOM     33  C   UNL     1     -47.045  34.418  25.948  1.00  0.00    -0.057 A 
ATOM     34  H   UNL     1     -45.616  33.329  24.745  1.00  0.00     0.063 H 
ATOM     35  C   UNL     1     -48.355  34.486  26.439  1.00  0.00    -0.027 A 
ATOM     36  H   UNL     1     -50.294  33.502  26.504  1.00  0.00     0.065 H 
ATOM     37  H   UNL     1     -46.324  35.191  26.209  1.00  0.00     0.063 H 
BRANCH  35  38
ATOM     38  C   UNL     1     -48.764  35.610  27.354  1.00  0.00     0.043 C 
ATOM     39  H   UNL     1     -48.966  35.236  28.365  1.00  0.00     0.054 H 
ATOM     40  H   UNL     1     -49.688  36.084  27.004  1.00  0.00     0.054 H 
BRANCH  38  41
ATOM     41  N   UNL     1     -47.734  36.612  27.425  1.00  0.00    -0.347 N 
ATOM     42  C   UNL     1     -46.894  36.721  28.502  1.00  0.00     0.270 C 
ATOM     43  H   UNL     1     -47.646  37.310  26.692  1.00  0.00     0.164 HD
ATOM     44  O   UNL     1     -46.915  35.971  29.471  1.00  0.00    -0.268 OA
BRANCH  42  45
ATOM     45  C   UNL     1     -45.931  37.876  28.369  1.00  0.00     0.136 A 
ATOM     46  C   UNL     1     -46.111  38.682  27.321  1.00  0.00     0.035 A 
ATOM     47  N   UNL     1     -44.946  38.029  29.317  1.00  0.00    -0.225 NA
ATOM     48  C   UNL     1     -45.197  39.820  27.153  1.00  0.00     0.258 A 
ATOM     49  H   UNL     1     -46.890  38.552  26.580  1.00  0.00     0.071 H 
ATOM     50  C   UNL     1     -44.141  39.035  29.166  1.00  0.00     0.140 A 
ATOM     51  O   UNL     1     -45.354  40.568  26.190  1.00  0.00    -0.269 OA
ATOM     52  N   UNL     1     -44.213  39.952  28.122  1.00  0.00    -0.268 N 
ATOM     53  C   UNL     1     -43.058  39.240  30.170  1.00  0.00    -0.019 A 
ATOM     54  C   UNL     1     -43.309  41.005  28.032  1.00  0.00     0.014 A 
ATOM     55  C   UNL     1     -42.211  40.269  30.040  1.00  0.00    -0.057 A 
ATOM     56  H   UNL     1     -42.994  38.532  30.987  1.00  0.00     0.066 H 
ATOM     57  C   UNL     1     -42.339  41.183  28.937  1.00  0.00    -0.045 A 
ATOM     58  H   UNL     1     -43.425  41.683  27.189  1.00  0.00     0.082 H 
ATOM     59  H   UNL     1     -41.417  40.434  30.761  1.00  0.00     0.062 H 
ATOM     60  H   UNL     1     -41.639  42.008  28.855  1.00  0.00     0.064 H 
ENDBRANCH  42  45
ENDBRANCH  38  41
ENDBRANCH  35  38
ENDBRANCH   1  24
TORSDOF 8
ENDMDL
MODEL 2
REMARK VINA RESULT:      -9.9      1.834      2.722
REMARK SMILES C[C@]12C[C@](CNCc3cc4ccc(CNC(=O)c5cc(=O)n6ccccc6n5)cc4[nH]3)(C1)C2
REMARK SMILES IDX 7 1 6 4 5 6 4 9 2 10 3 11 33 12 32 13 1 20 8 24 9 25 31 26
REMARK SMILES IDX 10 27 30 29 11 31 29 32 12 33 13 35 14 38 15 41 16 42 17 44
REMARK SMILES IDX 18 45 19 46 28 47 20 48 27 50 21 51 22 52 26 53 23 54 25 55
REMARK SMILES IDX 24 57
REMARK H PARENT 7 2 7 3 6 5 5 7 5 8 3 14 3 15 33 16 33 17 32 18 32 19 1 21
REMARK H PARENT 1 22 1 23 9 28 31 30 11 34 29 36 12 37 14 39 14 40 15 43 19 49
REMARK H PARENT 26 56 23 58 25 59 24 60
REMARK Flexibility Score: inf
ROOT
ATOM      1  C   UNL     1     -49.246  31.145  24.407  1.00  0.00     0.036 C 
ATOM      2  H   UNL     1     -50.305  31.433  24.398  1.00  0.00     0.049 H 
ATOM      3  H   UNL     1     -48.945  31.053  23.360  1.00  0.00     0.049 H 
ENDROOT
BRANCH   1   4
ATOM      4  N   UNL     1     -49.128  29.878  25.125  1.00  0.00    -0.311 NA
ATOM      5  H   UNL     1     -50.058  29.561  25.394  1.00  0.00     0.123 HD
BRANCH   4   6
ATOM      6  C   UNL     1     -48.466  28.821  24.353  1.00  0.00     0.001 C 
ATOM      7  H   UNL     1     -47.494  29.220  24.041  1.00  0.00     0.043 H 
ATOM      8  H   UNL     1     -49.005  28.603  23.424  1.00  0.00     0.043 H 
BRANCH   6   9
ATOM      9  C   UNL     1     -48.245  27.579  25.143  1.00  0.00    -0.016 C 
ATOM     10  C   UNL     1     -47.798  25.945  26.163  1.00  0.00    -0.031 C 
ATOM     11  C   UNL     1     -46.979  26.640  25.012  1.00  0.00    -0.041 C 
ATOM     12  C   UNL     1     -48.025  27.411  26.699  1.00  0.00    -0.041 C 
ATOM     13  C   UNL     1     -49.053  26.225  25.252  1.00  0.00    -0.041 C 
ATOM     14  H   UNL     1     -46.011  27.072  25.286  1.00  0.00     0.028 H 
ATOM     15  H   UNL     1     -46.871  26.084  24.074  1.00  0.00     0.028 H 
ATOM     16  H   UNL     1     -47.157  27.917  27.134  1.00  0.00     0.028 H 
ATOM     17  H   UNL     1     -48.897  27.573  27.341  1.00  0.00     0.028 H 
ATOM     18  H   UNL     1     -50.023  26.258  25.759  1.00  0.00     0.028 H 
ATOM     19  H   UNL     1     -49.145  25.630  24.337  1.00  0.00     0.028 H 
BRANCH  10  20
ATOM     20  C   UNL     1     -47.464  24.722  26.926  1.00  0.00    -0.060 C 
ATOM     21  H   UNL     1     -46.864  24.033  26.325  1.00  0.00     0.024 H 
ATOM     22  H   UNL     1     -48.369  24.192  27.238  1.00  0.00     0.024 H 
ATOM     23  H   UNL     1     -46.892  24.963  27.827  1.00  0.00     0.024 H 
ENDBRANCH  10  20
ENDBRANCH   6   9
ENDBRANCH   4   6
ENDBRANCH   1   4
BRANCH   1  24
ATOM     24  C   UNL     1     -48.488  32.234  25.081  1.00  0.00     0.030 A 
ATOM     25  C   UNL     1     -47.136  32.505  25.134  1.00  0.00    -0.032 A 
ATOM     26  N   UNL     1     -49.126  33.217  25.799  1.00  0.00    -0.357 N 
ATOM     27  C   UNL     1     -46.953  33.684  25.909  1.00  0.00    -0.000 A 
ATOM     28  H   UNL     1     -46.356  31.919  24.666  1.00  0.00     0.065 H 
ATOM     29  C   UNL     1     -48.217  34.110  26.315  1.00  0.00     0.046 A 
ATOM     30  H   UNL     1     -50.127  33.242  25.946  1.00  0.00     0.166 HD
ATOM     31  C   UNL     1     -45.828  34.429  26.309  1.00  0.00    -0.052 A 
ATOM     32  C   UNL     1     -48.415  35.249  27.105  1.00  0.00    -0.033 A 
ATOM     33  C   UNL     1     -46.007  35.573  27.097  1.00  0.00    -0.057 A 
ATOM     34  H   UNL     1     -44.830  34.120  26.011  1.00  0.00     0.063 H 
ATOM     35  C   UNL     1     -47.285  35.992  27.488  1.00  0.00    -0.027 A 
ATOM     36  H   UNL     1     -49.413  35.549  27.413  1.00  0.00     0.065 H 
ATOM     37  H   UNL     1     -45.129  36.138  27.408  1.00  0.00     0.063 H 
BRANCH  35  38
ATOM     38  C   UNL     1     -47.449  37.205  28.365  1.00  0.00     0.043 C 
ATOM     39  H   UNL     1     -47.308  36.946  29.420  1.00  0.00     0.054 H 
ATOM     40  H   UNL     1     -48.460  37.619  28.275  1.00  0.00     0.054 H 
BRANCH  38  41
ATOM     41  N   UNL     1     -46.503  38.228  28.006  1.00  0.00    -0.347 N 
ATOM     42  C   UNL     1     -45.420  38.528  28.789  1.00  0.00     0.270 C 
ATOM     43  H   UNL     1     -46.655  38.799  27.179  1.00  0.00     0.164 HD
ATOM     44  O   UNL     1     -45.140  37.945  29.830  1.00  0.00    -0.268 OA
BRANCH  42  45
ATOM     45  C   UNL     1     -44.602  39.668  28.231  1.00  0.00     0.136 A 
ATOM     46  C   UNL     1     -43.558  40.064  28.961  1.00  0.00     0.035 A 
ATOM     47  N   UNL     1     -44.972  40.220  27.025  1.00  0.00    -0.225 NA
ATOM     48  C   UNL     1     -42.734  41.169  28.455  1.00  0.00     0.258 A 
ATOM     49  H   UNL     1     -43.276  39.622  29.909  1.00  0.00     0.071 H 
ATOM     50  C   UNL     1     -44.241  41.196  26.582  1.00  0.00     0.140 A 
ATOM     51  O   UNL     1     -41.770  41.541  29.122  1.00  0.00    -0.269 OA
ATOM     52  N   UNL     1     -43.128  41.708  27.239  1.00  0.00    -0.268 N 
ATOM     53  C   UNL     1     -44.605  41.824  25.279  1.00  0.00    -0.019 A 
ATOM     54  C   UNL     1     -42.397  42.759  26.694  1.00  0.00     0.014 A 
ATOM     55  C   UNL     1     -43.870  42.834  24.796  1.00  0.00    -0.057 A 
ATOM     56  H   UNL     1     -45.470  41.432  24.760  1.00  0.00     0.066 H 
ATOM     57  C   UNL     1     -42.729  43.318  25.525  1.00  0.00    -0.045 A 
ATOM     58  H   UNL     1     -41.538  43.109  27.263  1.00  0.00     0.082 H 
ATOM     59  H   UNL     1     -44.119  43.303  23.850  1.00  0.00     0.062 H 
ATOM     60  H   UNL     1     -42.152  44.138  25.110  1.00  0.00     0.064 H 
ENDBRANCH  42  45
ENDBRANCH  38  41
ENDBRANCH  35  38
ENDBRANCH   1  24
TORSDOF 8
ENDMDL
MODEL 3
REMARK VINA RESULT:      -9.9      2.771      4.366
REMARK SMILES C[C@]12C[C@](CNCc3cc4ccc(CNC(=O)c5cc(=O)n6ccccc6n5)cc4[nH]3)(C1)C2
REMARK SMILES IDX 7 1 6 4 5 6 4 9 2 10 3 11 33 12 32 13 1 20 8 24 9 25 31 26
REMARK SMILES IDX 10 27 30 29 11 31 29 32 12 33 13 35 14 38 15 41 16 42 17 44
REMARK SMILES IDX 18 45 19 46 28 47 20 48 27 50 21 51 22 52 26 53 23 54 25 55
REMARK SMILES IDX 24 57
REMARK H PARENT 7 2 7 3 6 5 5 7 5 8 3 14 3 15 33 16 33 17 32 18 32 19 1 21
REMARK H PARENT 1 22 1 23 9 28 31 30 11 34 29 36 12 37 14 39 14 40 15 43 19 49
REMARK H PARENT 26 56 23 58 25 59 24 60
REMARK Flexibility Score: inf
ROOT
ATOM      1  C   UNL     1     -46.200  31.540  24.088  1.00  0.00     0.036 C 
ATOM      2  H   UNL     1     -46.235  31.961  23.075  1.00  0.00     0.049 H 
ATOM      3  H   UNL     1     -45.158  31.260  24.268  1.00  0.00     0.049 H 
ENDROOT
BRANCH   1   4
ATOM      4  N   UNL     1     -47.094  30.386  24.130  1.00  0.00    -0.311 NA
ATOM      5  H   UNL     1     -48.025  30.697  24.402  1.00  0.00     0.123 HD
BRANCH   4   6
ATOM      6  C   UNL     1     -47.183  29.661  22.857  1.00  0.00     0.001 C 
ATOM      7  H   UNL     1     -47.288  28.599  23.106  1.00  0.00     0.043 H 
ATOM      8  H   UNL     1     -46.253  29.738  22.284  1.00  0.00     0.043 H 
BRANCH   6   9
ATOM      9  C   UNL     1     -48.351  30.079  22.035  1.00  0.00    -0.016 C 
ATOM     10  C   UNL     1     -49.972  30.500  20.982  1.00  0.00    -0.031 C 
ATOM     11  C   UNL     1     -49.437  29.093  21.444  1.00  0.00    -0.041 C 
ATOM     12  C   UNL     1     -49.592  30.968  22.440  1.00  0.00    -0.041 C 
ATOM     13  C   UNL     1     -48.465  30.805  20.635  1.00  0.00    -0.041 C 
ATOM     14  H   UNL     1     -50.052  28.544  22.165  1.00  0.00     0.028 H 
ATOM     15  H   UNL     1     -49.106  28.405  20.658  1.00  0.00     0.028 H 
ATOM     16  H   UNL     1     -50.221  30.598  23.257  1.00  0.00     0.028 H 
ATOM     17  H   UNL     1     -49.407  32.038  22.583  1.00  0.00     0.028 H 
ATOM     18  H   UNL     1     -48.181  31.861  20.593  1.00  0.00     0.028 H 
ATOM     19  H   UNL     1     -48.040  30.283  19.771  1.00  0.00     0.028 H 
BRANCH  10  20
ATOM     20  C   UNL     1     -51.185  30.815  20.195  1.00  0.00    -0.060 C 
ATOM     21  H   UNL     1     -51.102  30.433  19.174  1.00  0.00     0.024 H 
ATOM     22  H   UNL     1     -51.347  31.896  20.136  1.00  0.00     0.024 H 
ATOM     23  H   UNL     1     -52.075  30.369  20.647  1.00  0.00     0.024 H 
ENDBRANCH  10  20
ENDBRANCH   6   9
ENDBRANCH   4   6
ENDBRANCH   1   4
BRANCH   1  24
ATOM     24  C   UNL     1     -46.631  32.606  25.033  1.00  0.00     0.030 A 
ATOM     25  C   UNL     1     -47.856  33.214  25.225  1.00  0.00    -0.032 A 
ATOM     26  N   UNL     1     -45.759  33.160  25.940  1.00  0.00    -0.357 N 
ATOM     27  C   UNL     1     -47.717  34.164  26.275  1.00  0.00    -0.000 A 
ATOM     28  H   UNL     1     -48.760  33.000  24.669  1.00  0.00     0.065 H 
ATOM     29  C   UNL     1     -46.393  34.110  26.706  1.00  0.00     0.046 A 
ATOM     30  H   UNL     1     -44.780  32.913  25.996  1.00  0.00     0.166 HD
ATOM     31  C   UNL     1     -48.595  35.069  26.898  1.00  0.00    -0.052 A 
ATOM     32  C   UNL     1     -45.897  34.921  27.734  1.00  0.00    -0.033 A 
ATOM     33  C   UNL     1     -48.118  35.887  27.931  1.00  0.00    -0.057 A 
ATOM     34  H   UNL     1     -49.632  35.136  26.583  1.00  0.00     0.063 H 
ATOM     35  C   UNL     1     -46.785  35.814  28.357  1.00  0.00    -0.027 A 
ATOM     36  H   UNL     1     -44.856  34.863  28.039  1.00  0.00     0.065 H 
ATOM     37  H   UNL     1     -48.803  36.590  28.402  1.00  0.00     0.063 H 
BRANCH  35  38
ATOM     38  C   UNL     1     -46.287  36.728  29.446  1.00  0.00     0.043 C 
ATOM     39  H   UNL     1     -45.630  36.188  30.138  1.00  0.00     0.054 H 
ATOM     40  H   UNL     1     -47.121  37.117  30.042  1.00  0.00     0.054 H 
BRANCH  38  41
ATOM     41  N   UNL     1     -45.565  37.840  28.889  1.00  0.00    -0.347 N 
ATOM     42  C   UNL     1     -44.569  38.482  29.577  1.00  0.00     0.270 C 
ATOM     43  H   UNL     1     -45.824  38.218  27.982  1.00  0.00     0.164 HD
ATOM     44  O   UNL     1     -44.183  38.156  30.694  1.00  0.00    -0.268 OA
BRANCH  42  45
ATOM     45  C   UNL     1     -43.994  39.647  28.808  1.00  0.00     0.136 A 
ATOM     46  C   UNL     1     -42.971  40.288  29.377  1.00  0.00     0.035 A 
ATOM     47  N   UNL     1     -44.545  39.973  27.590  1.00  0.00    -0.225 NA
ATOM     48  C   UNL     1     -42.381  41.428  28.663  1.00  0.00     0.258 A 
ATOM     49  H   UNL     1     -42.545  40.022  30.336  1.00  0.00     0.071 H 
ATOM     50  C   UNL     1     -44.021  40.980  26.962  1.00  0.00     0.140 A 
ATOM     51  O   UNL     1     -41.438  42.025  29.179  1.00  0.00    -0.269 OA
ATOM     52  N   UNL     1     -42.954  41.736  27.438  1.00  0.00    -0.268 N 
ATOM     53  C   UNL     1     -44.587  41.369  25.639  1.00  0.00    -0.019 A 
ATOM     54  C   UNL     1     -42.450  42.803  26.702  1.00  0.00     0.014 A 
ATOM     55  C   UNL     1     -44.067  42.405  24.968  1.00  0.00    -0.057 A 
ATOM     56  H   UNL     1     -45.417  40.786  25.260  1.00  0.00     0.066 H 
ATOM     57  C   UNL     1     -42.963  43.146  25.514  1.00  0.00    -0.045 A 
ATOM     58  H   UNL     1     -41.616  43.350  27.135  1.00  0.00     0.082 H 
ATOM     59  H   UNL     1     -44.465  42.702  24.004  1.00  0.00     0.062 H 
ATOM     60  H   UNL     1     -42.562  43.982  24.949  1.00  0.00     0.064 H 
ENDBRANCH  42  45
ENDBRANCH  38  41
ENDBRANCH  35  38
ENDBRANCH   1  24
TORSDOF 8
ENDMDL
MODEL 4
REMARK VINA RESULT:      -9.8      1.541      2.403
REMARK SMILES C[C@]12C[C@](CNCc3cc4ccc(CNC(=O)c5cc(=O)n6ccccc6n5)cc4[nH]3)(C1)C2
REMARK SMILES IDX 7 1 6 4 5 6 4 9 2 10 3 11 33 12 32 13 1 20 8 24 9 25 31 26
REMARK SMILES IDX 10 27 30 29 11 31 29 32 12 33 13 35 14 38 15 41 16 42 17 44
REMARK SMILES IDX 18 45 19 46 28 47 20 48 27 50 21 51 22 52 26 53 23 54 25 55
REMARK SMILES IDX 24 57
REMARK H PARENT 7 2 7 3 6 5 5 7 5 8 3 14 3 15 33 16 33 17 32 18 32 19 1 21
REMARK H PARENT 1 22 1 23 9 28 31 30 11 34 29 36 12 37 14 39 14 40 15 43 19 49
REMARK H PARENT 26 56 23 58 25 59 24 60
REMARK Flexibility Score: inf
ROOT
ATOM      1  C   UNL     1     -48.395  29.393  24.119  1.00  0.00     0.036 C 
ATOM      2  H   UNL     1     -49.399  29.187  24.507  1.00  0.00     0.049 H 
ATOM      3  H   UNL     1     -48.476  29.368  23.028  1.00  0.00     0.049 H 
ENDROOT
BRANCH   1   4
ATOM      4  N   UNL     1     -47.492  28.362  24.625  1.00  0.00    -0.311 NA
ATOM      5  H   UNL     1     -47.366  28.495  25.628  1.00  0.00     0.123 HD
BRANCH   4   6
ATOM      6  C   UNL     1     -47.958  26.994  24.377  1.00  0.00     0.001 C 
ATOM      7  H   UNL     1     -47.142  26.324  24.670  1.00  0.00     0.043 H 
ATOM      8  H   UNL     1     -48.119  26.811  23.309  1.00  0.00     0.043 H 
BRANCH   6   9
ATOM      9  C   UNL     1     -49.172  26.645  25.164  1.00  0.00    -0.016 C 
ATOM     10  C   UNL     1     -50.858  26.157  26.075  1.00  0.00    -0.031 C 
ATOM     11  C   UNL     1     -50.652  26.696  24.611  1.00  0.00    -0.041 C 
ATOM     12  C   UNL     1     -49.604  25.251  25.770  1.00  0.00    -0.041 C 
ATOM     13  C   UNL     1     -49.802  27.254  26.480  1.00  0.00    -0.041 C 
ATOM     14  H   UNL     1     -50.899  26.010  23.792  1.00  0.00     0.028 H 
ATOM     15  H   UNL     1     -51.062  27.686  24.384  1.00  0.00     0.028 H 
ATOM     16  H   UNL     1     -49.749  24.428  25.063  1.00  0.00     0.028 H 
ATOM     17  H   UNL     1     -49.033  24.890  26.632  1.00  0.00     0.028 H 
ATOM     18  H   UNL     1     -49.264  27.086  27.419  1.00  0.00     0.028 H 
ATOM     19  H   UNL     1     -50.129  28.298  26.434  1.00  0.00     0.028 H 
BRANCH  10  20
ATOM     20  C   UNL     1     -52.120  25.791  26.756  1.00  0.00    -0.060 C 
ATOM     21  H   UNL     1     -52.690  26.681  27.036  1.00  0.00     0.024 H 
ATOM     22  H   UNL     1     -51.925  25.219  27.668  1.00  0.00     0.024 H 
ATOM     23  H   UNL     1     -52.755  25.179  26.109  1.00  0.00     0.024 H 
ENDBRANCH  10  20
ENDBRANCH   6   9
ENDBRANCH   4   6
ENDBRANCH   1   4
BRANCH   1  24
ATOM     24  C   UNL     1     -48.001  30.750  24.588  1.00  0.00     0.030 A 
ATOM     25  C   UNL     1     -46.875  31.509  24.340  1.00  0.00    -0.032 A 
ATOM     26  N   UNL     1     -48.818  31.495  25.403  1.00  0.00    -0.357 N 
ATOM     27  C   UNL     1     -47.015  32.746  25.030  1.00  0.00    -0.000 A 
ATOM     28  H   UNL     1     -46.034  31.209  23.727  1.00  0.00     0.065 H 
ATOM     29  C   UNL     1     -48.243  32.711  25.689  1.00  0.00     0.046 A 
ATOM     30  H   UNL     1     -49.703  31.162  25.763  1.00  0.00     0.166 HD
ATOM     31  C   UNL     1     -46.211  33.892  25.158  1.00  0.00    -0.052 A 
ATOM     32  C   UNL     1     -48.710  33.770  26.477  1.00  0.00    -0.033 A 
ATOM     33  C   UNL     1     -46.662  34.963  25.940  1.00  0.00    -0.057 A 
ATOM     34  H   UNL     1     -45.248  33.947  24.658  1.00  0.00     0.063 H 
ATOM     35  C   UNL     1     -47.903  34.915  26.589  1.00  0.00    -0.027 A 
ATOM     36  H   UNL     1     -49.667  33.708  26.987  1.00  0.00     0.065 H 
ATOM     37  H   UNL     1     -46.028  35.843  26.040  1.00  0.00     0.063 H 
BRANCH  35  38
ATOM     38  C   UNL     1     -48.351  36.065  27.452  1.00  0.00     0.043 C 
ATOM     39  H   UNL     1     -48.596  35.721  28.464  1.00  0.00     0.054 H 
ATOM     40  H   UNL     1     -49.259  36.527  27.048  1.00  0.00     0.054 H 
BRANCH  38  41
ATOM     41  N   UNL     1     -47.326  37.071  27.537  1.00  0.00    -0.347 N 
ATOM     42  C   UNL     1     -46.495  37.177  28.621  1.00  0.00     0.270 C 
ATOM     43  H   UNL     1     -47.235  37.774  26.808  1.00  0.00     0.164 HD
ATOM     44  O   UNL     1     -46.521  36.422  29.586  1.00  0.00    -0.268 OA
BRANCH  42  45
ATOM     45  C   UNL     1     -45.537  38.338  28.503  1.00  0.00     0.136 A 
ATOM     46  C   UNL     1     -44.642  38.473  29.483  1.00  0.00     0.035 A 
ATOM     47  N   UNL     1     -45.639  39.172  27.412  1.00  0.00    -0.225 NA
ATOM     48  C   UNL     1     -43.689  39.588  29.408  1.00  0.00     0.258 A 
ATOM     49  H   UNL     1     -44.571  37.810  30.337  1.00  0.00     0.071 H 
ATOM     50  C   UNL     1     -44.795  40.155  27.349  1.00  0.00     0.140 A 
ATOM     51  O   UNL     1     -42.861  39.720  30.307  1.00  0.00    -0.269 OA
ATOM     52  N   UNL     1     -43.813  40.413  28.299  1.00  0.00    -0.268 N 
ATOM     53  C   UNL     1     -44.869  41.085  26.185  1.00  0.00    -0.019 A 
ATOM     54  C   UNL     1     -42.947  41.492  28.157  1.00  0.00     0.014 A 
ATOM     55  C   UNL     1     -44.012  42.110  26.093  1.00  0.00    -0.057 A 
ATOM     56  H   UNL     1     -45.631  40.892  25.439  1.00  0.00     0.066 H 
ATOM     57  C   UNL     1     -43.018  42.322  27.110  1.00  0.00    -0.045 A 
ATOM     58  H   UNL     1     -42.203  41.633  28.938  1.00  0.00     0.082 H 
ATOM     59  H   UNL     1     -44.050  42.795  25.253  1.00  0.00     0.062 H 
ATOM     60  H   UNL     1     -42.337  43.161  27.010  1.00  0.00     0.064 H 
ENDBRANCH  42  45
ENDBRANCH  38  41
ENDBRANCH  35  38
ENDBRANCH   1  24
TORSDOF 8
ENDMDL
MODEL 5
REMARK VINA RESULT:      -9.7      1.730      2.688
REMARK SMILES C[C@]12C[C@](CNCc3cc4ccc(CNC(=O)c5cc(=O)n6ccccc6n5)cc4[nH]3)(C1)C2
REMARK SMILES IDX 7 1 6 4 5 6 4 9 2 10 3 11 33 12 32 13 1 20 8 24 9 25 31 26
REMARK SMILES IDX 10 27 30 29 11 31 29 32 12 33 13 35 14 38 15 41 16 42 17 44
REMARK SMILES IDX 18 45 19 46 28 47 20 48 27 50 21 51 22 52 26 53 23 54 25 55
REMARK SMILES IDX 24 57
REMARK H PARENT 7 2 7 3 6 5 5 7 5 8 3 14 3 15 33 16 33 17 32 18 32 19 1 21
REMARK H PARENT 1 22 1 23 9 28 31 30 11 34 29 36 12 37 14 39 14 40 15 43 19 49
REMARK H PARENT 26 56 23 58 25 59 24 60
REMARK Flexibility Score: inf
ROOT
ATOM      1  C   UNL     1     -47.649  30.698  24.570  1.00  0.00     0.036 C 
ATOM      2  H   UNL     1     -47.525  30.965  23.514  1.00  0.00     0.049 H 
ATOM      3  H   UNL     1     -46.803  30.054  24.826  1.00  0.00     0.049 H 
ENDROOT
BRANCH   1   4
ATOM      4  N   UNL     1     -48.928  30.007  24.716  1.00  0.00    -0.311 NA
ATOM      5  H   UNL     1     -49.670  30.602  24.351  1.00  0.00     0.123 HD
BRANCH   4   6
ATOM      6  C   UNL     1     -48.978  28.708  24.037  1.00  0.00     0.001 C 
ATOM      7  H   UNL     1     -48.250  28.751  23.219  1.00  0.00     0.043 H 
ATOM      8  H   UNL     1     -49.948  28.540  23.557  1.00  0.00     0.043 H 
BRANCH   6   9
ATOM      9  C   UNL     1     -48.626  27.573  24.933  1.00  0.00    -0.016 C 
ATOM     10  C   UNL     1     -48.007  26.101  26.101  1.00  0.00    -0.031 C 
ATOM     11  C   UNL     1     -47.229  26.832  24.945  1.00  0.00    -0.041 C 
ATOM     12  C   UNL     1     -48.484  27.549  26.507  1.00  0.00    -0.041 C 
ATOM     13  C   UNL     1     -49.229  26.122  25.105  1.00  0.00    -0.041 C 
ATOM     14  H   UNL     1     -46.355  27.426  25.235  1.00  0.00     0.028 H 
ATOM     15  H   UNL     1     -46.978  26.235  24.060  1.00  0.00     0.028 H 
ATOM     16  H   UNL     1     -47.732  28.212  26.947  1.00  0.00     0.028 H 
ATOM     17  H   UNL     1     -49.410  27.620  27.087  1.00  0.00     0.028 H 
ATOM     18  H   UNL     1     -50.223  26.041  25.555  1.00  0.00     0.028 H 
ATOM     19  H   UNL     1     -49.172  25.457  24.237  1.00  0.00     0.028 H 
BRANCH  10  20
ATOM     20  C   UNL     1     -47.545  25.000  26.975  1.00  0.00    -0.060 C 
ATOM     21  H   UNL     1     -48.084  24.073  26.760  1.00  0.00     0.024 H 
ATOM     22  H   UNL     1     -47.702  25.242  28.031  1.00  0.00     0.024 H 
ATOM     23  H   UNL     1     -46.478  24.806  26.834  1.00  0.00     0.024 H 
ENDBRANCH  10  20
ENDBRANCH   6   9
ENDBRANCH   4   6
ENDBRANCH   1   4
BRANCH   1  24
ATOM     24  C   UNL     1     -47.610  31.959  25.361  1.00  0.00     0.030 A 
ATOM     25  C   UNL     1     -48.566  32.933  25.571  1.00  0.00    -0.032 A 
ATOM     26  N   UNL     1     -46.492  32.331  26.068  1.00  0.00    -0.357 N 
ATOM     27  C   UNL     1     -48.006  33.923  26.426  1.00  0.00    -0.000 A 
ATOM     28  H   UNL     1     -49.565  32.937  25.154  1.00  0.00     0.065 H 
ATOM     29  C   UNL     1     -46.705  33.522  26.722  1.00  0.00     0.046 A 
ATOM     30  H   UNL     1     -45.628  31.804  26.066  1.00  0.00     0.166 HD
ATOM     31  C   UNL     1     -48.484  35.127  26.973  1.00  0.00    -0.052 A 
ATOM     32  C   UNL     1     -45.850  34.268  27.543  1.00  0.00    -0.033 A 
ATOM     33  C   UNL     1     -47.645  35.886  27.799  1.00  0.00    -0.057 A 
ATOM     34  H   UNL     1     -49.493  35.467  26.758  1.00  0.00     0.063 H 
ATOM     35  C   UNL     1     -46.342  35.463  28.094  1.00  0.00    -0.027 A 
ATOM     36  H   UNL     1     -44.837  33.933  27.747  1.00  0.00     0.065 H 
ATOM     37  H   UNL     1     -48.021  36.821  28.211  1.00  0.00     0.063 H 
BRANCH  35  38
ATOM     38  C   UNL     1     -45.447  36.314  28.956  1.00  0.00     0.043 C 
ATOM     39  H   UNL     1     -44.510  35.791  29.181  1.00  0.00     0.054 H 
ATOM     40  H   UNL     1     -45.923  36.533  29.918  1.00  0.00     0.054 H 
BRANCH  38  41
ATOM     41  N   UNL     1     -45.140  37.559  28.304  1.00  0.00    -0.347 N 
ATOM     42  C   UNL     1     -45.835  38.711  28.565  1.00  0.00     0.270 C 
ATOM     43  H   UNL     1     -44.429  37.597  27.579  1.00  0.00     0.164 HD
ATOM     44  O   UNL     1     -46.741  38.798  29.386  1.00  0.00    -0.268 OA
BRANCH  42  45
ATOM     45  C   UNL     1     -45.364  39.873  27.724  1.00  0.00     0.136 A 
ATOM     46  C   UNL     1     -46.298  40.514  27.020  1.00  0.00     0.035 A 
ATOM     47  N   UNL     1     -44.027  40.198  27.733  1.00  0.00    -0.225 NA
ATOM     48  C   UNL     1     -45.885  41.651  26.188  1.00  0.00     0.258 A 
ATOM     49  H   UNL     1     -47.349  40.250  27.020  1.00  0.00     0.071 H 
ATOM     50  C   UNL     1     -43.665  41.203  26.998  1.00  0.00     0.140 A 
ATOM     51  O   UNL     1     -46.738  42.248  25.535  1.00  0.00    -0.269 OA
ATOM     52  N   UNL     1     -44.532  41.958  26.215  1.00  0.00    -0.268 N 
ATOM     53  C   UNL     1     -42.225  41.591  26.977  1.00  0.00    -0.019 A 
ATOM     54  C   UNL     1     -44.062  43.023  25.452  1.00  0.00     0.014 A 
ATOM     55  C   UNL     1     -41.822  42.624  26.226  1.00  0.00    -0.057 A 
ATOM     56  H   UNL     1     -41.542  41.009  27.584  1.00  0.00     0.066 H 
ATOM     57  C   UNL     1     -42.769  43.366  25.438  1.00  0.00    -0.045 A 
ATOM     58  H   UNL     1     -44.796  43.569  24.864  1.00  0.00     0.082 H 
ATOM     59  H   UNL     1     -40.779  42.921  26.199  1.00  0.00     0.062 H 
ATOM     60  H   UNL     1     -42.414  44.197  24.839  1.00  0.00     0.064 H 
ENDBRANCH  42  45
ENDBRANCH  38  41
ENDBRANCH  35  38
ENDBRANCH   1  24
TORSDOF 8
ENDMDL
MODEL 6
REMARK VINA RESULT:      -9.4      2.763     11.618
REMARK SMILES C[C@]12C[C@](CNCc3cc4ccc(CNC(=O)c5cc(=O)n6ccccc6n5)cc4[nH]3)(C1)C2
REMARK SMILES IDX 7 1 6 4 5 6 4 9 2 10 3 11 33 12 32 13 1 20 8 24 9 25 31 26
REMARK SMILES IDX 10 27 30 29 11 31 29 32 12 33 13 35 14 38 15 41 16 42 17 44
REMARK SMILES IDX 18 45 19 46 28 47 20 48 27 50 21 51 22 52 26 53 23 54 25 55
REMARK SMILES IDX 24 57
REMARK H PARENT 7 2 7 3 6 5 5 7 5 8 3 14 3 15 33 16 33 17 32 18 32 19 1 21
REMARK H PARENT 1 22 1 23 9 28 31 30 11 34 29 36 12 37 14 39 14 40 15 43 19 49
REMARK H PARENT 26 56 23 58 25 59 24 60
REMARK Flexibility Score: inf
ROOT
ATOM      1  C   UNL     1     -47.332  38.850  28.662  1.00  0.00     0.036 C 
ATOM      2  H   UNL     1     -48.069  39.261  27.962  1.00  0.00     0.049 H 
ATOM      3  H   UNL     1     -47.805  38.861  29.648  1.00  0.00     0.049 H 
ENDROOT
BRANCH   1   4
ATOM      4  N   UNL     1     -46.141  39.696  28.616  1.00  0.00    -0.311 NA
ATOM      5  H   UNL     1     -45.319  39.121  28.795  1.00  0.00     0.123 HD
BRANCH   4   6
ATOM      6  C   UNL     1     -45.966  40.400  27.341  1.00  0.00     0.001 C 
ATOM      7  H   UNL     1     -46.648  41.258  27.358  1.00  0.00     0.043 H 
ATOM      8  H   UNL     1     -46.290  39.785  26.494  1.00  0.00     0.043 H 
BRANCH   6   9
ATOM      9  C   UNL     1     -44.577  40.894  27.139  1.00  0.00    -0.016 C 
ATOM     10  C   UNL     1     -42.686  41.449  26.981  1.00  0.00    -0.031 C 
ATOM     11  C   UNL     1     -43.410  40.762  28.198  1.00  0.00    -0.041 C 
ATOM     12  C   UNL     1     -43.488  40.417  26.099  1.00  0.00    -0.041 C 
ATOM     13  C   UNL     1     -43.985  42.338  26.888  1.00  0.00    -0.041 C 
ATOM     14  H   UNL     1     -43.087  39.747  28.456  1.00  0.00     0.028 H 
ATOM     15  H   UNL     1     -43.506  41.351  29.117  1.00  0.00     0.028 H 
ATOM     16  H   UNL     1     -43.174  39.370  26.155  1.00  0.00     0.028 H 
ATOM     17  H   UNL     1     -43.655  40.688  25.051  1.00  0.00     0.028 H 
ATOM     18  H   UNL     1     -44.186  42.801  25.917  1.00  0.00     0.028 H 
ATOM     19  H   UNL     1     -44.136  43.079  27.679  1.00  0.00     0.028 H 
BRANCH  10  20
ATOM     20  C   UNL     1     -41.270  41.865  26.863  1.00  0.00    -0.060 C 
ATOM     21  H   UNL     1     -40.663  41.073  26.416  1.00  0.00     0.024 H 
ATOM     22  H   UNL     1     -40.845  42.100  27.843  1.00  0.00     0.024 H 
ATOM     23  H   UNL     1     -41.172  42.755  26.235  1.00  0.00     0.024 H 
ENDBRANCH  10  20
ENDBRANCH   6   9
ENDBRANCH   4   6
ENDBRANCH   1   4
BRANCH   1  24
ATOM     24  C   UNL     1     -47.034  37.455  28.236  1.00  0.00     0.030 A 
ATOM     25  C   UNL     1     -46.671  36.338  28.961  1.00  0.00    -0.032 A 
ATOM     26  N   UNL     1     -47.113  37.073  26.918  1.00  0.00    -0.357 N 
ATOM     27  C   UNL     1     -46.523  35.252  28.054  1.00  0.00    -0.000 A 
ATOM     28  H   UNL     1     -46.526  36.302  30.034  1.00  0.00     0.065 H 
ATOM     29  C   UNL     1     -46.805  35.740  26.779  1.00  0.00     0.046 A 
ATOM     30  H   UNL     1     -47.334  37.710  26.164  1.00  0.00     0.166 HD
ATOM     31  C   UNL     1     -46.170  33.898  28.197  1.00  0.00    -0.052 A 
ATOM     32  C   UNL     1     -46.751  34.939  25.632  1.00  0.00    -0.033 A 
ATOM     33  C   UNL     1     -46.114  33.080  27.061  1.00  0.00    -0.057 A 
ATOM     34  H   UNL     1     -45.942  33.489  29.177  1.00  0.00     0.063 H 
ATOM     35  C   UNL     1     -46.409  33.585  25.788  1.00  0.00    -0.027 A 
ATOM     36  H   UNL     1     -46.967  35.352  24.651  1.00  0.00     0.065 H 
ATOM     37  H   UNL     1     -45.832  32.035  27.181  1.00  0.00     0.063 H 
BRANCH  35  38
ATOM     38  C   UNL     1     -46.308  32.694  24.578  1.00  0.00     0.043 C 
ATOM     39  H   UNL     1     -45.261  32.459  24.353  1.00  0.00     0.054 H 
ATOM     40  H   UNL     1     -46.716  33.192  23.691  1.00  0.00     0.054 H 
BRANCH  38  41
ATOM     41  N   UNL     1     -47.028  31.466  24.784  1.00  0.00    -0.347 N 
ATOM     42  C   UNL     1     -47.788  30.891  23.801  1.00  0.00     0.270 C 
ATOM     43  H   UNL     1     -47.034  31.023  25.699  1.00  0.00     0.164 HD
ATOM     44  O   UNL     1     -47.900  31.339  22.665  1.00  0.00    -0.268 OA
BRANCH  42  45
ATOM     45  C   UNL     1     -48.486  29.637  24.269  1.00  0.00     0.136 A 
ATOM     46  C   UNL     1     -49.810  29.598  24.111  1.00  0.00     0.035 A 
ATOM     47  N   UNL     1     -47.731  28.626  24.819  1.00  0.00    -0.225 NA
ATOM     48  C   UNL     1     -50.529  28.396  24.552  1.00  0.00     0.258 A 
ATOM     49  H   UNL     1     -50.394  30.400  23.676  1.00  0.00     0.071 H 
ATOM     50  C   UNL     1     -48.370  27.565  25.208  1.00  0.00     0.140 A 
ATOM     51  O   UNL     1     -51.750  28.351  24.410  1.00  0.00    -0.269 OA
ATOM     52  N   UNL     1     -49.746  27.392  25.103  1.00  0.00    -0.268 N 
ATOM     53  C   UNL     1     -47.593  26.445  25.810  1.00  0.00    -0.019 A 
ATOM     54  C   UNL     1     -50.354  26.222  25.545  1.00  0.00     0.014 A 
ATOM     55  C   UNL     1     -48.224  25.338  26.221  1.00  0.00    -0.057 A 
ATOM     56  H   UNL     1     -46.520  26.570  25.895  1.00  0.00     0.066 H 
ATOM     57  C   UNL     1     -49.651  25.220  26.084  1.00  0.00    -0.045 A 
ATOM     58  H   UNL     1     -51.434  26.155  25.432  1.00  0.00     0.082 H 
ATOM     59  H   UNL     1     -47.675  24.512  26.661  1.00  0.00     0.062 H 
ATOM     60  H   UNL     1     -50.137  24.312  26.427  1.00  0.00     0.064 H 
ENDBRANCH  42  45
ENDBRANCH  38  41
ENDBRANCH  35  38
ENDBRANCH   1  24
TORSDOF 8
ENDMDL
MODEL 7
REMARK VINA RESULT:      -9.3      2.915      5.363
REMARK SMILES C[C@]12C[C@](CNCc3cc4ccc(CNC(=O)c5cc(=O)n6ccccc6n5)cc4[nH]3)(C1)C2
REMARK SMILES IDX 7 1 6 4 5 6 4 9 2 10 3 11 33 12 32 13 1 20 8 24 9 25 31 26
REMARK SMILES IDX 10 27 30 29 11 31 29 32 12 33 13 35 14 38 15 41 16 42 17 44
REMARK SMILES IDX 18 45 19 46 28 47 20 48 27 50 21 51 22 52 26 53 23 54 25 55
REMARK SMILES IDX 24 57
REMARK H PARENT 7 2 7 3 6 5 5 7 5 8 3 14 3 15 33 16 33 17 32 18 32 19 1 21
REMARK H PARENT 1 22 1 23 9 28 31 30 11 34 29 36 12 37 14 39 14 40 15 43 19 49
REMARK H PARENT 26 56 23 58 25 59 24 60
REMARK Flexibility Score: inf
ROOT
ATOM      1  C   UNL     1     -46.632  32.362  25.735  1.00  0.00     0.036 C 
ATOM      2  H   UNL     1     -45.578  32.058  25.730  1.00  0.00     0.049 H 
ATOM      3  H   UNL     1     -47.156  31.647  26.375  1.00  0.00     0.049 H 
ENDROOT
BRANCH   1   4
ATOM      4  N   UNL     1     -47.120  32.326  24.358  1.00  0.00    -0.311 NA
ATOM      5  H   UNL     1     -46.862  33.194  23.892  1.00  0.00     0.123 HD
BRANCH   4   6
ATOM      6  C   UNL     1     -46.610  31.192  23.580  1.00  0.00     0.001 C 
ATOM      7  H   UNL     1     -46.255  30.448  24.303  1.00  0.00     0.043 H 
ATOM      8  H   UNL     1     -45.730  31.472  22.991  1.00  0.00     0.043 H 
BRANCH   6   9
ATOM      9  C   UNL     1     -47.650  30.567  22.719  1.00  0.00    -0.016 C 
ATOM     10  C   UNL     1     -48.928  29.737  21.457  1.00  0.00    -0.031 C 
ATOM     11  C   UNL     1     -47.665  30.622  21.139  1.00  0.00    -0.041 C 
ATOM     12  C   UNL     1     -47.997  29.038  22.521  1.00  0.00    -0.041 C 
ATOM     13  C   UNL     1     -49.209  30.793  22.594  1.00  0.00    -0.041 C 
ATOM     14  H   UNL     1     -46.836  30.130  20.618  1.00  0.00     0.028 H 
ATOM     15  H   UNL     1     -47.847  31.600  20.679  1.00  0.00     0.028 H 
ATOM     16  H   UNL     1     -47.200  28.395  22.134  1.00  0.00     0.028 H 
ATOM     17  H   UNL     1     -48.493  28.533  23.356  1.00  0.00     0.028 H 
ATOM     18  H   UNL     1     -49.835  30.455  23.426  1.00  0.00     0.028 H 
ATOM     19  H   UNL     1     -49.540  31.787  22.275  1.00  0.00     0.028 H 
BRANCH  10  20
ATOM     20  C   UNL     1     -49.883  29.117  20.514  1.00  0.00    -0.060 C 
ATOM     21  H   UNL     1     -49.368  28.719  19.635  1.00  0.00     0.024 H 
ATOM     22  H   UNL     1     -50.623  29.844  20.166  1.00  0.00     0.024 H 
ATOM     23  H   UNL     1     -50.424  28.291  20.986  1.00  0.00     0.024 H 
ENDBRANCH  10  20
ENDBRANCH   6   9
ENDBRANCH   4   6
ENDBRANCH   1   4
BRANCH   1  24
ATOM     24  C   UNL     1     -46.701  33.734  26.309  1.00  0.00     0.030 A 
ATOM     25  C   UNL     1     -47.730  34.654  26.349  1.00  0.00    -0.032 A 
ATOM     26  N   UNL     1     -45.628  34.300  26.953  1.00  0.00    -0.357 N 
ATOM     27  C   UNL     1     -47.261  35.810  27.034  1.00  0.00    -0.000 A 
ATOM     28  H   UNL     1     -48.718  34.515  25.930  1.00  0.00     0.065 H 
ATOM     29  C   UNL     1     -45.939  35.562  27.402  1.00  0.00     0.046 A 
ATOM     30  H   UNL     1     -44.727  33.847  27.043  1.00  0.00     0.166 HD
ATOM     31  C   UNL     1     -47.836  37.048  27.373  1.00  0.00    -0.052 A 
ATOM     32  C   UNL     1     -45.158  36.494  28.095  1.00  0.00    -0.033 A 
ATOM     33  C   UNL     1     -47.071  37.993  28.069  1.00  0.00    -0.057 A 
ATOM     34  H   UNL     1     -48.863  37.271  27.098  1.00  0.00     0.063 H 
ATOM     35  C   UNL     1     -45.747  37.723  28.439  1.00  0.00    -0.027 A 
ATOM     36  H   UNL     1     -44.127  36.275  28.358  1.00  0.00     0.065 H 
ATOM     37  H   UNL     1     -47.523  38.951  28.320  1.00  0.00     0.063 H 
BRANCH  35  38
ATOM     38  C   UNL     1     -44.933  38.768  29.156  1.00  0.00     0.043 C 
ATOM     39  H   UNL     1     -43.992  38.345  29.524  1.00  0.00     0.054 H 
ATOM     40  H   UNL     1     -45.471  39.149  30.032  1.00  0.00     0.054 H 
BRANCH  38  41
ATOM     41  N   UNL     1     -44.638  39.874  28.285  1.00  0.00    -0.347 N 
ATOM     42  C   UNL     1     -43.503  40.630  28.423  1.00  0.00     0.270 C 
ATOM     43  H   UNL     1     -45.305  40.159  27.573  1.00  0.00     0.164 HD
ATOM     44  O   UNL     1     -42.634  40.421  29.262  1.00  0.00    -0.268 OA
BRANCH  42  45
ATOM     45  C   UNL     1     -43.438  41.761  27.426  1.00  0.00     0.136 A 
ATOM     46  C   UNL     1     -42.259  41.966  26.835  1.00  0.00     0.035 A 
ATOM     47  N   UNL     1     -44.575  42.500  27.188  1.00  0.00    -0.225 NA
ATOM     48  C   UNL     1     -42.151  43.057  25.857  1.00  0.00     0.258 A 
ATOM     49  H   UNL     1     -41.371  41.378  27.030  1.00  0.00     0.071 H 
ATOM     50  C   UNL     1     -44.475  43.462  26.324  1.00  0.00     0.140 A 
ATOM     51  O   UNL     1     -41.069  43.254  25.308  1.00  0.00    -0.269 OA
ATOM     52  N   UNL     1     -43.310  43.786  25.636  1.00  0.00    -0.268 N 
ATOM     53  C   UNL     1     -45.681  44.290  26.034  1.00  0.00    -0.019 A 
ATOM     54  C   UNL     1     -43.287  44.836  24.724  1.00  0.00     0.014 A 
ATOM     55  C   UNL     1     -45.609  45.290  25.148  1.00  0.00    -0.057 A 
ATOM     56  H   UNL     1     -46.594  44.045  26.565  1.00  0.00     0.066 H 
ATOM     57  C   UNL     1     -44.374  45.574  24.468  1.00  0.00    -0.045 A 
ATOM     58  H   UNL     1     -42.342  45.033  24.222  1.00  0.00     0.082 H 
ATOM     59  H   UNL     1     -46.477  45.902  24.924  1.00  0.00     0.062 H 
ATOM     60  H   UNL     1     -44.344  46.391  23.755  1.00  0.00     0.064 H 
ENDBRANCH  42  45
ENDBRANCH  38  41
ENDBRANCH  35  38
ENDBRANCH   1  24
TORSDOF 8
ENDMDL
