MODEL 1
REMARK VINA RESULT:     -10.0      0.000      0.000
REMARK SMILES CNc1ccc2ccc(OCc3cncc(-n4cc(C5CCN(C)CC5)c5c(N)ncnc54)c3)cc2n1
REMARK SMILES IDX 11 1 10 4 9 5 3 6 4 7 37 8 5 9 36 11 6 12 35 14 7 15 8 17
REMARK SMILES IDX 2 20 1 22 12 26 13 27 34 28 14 29 16 31 15 33 17 35 18 36
REMARK SMILES IDX 33 37 19 38 27 40 32 41 28 42 31 43 30 44 20 46 21 47 26 48
REMARK SMILES IDX 22 50 25 53 23 56 24 61 29 65
REMARK H PARENT 11 2 11 3 4 10 5 13 35 16 7 18 8 19 2 21 1 23 1 24 1 25 13 30
REMARK H PARENT 34 32 15 34 18 39 31 45 20 49 21 51 21 52 26 54 26 55 22 57
REMARK H PARENT 22 58 25 59 25 60 24 62 24 63 24 64 29 66 29 67
REMARK Flexibility Score: inf
ROOT
ATOM      1  C   UNL     1     -47.534  35.267  27.542  1.00  0.00     0.115 C 
ATOM      2  H   UNL     1     -46.937  34.859  28.366  1.00  0.00     0.076 H 
ATOM      3  H   UNL     1     -48.535  34.824  27.626  1.00  0.00     0.076 H 
ENDROOT
BRANCH   1   4
ATOM      4  O   UNL     1     -46.857  34.946  26.320  1.00  0.00    -0.489 OA
BRANCH   4   5
ATOM      5  C   UNL     1     -47.303  33.779  25.762  1.00  0.00     0.122 A 
ATOM      6  C   UNL     1     -46.353  30.171  22.819  1.00  0.00     0.126 A 
ATOM      7  C   UNL     1     -47.587  29.583  23.078  1.00  0.00    -0.019 A 
ATOM      8  N   UNL     1     -45.992  31.333  23.396  1.00  0.00    -0.231 NA
ATOM      9  C   UNL     1     -48.457  30.187  23.979  1.00  0.00    -0.049 A 
ATOM     10  H   UNL     1     -47.874  28.665  22.577  1.00  0.00     0.066 H 
ATOM     11  C   UNL     1     -46.828  31.925  24.271  1.00  0.00     0.076 A 
ATOM     12  C   UNL     1     -48.086  31.382  24.599  1.00  0.00     0.001 A 
ATOM     13  H   UNL     1     -49.419  29.725  24.183  1.00  0.00     0.063 H 
ATOM     14  C   UNL     1     -46.454  33.118  24.873  1.00  0.00     0.007 A 
ATOM     15  C   UNL     1     -48.928  32.031  25.521  1.00  0.00    -0.049 A 
ATOM     16  H   UNL     1     -45.487  33.550  24.630  1.00  0.00     0.069 H 
ATOM     17  C   UNL     1     -48.531  33.229  26.109  1.00  0.00    -0.019 A 
ATOM     18  H   UNL     1     -49.892  31.603  25.784  1.00  0.00     0.063 H 
ATOM     19  H   UNL     1     -49.174  33.718  26.834  1.00  0.00     0.066 H 
BRANCH   6  20
ATOM     20  N   UNL     1     -45.510  29.546  21.882  1.00  0.00    -0.373 N 
ATOM     21  H   UNL     1     -46.083  29.102  21.170  1.00  0.00     0.161 HD
BRANCH  20  22
ATOM     22  C   UNL     1     -44.559  28.610  22.461  1.00  0.00     0.005 C 
ATOM     23  H   UNL     1     -43.590  29.108  22.564  1.00  0.00     0.045 H 
ATOM     24  H   UNL     1     -44.866  28.288  23.462  1.00  0.00     0.045 H 
ATOM     25  H   UNL     1     -44.414  27.734  21.820  1.00  0.00     0.045 H 
ENDBRANCH  20  22
ENDBRANCH   6  20
ENDBRANCH   4   5
ENDBRANCH   1   4
BRANCH   1  26
ATOM     26  C   UNL     1     -47.644  36.762  27.661  1.00  0.00     0.010 A 
ATOM     27  C   UNL     1     -48.858  37.385  27.901  1.00  0.00     0.034 A 
ATOM     28  C   UNL     1     -46.508  37.575  27.548  1.00  0.00    -0.028 A 
ATOM     29  N   UNL     1     -49.006  38.723  28.015  1.00  0.00    -0.262 NA
ATOM     30  H   UNL     1     -49.778  36.817  28.012  1.00  0.00     0.084 H 
ATOM     31  C   UNL     1     -46.608  38.962  27.686  1.00  0.00     0.066 A 
ATOM     32  H   UNL     1     -45.561  37.088  27.341  1.00  0.00     0.065 H 
ATOM     33  C   UNL     1     -47.882  39.476  27.911  1.00  0.00     0.051 A 
ATOM     34  H   UNL     1     -48.077  40.534  28.050  1.00  0.00     0.086 H 
BRANCH  31  35
ATOM     35  N   UNL     1     -45.464  39.820  27.614  1.00  0.00    -0.299 N 
ATOM     36  C   UNL     1     -45.260  40.797  26.650  1.00  0.00     0.015 A 
ATOM     37  C   UNL     1     -44.366  39.854  28.471  1.00  0.00     0.150 A 
ATOM     38  C   UNL     1     -44.057  41.446  26.862  1.00  0.00    -0.013 A 
ATOM     39  H   UNL     1     -45.974  40.935  25.856  1.00  0.00     0.083 H 
ATOM     40  C   UNL     1     -43.494  40.854  28.044  1.00  0.00     0.065 A 
ATOM     41  N   UNL     1     -44.182  39.079  29.556  1.00  0.00    -0.218 NA
ATOM     42  C   UNL     1     -42.332  41.042  28.821  1.00  0.00     0.136 A 
ATOM     43  C   UNL     1     -43.046  39.344  30.209  1.00  0.00     0.120 A 
ATOM     44  N   UNL     1     -42.128  40.272  29.903  1.00  0.00    -0.219 NA
ATOM     45  H   UNL     1     -42.847  38.744  31.093  1.00  0.00     0.106 H 
BRANCH  38  46
ATOM     46  C   UNL     1     -43.441  42.555  26.030  1.00  0.00    -0.011 C 
ATOM     47  C   UNL     1     -43.971  42.668  24.591  1.00  0.00    -0.033 C 
ATOM     48  C   UNL     1     -43.501  43.913  26.744  1.00  0.00    -0.033 C 
ATOM     49  H   UNL     1     -42.382  42.287  25.923  1.00  0.00     0.035 H 
ATOM     50  C   UNL     1     -45.244  43.505  24.449  1.00  0.00    -0.002 C 
ATOM     51  H   UNL     1     -43.191  43.145  23.984  1.00  0.00     0.029 H 
ATOM     52  H   UNL     1     -44.132  41.674  24.155  1.00  0.00     0.029 H 
ATOM     53  C   UNL     1     -44.840  44.621  26.555  1.00  0.00    -0.002 C 
ATOM     54  H   UNL     1     -43.296  43.805  27.817  1.00  0.00     0.029 H 
ATOM     55  H   UNL     1     -42.705  44.555  26.342  1.00  0.00     0.029 H 
ATOM     56  N   UNL     1     -45.121  44.802  25.126  1.00  0.00    -0.306 NA
ATOM     57  H   UNL     1     -45.417  43.668  23.378  1.00  0.00     0.043 H 
ATOM     58  H   UNL     1     -46.114  42.956  24.822  1.00  0.00     0.043 H 
ATOM     59  H   UNL     1     -44.774  45.600  27.045  1.00  0.00     0.043 H 
ATOM     60  H   UNL     1     -45.643  44.064  27.052  1.00  0.00     0.043 H 
BRANCH  56  61
ATOM     61  C   UNL     1     -46.338  45.593  24.940  1.00  0.00    -0.013 C 
ATOM     62  H   UNL     1     -46.714  45.486  23.916  1.00  0.00     0.039 H 
ATOM     63  H   UNL     1     -46.130  46.658  25.087  1.00  0.00     0.039 H 
ATOM     64  H   UNL     1     -47.135  45.297  25.633  1.00  0.00     0.039 H 
ENDBRANCH  56  61
ENDBRANCH  38  46
BRANCH  42  65
ATOM     65  N   UNL     1     -41.360  42.004  28.574  1.00  0.00    -0.383 N 
ATOM     66  H   UNL     1     -40.783  41.816  27.768  1.00  0.00     0.158 HD
ATOM     67  H   UNL     1     -41.790  42.922  28.592  1.00  0.00     0.158 HD
ENDBRANCH  42  65
ENDBRANCH  31  35
ENDBRANCH   1  26
TORSDOF 9
ENDMDL
MODEL 2
REMARK VINA RESULT:      -9.8      1.472      1.955
REMARK SMILES CNc1ccc2ccc(OCc3cncc(-n4cc(C5CCN(C)CC5)c5c(N)ncnc54)c3)cc2n1
REMARK SMILES IDX 11 1 10 4 9 5 3 6 4 7 37 8 5 9 36 11 6 12 35 14 7 15 8 17
REMARK SMILES IDX 2 20 1 22 12 26 13 27 34 28 14 29 16 31 15 33 17 35 18 36
REMARK SMILES IDX 33 37 19 38 27 40 32 41 28 42 31 43 30 44 20 46 21 47 26 48
REMARK SMILES IDX 22 50 25 53 23 56 24 61 29 65
REMARK H PARENT 11 2 11 3 4 10 5 13 35 16 7 18 8 19 2 21 1 23 1 24 1 25 13 30
REMARK H PARENT 34 32 15 34 18 39 31 45 20 49 21 51 21 52 26 54 26 55 22 57
REMARK H PARENT 22 58 25 59 25 60 24 62 24 63 24 64 29 66 29 67
REMARK Flexibility Score: inf
ROOT
ATOM      1  C   UNL     1     -46.831  34.730  26.950  1.00  0.00     0.115 C 
ATOM      2  H   UNL     1     -45.989  34.635  26.254  1.00  0.00     0.076 H 
ATOM      3  H   UNL     1     -46.534  34.225  27.879  1.00  0.00     0.076 H 
ENDROOT
BRANCH   1   4
ATOM      4  O   UNL     1     -47.980  34.152  26.317  1.00  0.00    -0.489 OA
BRANCH   4   5
ATOM      5  C   UNL     1     -47.678  33.021  25.610  1.00  0.00     0.122 A 
ATOM      6  C   UNL     1     -48.918  28.558  24.546  1.00  0.00     0.126 A 
ATOM      7  C   UNL     1     -47.826  28.415  23.698  1.00  0.00    -0.019 A 
ATOM      8  N   UNL     1     -49.139  29.702  25.223  1.00  0.00    -0.231 NA
ATOM      9  C   UNL     1     -46.958  29.486  23.513  1.00  0.00    -0.049 A 
ATOM     10  H   UNL     1     -47.645  27.474  23.189  1.00  0.00     0.066 H 
ATOM     11  C   UNL     1     -48.304  30.744  25.050  1.00  0.00     0.076 A 
ATOM     12  C   UNL     1     -47.188  30.683  24.193  1.00  0.00     0.001 A 
ATOM     13  H   UNL     1     -46.107  29.374  22.846  1.00  0.00     0.063 H 
ATOM     14  C   UNL     1     -48.536  31.927  25.738  1.00  0.00     0.007 A 
ATOM     15  C   UNL     1     -46.342  31.797  24.037  1.00  0.00    -0.049 A 
ATOM     16  H   UNL     1     -49.393  31.990  26.404  1.00  0.00     0.069 H 
ATOM     17  C   UNL     1     -46.593  32.972  24.743  1.00  0.00    -0.019 A 
ATOM     18  H   UNL     1     -45.489  31.754  23.365  1.00  0.00     0.063 H 
ATOM     19  H   UNL     1     -45.951  33.836  24.608  1.00  0.00     0.066 H 
BRANCH   6  20
ATOM     20  N   UNL     1     -49.760  27.445  24.731  1.00  0.00    -0.373 N 
ATOM     21  H   UNL     1     -50.710  27.710  24.487  1.00  0.00     0.161 HD
BRANCH  20  22
ATOM     22  C   UNL     1     -49.694  26.857  26.059  1.00  0.00     0.005 C 
ATOM     23  H   UNL     1     -49.959  27.620  26.798  1.00  0.00     0.045 H 
ATOM     24  H   UNL     1     -50.407  26.034  26.173  1.00  0.00     0.045 H 
ATOM     25  H   UNL     1     -48.683  26.505  26.294  1.00  0.00     0.045 H 
ENDBRANCH  20  22
ENDBRANCH   6  20
ENDBRANCH   4   5
ENDBRANCH   1   4
BRANCH   1  26
ATOM     26  C   UNL     1     -47.112  36.178  27.244  1.00  0.00     0.010 A 
ATOM     27  C   UNL     1     -48.382  36.619  27.583  1.00  0.00     0.034 A 
ATOM     28  C   UNL     1     -46.084  37.130  27.202  1.00  0.00    -0.028 A 
ATOM     29  N   UNL     1     -48.681  37.908  27.855  1.00  0.00    -0.262 NA
ATOM     30  H   UNL     1     -49.224  35.935  27.647  1.00  0.00     0.084 H 
ATOM     31  C   UNL     1     -46.341  38.470  27.503  1.00  0.00     0.066 A 
ATOM     32  H   UNL     1     -45.094  36.787  26.918  1.00  0.00     0.065 H 
ATOM     33  C   UNL     1     -47.657  38.797  27.814  1.00  0.00     0.051 A 
ATOM     34  H   UNL     1     -47.970  39.802  28.080  1.00  0.00     0.086 H 
BRANCH  31  35
ATOM     35  N   UNL     1     -45.309  39.462  27.505  1.00  0.00    -0.299 N 
ATOM     36  C   UNL     1     -45.151  40.450  26.545  1.00  0.00     0.015 A 
ATOM     37  C   UNL     1     -44.295  39.637  28.444  1.00  0.00     0.150 A 
ATOM     38  C   UNL     1     -44.057  41.245  26.838  1.00  0.00    -0.013 A 
ATOM     39  H   UNL     1     -45.812  40.493  25.695  1.00  0.00     0.083 H 
ATOM     40  C   UNL     1     -43.520  40.735  28.071  1.00  0.00     0.065 A 
ATOM     41  N   UNL     1     -44.103  38.898  29.553  1.00  0.00    -0.218 NA
ATOM     42  C   UNL     1     -42.455  41.069  28.931  1.00  0.00     0.136 A 
ATOM     43  C   UNL     1     -43.063  39.306  30.288  1.00  0.00     0.120 A 
ATOM     44  N   UNL     1     -42.244  40.338  30.038  1.00  0.00    -0.219 NA
ATOM     45  H   UNL     1     -42.862  38.740  31.194  1.00  0.00     0.106 H 
BRANCH  38  46
ATOM     46  C   UNL     1     -43.519  42.415  26.039  1.00  0.00    -0.011 C 
ATOM     47  C   UNL     1     -44.116  42.580  24.632  1.00  0.00    -0.033 C 
ATOM     48  C   UNL     1     -43.594  43.733  26.824  1.00  0.00    -0.033 C 
ATOM     49  H   UNL     1     -42.456  42.194  25.873  1.00  0.00     0.035 H 
ATOM     50  C   UNL     1     -45.422  43.376  24.588  1.00  0.00    -0.002 C 
ATOM     51  H   UNL     1     -43.381  43.117  24.017  1.00  0.00     0.029 H 
ATOM     52  H   UNL     1     -44.262  41.604  24.153  1.00  0.00     0.029 H 
ATOM     53  C   UNL     1     -44.964  44.399  26.729  1.00  0.00    -0.002 C 
ATOM     54  H   UNL     1     -43.338  43.580  27.880  1.00  0.00     0.029 H 
ATOM     55  H   UNL     1     -42.840  44.424  26.422  1.00  0.00     0.029 H 
ATOM     56  N   UNL     1     -45.315  44.641  25.325  1.00  0.00    -0.306 NA
ATOM     57  H   UNL     1     -45.650  43.586  23.535  1.00  0.00     0.043 H 
ATOM     58  H   UNL     1     -46.255  42.777  24.969  1.00  0.00     0.043 H 
ATOM     59  H   UNL     1     -44.911  45.354  27.265  1.00  0.00     0.043 H 
ATOM     60  H   UNL     1     -45.724  43.789  27.231  1.00  0.00     0.043 H 
BRANCH  56  61
ATOM     61  C   UNL     1     -46.566  45.394  25.232  1.00  0.00    -0.013 C 
ATOM     62  H   UNL     1     -46.390  46.459  25.420  1.00  0.00     0.039 H 
ATOM     63  H   UNL     1     -47.276  45.056  25.995  1.00  0.00     0.039 H 
ATOM     64  H   UNL     1     -47.040  45.291  24.249  1.00  0.00     0.039 H 
ENDBRANCH  56  61
ENDBRANCH  38  46
BRANCH  42  65
ATOM     65  N   UNL     1     -41.593  42.143  28.746  1.00  0.00    -0.383 N 
ATOM     66  H   UNL     1     -40.757  41.920  28.225  1.00  0.00     0.158 HD
ATOM     67  H   UNL     1     -42.120  42.936  28.397  1.00  0.00     0.158 HD
ENDBRANCH  42  65
ENDBRANCH  31  35
ENDBRANCH   1  26
TORSDOF 9
ENDMDL
MODEL 3
REMARK VINA RESULT:      -9.5      1.497      1.953
REMARK SMILES CNc1ccc2ccc(OCc3cncc(-n4cc(C5CCN(C)CC5)c5c(N)ncnc54)c3)cc2n1
REMARK SMILES IDX 11 1 10 4 9 5 3 6 4 7 37 8 5 9 36 11 6 12 35 14 7 15 8 17
REMARK SMILES IDX 2 20 1 22 12 26 13 27 34 28 14 29 16 31 15 33 17 35 18 36
REMARK SMILES IDX 33 37 19 38 27 40 32 41 28 42 31 43 30 44 20 46 21 47 26 48
REMARK SMILES IDX 22 50 25 53 23 56 24 61 29 65
REMARK H PARENT 11 2 11 3 4 10 5 13 35 16 7 18 8 19 2 21 1 23 1 24 1 25 13 30
REMARK H PARENT 34 32 15 34 18 39 31 45 20 49 21 51 21 52 26 54 26 55 22 57
REMARK H PARENT 22 58 25 59 25 60 24 62 24 63 24 64 29 66 29 67
REMARK Flexibility Score: inf
ROOT
ATOM      1  C   UNL     1     -48.157  36.339  28.308  1.00  0.00     0.115 C 
ATOM      2  H   UNL     1     -47.171  35.863  28.249  1.00  0.00     0.076 H 
ATOM      3  H   UNL     1     -48.525  36.180  29.331  1.00  0.00     0.076 H 
ENDROOT
BRANCH   1   4
ATOM      4  O   UNL     1     -48.982  35.749  27.296  1.00  0.00    -0.489 OA
BRANCH   4   5
ATOM      5  C   UNL     1     -48.326  34.792  26.573  1.00  0.00     0.122 A 
ATOM      6  C   UNL     1     -48.482  30.423  24.709  1.00  0.00     0.126 A 
ATOM      7  C   UNL     1     -47.204  30.561  24.178  1.00  0.00    -0.019 A 
ATOM      8  N   UNL     1     -49.056  31.408  25.426  1.00  0.00    -0.231 NA
ATOM      9  C   UNL     1     -46.512  31.754  24.360  1.00  0.00    -0.049 A 
ATOM     10  H   UNL     1     -46.744  29.744  23.633  1.00  0.00     0.066 H 
ATOM     11  C   UNL     1     -48.394  32.567  25.607  1.00  0.00     0.076 A 
ATOM     12  C   UNL     1     -47.105  32.790  25.084  1.00  0.00     0.001 A 
ATOM     13  H   UNL     1     -45.515  31.862  23.942  1.00  0.00     0.063 H 
ATOM     14  C   UNL     1     -48.989  33.586  26.337  1.00  0.00     0.007 A 
ATOM     15  C   UNL     1     -46.449  34.017  25.293  1.00  0.00    -0.049 A 
ATOM     16  H   UNL     1     -49.983  33.430  26.748  1.00  0.00     0.069 H 
ATOM     17  C   UNL     1     -47.066  35.024  26.034  1.00  0.00    -0.019 A 
ATOM     18  H   UNL     1     -45.461  34.193  24.877  1.00  0.00     0.063 H 
ATOM     19  H   UNL     1     -46.567  35.976  26.178  1.00  0.00     0.066 H 
BRANCH   6  20
ATOM     20  N   UNL     1     -49.141  29.193  24.529  1.00  0.00    -0.373 N 
ATOM     21  H   UNL     1     -50.142  29.360  24.495  1.00  0.00     0.161 HD
BRANCH  20  22
ATOM     22  C   UNL     1     -48.802  28.181  25.517  1.00  0.00     0.005 C 
ATOM     23  H   UNL     1     -48.613  28.673  26.477  1.00  0.00     0.045 H 
ATOM     24  H   UNL     1     -49.624  27.474  25.670  1.00  0.00     0.045 H 
ATOM     25  H   UNL     1     -47.893  27.635  25.240  1.00  0.00     0.045 H 
ENDBRANCH  20  22
ENDBRANCH   6  20
ENDBRANCH   4   5
ENDBRANCH   1   4
BRANCH   1  26
ATOM     26  C   UNL     1     -48.047  37.817  28.049  1.00  0.00     0.010 A 
ATOM     27  C   UNL     1     -49.153  38.649  28.099  1.00  0.00     0.034 A 
ATOM     28  C   UNL     1     -46.805  38.402  27.763  1.00  0.00    -0.028 A 
ATOM     29  N   UNL     1     -49.101  39.980  27.873  1.00  0.00    -0.262 NA
ATOM     30  H   UNL     1     -50.144  38.266  28.326  1.00  0.00     0.084 H 
ATOM     31  C   UNL     1     -46.699  39.779  27.550  1.00  0.00     0.066 A 
ATOM     32  H   UNL     1     -45.943  37.747  27.705  1.00  0.00     0.065 H 
ATOM     33  C   UNL     1     -47.881  40.512  27.610  1.00  0.00     0.051 A 
ATOM     34  H   UNL     1     -47.918  41.588  27.477  1.00  0.00     0.086 H 
BRANCH  31  35
ATOM     35  N   UNL     1     -45.444  40.416  27.292  1.00  0.00    -0.299 N 
ATOM     36  C   UNL     1     -45.172  41.231  26.204  1.00  0.00     0.015 A 
ATOM     37  C   UNL     1     -44.283  40.358  28.061  1.00  0.00     0.150 A 
ATOM     38  C   UNL     1     -43.866  41.686  26.249  1.00  0.00    -0.013 A 
ATOM     39  H   UNL     1     -45.922  41.399  25.449  1.00  0.00     0.083 H 
ATOM     40  C   UNL     1     -43.302  41.142  27.454  1.00  0.00     0.065 A 
ATOM     41  N   UNL     1     -44.130  39.688  29.219  1.00  0.00    -0.218 NA
ATOM     42  C   UNL     1     -42.061  41.214  28.119  1.00  0.00     0.136 A 
ATOM     43  C   UNL     1     -42.913  39.827  29.754  1.00  0.00     0.120 A 
ATOM     44  N   UNL     1     -41.888  40.545  29.271  1.00  0.00    -0.219 NA
ATOM     45  H   UNL     1     -42.735  39.303  30.690  1.00  0.00     0.106 H 
BRANCH  38  46
ATOM     46  C   UNL     1     -43.156  42.574  25.246  1.00  0.00    -0.011 C 
ATOM     47  C   UNL     1     -43.849  42.705  23.879  1.00  0.00    -0.033 C 
ATOM     48  C   UNL     1     -42.830  43.957  25.829  1.00  0.00    -0.033 C 
ATOM     49  H   UNL     1     -42.202  42.074  25.034  1.00  0.00     0.035 H 
ATOM     50  C   UNL     1     -44.926  43.790  23.816  1.00  0.00    -0.002 C 
ATOM     51  H   UNL     1     -43.080  42.958  23.137  1.00  0.00     0.029 H 
ATOM     52  H   UNL     1     -44.274  41.744  23.563  1.00  0.00     0.029 H 
ATOM     53  C   UNL     1     -44.005  44.927  25.739  1.00  0.00    -0.002 C 
ATOM     54  H   UNL     1     -42.503  43.879  26.873  1.00  0.00     0.029 H 
ATOM     55  H   UNL     1     -41.983  44.380  25.272  1.00  0.00     0.029 H 
ATOM     56  N   UNL     1     -44.441  45.070  24.346  1.00  0.00    -0.306 NA
ATOM     57  H   UNL     1     -45.212  43.916  22.764  1.00  0.00     0.043 H 
ATOM     58  H   UNL     1     -45.830  43.471  24.344  1.00  0.00     0.043 H 
ATOM     59  H   UNL     1     -43.668  45.898  26.122  1.00  0.00     0.043 H 
ATOM     60  H   UNL     1     -44.828  44.595  26.383  1.00  0.00     0.043 H 
BRANCH  56  61
ATOM     61  C   UNL     1     -45.480  46.095  24.237  1.00  0.00    -0.013 C 
ATOM     62  H   UNL     1     -45.391  46.822  25.052  1.00  0.00     0.039 H 
ATOM     63  H   UNL     1     -46.474  45.644  24.327  1.00  0.00     0.039 H 
ATOM     64  H   UNL     1     -45.430  46.636  23.285  1.00  0.00     0.039 H 
ENDBRANCH  56  61
ENDBRANCH  38  46
BRANCH  42  65
ATOM     65  N   UNL     1     -40.973  41.964  27.688  1.00  0.00    -0.383 N 
ATOM     66  H   UNL     1     -40.398  41.503  26.999  1.00  0.00     0.158 HD
ATOM     67  H   UNL     1     -41.289  42.893  27.435  1.00  0.00     0.158 HD
ENDBRANCH  42  65
ENDBRANCH  31  35
ENDBRANCH   1  26
TORSDOF 9
ENDMDL
MODEL 4
REMARK VINA RESULT:      -9.1      2.344     11.773
REMARK SMILES CNc1ccc2ccc(OCc3cncc(-n4cc(C5CCN(C)CC5)c5c(N)ncnc54)c3)cc2n1
REMARK SMILES IDX 11 1 10 4 9 5 3 6 4 7 37 8 5 9 36 11 6 12 35 14 7 15 8 17
REMARK SMILES IDX 2 20 1 22 12 26 13 27 34 28 14 29 16 31 15 33 17 35 18 36
REMARK SMILES IDX 33 37 19 38 27 40 32 41 28 42 31 43 30 44 20 46 21 47 26 48
REMARK SMILES IDX 22 50 25 53 23 56 24 61 29 65
REMARK H PARENT 11 2 11 3 4 10 5 13 35 16 7 18 8 19 2 21 1 23 1 24 1 25 13 30
REMARK H PARENT 34 32 15 34 18 39 31 45 20 49 21 51 21 52 26 54 26 55 22 57
REMARK H PARENT 22 58 25 59 25 60 24 62 24 63 24 64 29 66 29 67
REMARK Flexibility Score: inf
ROOT
ATOM      1  C   UNL     1     -47.305  36.564  26.662  1.00  0.00     0.115 C 
ATOM      2  H   UNL     1     -46.555  37.020  26.004  1.00  0.00     0.076 H 
ATOM      3  H   UNL     1     -48.267  36.624  26.135  1.00  0.00     0.076 H 
ENDROOT
BRANCH   1   4
ATOM      4  O   UNL     1     -47.278  37.278  27.905  1.00  0.00    -0.489 OA
BRANCH   4   5
ATOM      5  C   UNL     1     -46.247  38.174  27.976  1.00  0.00     0.122 A 
ATOM      6  C   UNL     1     -44.071  41.889  25.963  1.00  0.00     0.126 A 
ATOM      7  C   UNL     1     -43.120  41.931  26.976  1.00  0.00    -0.019 A 
ATOM      8  N   UNL     1     -45.050  40.962  25.954  1.00  0.00    -0.231 NA
ATOM      9  C   UNL     1     -43.196  41.020  28.025  1.00  0.00    -0.049 A 
ATOM     10  H   UNL     1     -42.319  42.661  26.948  1.00  0.00     0.066 H 
ATOM     11  C   UNL     1     -45.131  40.077  26.965  1.00  0.00     0.076 A 
ATOM     12  C   UNL     1     -44.217  40.068  28.037  1.00  0.00     0.001 A 
ATOM     13  H   UNL     1     -42.454  41.056  28.818  1.00  0.00     0.063 H 
ATOM     14  C   UNL     1     -46.144  39.128  26.963  1.00  0.00     0.007 A 
ATOM     15  C   UNL     1     -44.340  39.127  29.076  1.00  0.00    -0.049 A 
ATOM     16  H   UNL     1     -46.858  39.121  26.142  1.00  0.00     0.069 H 
ATOM     17  C   UNL     1     -45.363  38.182  29.048  1.00  0.00    -0.019 A 
ATOM     18  H   UNL     1     -43.642  39.131  29.910  1.00  0.00     0.063 H 
ATOM     19  H   UNL     1     -45.468  37.470  29.860  1.00  0.00     0.066 H 
BRANCH   6  20
ATOM     20  N   UNL     1     -43.948  42.807  24.905  1.00  0.00    -0.373 N 
ATOM     21  H   UNL     1     -43.108  43.362  25.048  1.00  0.00     0.161 HD
BRANCH  20  22
ATOM     22  C   UNL     1     -45.115  43.651  24.704  1.00  0.00     0.005 C 
ATOM     23  H   UNL     1     -44.932  44.625  25.169  1.00  0.00     0.045 H 
ATOM     24  H   UNL     1     -45.308  43.829  23.641  1.00  0.00     0.045 H 
ATOM     25  H   UNL     1     -46.008  43.223  25.175  1.00  0.00     0.045 H 
ENDBRANCH  20  22
ENDBRANCH   6  20
ENDBRANCH   4   5
ENDBRANCH   1   4
BRANCH   1  26
ATOM     26  C   UNL     1     -46.972  35.121  26.921  1.00  0.00     0.010 A 
ATOM     27  C   UNL     1     -46.360  34.714  28.095  1.00  0.00     0.034 A 
ATOM     28  C   UNL     1     -47.291  34.133  25.979  1.00  0.00    -0.028 A 
ATOM     29  N   UNL     1     -46.043  33.429  28.371  1.00  0.00    -0.262 NA
ATOM     30  H   UNL     1     -46.095  35.423  28.875  1.00  0.00     0.084 H 
ATOM     31  C   UNL     1     -47.007  32.788  26.232  1.00  0.00     0.066 A 
ATOM     32  H   UNL     1     -47.753  34.454  25.051  1.00  0.00     0.065 H 
ATOM     33  C   UNL     1     -46.377  32.501  27.439  1.00  0.00     0.051 A 
ATOM     34  H   UNL     1     -46.123  31.493  27.750  1.00  0.00     0.086 H 
BRANCH  31  35
ATOM     35  N   UNL     1     -47.351  31.749  25.310  1.00  0.00    -0.299 N 
ATOM     36  C   UNL     1     -48.170  30.667  25.596  1.00  0.00     0.015 A 
ATOM     37  C   UNL     1     -46.956  31.622  23.979  1.00  0.00     0.150 A 
ATOM     38  C   UNL     1     -48.300  29.847  24.490  1.00  0.00    -0.013 A 
ATOM     39  H   UNL     1     -48.575  30.539  26.587  1.00  0.00     0.083 H 
ATOM     40  C   UNL     1     -47.537  30.473  23.445  1.00  0.00     0.065 A 
ATOM     41  N   UNL     1     -46.171  32.479  23.299  1.00  0.00    -0.218 NA
ATOM     42  C   UNL     1     -47.257  30.205  22.090  1.00  0.00     0.136 A 
ATOM     43  C   UNL     1     -45.974  32.120  22.027  1.00  0.00     0.120 A 
ATOM     44  N   UNL     1     -46.470  31.045  21.397  1.00  0.00    -0.219 NA
ATOM     45  H   UNL     1     -45.344  32.777  21.432  1.00  0.00     0.106 H 
BRANCH  38  46
ATOM     46  C   UNL     1     -49.080  28.551  24.381  1.00  0.00    -0.011 C 
ATOM     47  C   UNL     1     -48.312  27.373  23.762  1.00  0.00    -0.033 C 
ATOM     48  C   UNL     1     -49.718  28.147  25.718  1.00  0.00    -0.033 C 
ATOM     49  H   UNL     1     -49.898  28.759  23.679  1.00  0.00     0.035 H 
ATOM     50  C   UNL     1     -47.465  26.576  24.756  1.00  0.00    -0.002 C 
ATOM     51  H   UNL     1     -49.049  26.683  23.328  1.00  0.00     0.029 H 
ATOM     52  H   UNL     1     -47.683  27.711  22.928  1.00  0.00     0.029 H 
ATOM     53  C   UNL     1     -48.750  27.397  26.631  1.00  0.00    -0.002 C 
ATOM     54  H   UNL     1     -50.112  29.022  26.250  1.00  0.00     0.029 H 
ATOM     55  H   UNL     1     -50.580  27.498  25.513  1.00  0.00     0.029 H 
ATOM     56  N   UNL     1     -48.233  26.205  25.951  1.00  0.00    -0.306 NA
ATOM     57  H   UNL     1     -47.120  25.667  24.247  1.00  0.00     0.043 H 
ATOM     58  H   UNL     1     -46.564  27.133  25.034  1.00  0.00     0.043 H 
ATOM     59  H   UNL     1     -49.301  27.098  27.531  1.00  0.00     0.043 H 
ATOM     60  H   UNL     1     -47.936  28.057  26.954  1.00  0.00     0.043 H 
BRANCH  56  61
ATOM     61  C   UNL     1     -47.407  25.413  26.863  1.00  0.00    -0.013 C 
ATOM     62  H   UNL     1     -47.738  24.368  26.875  1.00  0.00     0.039 H 
ATOM     63  H   UNL     1     -47.504  25.784  27.889  1.00  0.00     0.039 H 
ATOM     64  H   UNL     1     -46.346  25.435  26.586  1.00  0.00     0.039 H 
ENDBRANCH  56  61
ENDBRANCH  38  46
BRANCH  42  65
ATOM     65  N   UNL     1     -47.765  29.127  21.374  1.00  0.00    -0.383 N 
ATOM     66  H   UNL     1     -47.641  28.233  21.825  1.00  0.00     0.158 HD
ATOM     67  H   UNL     1     -48.714  29.337  21.085  1.00  0.00     0.158 HD
ENDBRANCH  42  65
ENDBRANCH  31  35
ENDBRANCH   1  26
TORSDOF 9
ENDMDL
MODEL 5
REMARK VINA RESULT:      -8.9      2.541     11.638
REMARK SMILES CNc1ccc2ccc(OCc3cncc(-n4cc(C5CCN(C)CC5)c5c(N)ncnc54)c3)cc2n1
REMARK SMILES IDX 11 1 10 4 9 5 3 6 4 7 37 8 5 9 36 11 6 12 35 14 7 15 8 17
REMARK SMILES IDX 2 20 1 22 12 26 13 27 34 28 14 29 16 31 15 33 17 35 18 36
REMARK SMILES IDX 33 37 19 38 27 40 32 41 28 42 31 43 30 44 20 46 21 47 26 48
REMARK SMILES IDX 22 50 25 53 23 56 24 61 29 65
REMARK H PARENT 11 2 11 3 4 10 5 13 35 16 7 18 8 19 2 21 1 23 1 24 1 25 13 30
REMARK H PARENT 34 32 15 34 18 39 31 45 20 49 21 51 21 52 26 54 26 55 22 57
REMARK H PARENT 22 58 25 59 25 60 24 62 24 63 24 64 29 66 29 67
REMARK Flexibility Score: inf
ROOT
ATOM      1  C   UNL     1     -46.624  37.066  26.910  1.00  0.00     0.115 C 
ATOM      2  H   UNL     1     -45.658  37.397  26.512  1.00  0.00     0.076 H 
ATOM      3  H   UNL     1     -47.389  37.378  26.186  1.00  0.00     0.076 H 
ENDROOT
BRANCH   1   4
ATOM      4  O   UNL     1     -46.779  37.654  28.208  1.00  0.00    -0.489 OA
BRANCH   4   5
ATOM      5  C   UNL     1     -45.663  38.332  28.616  1.00  0.00     0.122 A 
ATOM      6  C   UNL     1     -42.726  41.982  27.820  1.00  0.00     0.126 A 
ATOM      7  C   UNL     1     -41.950  41.650  28.924  1.00  0.00    -0.019 A 
ATOM      8  N   UNL     1     -43.804  41.253  27.472  1.00  0.00    -0.231 NA
ATOM      9  C   UNL     1     -42.311  40.561  29.712  1.00  0.00    -0.049 A 
ATOM     10  H   UNL     1     -41.066  42.228  29.169  1.00  0.00     0.066 H 
ATOM     11  C   UNL     1     -44.161  40.197  28.228  1.00  0.00     0.076 A 
ATOM     12  C   UNL     1     -43.437  39.810  29.372  1.00  0.00     0.001 A 
ATOM     13  H   UNL     1     -41.705  40.304  30.577  1.00  0.00     0.063 H 
ATOM     14  C   UNL     1     -45.277  39.451  27.876  1.00  0.00     0.007 A 
ATOM     15  C   UNL     1     -43.846  38.701  30.138  1.00  0.00    -0.049 A 
ATOM     16  H   UNL     1     -45.846  39.737  26.995  1.00  0.00     0.069 H 
ATOM     17  C   UNL     1     -44.968  37.966  29.761  1.00  0.00    -0.019 A 
ATOM     18  H   UNL     1     -43.295  38.412  31.029  1.00  0.00     0.063 H 
ATOM     19  H   UNL     1     -45.292  37.123  30.363  1.00  0.00     0.066 H 
BRANCH   6  20
ATOM     20  N   UNL     1     -42.317  43.073  27.031  1.00  0.00    -0.373 N 
ATOM     21  H   UNL     1     -41.593  43.584  27.529  1.00  0.00     0.161 HD
BRANCH  20  22
ATOM     22  C   UNL     1     -43.399  43.952  26.615  1.00  0.00     0.005 C 
ATOM     23  H   UNL     1     -43.844  44.410  27.504  1.00  0.00     0.045 H 
ATOM     24  H   UNL     1     -43.037  44.764  25.977  1.00  0.00     0.045 H 
ATOM     25  H   UNL     1     -44.190  43.399  26.096  1.00  0.00     0.045 H 
ENDBRANCH  20  22
ENDBRANCH   6  20
ENDBRANCH   4   5
ENDBRANCH   1   4
BRANCH   1  26
ATOM     26  C   UNL     1     -46.655  35.568  27.046  1.00  0.00     0.010 A 
ATOM     27  C   UNL     1     -46.004  34.918  28.081  1.00  0.00     0.034 A 
ATOM     28  C   UNL     1     -47.365  34.781  26.129  1.00  0.00    -0.028 A 
ATOM     29  N   UNL     1     -46.003  33.576  28.243  1.00  0.00    -0.262 NA
ATOM     30  H   UNL     1     -45.444  35.465  28.835  1.00  0.00     0.084 H 
ATOM     31  C   UNL     1     -47.416  33.391  26.271  1.00  0.00     0.066 A 
ATOM     32  H   UNL     1     -47.859  35.289  25.307  1.00  0.00     0.065 H 
ATOM     33  C   UNL     1     -46.710  32.849  27.342  1.00  0.00     0.051 A 
ATOM     34  H   UNL     1     -46.691  31.787  27.560  1.00  0.00     0.086 H 
BRANCH  31  35
ATOM     35  N   UNL     1     -48.161  32.560  25.376  1.00  0.00    -0.299 N 
ATOM     36  C   UNL     1     -47.636  31.504  24.645  1.00  0.00     0.015 A 
ATOM     37  C   UNL     1     -49.519  32.631  25.074  1.00  0.00     0.150 A 
ATOM     38  C   UNL     1     -48.618  30.908  23.876  1.00  0.00    -0.013 A 
ATOM     39  H   UNL     1     -46.584  31.277  24.698  1.00  0.00     0.083 H 
ATOM     40  C   UNL     1     -49.833  31.619  24.169  1.00  0.00     0.065 A 
ATOM     41  N   UNL     1     -50.402  33.507  25.590  1.00  0.00    -0.218 NA
ATOM     42  C   UNL     1     -51.182  31.532  23.772  1.00  0.00     0.136 A 
ATOM     43  C   UNL     1     -51.648  33.331  25.139  1.00  0.00     0.120 A 
ATOM     44  N   UNL     1     -52.076  32.403  24.271  1.00  0.00    -0.219 NA
ATOM     45  H   UNL     1     -52.401  34.015  25.522  1.00  0.00     0.106 H 
BRANCH  38  46
ATOM     46  C   UNL     1     -48.467  29.743  22.916  1.00  0.00    -0.011 C 
ATOM     47  C   UNL     1     -47.051  29.535  22.355  1.00  0.00    -0.033 C 
ATOM     48  C   UNL     1     -49.022  28.437  23.502  1.00  0.00    -0.033 C 
ATOM     49  H   UNL     1     -49.084  29.999  22.045  1.00  0.00     0.035 H 
ATOM     50  C   UNL     1     -46.134  28.693  23.245  1.00  0.00    -0.002 C 
ATOM     51  H   UNL     1     -47.146  29.015  21.392  1.00  0.00     0.029 H 
ATOM     52  H   UNL     1     -46.572  30.498  22.136  1.00  0.00     0.029 H 
ATOM     53  C   UNL     1     -48.019  27.722  24.404  1.00  0.00    -0.002 C 
ATOM     54  H   UNL     1     -49.949  28.616  24.061  1.00  0.00     0.029 H 
ATOM     55  H   UNL     1     -49.287  27.766  22.673  1.00  0.00     0.029 H 
ATOM     56  N   UNL     1     -46.781  27.445  23.667  1.00  0.00    -0.306 NA
ATOM     57  H   UNL     1     -45.232  28.459  22.667  1.00  0.00     0.043 H 
ATOM     58  H   UNL     1     -45.801  29.270  24.114  1.00  0.00     0.043 H 
ATOM     59  H   UNL     1     -48.473  26.778  24.729  1.00  0.00     0.043 H 
ATOM     60  H   UNL     1     -47.824  28.313  25.306  1.00  0.00     0.043 H 
BRANCH  56  61
ATOM     61  C   UNL     1     -45.866  26.648  24.485  1.00  0.00    -0.013 C 
ATOM     62  H   UNL     1     -45.839  25.610  24.132  1.00  0.00     0.039 H 
ATOM     63  H   UNL     1     -46.209  26.616  25.525  1.00  0.00     0.039 H 
ATOM     64  H   UNL     1     -44.844  27.044  24.470  1.00  0.00     0.039 H 
ENDBRANCH  56  61
ENDBRANCH  38  46
BRANCH  42  65
ATOM     65  N   UNL     1     -51.694  30.576  22.903  1.00  0.00    -0.383 N 
ATOM     66  H   UNL     1     -52.702  30.523  22.890  1.00  0.00     0.158 HD
ATOM     67  H   UNL     1     -51.256  30.684  21.995  1.00  0.00     0.158 HD
ENDBRANCH  42  65
ENDBRANCH  31  35
ENDBRANCH   1  26
TORSDOF 9
ENDMDL
MODEL 6
REMARK VINA RESULT:      -8.8      2.330      4.049
REMARK SMILES CNc1ccc2ccc(OCc3cncc(-n4cc(C5CCN(C)CC5)c5c(N)ncnc54)c3)cc2n1
REMARK SMILES IDX 11 1 10 4 9 5 3 6 4 7 37 8 5 9 36 11 6 12 35 14 7 15 8 17
REMARK SMILES IDX 2 20 1 22 12 26 13 27 34 28 14 29 16 31 15 33 17 35 18 36
REMARK SMILES IDX 33 37 19 38 27 40 32 41 28 42 31 43 30 44 20 46 21 47 26 48
REMARK SMILES IDX 22 50 25 53 23 56 24 61 29 65
REMARK H PARENT 11 2 11 3 4 10 5 13 35 16 7 18 8 19 2 21 1 23 1 24 1 25 13 30
REMARK H PARENT 34 32 15 34 18 39 31 45 20 49 21 51 21 52 26 54 26 55 22 57
REMARK H PARENT 22 58 25 59 25 60 24 62 24 63 24 64 29 66 29 67
REMARK Flexibility Score: inf
ROOT
ATOM      1  C   UNL     1     -47.623  34.826  27.081  1.00  0.00     0.115 C 
ATOM      2  H   UNL     1     -48.390  34.570  27.822  1.00  0.00     0.076 H 
ATOM      3  H   UNL     1     -48.152  35.066  26.148  1.00  0.00     0.076 H 
ENDROOT
BRANCH   1   4
ATOM      4  O   UNL     1     -46.737  33.705  26.973  1.00  0.00    -0.489 OA
BRANCH   4   5
ATOM      5  C   UNL     1     -47.147  32.797  26.036  1.00  0.00     0.122 A 
ATOM      6  C   UNL     1     -46.453  30.982  21.699  1.00  0.00     0.126 A 
ATOM      7  C   UNL     1     -47.507  30.090  21.861  1.00  0.00    -0.019 A 
ATOM      8  N   UNL     1     -46.119  31.860  22.665  1.00  0.00    -0.231 NA
ATOM      9  C   UNL     1     -48.214  30.076  23.059  1.00  0.00    -0.049 A 
ATOM     10  H   UNL     1     -47.783  29.414  21.059  1.00  0.00     0.066 H 
ATOM     11  C   UNL     1     -46.798  31.853  23.828  1.00  0.00     0.076 A 
ATOM     12  C   UNL     1     -47.865  30.967  24.074  1.00  0.00     0.001 A 
ATOM     13  H   UNL     1     -49.036  29.375  23.185  1.00  0.00     0.063 H 
ATOM     14  C   UNL     1     -46.450  32.751  24.828  1.00  0.00     0.007 A 
ATOM     15  C   UNL     1     -48.547  30.991  25.305  1.00  0.00    -0.049 A 
ATOM     16  H   UNL     1     -45.629  33.442  24.653  1.00  0.00     0.069 H 
ATOM     17  C   UNL     1     -48.181  31.904  26.292  1.00  0.00    -0.019 A 
ATOM     18  H   UNL     1     -49.361  30.297  25.500  1.00  0.00     0.063 H 
ATOM     19  H   UNL     1     -48.695  31.908  27.247  1.00  0.00     0.066 H 
BRANCH   6  20
ATOM     20  N   UNL     1     -45.776  30.986  20.466  1.00  0.00    -0.373 N 
ATOM     21  H   UNL     1     -44.793  31.183  20.631  1.00  0.00     0.161 HD
BRANCH  20  22
ATOM     22  C   UNL     1     -46.341  31.891  19.476  1.00  0.00     0.005 C 
ATOM     23  H   UNL     1     -46.669  31.308  18.610  1.00  0.00     0.045 H 
ATOM     24  H   UNL     1     -47.218  32.418  19.864  1.00  0.00     0.045 H 
ATOM     25  H   UNL     1     -45.599  32.617  19.124  1.00  0.00     0.045 H 
ENDBRANCH  20  22
ENDBRANCH   6  20
ENDBRANCH   4   5
ENDBRANCH   1   4
BRANCH   1  26
ATOM     26  C   UNL     1     -46.839  36.029  27.527  1.00  0.00     0.010 A 
ATOM     27  C   UNL     1     -45.703  35.906  28.312  1.00  0.00     0.034 A 
ATOM     28  C   UNL     1     -47.227  37.320  27.143  1.00  0.00    -0.028 A 
ATOM     29  N   UNL     1     -44.967  36.957  28.737  1.00  0.00    -0.262 NA
ATOM     30  H   UNL     1     -45.337  34.936  28.637  1.00  0.00     0.084 H 
ATOM     31  C   UNL     1     -46.481  38.434  27.536  1.00  0.00     0.066 A 
ATOM     32  H   UNL     1     -48.126  37.416  26.545  1.00  0.00     0.065 H 
ATOM     33  C   UNL     1     -45.369  38.189  28.336  1.00  0.00     0.051 A 
ATOM     34  H   UNL     1     -44.707  38.975  28.686  1.00  0.00     0.086 H 
BRANCH  31  35
ATOM     35  N   UNL     1     -46.826  39.763  27.132  1.00  0.00    -0.299 N 
ATOM     36  C   UNL     1     -48.072  40.349  27.301  1.00  0.00     0.015 A 
ATOM     37  C   UNL     1     -46.008  40.710  26.519  1.00  0.00     0.150 A 
ATOM     38  C   UNL     1     -48.075  41.639  26.802  1.00  0.00    -0.013 A 
ATOM     39  H   UNL     1     -48.883  39.787  27.734  1.00  0.00     0.083 H 
ATOM     40  C   UNL     1     -46.743  41.878  26.319  1.00  0.00     0.065 A 
ATOM     41  N   UNL     1     -44.710  40.549  26.198  1.00  0.00    -0.218 NA
ATOM     42  C   UNL     1     -46.054  42.955  25.725  1.00  0.00     0.136 A 
ATOM     43  C   UNL     1     -44.165  41.634  25.639  1.00  0.00     0.120 A 
ATOM     44  N   UNL     1     -44.760  42.809  25.391  1.00  0.00    -0.219 NA
ATOM     45  H   UNL     1     -43.118  41.556  25.357  1.00  0.00     0.106 H 
BRANCH  38  46
ATOM     46  C   UNL     1     -49.234  42.617  26.762  1.00  0.00    -0.011 C 
ATOM     47  C   UNL     1     -50.623  41.981  26.580  1.00  0.00    -0.033 C 
ATOM     48  C   UNL     1     -49.223  43.575  27.962  1.00  0.00    -0.033 C 
ATOM     49  H   UNL     1     -49.078  43.221  25.859  1.00  0.00     0.035 H 
ATOM     50  C   UNL     1     -51.283  41.520  27.882  1.00  0.00    -0.002 C 
ATOM     51  H   UNL     1     -51.279  42.735  26.125  1.00  0.00     0.029 H 
ATOM     52  H   UNL     1     -50.580  41.145  25.871  1.00  0.00     0.029 H 
ATOM     53  C   UNL     1     -49.875  42.973  29.204  1.00  0.00    -0.002 C 
ATOM     54  H   UNL     1     -48.201  43.891  28.206  1.00  0.00     0.029 H 
ATOM     55  H   UNL     1     -49.770  44.487  27.687  1.00  0.00     0.029 H 
ATOM     56  N   UNL     1     -51.254  42.569  28.908  1.00  0.00    -0.306 NA
ATOM     57  H   UNL     1     -52.325  41.262  27.653  1.00  0.00     0.043 H 
ATOM     58  H   UNL     1     -50.814  40.604  28.252  1.00  0.00     0.043 H 
ATOM     59  H   UNL     1     -49.876  43.739  29.988  1.00  0.00     0.043 H 
ATOM     60  H   UNL     1     -49.284  42.129  29.578  1.00  0.00     0.043 H 
BRANCH  56  61
ATOM     61  C   UNL     1     -51.926  42.111  30.125  1.00  0.00    -0.013 C 
ATOM     62  H   UNL     1     -51.858  42.871  30.912  1.00  0.00     0.039 H 
ATOM     63  H   UNL     1     -51.440  41.211  30.516  1.00  0.00     0.039 H 
ATOM     64  H   UNL     1     -52.985  41.885  29.954  1.00  0.00     0.039 H 
ENDBRANCH  56  61
ENDBRANCH  38  46
BRANCH  42  65
ATOM     65  N   UNL     1     -46.604  44.206  25.472  1.00  0.00    -0.383 N 
ATOM     66  H   UNL     1     -47.437  44.186  24.902  1.00  0.00     0.158 HD
ATOM     67  H   UNL     1     -46.691  44.713  26.346  1.00  0.00     0.158 HD
ENDBRANCH  42  65
ENDBRANCH  31  35
ENDBRANCH   1  26
TORSDOF 9
ENDMDL
MODEL 7
REMARK VINA RESULT:      -8.8      2.235      5.498
REMARK SMILES CNc1ccc2ccc(OCc3cncc(-n4cc(C5CCN(C)CC5)c5c(N)ncnc54)c3)cc2n1
REMARK SMILES IDX 11 1 10 4 9 5 3 6 4 7 37 8 5 9 36 11 6 12 35 14 7 15 8 17
REMARK SMILES IDX 2 20 1 22 12 26 13 27 34 28 14 29 16 31 15 33 17 35 18 36
REMARK SMILES IDX 33 37 19 38 27 40 32 41 28 42 31 43 30 44 20 46 21 47 26 48
REMARK SMILES IDX 22 50 25 53 23 56 24 61 29 65
REMARK H PARENT 11 2 11 3 4 10 5 13 35 16 7 18 8 19 2 21 1 23 1 24 1 25 13 30
REMARK H PARENT 34 32 15 34 18 39 31 45 20 49 21 51 21 52 26 54 26 55 22 57
REMARK H PARENT 22 58 25 59 25 60 24 62 24 63 24 64 29 66 29 67
REMARK Flexibility Score: inf
ROOT
ATOM      1  C   UNL     1     -44.592  39.078  27.947  1.00  0.00     0.115 C 
ATOM      2  H   UNL     1     -44.510  38.570  26.979  1.00  0.00     0.076 H 
ATOM      3  H   UNL     1     -44.014  38.483  28.667  1.00  0.00     0.076 H 
ENDROOT
BRANCH   1   4
ATOM      4  O   UNL     1     -45.986  39.178  28.264  1.00  0.00    -0.489 OA
BRANCH   4   5
ATOM      5  C   UNL     1     -46.694  38.072  27.881  1.00  0.00     0.122 A 
ATOM      6  C   UNL     1     -46.534  33.714  25.993  1.00  0.00     0.126 A 
ATOM      7  C   UNL     1     -47.911  33.567  26.117  1.00  0.00    -0.019 A 
ATOM      8  N   UNL     1     -45.909  34.844  26.378  1.00  0.00    -0.231 NA
ATOM      9  C   UNL     1     -48.661  34.593  26.683  1.00  0.00    -0.049 A 
ATOM     10  H   UNL     1     -48.401  32.664  25.769  1.00  0.00     0.066 H 
ATOM     11  C   UNL     1     -46.627  35.842  26.928  1.00  0.00     0.076 A 
ATOM     12  C   UNL     1     -48.022  35.760  27.105  1.00  0.00     0.001 A 
ATOM     13  H   UNL     1     -49.737  34.475  26.783  1.00  0.00     0.063 H 
ATOM     14  C   UNL     1     -45.984  37.003  27.334  1.00  0.00     0.007 A 
ATOM     15  C   UNL     1     -48.735  36.825  27.687  1.00  0.00    -0.049 A 
ATOM     16  H   UNL     1     -44.907  37.082  27.204  1.00  0.00     0.069 H 
ATOM     17  C   UNL     1     -48.066  37.982  28.083  1.00  0.00    -0.019 A 
ATOM     18  H   UNL     1     -49.809  36.755  27.836  1.00  0.00     0.063 H 
ATOM     19  H   UNL     1     -48.614  38.794  28.549  1.00  0.00     0.066 H 
BRANCH   6  20
ATOM     20  N   UNL     1     -45.811  32.668  25.391  1.00  0.00    -0.373 N 
ATOM     21  H   UNL     1     -44.965  33.050  24.976  1.00  0.00     0.161 HD
BRANCH  20  22
ATOM     22  C   UNL     1     -46.572  31.890  24.427  1.00  0.00     0.005 C 
ATOM     23  H   UNL     1     -45.878  31.424  23.720  1.00  0.00     0.045 H 
ATOM     24  H   UNL     1     -47.133  31.084  24.910  1.00  0.00     0.045 H 
ATOM     25  H   UNL     1     -47.257  32.522  23.850  1.00  0.00     0.045 H 
ENDBRANCH  20  22
ENDBRANCH   6  20
ENDBRANCH   4   5
ENDBRANCH   1   4
BRANCH   1  26
ATOM     26  C   UNL     1     -44.008  40.461  27.869  1.00  0.00     0.010 A 
ATOM     27  C   UNL     1     -43.040  40.894  28.761  1.00  0.00     0.034 A 
ATOM     28  C   UNL     1     -44.417  41.356  26.870  1.00  0.00    -0.028 A 
ATOM     29  N   UNL     1     -42.487  42.127  28.729  1.00  0.00    -0.262 NA
ATOM     30  H   UNL     1     -42.667  40.251  29.553  1.00  0.00     0.084 H 
ATOM     31  C   UNL     1     -43.853  42.631  26.781  1.00  0.00     0.066 A 
ATOM     32  H   UNL     1     -45.188  41.023  26.183  1.00  0.00     0.065 H 
ATOM     33  C   UNL     1     -42.901  42.960  27.742  1.00  0.00     0.051 A 
ATOM     34  H   UNL     1     -42.385  43.914  27.762  1.00  0.00     0.086 H 
BRANCH  31  35
ATOM     35  N   UNL     1     -44.219  43.557  25.753  1.00  0.00    -0.299 N 
ATOM     36  C   UNL     1     -45.362  44.344  25.758  1.00  0.00     0.015 A 
ATOM     37  C   UNL     1     -43.523  43.854  24.583  1.00  0.00     0.150 A 
ATOM     38  C   UNL     1     -45.421  45.126  24.619  1.00  0.00    -0.013 A 
ATOM     39  H   UNL     1     -46.075  44.261  26.562  1.00  0.00     0.083 H 
ATOM     40  C   UNL     1     -44.228  44.826  23.875  1.00  0.00     0.065 A 
ATOM     41  N   UNL     1     -42.346  43.323  24.203  1.00  0.00    -0.218 NA
ATOM     42  C   UNL     1     -43.646  45.263  22.667  1.00  0.00     0.136 A 
ATOM     43  C   UNL     1     -41.895  43.809  23.043  1.00  0.00     0.120 A 
ATOM     44  N   UNL     1     -42.476  44.738  22.269  1.00  0.00    -0.219 NA
ATOM     45  H   UNL     1     -40.948  43.411  22.688  1.00  0.00     0.106 H 
BRANCH  38  46
ATOM     46  C   UNL     1     -46.509  46.103  24.219  1.00  0.00    -0.011 C 
ATOM     47  C   UNL     1     -47.647  45.507  23.375  1.00  0.00    -0.033 C 
ATOM     48  C   UNL     1     -47.066  46.873  25.425  1.00  0.00    -0.033 C 
ATOM     49  H   UNL     1     -46.020  46.834  23.562  1.00  0.00     0.035 H 
ATOM     50  C   UNL     1     -48.770  44.862  24.190  1.00  0.00    -0.002 C 
ATOM     51  H   UNL     1     -48.092  46.323  22.788  1.00  0.00     0.029 H 
ATOM     52  H   UNL     1     -47.257  44.785  22.646  1.00  0.00     0.029 H 
ATOM     53  C   UNL     1     -48.147  46.096  26.172  1.00  0.00    -0.002 C 
ATOM     54  H   UNL     1     -46.266  47.145  26.124  1.00  0.00     0.029 H 
ATOM     55  H   UNL     1     -47.498  47.818  25.068  1.00  0.00     0.029 H 
ATOM     56  N   UNL     1     -49.243  45.746  25.262  1.00  0.00    -0.306 NA
ATOM     57  H   UNL     1     -49.598  44.644  23.504  1.00  0.00     0.043 H 
ATOM     58  H   UNL     1     -48.448  43.898  24.598  1.00  0.00     0.043 H 
ATOM     59  H   UNL     1     -48.526  46.738  26.976  1.00  0.00     0.043 H 
ATOM     60  H   UNL     1     -47.721  45.203  26.646  1.00  0.00     0.043 H 
BRANCH  56  61
ATOM     61  C   UNL     1     -50.339  45.116  25.998  1.00  0.00    -0.013 C 
ATOM     62  H   UNL     1     -50.563  44.126  25.583  1.00  0.00     0.039 H 
ATOM     63  H   UNL     1     -51.255  45.709  25.905  1.00  0.00     0.039 H 
ATOM     64  H   UNL     1     -50.109  44.998  27.064  1.00  0.00     0.039 H 
ENDBRANCH  56  61
ENDBRANCH  38  46
BRANCH  42  65
ATOM     65  N   UNL     1     -44.181  46.242  21.838  1.00  0.00    -0.383 N 
ATOM     66  H   UNL     1     -43.512  46.928  21.521  1.00  0.00     0.158 HD
ATOM     67  H   UNL     1     -44.723  45.798  21.106  1.00  0.00     0.158 HD
ENDBRANCH  42  65
ENDBRANCH  31  35
ENDBRANCH   1  26
TORSDOF 9
ENDMDL
