MODEL 1
REMARK VINA RESULT:     -10.6      0.000      0.000
REMARK SMILES c1cc(-c2cn(Cc3ccc4cc(CNC5CC5)[nH]c4c3)nn2)c2cn[nH]c2c1
REMARK SMILES IDX 8 1 9 2 10 3 11 4 12 5 13 6 19 7 20 8 21 9 7 15 6 18 4 19
REMARK SMILES IDX 5 20 23 21 22 23 3 24 1 25 2 26 29 27 28 30 24 32 27 33
REMARK SMILES IDX 25 34 26 35 14 38 15 41 16 43 17 44 18 45
REMARK H PARENT 9 10 10 11 12 12 19 13 21 14 7 16 7 17 5 22 1 28 2 29 29 31
REMARK H PARENT 27 36 25 37 14 39 14 40 15 42 16 46 17 47 17 48 18 49 18 50
REMARK Flexibility Score: inf
ROOT
ATOM      1  C   UNL     1     -47.982  34.695  26.535  1.00  0.00    -0.024 A 
ATOM      2  C   UNL     1     -46.791  34.800  25.804  1.00  0.00    -0.056 A 
ATOM      3  C   UNL     1     -46.320  33.732  25.029  1.00  0.00    -0.052 A 
ATOM      4  C   UNL     1     -47.055  32.535  24.983  1.00  0.00    -0.000 A 
ATOM      5  C   UNL     1     -46.880  31.291  24.320  1.00  0.00    -0.032 A 
ATOM      6  C   UNL     1     -47.940  30.471  24.654  1.00  0.00     0.030 A 
ATOM      7  N   UNL     1     -48.752  31.187  25.501  1.00  0.00    -0.357 N 
ATOM      8  C   UNL     1     -48.233  32.443  25.719  1.00  0.00     0.046 A 
ATOM      9  C   UNL     1     -48.720  33.495  26.503  1.00  0.00    -0.033 A 
ATOM     10  H   UNL     1     -46.208  35.718  25.828  1.00  0.00     0.063 H 
ATOM     11  H   UNL     1     -45.395  33.829  24.468  1.00  0.00     0.063 H 
ATOM     12  H   UNL     1     -46.061  31.015  23.667  1.00  0.00     0.065 H 
ATOM     13  H   UNL     1     -49.611  30.849  25.912  1.00  0.00     0.166 HD
ATOM     14  H   UNL     1     -49.645  33.390  27.065  1.00  0.00     0.065 H 
ENDROOT
BRANCH   1  15
ATOM     15  C   UNL     1     -48.469  35.857  27.368  1.00  0.00     0.068 C 
ATOM     16  H   UNL     1     -48.946  36.607  26.725  1.00  0.00     0.057 H 
ATOM     17  H   UNL     1     -49.207  35.540  28.113  1.00  0.00     0.057 H 
BRANCH  15  18
ATOM     18  N   UNL     1     -47.385  36.490  28.098  1.00  0.00    -0.247 N 
ATOM     19  C   UNL     1     -45.740  37.725  28.764  1.00  0.00     0.113 A 
ATOM     20  C   UNL     1     -46.617  37.552  27.715  1.00  0.00     0.054 A 
ATOM     21  N   UNL     1     -45.994  36.768  29.714  1.00  0.00    -0.130 NA
ATOM     22  H   UNL     1     -46.777  38.073  26.784  1.00  0.00     0.086 H 
ATOM     23  N   UNL     1     -47.000  36.013  29.295  1.00  0.00    -0.066 NA
BRANCH  19  24
ATOM     24  C   UNL     1     -44.712  38.743  28.875  1.00  0.00     0.015 A 
ATOM     25  C   UNL     1     -42.831  39.779  30.047  1.00  0.00    -0.059 A 
ATOM     26  C   UNL     1     -43.814  38.791  29.960  1.00  0.00    -0.052 A 
ATOM     27  C   UNL     1     -42.701  40.756  29.059  1.00  0.00    -0.036 A 
ATOM     28  H   UNL     1     -42.154  39.787  30.900  1.00  0.00     0.062 H 
ATOM     29  H   UNL     1     -43.876  38.059  30.759  1.00  0.00     0.063 H 
ATOM     30  C   UNL     1     -43.595  40.701  27.987  1.00  0.00     0.066 A 
ATOM     31  H   UNL     1     -41.936  41.523  29.127  1.00  0.00     0.065 H 
ATOM     32  C   UNL     1     -44.590  39.730  27.869  1.00  0.00     0.029 A 
ATOM     33  N   UNL     1     -43.724  41.498  26.880  1.00  0.00    -0.278 N 
ATOM     34  C   UNL     1     -45.236  40.059  26.650  1.00  0.00     0.057 A 
ATOM     35  N   UNL     1     -44.710  41.130  26.047  1.00  0.00    -0.183 NA
ATOM     36  H   UNL     1     -43.168  42.308  26.635  1.00  0.00     0.190 HD
ATOM     37  H   UNL     1     -46.071  39.556  26.178  1.00  0.00     0.087 H 
ENDBRANCH  19  24
ENDBRANCH  15  18
ENDBRANCH   1  15
BRANCH   6  38
ATOM     38  C   UNL     1     -48.260  29.075  24.239  1.00  0.00     0.036 C 
ATOM     39  H   UNL     1     -47.551  28.762  23.464  1.00  0.00     0.049 H 
ATOM     40  H   UNL     1     -49.267  29.032  23.804  1.00  0.00     0.049 H 
BRANCH  38  41
ATOM     41  N   UNL     1     -48.168  28.192  25.396  1.00  0.00    -0.308 NA
ATOM     42  H   UNL     1     -49.079  28.139  25.847  1.00  0.00     0.123 HD
BRANCH  41  43
ATOM     43  C   UNL     1     -47.673  26.859  25.049  1.00  0.00     0.007 C 
ATOM     44  C   UNL     1     -46.742  26.172  26.008  1.00  0.00    -0.036 C 
ATOM     45  C   UNL     1     -46.224  26.679  24.694  1.00  0.00    -0.036 C 
ATOM     46  H   UNL     1     -48.388  26.216  24.539  1.00  0.00     0.046 H 
ATOM     47  H   UNL     1     -46.443  26.699  26.906  1.00  0.00     0.028 H 
ATOM     48  H   UNL     1     -46.844  25.101  26.136  1.00  0.00     0.028 H 
ATOM     49  H   UNL     1     -45.976  25.954  23.930  1.00  0.00     0.028 H 
ATOM     50  H   UNL     1     -45.579  27.550  24.710  1.00  0.00     0.028 H 
ENDBRANCH  41  43
ENDBRANCH  38  41
ENDBRANCH   6  38
TORSDOF 6
ENDMDL
MODEL 2
REMARK VINA RESULT:     -10.5      1.476      2.125
REMARK SMILES c1cc(-c2cn(Cc3ccc4cc(CNC5CC5)[nH]c4c3)nn2)c2cn[nH]c2c1
REMARK SMILES IDX 8 1 9 2 10 3 11 4 12 5 13 6 19 7 20 8 21 9 7 15 6 18 4 19
REMARK SMILES IDX 5 20 23 21 22 23 3 24 1 25 2 26 29 27 28 30 24 32 27 33
REMARK SMILES IDX 25 34 26 35 14 38 15 41 16 43 17 44 18 45
REMARK H PARENT 9 10 10 11 12 12 19 13 21 14 7 16 7 17 5 22 1 28 2 29 29 31
REMARK H PARENT 27 36 25 37 14 39 14 40 15 42 16 46 17 47 17 48 18 49 18 50
REMARK Flexibility Score: inf
ROOT
ATOM      1  C   UNL     1     -47.640  36.135  27.145  1.00  0.00    -0.024 A 
ATOM      2  C   UNL     1     -46.319  35.842  26.778  1.00  0.00    -0.056 A 
ATOM      3  C   UNL     1     -45.980  34.600  26.226  1.00  0.00    -0.052 A 
ATOM      4  C   UNL     1     -46.981  33.631  26.037  1.00  0.00    -0.000 A 
ATOM      5  C   UNL     1     -46.993  32.309  25.516  1.00  0.00    -0.032 A 
ATOM      6  C   UNL     1     -48.289  31.833  25.579  1.00  0.00     0.030 A 
ATOM      7  N   UNL     1     -49.059  32.833  26.122  1.00  0.00    -0.357 N 
ATOM      8  C   UNL     1     -48.287  33.935  26.411  1.00  0.00     0.046 A 
ATOM      9  C   UNL     1     -48.648  35.167  26.969  1.00  0.00    -0.033 A 
ATOM     10  H   UNL     1     -45.531  36.579  26.918  1.00  0.00     0.063 H 
ATOM     11  H   UNL     1     -44.952  34.388  25.946  1.00  0.00     0.063 H 
ATOM     12  H   UNL     1     -46.144  31.755  25.139  1.00  0.00     0.065 H 
ATOM     13  H   UNL     1     -50.055  32.778  26.289  1.00  0.00     0.166 HD
ATOM     14  H   UNL     1     -49.678  35.371  27.250  1.00  0.00     0.065 H 
ENDROOT
BRANCH   1  15
ATOM     15  C   UNL     1     -47.983  37.480  27.743  1.00  0.00     0.068 C 
ATOM     16  H   UNL     1     -48.899  37.872  27.288  1.00  0.00     0.057 H 
ATOM     17  H   UNL     1     -48.151  37.410  28.824  1.00  0.00     0.057 H 
BRANCH  15  18
ATOM     18  N   UNL     1     -46.915  38.445  27.549  1.00  0.00    -0.247 N 
ATOM     19  C   UNL     1     -45.167  39.706  27.715  1.00  0.00     0.113 A 
ATOM     20  C   UNL     1     -45.847  38.697  28.361  1.00  0.00     0.054 A 
ATOM     21  N   UNL     1     -45.847  40.034  26.569  1.00  0.00    -0.130 NA
ATOM     22  H   UNL     1     -45.670  38.141  29.268  1.00  0.00     0.086 H 
ATOM     23  N   UNL     1     -46.920  39.260  26.478  1.00  0.00    -0.066 NA
BRANCH  19  24
ATOM     24  C   UNL     1     -43.933  40.335  28.149  1.00  0.00     0.015 A 
ATOM     25  C   UNL     1     -42.107  40.605  29.755  1.00  0.00    -0.059 A 
ATOM     26  C   UNL     1     -43.296  39.988  29.356  1.00  0.00    -0.052 A 
ATOM     27  C   UNL     1     -41.507  41.588  28.969  1.00  0.00    -0.036 A 
ATOM     28  H   UNL     1     -41.642  40.313  30.695  1.00  0.00     0.062 H 
ATOM     29  H   UNL     1     -43.724  39.233  30.009  1.00  0.00     0.063 H 
ATOM     30  C   UNL     1     -42.146  41.927  27.773  1.00  0.00     0.066 A 
ATOM     31  H   UNL     1     -40.583  42.067  29.279  1.00  0.00     0.065 H 
ATOM     32  C   UNL     1     -43.334  41.333  27.346  1.00  0.00     0.029 A 
ATOM     33  N   UNL     1     -41.816  42.833  26.801  1.00  0.00    -0.278 N 
ATOM     34  C   UNL     1     -43.600  41.971  26.107  1.00  0.00     0.057 A 
ATOM     35  N   UNL     1     -42.678  42.879  25.774  1.00  0.00    -0.183 NA
ATOM     36  H   UNL     1     -41.013  43.451  26.779  1.00  0.00     0.190 HD
ATOM     37  H   UNL     1     -44.432  41.805  25.434  1.00  0.00     0.087 H 
ENDBRANCH  19  24
ENDBRANCH  15  18
ENDBRANCH   1  15
BRANCH   6  38
ATOM     38  C   UNL     1     -48.865  30.523  25.164  1.00  0.00     0.036 C 
ATOM     39  H   UNL     1     -48.484  30.264  24.170  1.00  0.00     0.049 H 
ATOM     40  H   UNL     1     -49.957  30.597  25.093  1.00  0.00     0.049 H 
BRANCH  38  41
ATOM     41  N   UNL     1     -48.487  29.499  26.132  1.00  0.00    -0.308 NA
ATOM     42  H   UNL     1     -48.849  29.758  27.048  1.00  0.00     0.123 HD
BRANCH  41  43
ATOM     43  C   UNL     1     -48.939  28.162  25.744  1.00  0.00     0.007 C 
ATOM     44  C   UNL     1     -48.420  26.981  26.515  1.00  0.00    -0.036 C 
ATOM     45  C   UNL     1     -47.968  27.212  25.103  1.00  0.00    -0.036 C 
ATOM     46  H   UNL     1     -49.977  28.098  25.421  1.00  0.00     0.046 H 
ATOM     47  H   UNL     1     -47.703  27.156  27.308  1.00  0.00     0.028 H 
ATOM     48  H   UNL     1     -49.099  26.159  26.704  1.00  0.00     0.028 H 
ATOM     49  H   UNL     1     -48.342  26.549  24.333  1.00  0.00     0.028 H 
ATOM     50  H   UNL     1     -46.948  27.546  24.948  1.00  0.00     0.028 H 
ENDBRANCH  41  43
ENDBRANCH  38  41
ENDBRANCH   6  38
TORSDOF 6
ENDMDL
MODEL 3
REMARK VINA RESULT:     -10.3      2.373      3.439
REMARK SMILES c1cc(-c2cn(Cc3ccc4cc(CNC5CC5)[nH]c4c3)nn2)c2cn[nH]c2c1
REMARK SMILES IDX 8 1 9 2 10 3 11 4 12 5 13 6 19 7 20 8 21 9 7 15 6 18 4 19
REMARK SMILES IDX 5 20 23 21 22 23 3 24 1 25 2 26 29 27 28 30 24 32 27 33
REMARK SMILES IDX 25 34 26 35 14 38 15 41 16 43 17 44 18 45
REMARK H PARENT 9 10 10 11 12 12 19 13 21 14 7 16 7 17 5 22 1 28 2 29 29 31
REMARK H PARENT 27 36 25 37 14 39 14 40 15 42 16 46 17 47 17 48 18 49 18 50
REMARK Flexibility Score: inf
ROOT
ATOM      1  C   UNL     1     -46.699  35.423  28.043  1.00  0.00    -0.024 A 
ATOM      2  C   UNL     1     -48.056  35.456  27.693  1.00  0.00    -0.056 A 
ATOM      3  C   UNL     1     -48.563  34.631  26.680  1.00  0.00    -0.052 A 
ATOM      4  C   UNL     1     -47.695  33.756  26.002  1.00  0.00    -0.000 A 
ATOM      5  C   UNL     1     -47.863  32.807  24.959  1.00  0.00    -0.032 A 
ATOM      6  C   UNL     1     -46.635  32.232  24.697  1.00  0.00     0.030 A 
ATOM      7  N   UNL     1     -45.729  32.808  25.556  1.00  0.00    -0.357 N 
ATOM      8  C   UNL     1     -46.349  33.740  26.357  1.00  0.00     0.046 A 
ATOM      9  C   UNL     1     -45.821  34.558  27.363  1.00  0.00    -0.033 A 
ATOM     10  H   UNL     1     -48.743  36.126  28.205  1.00  0.00     0.063 H 
ATOM     11  H   UNL     1     -49.617  34.667  26.420  1.00  0.00     0.063 H 
ATOM     12  H   UNL     1     -48.785  32.568  24.443  1.00  0.00     0.065 H 
ATOM     13  H   UNL     1     -44.744  32.586  25.601  1.00  0.00     0.166 HD
ATOM     14  H   UNL     1     -44.764  34.518  27.615  1.00  0.00     0.065 H 
ENDROOT
BRANCH   1  15
ATOM     15  C   UNL     1     -46.174  36.324  29.135  1.00  0.00     0.068 C 
ATOM     16  H   UNL     1     -46.875  36.342  29.978  1.00  0.00     0.057 H 
ATOM     17  H   UNL     1     -45.207  35.977  29.515  1.00  0.00     0.057 H 
BRANCH  15  18
ATOM     18  N   UNL     1     -45.974  37.684  28.665  1.00  0.00    -0.247 N 
ATOM     19  C   UNL     1     -45.193  39.548  27.898  1.00  0.00     0.113 A 
ATOM     20  C   UNL     1     -44.831  38.248  28.177  1.00  0.00     0.054 A 
ATOM     21  N   UNL     1     -46.511  39.722  28.240  1.00  0.00    -0.130 NA
ATOM     22  H   UNL     1     -43.917  37.688  28.059  1.00  0.00     0.086 H 
ATOM     23  N   UNL     1     -46.979  38.576  28.714  1.00  0.00    -0.066 NA
BRANCH  19  24
ATOM     24  C   UNL     1     -44.345  40.581  27.333  1.00  0.00     0.015 A 
ATOM     25  C   UNL     1     -43.786  42.172  25.560  1.00  0.00    -0.059 A 
ATOM     26  C   UNL     1     -44.615  41.177  26.085  1.00  0.00    -0.052 A 
ATOM     27  C   UNL     1     -42.659  42.613  26.254  1.00  0.00    -0.036 A 
ATOM     28  H   UNL     1     -44.023  42.610  24.592  1.00  0.00     0.062 H 
ATOM     29  H   UNL     1     -45.475  40.866  25.500  1.00  0.00     0.063 H 
ATOM     30  C   UNL     1     -42.399  42.016  27.491  1.00  0.00     0.066 A 
ATOM     31  H   UNL     1     -42.016  43.385  25.846  1.00  0.00     0.065 H 
ATOM     32  C   UNL     1     -43.204  41.019  28.044  1.00  0.00     0.029 A 
ATOM     33  N   UNL     1     -41.394  42.224  28.398  1.00  0.00    -0.278 N 
ATOM     34  C   UNL     1     -42.571  40.726  29.280  1.00  0.00     0.057 A 
ATOM     35  N   UNL     1     -41.475  41.458  29.497  1.00  0.00    -0.183 NA
ATOM     36  H   UNL     1     -40.623  42.877  28.326  1.00  0.00     0.190 HD
ATOM     37  H   UNL     1     -42.871  40.005  30.031  1.00  0.00     0.087 H 
ENDBRANCH  19  24
ENDBRANCH  15  18
ENDBRANCH   1  15
BRANCH   6  38
ATOM     38  C   UNL     1     -46.241  31.182  23.715  1.00  0.00     0.036 C 
ATOM     39  H   UNL     1     -46.449  30.196  24.144  1.00  0.00     0.049 H 
ATOM     40  H   UNL     1     -45.163  31.237  23.515  1.00  0.00     0.049 H 
BRANCH  38  41
ATOM     41  N   UNL     1     -46.995  31.366  22.480  1.00  0.00    -0.308 NA
ATOM     42  H   UNL     1     -46.356  31.323  21.689  1.00  0.00     0.123 HD
BRANCH  41  43
ATOM     43  C   UNL     1     -48.082  30.397  22.334  1.00  0.00     0.007 C 
ATOM     44  C   UNL     1     -48.615  30.125  20.955  1.00  0.00    -0.036 C 
ATOM     45  C   UNL     1     -49.452  30.877  21.948  1.00  0.00    -0.036 C 
ATOM     46  H   UNL     1     -48.032  29.539  23.001  1.00  0.00     0.046 H 
ATOM     47  H   UNL     1     -48.200  30.679  20.122  1.00  0.00     0.028 H 
ATOM     48  H   UNL     1     -48.903  29.109  20.714  1.00  0.00     0.028 H 
ATOM     49  H   UNL     1     -50.307  30.373  22.380  1.00  0.00     0.028 H 
ATOM     50  H   UNL     1     -49.598  31.939  21.781  1.00  0.00     0.028 H 
ENDBRANCH  41  43
ENDBRANCH  38  41
ENDBRANCH   6  38
TORSDOF 6
ENDMDL
MODEL 4
REMARK VINA RESULT:      -9.9      1.511      2.348
REMARK SMILES c1cc(-c2cn(Cc3ccc4cc(CNC5CC5)[nH]c4c3)nn2)c2cn[nH]c2c1
REMARK SMILES IDX 8 1 9 2 10 3 11 4 12 5 13 6 19 7 20 8 21 9 7 15 6 18 4 19
REMARK SMILES IDX 5 20 23 21 22 23 3 24 1 25 2 26 29 27 28 30 24 32 27 33
REMARK SMILES IDX 25 34 26 35 14 38 15 41 16 43 17 44 18 45
REMARK H PARENT 9 10 10 11 12 12 19 13 21 14 7 16 7 17 5 22 1 28 2 29 29 31
REMARK H PARENT 27 36 25 37 14 39 14 40 15 42 16 46 17 47 17 48 18 49 18 50
REMARK Flexibility Score: inf
ROOT
ATOM      1  C   UNL     1     -48.285  33.118  25.899  1.00  0.00    -0.024 A 
ATOM      2  C   UNL     1     -47.061  33.271  25.234  1.00  0.00    -0.056 A 
ATOM      3  C   UNL     1     -46.522  32.234  24.460  1.00  0.00    -0.052 A 
ATOM      4  C   UNL     1     -47.223  31.020  24.348  1.00  0.00    -0.000 A 
ATOM      5  C   UNL     1     -46.982  29.798  23.665  1.00  0.00    -0.032 A 
ATOM      6  C   UNL     1     -48.036  28.944  23.925  1.00  0.00     0.030 A 
ATOM      7  N   UNL     1     -48.908  29.619  24.745  1.00  0.00    -0.357 N 
ATOM      8  C   UNL     1     -48.435  30.882  25.019  1.00  0.00     0.046 A 
ATOM      9  C   UNL     1     -48.989  31.902  25.801  1.00  0.00    -0.033 A 
ATOM     10  H   UNL     1     -46.504  34.202  25.309  1.00  0.00     0.063 H 
ATOM     11  H   UNL     1     -45.573  32.368  23.950  1.00  0.00     0.063 H 
ATOM     12  H   UNL     1     -46.124  29.559  23.050  1.00  0.00     0.065 H 
ATOM     13  H   UNL     1     -49.779  29.249  25.102  1.00  0.00     0.166 HD
ATOM     14  H   UNL     1     -49.939  31.759  26.311  1.00  0.00     0.065 H 
ENDROOT
BRANCH   1  15
ATOM     15  C   UNL     1     -48.844  34.247  26.732  1.00  0.00     0.068 C 
ATOM     16  H   UNL     1     -49.564  34.828  26.144  1.00  0.00     0.057 H 
ATOM     17  H   UNL     1     -49.365  33.874  27.621  1.00  0.00     0.057 H 
BRANCH  15  18
ATOM     18  N   UNL     1     -47.800  35.139  27.205  1.00  0.00    -0.247 N 
ATOM     19  C   UNL     1     -46.442  36.784  27.556  1.00  0.00     0.113 A 
ATOM     20  C   UNL     1     -47.538  36.417  26.805  1.00  0.00     0.054 A 
ATOM     21  N   UNL     1     -46.079  35.726  28.352  1.00  0.00    -0.130 NA
ATOM     22  H   UNL     1     -48.144  36.928  26.074  1.00  0.00     0.086 H 
ATOM     23  N   UNL     1     -46.913  34.721  28.125  1.00  0.00    -0.066 NA
BRANCH  19  24
ATOM     24  C   UNL     1     -45.767  38.068  27.534  1.00  0.00     0.015 A 
ATOM     25  C   UNL     1     -45.235  40.198  26.454  1.00  0.00    -0.059 A 
ATOM     26  C   UNL     1     -45.893  38.966  26.456  1.00  0.00    -0.052 A 
ATOM     27  C   UNL     1     -44.427  40.586  27.524  1.00  0.00    -0.036 A 
ATOM     28  H   UNL     1     -45.354  40.868  25.604  1.00  0.00     0.062 H 
ATOM     29  H   UNL     1     -46.504  38.711  25.595  1.00  0.00     0.063 H 
ATOM     30  C   UNL     1     -44.307  39.689  28.589  1.00  0.00     0.066 A 
ATOM     31  H   UNL     1     -43.916  41.543  27.522  1.00  0.00     0.065 H 
ATOM     32  C   UNL     1     -44.948  38.450  28.622  1.00  0.00     0.029 A 
ATOM     33  N   UNL     1     -43.605  39.772  29.762  1.00  0.00    -0.278 N 
ATOM     34  C   UNL     1     -44.549  37.900  29.867  1.00  0.00     0.057 A 
ATOM     35  N   UNL     1     -43.736  38.703  30.561  1.00  0.00    -0.183 NA
ATOM     36  H   UNL     1     -43.018  40.536  30.077  1.00  0.00     0.190 HD
ATOM     37  H   UNL     1     -44.822  36.943  30.295  1.00  0.00     0.087 H 
ENDBRANCH  19  24
ENDBRANCH  15  18
ENDBRANCH   1  15
BRANCH   6  38
ATOM     38  C   UNL     1     -48.298  27.552  23.461  1.00  0.00     0.036 C 
ATOM     39  H   UNL     1     -47.426  27.191  22.903  1.00  0.00     0.049 H 
ATOM     40  H   UNL     1     -49.158  27.536  22.780  1.00  0.00     0.049 H 
BRANCH  38  41
ATOM     41  N   UNL     1     -48.548  26.695  24.615  1.00  0.00    -0.308 NA
ATOM     42  H   UNL     1     -48.992  25.834  24.300  1.00  0.00     0.123 HD
BRANCH  41  43
ATOM     43  C   UNL     1     -47.334  26.413  25.382  1.00  0.00     0.007 C 
ATOM     44  C   UNL     1     -47.260  25.126  26.154  1.00  0.00    -0.036 C 
ATOM     45  C   UNL     1     -47.389  26.431  26.883  1.00  0.00    -0.036 C 
ATOM     46  H   UNL     1     -46.406  26.743  24.920  1.00  0.00     0.046 H 
ATOM     47  H   UNL     1     -48.120  24.467  26.143  1.00  0.00     0.028 H 
ATOM     48  H   UNL     1     -46.307  24.613  26.194  1.00  0.00     0.028 H 
ATOM     49  H   UNL     1     -46.525  26.804  27.418  1.00  0.00     0.028 H 
ATOM     50  H   UNL     1     -48.338  26.650  27.361  1.00  0.00     0.028 H 
ENDBRANCH  41  43
ENDBRANCH  38  41
ENDBRANCH   6  38
TORSDOF 6
ENDMDL
MODEL 5
REMARK VINA RESULT:      -9.8      2.099      2.734
REMARK SMILES c1cc(-c2cn(Cc3ccc4cc(CNC5CC5)[nH]c4c3)nn2)c2cn[nH]c2c1
REMARK SMILES IDX 8 1 9 2 10 3 11 4 12 5 13 6 19 7 20 8 21 9 7 15 6 18 4 19
REMARK SMILES IDX 5 20 23 21 22 23 3 24 1 25 2 26 29 27 28 30 24 32 27 33
REMARK SMILES IDX 25 34 26 35 14 38 15 41 16 43 17 44 18 45
REMARK H PARENT 9 10 10 11 12 12 19 13 21 14 7 16 7 17 5 22 1 28 2 29 29 31
REMARK H PARENT 27 36 25 37 14 39 14 40 15 42 16 46 17 47 17 48 18 49 18 50
REMARK Flexibility Score: inf
ROOT
ATOM      1  C   UNL     1     -48.145  36.216  27.140  1.00  0.00    -0.024 A 
ATOM      2  C   UNL     1     -49.287  35.408  27.224  1.00  0.00    -0.056 A 
ATOM      3  C   UNL     1     -49.324  34.141  26.626  1.00  0.00    -0.052 A 
ATOM      4  C   UNL     1     -48.195  33.673  25.930  1.00  0.00    -0.000 A 
ATOM      5  C   UNL     1     -47.892  32.475  25.228  1.00  0.00    -0.032 A 
ATOM      6  C   UNL     1     -46.604  32.577  24.739  1.00  0.00     0.030 A 
ATOM      7  N   UNL     1     -46.121  33.803  25.128  1.00  0.00    -0.357 N 
ATOM      8  C   UNL     1     -47.071  34.489  25.851  1.00  0.00     0.046 A 
ATOM      9  C   UNL     1     -47.013  35.759  26.436  1.00  0.00    -0.033 A 
ATOM     10  H   UNL     1     -50.170  35.753  27.757  1.00  0.00     0.063 H 
ATOM     11  H   UNL     1     -50.216  33.526  26.700  1.00  0.00     0.063 H 
ATOM     12  H   UNL     1     -48.547  31.625  25.086  1.00  0.00     0.065 H 
ATOM     13  H   UNL     1     -45.199  34.160  24.919  1.00  0.00     0.166 HD
ATOM     14  H   UNL     1     -46.117  36.370  26.355  1.00  0.00     0.065 H 
ENDROOT
BRANCH   1  15
ATOM     15  C   UNL     1     -48.129  37.580  27.789  1.00  0.00     0.068 C 
ATOM     16  H   UNL     1     -48.462  38.341  27.074  1.00  0.00     0.057 H 
ATOM     17  H   UNL     1     -48.797  37.622  28.656  1.00  0.00     0.057 H 
BRANCH  15  18
ATOM     18  N   UNL     1     -46.804  37.936  28.266  1.00  0.00    -0.247 N 
ATOM     19  C   UNL     1     -44.909  38.886  28.690  1.00  0.00     0.113 A 
ATOM     20  C   UNL     1     -46.094  39.074  28.011  1.00  0.00     0.054 A 
ATOM     21  N   UNL     1     -44.940  37.658  29.301  1.00  0.00    -0.130 NA
ATOM     22  H   UNL     1     -46.492  39.881  27.417  1.00  0.00     0.086 H 
ATOM     23  N   UNL     1     -46.103  37.081  29.031  1.00  0.00    -0.066 NA
BRANCH  19  24
ATOM     24  C   UNL     1     -43.798  39.816  28.767  1.00  0.00     0.015 A 
ATOM     25  C   UNL     1     -41.833  40.729  29.905  1.00  0.00    -0.059 A 
ATOM     26  C   UNL     1     -42.898  39.825  29.851  1.00  0.00    -0.052 A 
ATOM     27  C   UNL     1     -41.622  41.656  28.884  1.00  0.00    -0.036 A 
ATOM     28  H   UNL     1     -41.157  40.709  30.758  1.00  0.00     0.062 H 
ATOM     29  H   UNL     1     -43.020  39.129  30.675  1.00  0.00     0.063 H 
ATOM     30  C   UNL     1     -42.520  41.640  27.813  1.00  0.00     0.066 A 
ATOM     31  H   UNL     1     -40.795  42.358  28.926  1.00  0.00     0.065 H 
ATOM     32  C   UNL     1     -43.594  40.754  27.728  1.00  0.00     0.029 A 
ATOM     33  N   UNL     1     -42.583  42.406  26.679  1.00  0.00    -0.278 N 
ATOM     34  C   UNL     1     -44.212  41.094  26.497  1.00  0.00     0.057 A 
ATOM     35  N   UNL     1     -43.598  42.095  25.859  1.00  0.00    -0.183 NA
ATOM     36  H   UNL     1     -41.961  43.158  26.407  1.00  0.00     0.190 HD
ATOM     37  H   UNL     1     -45.088  40.648  26.042  1.00  0.00     0.087 H 
ENDBRANCH  19  24
ENDBRANCH  15  18
ENDBRANCH   1  15
BRANCH   6  38
ATOM     38  C   UNL     1     -45.787  31.616  23.945  1.00  0.00     0.036 C 
ATOM     39  H   UNL     1     -46.044  30.594  24.245  1.00  0.00     0.049 H 
ATOM     40  H   UNL     1     -44.720  31.765  24.155  1.00  0.00     0.049 H 
BRANCH  38  41
ATOM     41  N   UNL     1     -46.056  31.809  22.525  1.00  0.00    -0.308 NA
ATOM     42  H   UNL     1     -45.219  32.174  22.074  1.00  0.00     0.123 HD
BRANCH  41  43
ATOM     43  C   UNL     1     -46.518  30.585  21.867  1.00  0.00     0.007 C 
ATOM     44  C   UNL     1     -47.951  30.513  21.420  1.00  0.00    -0.036 C 
ATOM     45  C   UNL     1     -47.484  29.684  22.581  1.00  0.00    -0.036 C 
ATOM     46  H   UNL     1     -45.792  30.108  21.212  1.00  0.00     0.046 H 
ATOM     47  H   UNL     1     -48.601  31.354  21.629  1.00  0.00     0.028 H 
ATOM     48  H   UNL     1     -48.167  30.006  20.487  1.00  0.00     0.028 H 
ATOM     49  H   UNL     1     -47.383  28.616  22.436  1.00  0.00     0.028 H 
ATOM     50  H   UNL     1     -47.820  29.971  23.571  1.00  0.00     0.028 H 
ENDBRANCH  41  43
ENDBRANCH  38  41
ENDBRANCH   6  38
TORSDOF 6
ENDMDL
MODEL 6
REMARK VINA RESULT:      -9.8      2.003     10.225
REMARK SMILES c1cc(-c2cn(Cc3ccc4cc(CNC5CC5)[nH]c4c3)nn2)c2cn[nH]c2c1
REMARK SMILES IDX 8 1 9 2 10 3 11 4 12 5 13 6 19 7 20 8 21 9 7 15 6 18 4 19
REMARK SMILES IDX 5 20 23 21 22 23 3 24 1 25 2 26 29 27 28 30 24 32 27 33
REMARK SMILES IDX 25 34 26 35 14 38 15 41 16 43 17 44 18 45
REMARK H PARENT 9 10 10 11 12 12 19 13 21 14 7 16 7 17 5 22 1 28 2 29 29 31
REMARK H PARENT 27 36 25 37 14 39 14 40 15 42 16 46 17 47 17 48 18 49 18 50
REMARK Flexibility Score: inf
ROOT
ATOM      1  C   UNL     1     -47.283  36.411  27.812  1.00  0.00    -0.024 A 
ATOM      2  C   UNL     1     -46.934  35.875  29.059  1.00  0.00    -0.056 A 
ATOM      3  C   UNL     1     -45.939  36.467  29.849  1.00  0.00    -0.052 A 
ATOM      4  C   UNL     1     -45.281  37.618  29.382  1.00  0.00    -0.000 A 
ATOM      5  C   UNL     1     -44.258  38.454  29.905  1.00  0.00    -0.032 A 
ATOM      6  C   UNL     1     -44.008  39.455  28.987  1.00  0.00     0.030 A 
ATOM      7  N   UNL     1     -44.853  39.247  27.923  1.00  0.00    -0.357 N 
ATOM      8  C   UNL     1     -45.635  38.135  28.138  1.00  0.00     0.046 A 
ATOM      9  C   UNL     1     -46.622  37.557  27.331  1.00  0.00    -0.033 A 
ATOM     10  H   UNL     1     -47.432  34.985  29.437  1.00  0.00     0.063 H 
ATOM     11  H   UNL     1     -45.680  36.041  30.814  1.00  0.00     0.063 H 
ATOM     12  H   UNL     1     -43.749  38.337  30.853  1.00  0.00     0.065 H 
ATOM     13  H   UNL     1     -44.903  39.824  27.095  1.00  0.00     0.166 HD
ATOM     14  H   UNL     1     -46.873  37.988  26.365  1.00  0.00     0.065 H 
ENDROOT
BRANCH   1  15
ATOM     15  C   UNL     1     -48.356  35.753  26.975  1.00  0.00     0.068 C 
ATOM     16  H   UNL     1     -49.203  35.465  27.608  1.00  0.00     0.057 H 
ATOM     17  H   UNL     1     -48.735  36.429  26.200  1.00  0.00     0.057 H 
BRANCH  15  18
ATOM     18  N   UNL     1     -47.860  34.572  26.292  1.00  0.00    -0.247 N 
ATOM     19  C   UNL     1     -47.576  32.617  25.413  1.00  0.00     0.113 A 
ATOM     20  C   UNL     1     -48.498  33.381  26.096  1.00  0.00     0.054 A 
ATOM     21  N   UNL     1     -46.431  33.354  25.243  1.00  0.00    -0.130 NA
ATOM     22  H   UNL     1     -49.510  33.208  26.426  1.00  0.00     0.086 H 
ATOM     23  N   UNL     1     -46.613  34.548  25.789  1.00  0.00    -0.066 NA
BRANCH  19  24
ATOM     24  C   UNL     1     -47.759  31.258  24.938  1.00  0.00     0.015 A 
ATOM     25  C   UNL     1     -48.722  29.019  25.148  1.00  0.00    -0.059 A 
ATOM     26  C   UNL     1     -48.558  30.322  25.624  1.00  0.00    -0.052 A 
ATOM     27  C   UNL     1     -48.100  28.596  23.973  1.00  0.00    -0.036 A 
ATOM     28  H   UNL     1     -49.345  28.320  25.704  1.00  0.00     0.062 H 
ATOM     29  H   UNL     1     -49.059  30.596  26.547  1.00  0.00     0.063 H 
ATOM     30  C   UNL     1     -47.309  29.531  23.299  1.00  0.00     0.066 A 
ATOM     31  H   UNL     1     -48.227  27.584  23.604  1.00  0.00     0.065 H 
ATOM     32  C   UNL     1     -47.122  30.839  23.746  1.00  0.00     0.029 A 
ATOM     33  N   UNL     1     -46.583  29.430  22.142  1.00  0.00    -0.278 N 
ATOM     34  C   UNL     1     -46.270  31.410  22.766  1.00  0.00     0.057 A 
ATOM     35  N   UNL     1     -45.944  30.556  21.791  1.00  0.00    -0.183 NA
ATOM     36  H   UNL     1     -46.484  28.617  21.545  1.00  0.00     0.190 HD
ATOM     37  H   UNL     1     -45.875  32.418  22.727  1.00  0.00     0.087 H 
ENDBRANCH  19  24
ENDBRANCH  15  18
ENDBRANCH   1  15
BRANCH   6  38
ATOM     38  C   UNL     1     -43.048  40.595  29.028  1.00  0.00     0.036 C 
ATOM     39  H   UNL     1     -42.053  40.235  28.745  1.00  0.00     0.049 H 
ATOM     40  H   UNL     1     -42.979  40.994  30.047  1.00  0.00     0.049 H 
BRANCH  38  41
ATOM     41  N   UNL     1     -43.490  41.634  28.105  1.00  0.00    -0.308 NA
ATOM     42  H   UNL     1     -44.212  42.195  28.555  1.00  0.00     0.123 HD
BRANCH  41  43
ATOM     43  C   UNL     1     -42.389  42.474  27.631  1.00  0.00     0.007 C 
ATOM     44  C   UNL     1     -42.368  42.874  26.183  1.00  0.00    -0.036 C 
ATOM     45  C   UNL     1     -41.362  41.890  26.703  1.00  0.00    -0.036 C 
ATOM     46  H   UNL     1     -42.043  43.227  28.336  1.00  0.00     0.046 H 
ATOM     47  H   UNL     1     -43.150  42.501  25.532  1.00  0.00     0.028 H 
ATOM     48  H   UNL     1     -42.024  43.871  25.936  1.00  0.00     0.028 H 
ATOM     49  H   UNL     1     -40.336  42.218  26.811  1.00  0.00     0.028 H 
ATOM     50  H   UNL     1     -41.470  40.853  26.403  1.00  0.00     0.028 H 
ENDBRANCH  41  43
ENDBRANCH  38  41
ENDBRANCH   6  38
TORSDOF 6
ENDMDL
MODEL 7
REMARK VINA RESULT:      -9.8      1.989      3.206
REMARK SMILES c1cc(-c2cn(Cc3ccc4cc(CNC5CC5)[nH]c4c3)nn2)c2cn[nH]c2c1
REMARK SMILES IDX 8 1 9 2 10 3 11 4 12 5 13 6 19 7 20 8 21 9 7 15 6 18 4 19
REMARK SMILES IDX 5 20 23 21 22 23 3 24 1 25 2 26 29 27 28 30 24 32 27 33
REMARK SMILES IDX 25 34 26 35 14 38 15 41 16 43 17 44 18 45
REMARK H PARENT 9 10 10 11 12 12 19 13 21 14 7 16 7 17 5 22 1 28 2 29 29 31
REMARK H PARENT 27 36 25 37 14 39 14 40 15 42 16 46 17 47 17 48 18 49 18 50
REMARK Flexibility Score: inf
ROOT
ATOM      1  C   UNL     1     -46.561  35.961  29.000  1.00  0.00    -0.024 A 
ATOM      2  C   UNL     1     -47.825  36.284  28.488  1.00  0.00    -0.056 A 
ATOM      3  C   UNL     1     -48.332  35.642  27.351  1.00  0.00    -0.052 A 
ATOM      4  C   UNL     1     -47.560  34.655  26.713  1.00  0.00    -0.000 A 
ATOM      5  C   UNL     1     -47.757  33.825  25.576  1.00  0.00    -0.032 A 
ATOM      6  C   UNL     1     -46.634  33.035  25.420  1.00  0.00     0.030 A 
ATOM      7  N   UNL     1     -45.765  33.365  26.432  1.00  0.00    -0.357 N 
ATOM      8  C   UNL     1     -46.304  34.349  27.230  1.00  0.00     0.046 A 
ATOM      9  C   UNL     1     -45.776  34.982  28.361  1.00  0.00    -0.033 A 
ATOM     10  H   UNL     1     -48.438  37.045  28.968  1.00  0.00     0.063 H 
ATOM     11  H   UNL     1     -49.314  35.903  26.966  1.00  0.00     0.063 H 
ATOM     12  H   UNL     1     -48.626  33.807  24.931  1.00  0.00     0.065 H 
ATOM     13  H   UNL     1     -44.856  32.948  26.581  1.00  0.00     0.166 HD
ATOM     14  H   UNL     1     -44.791  34.717  28.738  1.00  0.00     0.065 H 
ENDROOT
BRANCH   1  15
ATOM     15  C   UNL     1     -46.033  36.670  30.225  1.00  0.00     0.068 C 
ATOM     16  H   UNL     1     -46.865  37.041  30.834  1.00  0.00     0.057 H 
ATOM     17  H   UNL     1     -45.434  36.000  30.852  1.00  0.00     0.057 H 
BRANCH  15  18
ATOM     18  N   UNL     1     -45.176  37.789  29.874  1.00  0.00    -0.247 N 
ATOM     19  C   UNL     1     -44.167  39.441  28.911  1.00  0.00     0.113 A 
ATOM     20  C   UNL     1     -45.185  38.531  28.728  1.00  0.00     0.054 A 
ATOM     21  N   UNL     1     -43.580  39.207  30.130  1.00  0.00    -0.130 NA
ATOM     22  H   UNL     1     -45.899  38.361  27.937  1.00  0.00     0.086 H 
ATOM     23  N   UNL     1     -44.201  38.189  30.709  1.00  0.00    -0.066 NA
BRANCH  19  24
ATOM     24  C   UNL     1     -43.763  40.486  27.990  1.00  0.00     0.015 A 
ATOM     25  C   UNL     1     -42.072  41.977  27.039  1.00  0.00    -0.059 A 
ATOM     26  C   UNL     1     -42.441  40.971  27.935  1.00  0.00    -0.052 A 
ATOM     27  C   UNL     1     -43.001  42.540  26.163  1.00  0.00    -0.036 A 
ATOM     28  H   UNL     1     -41.041  42.330  27.024  1.00  0.00     0.062 H 
ATOM     29  H   UNL     1     -41.679  40.573  28.599  1.00  0.00     0.063 H 
ATOM     30  C   UNL     1     -44.310  42.053  26.225  1.00  0.00     0.066 A 
ATOM     31  H   UNL     1     -42.714  43.322  25.468  1.00  0.00     0.065 H 
ATOM     32  C   UNL     1     -44.713  41.051  27.108  1.00  0.00     0.029 A 
ATOM     33  N   UNL     1     -45.430  42.390  25.513  1.00  0.00    -0.278 N 
ATOM     34  C   UNL     1     -46.091  40.883  26.817  1.00  0.00     0.057 A 
ATOM     35  N   UNL     1     -46.527  41.693  25.847  1.00  0.00    -0.183 NA
ATOM     36  H   UNL     1     -45.511  43.088  24.783  1.00  0.00     0.190 HD
ATOM     37  H   UNL     1     -46.794  40.198  27.275  1.00  0.00     0.087 H 
ENDBRANCH  19  24
ENDBRANCH  15  18
ENDBRANCH   1  15
BRANCH   6  38
ATOM     38  C   UNL     1     -46.313  31.991  24.406  1.00  0.00     0.036 C 
ATOM     39  H   UNL     1     -45.988  31.080  24.921  1.00  0.00     0.049 H 
ATOM     40  H   UNL     1     -45.485  32.326  23.769  1.00  0.00     0.049 H 
BRANCH  38  41
ATOM     41  N   UNL     1     -47.497  31.719  23.598  1.00  0.00    -0.308 NA
ATOM     42  H   UNL     1     -47.769  32.570  23.110  1.00  0.00     0.123 HD
BRANCH  41  43
ATOM     43  C   UNL     1     -47.298  30.613  22.660  1.00  0.00     0.007 C 
ATOM     44  C   UNL     1     -48.144  29.382  22.819  1.00  0.00    -0.036 C 
ATOM     45  C   UNL     1     -46.681  29.334  23.149  1.00  0.00    -0.036 C 
ATOM     46  H   UNL     1     -47.076  30.908  21.636  1.00  0.00     0.046 H 
ATOM     47  H   UNL     1     -48.848  29.341  23.641  1.00  0.00     0.028 H 
ATOM     48  H   UNL     1     -48.480  28.878  21.921  1.00  0.00     0.028 H 
ATOM     49  H   UNL     1     -46.024  28.799  22.475  1.00  0.00     0.028 H 
ATOM     50  H   UNL     1     -46.402  29.263  24.194  1.00  0.00     0.028 H 
ENDBRANCH  41  43
ENDBRANCH  38  41
ENDBRANCH   6  38
TORSDOF 6
ENDMDL
