MODEL 1
REMARK VINA RESULT:     -10.1      0.000      0.000
REMARK SMILES c1cc(-c2cn(Cc3ccc4cc(CNCC5CC5)[nH]c4c3)nn2)c2cn[nH]c2c1
REMARK SMILES IDX 8 1 9 2 10 3 11 4 12 5 13 6 20 7 21 8 22 9 7 15 6 18 4 19
REMARK SMILES IDX 5 20 24 21 23 23 3 24 1 25 2 26 30 27 29 30 25 32 28 33
REMARK SMILES IDX 26 34 27 35 14 38 15 41 16 43 17 46 18 47 19 48
REMARK H PARENT 9 10 10 11 12 12 20 13 22 14 7 16 7 17 5 22 1 28 2 29 30 31
REMARK H PARENT 28 36 26 37 14 39 14 40 15 42 16 44 16 45 17 49 18 50 18 51
REMARK H PARENT 19 52 19 53
REMARK Flexibility Score: inf
ROOT
ATOM      1  C   UNL     1     -46.996  35.743  28.172  1.00  0.00    -0.024 A 
ATOM      2  C   UNL     1     -48.341  35.706  27.780  1.00  0.00    -0.056 A 
ATOM      3  C   UNL     1     -48.780  34.831  26.778  1.00  0.00    -0.052 A 
ATOM      4  C   UNL     1     -47.853  33.975  26.154  1.00  0.00    -0.000 A 
ATOM      5  C   UNL     1     -47.946  32.989  25.137  1.00  0.00    -0.032 A 
ATOM      6  C   UNL     1     -46.688  32.457  24.934  1.00  0.00     0.030 A 
ATOM      7  N   UNL     1     -45.835  33.100  25.800  1.00  0.00    -0.357 N 
ATOM      8  C   UNL     1     -46.520  34.028  26.552  1.00  0.00     0.046 A 
ATOM      9  C   UNL     1     -46.060  34.899  27.546  1.00  0.00    -0.033 A 
ATOM     10  H   UNL     1     -49.074  36.359  28.250  1.00  0.00     0.063 H 
ATOM     11  H   UNL     1     -49.826  34.810  26.485  1.00  0.00     0.063 H 
ATOM     12  H   UNL     1     -48.841  32.686  24.607  1.00  0.00     0.065 H 
ATOM     13  H   UNL     1     -44.844  32.919  25.886  1.00  0.00     0.166 HD
ATOM     14  H   UNL     1     -45.011  34.912  27.833  1.00  0.00     0.065 H 
ENDROOT
BRANCH   1  15
ATOM     15  C   UNL     1     -46.546  36.697  29.254  1.00  0.00     0.068 C 
ATOM     16  H   UNL     1     -47.332  36.806  30.011  1.00  0.00     0.057 H 
ATOM     17  H   UNL     1     -45.644  36.336  29.762  1.00  0.00     0.057 H 
BRANCH  15  18
ATOM     18  N   UNL     1     -46.227  38.008  28.720  1.00  0.00    -0.247 N 
ATOM     19  C   UNL     1     -45.272  39.770  27.906  1.00  0.00     0.113 A 
ATOM     20  C   UNL     1     -45.015  38.474  28.297  1.00  0.00     0.054 A 
ATOM     21  N   UNL     1     -46.601  40.040  28.122  1.00  0.00    -0.130 NA
ATOM     22  H   UNL     1     -44.129  37.857  28.292  1.00  0.00     0.086 H 
ATOM     23  N   UNL     1     -47.175  38.956  28.626  1.00  0.00    -0.066 NA
BRANCH  19  24
ATOM     24  C   UNL     1     -44.321  40.714  27.352  1.00  0.00     0.015 A 
ATOM     25  C   UNL     1     -43.591  42.244  25.586  1.00  0.00    -0.059 A 
ATOM     26  C   UNL     1     -44.518  41.335  26.102  1.00  0.00    -0.052 A 
ATOM     27  C   UNL     1     -42.433  42.572  26.293  1.00  0.00    -0.036 A 
ATOM     28  H   UNL     1     -43.774  42.703  24.616  1.00  0.00     0.062 H 
ATOM     29  H   UNL     1     -45.399  41.109  25.507  1.00  0.00     0.063 H 
ATOM     30  C   UNL     1     -42.247  41.952  27.532  1.00  0.00     0.066 A 
ATOM     31  H   UNL     1     -41.714  43.278  25.892  1.00  0.00     0.065 H 
ATOM     32  C   UNL     1     -43.149  41.039  28.076  1.00  0.00     0.029 A 
ATOM     33  N   UNL     1     -41.235  42.061  28.449  1.00  0.00    -0.278 N 
ATOM     34  C   UNL     1     -42.562  40.685  29.318  1.00  0.00     0.057 A 
ATOM     35  N   UNL     1     -41.402  41.308  29.547  1.00  0.00    -0.183 NA
ATOM     36  H   UNL     1     -40.404  42.636  28.386  1.00  0.00     0.190 HD
ATOM     37  H   UNL     1     -42.940  39.997  30.064  1.00  0.00     0.087 H 
ENDBRANCH  19  24
ENDBRANCH  15  18
ENDBRANCH   1  15
BRANCH   6  38
ATOM     38  C   UNL     1     -46.216  31.402  23.992  1.00  0.00     0.036 C 
ATOM     39  H   UNL     1     -46.254  31.804  22.973  1.00  0.00     0.049 H 
ATOM     40  H   UNL     1     -45.173  31.145  24.212  1.00  0.00     0.049 H 
BRANCH  38  41
ATOM     41  N   UNL     1     -47.075  30.231  24.122  1.00  0.00    -0.311 NA
ATOM     42  H   UNL     1     -47.118  29.972  25.106  1.00  0.00     0.123 HD
BRANCH  41  43
ATOM     43  C   UNL     1     -46.597  29.089  23.351  1.00  0.00    -0.002 C 
ATOM     44  H   UNL     1     -45.526  28.970  23.558  1.00  0.00     0.043 H 
ATOM     45  H   UNL     1     -46.684  29.270  22.273  1.00  0.00     0.043 H 
BRANCH  43  46
ATOM     46  C   UNL     1     -47.326  27.838  23.731  1.00  0.00    -0.029 C 
ATOM     47  C   UNL     1     -47.984  27.713  25.083  1.00  0.00    -0.049 C 
ATOM     48  C   UNL     1     -46.753  26.907  24.773  1.00  0.00    -0.049 C 
ATOM     49  H   UNL     1     -47.821  27.377  22.884  1.00  0.00     0.032 H 
ATOM     50  H   UNL     1     -47.895  28.544  25.774  1.00  0.00     0.027 H 
ATOM     51  H   UNL     1     -48.937  27.198  25.132  1.00  0.00     0.027 H 
ATOM     52  H   UNL     1     -46.873  25.841  24.620  1.00  0.00     0.027 H 
ATOM     53  H   UNL     1     -45.833  27.182  25.274  1.00  0.00     0.027 H 
ENDBRANCH  43  46
ENDBRANCH  41  43
ENDBRANCH  38  41
ENDBRANCH   6  38
TORSDOF 7
ENDMDL
MODEL 2
REMARK VINA RESULT:      -9.9      1.814      2.820
REMARK SMILES c1cc(-c2cn(Cc3ccc4cc(CNCC5CC5)[nH]c4c3)nn2)c2cn[nH]c2c1
REMARK SMILES IDX 8 1 9 2 10 3 11 4 12 5 13 6 20 7 21 8 22 9 7 15 6 18 4 19
REMARK SMILES IDX 5 20 24 21 23 23 3 24 1 25 2 26 30 27 29 30 25 32 28 33
REMARK SMILES IDX 26 34 27 35 14 38 15 41 16 43 17 46 18 47 19 48
REMARK H PARENT 9 10 10 11 12 12 20 13 22 14 7 16 7 17 5 22 1 28 2 29 30 31
REMARK H PARENT 28 36 26 37 14 39 14 40 15 42 16 44 16 45 17 49 18 50 18 51
REMARK H PARENT 19 52 19 53
REMARK Flexibility Score: inf
ROOT
ATOM      1  C   UNL     1     -47.936  35.110  26.650  1.00  0.00    -0.024 A 
ATOM      2  C   UNL     1     -46.695  35.043  26.004  1.00  0.00    -0.056 A 
ATOM      3  C   UNL     1     -46.319  33.910  25.270  1.00  0.00    -0.052 A 
ATOM      4  C   UNL     1     -47.206  32.820  25.182  1.00  0.00    -0.000 A 
ATOM      5  C   UNL     1     -47.156  31.554  24.540  1.00  0.00    -0.032 A 
ATOM      6  C   UNL     1     -48.339  30.891  24.801  1.00  0.00     0.030 A 
ATOM      7  N   UNL     1     -49.101  31.722  25.588  1.00  0.00    -0.357 N 
ATOM      8  C   UNL     1     -48.433  32.901  25.834  1.00  0.00     0.046 A 
ATOM      9  C   UNL     1     -48.824  34.021  26.577  1.00  0.00    -0.033 A 
ATOM     10  H   UNL     1     -45.995  35.875  26.060  1.00  0.00     0.063 H 
ATOM     11  H   UNL     1     -45.355  33.872  24.772  1.00  0.00     0.063 H 
ATOM     12  H   UNL     1     -46.344  31.163  23.939  1.00  0.00     0.065 H 
ATOM     13  H   UNL     1     -50.026  31.510  25.936  1.00  0.00     0.166 HD
ATOM     14  H   UNL     1     -49.793  34.050  27.072  1.00  0.00     0.065 H 
ENDROOT
BRANCH   1  15
ATOM     15  C   UNL     1     -48.318  36.342  27.437  1.00  0.00     0.068 C 
ATOM     16  H   UNL     1     -48.756  37.094  26.771  1.00  0.00     0.057 H 
ATOM     17  H   UNL     1     -49.058  36.113  28.212  1.00  0.00     0.057 H 
BRANCH  15  18
ATOM     18  N   UNL     1     -47.174  36.927  28.113  1.00  0.00    -0.247 N 
ATOM     19  C   UNL     1     -45.471  38.117  28.715  1.00  0.00     0.113 A 
ATOM     20  C   UNL     1     -46.427  38.003  27.729  1.00  0.00     0.054 A 
ATOM     21  N   UNL     1     -45.661  37.112  29.631  1.00  0.00    -0.130 NA
ATOM     22  H   UNL     1     -46.653  38.575  26.841  1.00  0.00     0.086 H 
ATOM     23  N   UNL     1     -46.703  36.386  29.250  1.00  0.00    -0.066 NA
BRANCH  19  24
ATOM     24  C   UNL     1     -44.428  39.120  28.801  1.00  0.00     0.015 A 
ATOM     25  C   UNL     1     -42.537  40.162  29.955  1.00  0.00    -0.059 A 
ATOM     26  C   UNL     1     -43.537  39.188  29.891  1.00  0.00    -0.052 A 
ATOM     27  C   UNL     1     -42.383  41.104  28.938  1.00  0.00    -0.036 A 
ATOM     28  H   UNL     1     -41.868  40.186  30.813  1.00  0.00     0.062 H 
ATOM     29  H   UNL     1     -43.618  38.483  30.715  1.00  0.00     0.063 H 
ATOM     30  C   UNL     1     -43.271  41.028  27.860  1.00  0.00     0.066 A 
ATOM     31  H   UNL     1     -41.606  41.860  28.987  1.00  0.00     0.065 H 
ATOM     32  C   UNL     1     -44.281  40.073  27.765  1.00  0.00     0.029 A 
ATOM     33  N   UNL     1     -43.377  41.792  26.728  1.00  0.00    -0.278 N 
ATOM     34  C   UNL     1     -44.911  40.372  26.530  1.00  0.00     0.057 A 
ATOM     35  N   UNL     1     -44.362  41.413  25.898  1.00  0.00    -0.183 NA
ATOM     36  H   UNL     1     -42.806  42.584  26.461  1.00  0.00     0.190 HD
ATOM     37  H   UNL     1     -45.751  39.867  26.068  1.00  0.00     0.087 H 
ENDBRANCH  19  24
ENDBRANCH  15  18
ENDBRANCH   1  15
BRANCH   6  38
ATOM     38  C   UNL     1     -48.813  29.541  24.380  1.00  0.00     0.036 C 
ATOM     39  H   UNL     1     -49.806  29.372  24.811  1.00  0.00     0.049 H 
ATOM     40  H   UNL     1     -48.910  29.505  23.288  1.00  0.00     0.049 H 
BRANCH  38  41
ATOM     41  N   UNL     1     -47.864  28.538  24.847  1.00  0.00    -0.311 NA
ATOM     42  H   UNL     1     -47.507  28.032  24.038  1.00  0.00     0.123 HD
BRANCH  41  43
ATOM     43  C   UNL     1     -48.458  27.586  25.778  1.00  0.00    -0.002 C 
ATOM     44  H   UNL     1     -49.527  27.511  25.543  1.00  0.00     0.043 H 
ATOM     45  H   UNL     1     -48.394  27.944  26.812  1.00  0.00     0.043 H 
BRANCH  43  46
ATOM     46  C   UNL     1     -47.819  26.238  25.652  1.00  0.00    -0.029 C 
ATOM     47  C   UNL     1     -46.903  25.717  26.732  1.00  0.00    -0.049 C 
ATOM     48  C   UNL     1     -46.336  26.116  25.398  1.00  0.00    -0.049 C 
ATOM     49  H   UNL     1     -48.461  25.524  25.148  1.00  0.00     0.032 H 
ATOM     50  H   UNL     1     -46.706  26.355  27.586  1.00  0.00     0.027 H 
ATOM     51  H   UNL     1     -46.959  24.662  26.972  1.00  0.00     0.027 H 
ATOM     52  H   UNL     1     -45.998  25.327  24.736  1.00  0.00     0.027 H 
ATOM     53  H   UNL     1     -45.735  27.017  25.356  1.00  0.00     0.027 H 
ENDBRANCH  43  46
ENDBRANCH  41  43
ENDBRANCH  38  41
ENDBRANCH   6  38
TORSDOF 7
ENDMDL
MODEL 3
REMARK VINA RESULT:      -9.5      1.894      3.139
REMARK SMILES c1cc(-c2cn(Cc3ccc4cc(CNCC5CC5)[nH]c4c3)nn2)c2cn[nH]c2c1
REMARK SMILES IDX 8 1 9 2 10 3 11 4 12 5 13 6 20 7 21 8 22 9 7 15 6 18 4 19
REMARK SMILES IDX 5 20 24 21 23 23 3 24 1 25 2 26 30 27 29 30 25 32 28 33
REMARK SMILES IDX 26 34 27 35 14 38 15 41 16 43 17 46 18 47 19 48
REMARK H PARENT 9 10 10 11 12 12 20 13 22 14 7 16 7 17 5 22 1 28 2 29 30 31
REMARK H PARENT 28 36 26 37 14 39 14 40 15 42 16 44 16 45 17 49 18 50 18 51
REMARK H PARENT 19 52 19 53
REMARK Flexibility Score: inf
ROOT
ATOM      1  C   UNL     1     -45.532  37.450  28.715  1.00  0.00    -0.024 A 
ATOM      2  C   UNL     1     -46.589  37.985  27.967  1.00  0.00    -0.056 A 
ATOM      3  C   UNL     1     -47.219  37.238  26.964  1.00  0.00    -0.052 A 
ATOM      4  C   UNL     1     -46.782  35.926  26.702  1.00  0.00    -0.000 A 
ATOM      5  C   UNL     1     -47.181  34.913  25.790  1.00  0.00    -0.032 A 
ATOM      6  C   UNL     1     -46.380  33.807  25.995  1.00  0.00     0.030 A 
ATOM      7  N   UNL     1     -45.503  34.127  27.004  1.00  0.00    -0.357 N 
ATOM      8  C   UNL     1     -45.727  35.411  27.450  1.00  0.00     0.046 A 
ATOM      9  C   UNL     1     -45.080  36.143  28.452  1.00  0.00    -0.033 A 
ATOM     10  H   UNL     1     -46.943  38.998  28.154  1.00  0.00     0.063 H 
ATOM     11  H   UNL     1     -48.039  37.664  26.394  1.00  0.00     0.063 H 
ATOM     12  H   UNL     1     -47.979  34.976  25.061  1.00  0.00     0.065 H 
ATOM     13  H   UNL     1     -44.794  33.511  27.379  1.00  0.00     0.166 HD
ATOM     14  H   UNL     1     -44.260  35.707  29.019  1.00  0.00     0.065 H 
ENDROOT
BRANCH   1  15
ATOM     15  C   UNL     1     -44.867  38.275  29.790  1.00  0.00     0.068 C 
ATOM     16  H   UNL     1     -45.621  38.682  30.474  1.00  0.00     0.057 H 
ATOM     17  H   UNL     1     -44.168  37.676  30.386  1.00  0.00     0.057 H 
BRANCH  15  18
ATOM     18  N   UNL     1     -44.101  39.375  29.232  1.00  0.00    -0.247 N 
ATOM     19  C   UNL     1     -43.252  40.925  27.984  1.00  0.00     0.113 A 
ATOM     20  C   UNL     1     -44.219  39.942  27.995  1.00  0.00     0.054 A 
ATOM     21  N   UNL     1     -42.586  40.902  29.184  1.00  0.00    -0.130 NA
ATOM     22  H   UNL     1     -44.963  39.622  27.282  1.00  0.00     0.086 H 
ATOM     23  N   UNL     1     -43.111  39.946  29.939  1.00  0.00    -0.066 NA
BRANCH  19  24
ATOM     24  C   UNL     1     -42.964  41.846  26.902  1.00  0.00     0.015 A 
ATOM     25  C   UNL     1     -41.390  43.031  25.450  1.00  0.00    -0.059 A 
ATOM     26  C   UNL     1     -41.648  42.142  26.496  1.00  0.00    -0.052 A 
ATOM     27  C   UNL     1     -42.431  43.660  24.765  1.00  0.00    -0.036 A 
ATOM     28  H   UNL     1     -40.361  43.238  25.164  1.00  0.00     0.062 H 
ATOM     29  H   UNL     1     -40.799  41.685  27.000  1.00  0.00     0.063 H 
ATOM     30  C   UNL     1     -43.734  43.359  25.175  1.00  0.00     0.066 A 
ATOM     31  H   UNL     1     -42.232  44.350  23.953  1.00  0.00     0.065 H 
ATOM     32  C   UNL     1     -44.027  42.480  26.216  1.00  0.00     0.029 A 
ATOM     33  N   UNL     1     -44.946  43.802  24.714  1.00  0.00    -0.278 N 
ATOM     34  C   UNL     1     -45.445  42.482  26.269  1.00  0.00     0.057 A 
ATOM     35  N   UNL     1     -46.004  43.282  25.356  1.00  0.00    -0.183 NA
ATOM     36  H   UNL     1     -45.119  44.457  23.961  1.00  0.00     0.190 HD
ATOM     37  H   UNL     1     -46.090  41.929  26.940  1.00  0.00     0.087 H 
ENDBRANCH  19  24
ENDBRANCH  15  18
ENDBRANCH   1  15
BRANCH   6  38
ATOM     38  C   UNL     1     -46.362  32.478  25.319  1.00  0.00     0.036 C 
ATOM     39  H   UNL     1     -45.688  32.536  24.458  1.00  0.00     0.049 H 
ATOM     40  H   UNL     1     -45.969  31.717  26.004  1.00  0.00     0.049 H 
BRANCH  38  41
ATOM     41  N   UNL     1     -47.717  32.142  24.898  1.00  0.00    -0.311 NA
ATOM     42  H   UNL     1     -48.194  31.692  25.678  1.00  0.00     0.123 HD
BRANCH  41  43
ATOM     43  C   UNL     1     -47.747  31.249  23.745  1.00  0.00    -0.002 C 
ATOM     44  H   UNL     1     -48.279  31.765  22.936  1.00  0.00     0.043 H 
ATOM     45  H   UNL     1     -48.319  30.339  23.959  1.00  0.00     0.043 H 
BRANCH  43  46
ATOM     46  C   UNL     1     -46.361  30.902  23.296  1.00  0.00    -0.029 C 
ATOM     47  C   UNL     1     -45.993  30.948  21.834  1.00  0.00    -0.049 C 
ATOM     48  C   UNL     1     -46.102  29.623  22.536  1.00  0.00    -0.049 C 
ATOM     49  H   UNL     1     -45.608  31.203  24.016  1.00  0.00     0.032 H 
ATOM     50  H   UNL     1     -46.764  31.219  21.121  1.00  0.00     0.027 H 
ATOM     51  H   UNL     1     -45.005  31.313  21.577  1.00  0.00     0.027 H 
ATOM     52  H   UNL     1     -45.185  29.085  22.746  1.00  0.00     0.027 H 
ATOM     53  H   UNL     1     -46.941  28.986  22.279  1.00  0.00     0.027 H 
ENDBRANCH  43  46
ENDBRANCH  41  43
ENDBRANCH  38  41
ENDBRANCH   6  38
TORSDOF 7
ENDMDL
MODEL 4
REMARK VINA RESULT:      -9.5      2.145      3.126
REMARK SMILES c1cc(-c2cn(Cc3ccc4cc(CNCC5CC5)[nH]c4c3)nn2)c2cn[nH]c2c1
REMARK SMILES IDX 8 1 9 2 10 3 11 4 12 5 13 6 20 7 21 8 22 9 7 15 6 18 4 19
REMARK SMILES IDX 5 20 24 21 23 23 3 24 1 25 2 26 30 27 29 30 25 32 28 33
REMARK SMILES IDX 26 34 27 35 14 38 15 41 16 43 17 46 18 47 19 48
REMARK H PARENT 9 10 10 11 12 12 20 13 22 14 7 16 7 17 5 22 1 28 2 29 30 31
REMARK H PARENT 28 36 26 37 14 39 14 40 15 42 16 44 16 45 17 49 18 50 18 51
REMARK H PARENT 19 52 19 53
REMARK Flexibility Score: inf
ROOT
ATOM      1  C   UNL     1     -47.706  35.730  27.108  1.00  0.00    -0.024 A 
ATOM      2  C   UNL     1     -46.433  35.461  26.587  1.00  0.00    -0.056 A 
ATOM      3  C   UNL     1     -46.187  34.304  25.836  1.00  0.00    -0.052 A 
ATOM      4  C   UNL     1     -47.237  33.397  25.602  1.00  0.00    -0.000 A 
ATOM      5  C   UNL     1     -47.343  32.165  24.902  1.00  0.00    -0.032 A 
ATOM      6  C   UNL     1     -48.646  31.719  25.008  1.00  0.00     0.030 A 
ATOM      7  N   UNL     1     -49.330  32.647  25.757  1.00  0.00    -0.357 N 
ATOM      8  C   UNL     1     -48.494  33.676  26.131  1.00  0.00     0.046 A 
ATOM      9  C   UNL     1     -48.759  34.823  26.889  1.00  0.00    -0.033 A 
ATOM     10  H   UNL     1     -45.608  36.150  26.756  1.00  0.00     0.063 H 
ATOM     11  H   UNL     1     -45.197  34.109  25.435  1.00  0.00     0.063 H 
ATOM     12  H   UNL     1     -46.554  31.654  24.365  1.00  0.00     0.065 H 
ATOM     13  H   UNL     1     -50.310  32.595  26.000  1.00  0.00     0.166 HD
ATOM     14  H   UNL     1     -49.755  35.010  27.285  1.00  0.00     0.065 H 
ENDROOT
BRANCH   1  15
ATOM     15  C   UNL     1     -47.947  36.983  27.917  1.00  0.00     0.068 C 
ATOM     16  H   UNL     1     -48.431  37.745  27.296  1.00  0.00     0.057 H 
ATOM     17  H   UNL     1     -48.600  36.791  28.776  1.00  0.00     0.057 H 
BRANCH  15  18
ATOM     18  N   UNL     1     -46.711  37.529  28.448  1.00  0.00    -0.247 N 
ATOM     19  C   UNL     1     -44.927  38.683  28.855  1.00  0.00     0.113 A 
ATOM     20  C   UNL     1     -46.019  38.624  28.016  1.00  0.00     0.054 A 
ATOM     21  N   UNL     1     -44.989  37.629  29.734  1.00  0.00    -0.130 NA
ATOM     22  H   UNL     1     -46.368  39.244  27.204  1.00  0.00     0.086 H 
ATOM     23  N   UNL     1     -46.082  36.926  29.472  1.00  0.00    -0.066 NA
BRANCH  19  24
ATOM     24  C   UNL     1     -43.874  39.680  28.841  1.00  0.00     0.015 A 
ATOM     25  C   UNL     1     -41.917  40.754  29.845  1.00  0.00    -0.059 A 
ATOM     26  C   UNL     1     -42.926  39.787  29.878  1.00  0.00    -0.052 A 
ATOM     27  C   UNL     1     -41.811  41.649  28.780  1.00  0.00    -0.036 A 
ATOM     28  H   UNL     1     -41.203  40.809  30.664  1.00  0.00     0.062 H 
ATOM     29  H   UNL     1     -42.967  39.120  30.735  1.00  0.00     0.063 H 
ATOM     30  C   UNL     1     -42.756  41.533  27.756  1.00  0.00     0.066 A 
ATOM     31  H   UNL     1     -41.027  42.399  28.754  1.00  0.00     0.065 H 
ATOM     32  C   UNL     1     -43.776  40.584  27.757  1.00  0.00     0.029 A 
ATOM     33  N   UNL     1     -42.917  42.247  26.597  1.00  0.00    -0.278 N 
ATOM     34  C   UNL     1     -44.469  40.834  26.545  1.00  0.00     0.057 A 
ATOM     35  N   UNL     1     -43.947  41.841  25.838  1.00  0.00    -0.183 NA
ATOM     36  H   UNL     1     -42.355  43.021  26.265  1.00  0.00     0.190 HD
ATOM     37  H   UNL     1     -45.336  40.317  26.151  1.00  0.00     0.087 H 
ENDBRANCH  19  24
ENDBRANCH  15  18
ENDBRANCH   1  15
BRANCH   6  38
ATOM     38  C   UNL     1     -49.302  30.493  24.470  1.00  0.00     0.036 C 
ATOM     39  H   UNL     1     -49.186  29.687  25.204  1.00  0.00     0.049 H 
ATOM     40  H   UNL     1     -50.376  30.673  24.337  1.00  0.00     0.049 H 
BRANCH  38  41
ATOM     41  N   UNL     1     -48.677  30.136  23.203  1.00  0.00    -0.311 NA
ATOM     42  H   UNL     1     -47.680  30.333  23.269  1.00  0.00     0.123 HD
BRANCH  41  43
ATOM     43  C   UNL     1     -49.232  30.870  22.071  1.00  0.00    -0.002 C 
ATOM     44  H   UNL     1     -49.126  31.941  22.283  1.00  0.00     0.043 H 
ATOM     45  H   UNL     1     -50.306  30.682  21.961  1.00  0.00     0.043 H 
BRANCH  43  46
ATOM     46  C   UNL     1     -48.510  30.532  20.803  1.00  0.00    -0.029 C 
ATOM     47  C   UNL     1     -48.652  31.406  19.582  1.00  0.00    -0.049 C 
ATOM     48  C   UNL     1     -49.273  30.037  19.598  1.00  0.00    -0.049 C 
ATOM     49  H   UNL     1     -47.544  30.078  20.989  1.00  0.00     0.032 H 
ATOM     50  H   UNL     1     -49.306  32.269  19.644  1.00  0.00     0.027 H 
ATOM     51  H   UNL     1     -47.770  31.563  18.972  1.00  0.00     0.027 H 
ATOM     52  H   UNL     1     -48.814  29.267  18.989  1.00  0.00     0.027 H 
ATOM     53  H   UNL     1     -50.354  29.976  19.650  1.00  0.00     0.027 H 
ENDBRANCH  43  46
ENDBRANCH  41  43
ENDBRANCH  38  41
ENDBRANCH   6  38
TORSDOF 7
ENDMDL
MODEL 5
REMARK VINA RESULT:      -9.3      2.125      2.980
REMARK SMILES c1cc(-c2cn(Cc3ccc4cc(CNCC5CC5)[nH]c4c3)nn2)c2cn[nH]c2c1
REMARK SMILES IDX 8 1 9 2 10 3 11 4 12 5 13 6 20 7 21 8 22 9 7 15 6 18 4 19
REMARK SMILES IDX 5 20 24 21 23 23 3 24 1 25 2 26 30 27 29 30 25 32 28 33
REMARK SMILES IDX 26 34 27 35 14 38 15 41 16 43 17 46 18 47 19 48
REMARK H PARENT 9 10 10 11 12 12 20 13 22 14 7 16 7 17 5 22 1 28 2 29 30 31
REMARK H PARENT 28 36 26 37 14 39 14 40 15 42 16 44 16 45 17 49 18 50 18 51
REMARK H PARENT 19 52 19 53
REMARK Flexibility Score: inf
ROOT
ATOM      1  C   UNL     1     -47.945  34.821  26.503  1.00  0.00    -0.024 A 
ATOM      2  C   UNL     1     -46.703  34.798  25.853  1.00  0.00    -0.056 A 
ATOM      3  C   UNL     1     -46.300  33.690  25.097  1.00  0.00    -0.052 A 
ATOM      4  C   UNL     1     -47.158  32.579  24.989  1.00  0.00    -0.000 A 
ATOM      5  C   UNL     1     -47.077  31.328  24.322  1.00  0.00    -0.032 A 
ATOM      6  C   UNL     1     -48.243  30.630  24.572  1.00  0.00     0.030 A 
ATOM      7  N   UNL     1     -49.024  31.425  25.376  1.00  0.00    -0.357 N 
ATOM      8  C   UNL     1     -48.386  32.616  25.644  1.00  0.00     0.046 A 
ATOM      9  C   UNL     1     -48.804  33.710  26.409  1.00  0.00    -0.033 A 
ATOM     10  H   UNL     1     -46.025  35.647  25.924  1.00  0.00     0.063 H 
ATOM     11  H   UNL     1     -45.337  33.687  24.597  1.00  0.00     0.063 H 
ATOM     12  H   UNL     1     -46.257  30.970  23.713  1.00  0.00     0.065 H 
ATOM     13  H   UNL     1     -49.943  31.183  25.722  1.00  0.00     0.166 HD
ATOM     14  H   UNL     1     -49.772  33.705  26.906  1.00  0.00     0.065 H 
ENDROOT
BRANCH   1  15
ATOM     15  C   UNL     1     -48.356  36.027  27.314  1.00  0.00     0.068 C 
ATOM     16  H   UNL     1     -49.092  36.621  26.759  1.00  0.00     0.057 H 
ATOM     17  H   UNL     1     -48.815  35.736  28.266  1.00  0.00     0.057 H 
BRANCH  15  18
ATOM     18  N   UNL     1     -47.222  36.872  27.639  1.00  0.00    -0.247 N 
ATOM     19  C   UNL     1     -45.686  38.393  27.707  1.00  0.00     0.113 A 
ATOM     20  C   UNL     1     -46.802  38.003  26.999  1.00  0.00     0.054 A 
ATOM     21  N   UNL     1     -45.466  37.490  28.718  1.00  0.00    -0.130 NA
ATOM     22  H   UNL     1     -47.329  38.416  26.153  1.00  0.00     0.086 H 
ATOM     23  N   UNL     1     -46.409  36.559  28.663  1.00  0.00    -0.066 NA
BRANCH  19  24
ATOM     24  C   UNL     1     -44.862  39.560  27.455  1.00  0.00     0.015 A 
ATOM     25  C   UNL     1     -44.183  41.448  26.053  1.00  0.00    -0.059 A 
ATOM     26  C   UNL     1     -44.984  40.326  26.278  1.00  0.00    -0.052 A 
ATOM     27  C   UNL     1     -43.230  41.853  26.989  1.00  0.00    -0.036 A 
ATOM     28  H   UNL     1     -44.303  42.016  25.132  1.00  0.00     0.062 H 
ATOM     29  H   UNL     1     -45.705  40.051  25.512  1.00  0.00     0.063 H 
ATOM     30  C   UNL     1     -43.117  41.086  28.153  1.00  0.00     0.066 A 
ATOM     31  H   UNL     1     -42.608  42.724  26.815  1.00  0.00     0.065 H 
ATOM     32  C   UNL     1     -43.898  39.961  28.409  1.00  0.00     0.029 A 
ATOM     33  N   UNL     1     -42.296  41.220  29.241  1.00  0.00    -0.278 N 
ATOM     34  C   UNL     1     -43.448  39.521  29.681  1.00  0.00     0.057 A 
ATOM     35  N   UNL     1     -42.478  40.287  30.189  1.00  0.00    -0.183 NA
ATOM     36  H   UNL     1     -41.591  41.930  29.400  1.00  0.00     0.190 HD
ATOM     37  H   UNL     1     -43.794  38.671  30.255  1.00  0.00     0.087 H 
ENDBRANCH  19  24
ENDBRANCH  15  18
ENDBRANCH   1  15
BRANCH   6  38
ATOM     38  C   UNL     1     -48.682  29.276  24.125  1.00  0.00     0.036 C 
ATOM     39  H   UNL     1     -47.797  28.636  24.036  1.00  0.00     0.049 H 
ATOM     40  H   UNL     1     -49.343  28.832  24.879  1.00  0.00     0.049 H 
BRANCH  38  41
ATOM     41  N   UNL     1     -49.368  29.398  22.845  1.00  0.00    -0.311 NA
ATOM     42  H   UNL     1     -49.004  30.218  22.362  1.00  0.00     0.123 HD
BRANCH  41  43
ATOM     43  C   UNL     1     -50.813  29.533  22.987  1.00  0.00    -0.002 C 
ATOM     44  H   UNL     1     -51.024  29.784  24.034  1.00  0.00     0.043 H 
ATOM     45  H   UNL     1     -51.324  28.584  22.788  1.00  0.00     0.043 H 
BRANCH  43  46
ATOM     46  C   UNL     1     -51.344  30.610  22.092  1.00  0.00    -0.029 C 
ATOM     47  C   UNL     1     -50.494  31.805  21.739  1.00  0.00    -0.049 C 
ATOM     48  C   UNL     1     -51.677  31.972  22.652  1.00  0.00    -0.049 C 
ATOM     49  H   UNL     1     -52.008  30.220  21.329  1.00  0.00     0.032 H 
ATOM     50  H   UNL     1     -49.500  31.870  22.168  1.00  0.00     0.027 H 
ATOM     51  H   UNL     1     -50.565  32.191  20.729  1.00  0.00     0.027 H 
ATOM     52  H   UNL     1     -52.549  32.482  22.260  1.00  0.00     0.027 H 
ATOM     53  H   UNL     1     -51.480  32.173  23.698  1.00  0.00     0.027 H 
ENDBRANCH  43  46
ENDBRANCH  41  43
ENDBRANCH  38  41
ENDBRANCH   6  38
TORSDOF 7
ENDMDL
MODEL 6
REMARK VINA RESULT:      -9.2      1.833      2.691
REMARK SMILES c1cc(-c2cn(Cc3ccc4cc(CNCC5CC5)[nH]c4c3)nn2)c2cn[nH]c2c1
REMARK SMILES IDX 8 1 9 2 10 3 11 4 12 5 13 6 20 7 21 8 22 9 7 15 6 18 4 19
REMARK SMILES IDX 5 20 24 21 23 23 3 24 1 25 2 26 30 27 29 30 25 32 28 33
REMARK SMILES IDX 26 34 27 35 14 38 15 41 16 43 17 46 18 47 19 48
REMARK H PARENT 9 10 10 11 12 12 20 13 22 14 7 16 7 17 5 22 1 28 2 29 30 31
REMARK H PARENT 28 36 26 37 14 39 14 40 15 42 16 44 16 45 17 49 18 50 18 51
REMARK H PARENT 19 52 19 53
REMARK Flexibility Score: inf
ROOT
ATOM      1  C   UNL     1     -46.615  36.073  28.989  1.00  0.00    -0.024 A 
ATOM      2  C   UNL     1     -47.889  36.360  28.482  1.00  0.00    -0.056 A 
ATOM      3  C   UNL     1     -48.394  35.685  27.363  1.00  0.00    -0.052 A 
ATOM      4  C   UNL     1     -47.606  34.702  26.736  1.00  0.00    -0.000 A 
ATOM      5  C   UNL     1     -47.795  33.846  25.619  1.00  0.00    -0.032 A 
ATOM      6  C   UNL     1     -46.661  33.072  25.471  1.00  0.00     0.030 A 
ATOM      7  N   UNL     1     -45.788  33.442  26.466  1.00  0.00    -0.357 N 
ATOM      8  C   UNL     1     -46.340  34.432  27.248  1.00  0.00     0.046 A 
ATOM      9  C   UNL     1     -45.815  35.099  28.361  1.00  0.00    -0.033 A 
ATOM     10  H   UNL     1     -48.516  37.116  28.953  1.00  0.00     0.063 H 
ATOM     11  H   UNL     1     -49.385  35.916  26.982  1.00  0.00     0.063 H 
ATOM     12  H   UNL     1     -48.673  33.789  24.987  1.00  0.00     0.065 H 
ATOM     13  H   UNL     1     -44.871  33.044  26.617  1.00  0.00     0.166 HD
ATOM     14  H   UNL     1     -44.822  34.861  28.736  1.00  0.00     0.065 H 
ENDROOT
BRANCH   1  15
ATOM     15  C   UNL     1     -46.092  36.814  30.196  1.00  0.00     0.068 C 
ATOM     16  H   UNL     1     -46.926  37.227  30.776  1.00  0.00     0.057 H 
ATOM     17  H   UNL     1     -45.520  36.155  30.859  1.00  0.00     0.057 H 
BRANCH  15  18
ATOM     18  N   UNL     1     -45.203  37.899  29.821  1.00  0.00    -0.247 N 
ATOM     19  C   UNL     1     -44.170  39.525  28.836  1.00  0.00     0.113 A 
ATOM     20  C   UNL     1     -45.236  38.664  28.690  1.00  0.00     0.054 A 
ATOM     21  N   UNL     1     -43.532  39.240  30.019  1.00  0.00    -0.130 NA
ATOM     22  H   UNL     1     -45.997  38.543  27.934  1.00  0.00     0.086 H 
ATOM     23  N   UNL     1     -44.170  38.239  30.611  1.00  0.00    -0.066 NA
BRANCH  19  24
ATOM     24  C   UNL     1     -43.765  40.569  27.915  1.00  0.00     0.015 A 
ATOM     25  C   UNL     1     -42.068  42.048  26.954  1.00  0.00    -0.059 A 
ATOM     26  C   UNL     1     -42.439  41.042  27.850  1.00  0.00    -0.052 A 
ATOM     27  C   UNL     1     -42.999  42.621  26.088  1.00  0.00    -0.036 A 
ATOM     28  H   UNL     1     -41.035  42.390  26.932  1.00  0.00     0.062 H 
ATOM     29  H   UNL     1     -41.675  40.635  28.508  1.00  0.00     0.063 H 
ATOM     30  C   UNL     1     -44.312  42.145  26.160  1.00  0.00     0.066 A 
ATOM     31  H   UNL     1     -42.711  43.402  25.392  1.00  0.00     0.065 H 
ATOM     32  C   UNL     1     -44.717  41.145  27.042  1.00  0.00     0.029 A 
ATOM     33  N   UNL     1     -45.435  42.495  25.458  1.00  0.00    -0.278 N 
ATOM     34  C   UNL     1     -46.099  40.989  26.761  1.00  0.00     0.057 A 
ATOM     35  N   UNL     1     -46.535  41.805  25.797  1.00  0.00    -0.183 NA
ATOM     36  H   UNL     1     -45.515  43.195  24.730  1.00  0.00     0.190 HD
ATOM     37  H   UNL     1     -46.803  40.309  27.224  1.00  0.00     0.087 H 
ENDBRANCH  19  24
ENDBRANCH  15  18
ENDBRANCH   1  15
BRANCH   6  38
ATOM     38  C   UNL     1     -46.324  32.020  24.469  1.00  0.00     0.036 C 
ATOM     39  H   UNL     1     -45.500  32.385  23.845  1.00  0.00     0.049 H 
ATOM     40  H   UNL     1     -45.980  31.114  24.982  1.00  0.00     0.049 H 
BRANCH  38  41
ATOM     41  N   UNL     1     -47.503  31.739  23.660  1.00  0.00    -0.311 NA
ATOM     42  H   UNL     1     -48.300  31.618  24.284  1.00  0.00     0.123 HD
BRANCH  41  43
ATOM     43  C   UNL     1     -47.357  30.541  22.841  1.00  0.00    -0.002 C 
ATOM     44  H   UNL     1     -47.628  29.677  23.460  1.00  0.00     0.043 H 
ATOM     45  H   UNL     1     -46.314  30.389  22.539  1.00  0.00     0.043 H 
BRANCH  43  46
ATOM     46  C   UNL     1     -48.246  30.598  21.638  1.00  0.00    -0.029 C 
ATOM     47  C   UNL     1     -49.721  30.881  21.784  1.00  0.00    -0.049 C 
ATOM     48  C   UNL     1     -49.258  29.508  21.383  1.00  0.00    -0.049 C 
ATOM     49  H   UNL     1     -47.738  31.005  20.771  1.00  0.00     0.032 H 
ATOM     50  H   UNL     1     -50.118  31.019  22.784  1.00  0.00     0.027 H 
ATOM     51  H   UNL     1     -50.189  31.505  21.033  1.00  0.00     0.027 H 
ATOM     52  H   UNL     1     -49.423  29.198  20.358  1.00  0.00     0.027 H 
ATOM     53  H   UNL     1     -49.364  28.709  22.109  1.00  0.00     0.027 H 
ENDBRANCH  43  46
ENDBRANCH  41  43
ENDBRANCH  38  41
ENDBRANCH   6  38
TORSDOF 7
ENDMDL
MODEL 7
REMARK VINA RESULT:      -9.2      2.351     11.269
REMARK SMILES c1cc(-c2cn(Cc3ccc4cc(CNCC5CC5)[nH]c4c3)nn2)c2cn[nH]c2c1
REMARK SMILES IDX 8 1 9 2 10 3 11 4 12 5 13 6 20 7 21 8 22 9 7 15 6 18 4 19
REMARK SMILES IDX 5 20 24 21 23 23 3 24 1 25 2 26 30 27 29 30 25 32 28 33
REMARK SMILES IDX 26 34 27 35 14 38 15 41 16 43 17 46 18 47 19 48
REMARK H PARENT 9 10 10 11 12 12 20 13 22 14 7 16 7 17 5 22 1 28 2 29 30 31
REMARK H PARENT 28 36 26 37 14 39 14 40 15 42 16 44 16 45 17 49 18 50 18 51
REMARK H PARENT 19 52 19 53
REMARK Flexibility Score: inf
ROOT
ATOM      1  C   UNL     1     -48.565  33.116  25.520  1.00  0.00    -0.024 A 
ATOM      2  C   UNL     1     -47.288  32.801  25.037  1.00  0.00    -0.056 A 
ATOM      3  C   UNL     1     -46.141  33.400  25.574  1.00  0.00    -0.052 A 
ATOM      4  C   UNL     1     -46.276  34.337  26.616  1.00  0.00    -0.000 A 
ATOM      5  C   UNL     1     -45.358  35.111  27.375  1.00  0.00    -0.032 A 
ATOM      6  C   UNL     1     -46.077  35.864  28.284  1.00  0.00     0.030 A 
ATOM      7  N   UNL     1     -47.405  35.568  28.090  1.00  0.00    -0.357 N 
ATOM      8  C   UNL     1     -47.552  34.642  27.081  1.00  0.00     0.046 A 
ATOM      9  C   UNL     1     -48.710  34.059  26.554  1.00  0.00    -0.033 A 
ATOM     10  H   UNL     1     -47.162  32.079  24.232  1.00  0.00     0.063 H 
ATOM     11  H   UNL     1     -45.157  33.145  25.192  1.00  0.00     0.063 H 
ATOM     12  H   UNL     1     -44.280  35.116  27.279  1.00  0.00     0.065 H 
ATOM     13  H   UNL     1     -48.174  35.963  28.614  1.00  0.00     0.166 HD
ATOM     14  H   UNL     1     -49.692  34.321  26.944  1.00  0.00     0.065 H 
ENDROOT
BRANCH   1  15
ATOM     15  C   UNL     1     -49.786  32.457  24.924  1.00  0.00     0.068 C 
ATOM     16  H   UNL     1     -50.662  32.642  25.558  1.00  0.00     0.057 H 
ATOM     17  H   UNL     1     -50.011  32.850  23.925  1.00  0.00     0.057 H 
BRANCH  15  18
ATOM     18  N   UNL     1     -49.610  31.024  24.777  1.00  0.00    -0.247 N 
ATOM     19  C   UNL     1     -49.016  28.951  24.947  1.00  0.00     0.113 A 
ATOM     20  C   UNL     1     -48.817  30.191  25.513  1.00  0.00     0.054 A 
ATOM     21  N   UNL     1     -49.891  29.081  23.897  1.00  0.00    -0.130 NA
ATOM     22  H   UNL     1     -48.231  30.543  26.349  1.00  0.00     0.086 H 
ATOM     23  N   UNL     1     -50.244  30.355  23.798  1.00  0.00    -0.066 NA
BRANCH  19  24
ATOM     24  C   UNL     1     -48.419  27.699  25.369  1.00  0.00     0.015 A 
ATOM     25  C   UNL     1     -48.395  25.695  26.775  1.00  0.00    -0.059 A 
ATOM     26  C   UNL     1     -48.984  26.900  26.383  1.00  0.00    -0.052 A 
ATOM     27  C   UNL     1     -47.222  25.237  26.173  1.00  0.00    -0.036 A 
ATOM     28  H   UNL     1     -48.858  25.104  27.563  1.00  0.00     0.062 H 
ATOM     29  H   UNL     1     -49.893  27.213  26.890  1.00  0.00     0.063 H 
ATOM     30  C   UNL     1     -46.669  26.036  25.168  1.00  0.00     0.066 A 
ATOM     31  H   UNL     1     -46.765  24.301  26.477  1.00  0.00     0.065 H 
ATOM     32  C   UNL     1     -47.228  27.244  24.754  1.00  0.00     0.029 A 
ATOM     33  N   UNL     1     -45.548  25.867  24.400  1.00  0.00    -0.278 N 
ATOM     34  C   UNL     1     -46.349  27.689  23.733  1.00  0.00     0.057 A 
ATOM     35  N   UNL     1     -45.331  26.853  23.515  1.00  0.00    -0.183 NA
ATOM     36  H   UNL     1     -44.890  25.097  24.428  1.00  0.00     0.190 HD
ATOM     37  H   UNL     1     -46.416  28.593  23.140  1.00  0.00     0.087 H 
ENDBRANCH  19  24
ENDBRANCH  15  18
ENDBRANCH   1  15
BRANCH   6  38
ATOM     38  C   UNL     1     -45.622  36.842  29.313  1.00  0.00     0.036 C 
ATOM     39  H   UNL     1     -45.522  36.318  30.270  1.00  0.00     0.049 H 
ATOM     40  H   UNL     1     -44.636  37.237  29.041  1.00  0.00     0.049 H 
BRANCH  38  41
ATOM     41  N   UNL     1     -46.600  37.919  29.410  1.00  0.00    -0.311 NA
ATOM     42  H   UNL     1     -47.527  37.526  29.251  1.00  0.00     0.123 HD
BRANCH  41  43
ATOM     43  C   UNL     1     -46.366  38.986  28.444  1.00  0.00    -0.002 C 
ATOM     44  H   UNL     1     -46.605  39.938  28.934  1.00  0.00     0.043 H 
ATOM     45  H   UNL     1     -47.040  38.903  27.585  1.00  0.00     0.043 H 
BRANCH  43  46
ATOM     46  C   UNL     1     -44.939  38.998  27.989  1.00  0.00    -0.029 C 
ATOM     47  C   UNL     1     -43.999  40.091  28.434  1.00  0.00    -0.049 C 
ATOM     48  C   UNL     1     -44.460  40.036  27.004  1.00  0.00    -0.049 C 
ATOM     49  H   UNL     1     -44.534  37.998  27.880  1.00  0.00     0.032 H 
ATOM     50  H   UNL     1     -44.392  40.875  29.072  1.00  0.00     0.027 H 
ATOM     51  H   UNL     1     -42.975  39.813  28.655  1.00  0.00     0.027 H 
ATOM     52  H   UNL     1     -43.741  39.729  26.253  1.00  0.00     0.027 H 
ATOM     53  H   UNL     1     -45.151  40.801  26.669  1.00  0.00     0.027 H 
ENDBRANCH  43  46
ENDBRANCH  41  43
ENDBRANCH  38  41
ENDBRANCH   6  38
TORSDOF 7
ENDMDL
