MODEL 1
REMARK VINA RESULT:     -10.3      0.000      0.000
REMARK SMILES Cn1ccc(-c2cn([C@H]3C[C@H](O)[C@@H](COc4ccc5ccc(N6CCC6)nc5c4)O3)c3ncnc(N)c23)n1
REMARK SMILES IDX 9 1 10 2 11 3 13 4 30 5 8 11 6 12 7 13 37 14 31 16 35 17
REMARK SMILES IDX 32 18 34 19 33 20 5 22 2 23 3 24 38 25 4 26 1 29 36 33 12 36
REMARK SMILES IDX 14 38 15 41 16 42 17 43 29 44 18 45 28 47 19 49 27 51 20 52
REMARK SMILES IDX 22 53 21 54 23 57 24 58 26 59 25 60
REMARK H PARENT 9 6 10 7 10 8 11 9 13 10 7 15 33 21 3 27 4 28 1 30 1 31 1 32
REMARK H PARENT 36 34 36 35 12 37 14 39 14 40 17 46 29 48 18 50 20 55 21 56
REMARK H PARENT 24 61 24 62 26 63 26 64 25 65 25 66
REMARK Flexibility Score: inf
ROOT
ATOM      1  C   UNL     1     -44.940  37.641  29.167  1.00  0.00     0.138 C 
ATOM      2  C   UNL     1     -46.317  37.640  29.809  1.00  0.00     0.022 C 
ATOM      3  C   UNL     1     -47.201  37.177  28.675  1.00  0.00     0.088 C 
ATOM      4  C   UNL     1     -46.310  36.134  28.007  1.00  0.00     0.120 C 
ATOM      5  O   UNL     1     -44.952  36.611  28.151  1.00  0.00    -0.348 OA
ATOM      6  H   UNL     1     -44.146  37.407  29.883  1.00  0.00     0.085 H 
ATOM      7  H   UNL     1     -46.351  36.909  30.627  1.00  0.00     0.034 H 
ATOM      8  H   UNL     1     -46.635  38.600  30.226  1.00  0.00     0.034 H 
ATOM      9  H   UNL     1     -47.421  38.013  28.005  1.00  0.00     0.063 H 
ATOM     10  H   UNL     1     -46.392  35.187  28.557  1.00  0.00     0.067 H 
ENDROOT
BRANCH   1  11
ATOM     11  N   UNL     1     -44.598  38.927  28.559  1.00  0.00    -0.305 N 
ATOM     12  C   UNL     1     -44.621  40.777  27.308  1.00  0.00     0.033 A 
ATOM     13  C   UNL     1     -45.227  39.549  27.510  1.00  0.00     0.019 A 
ATOM     14  C   UNL     1     -43.545  40.885  28.243  1.00  0.00     0.071 A 
ATOM     15  H   UNL     1     -46.058  39.082  27.001  1.00  0.00     0.083 H 
ATOM     16  C   UNL     1     -43.574  39.725  29.011  1.00  0.00     0.148 A 
ATOM     17  C   UNL     1     -42.534  41.809  28.565  1.00  0.00     0.137 A 
ATOM     18  N   UNL     1     -42.759  39.415  30.035  1.00  0.00    -0.218 NA
ATOM     19  N   UNL     1     -41.707  41.544  29.597  1.00  0.00    -0.219 NA
ATOM     20  C   UNL     1     -41.857  40.383  30.257  1.00  0.00     0.120 A 
ATOM     21  H   UNL     1     -41.161  40.209  31.072  1.00  0.00     0.106 H 
BRANCH  12  22
ATOM     22  C   UNL     1     -45.025  41.783  26.319  1.00  0.00     0.095 A 
ATOM     23  N   UNL     1     -46.084  43.328  25.335  1.00  0.00    -0.275 N 
ATOM     24  C   UNL     1     -45.071  43.016  24.480  1.00  0.00     0.025 A 
ATOM     25  N   UNL     1     -46.088  42.589  26.459  1.00  0.00    -0.173 NA
ATOM     26  C   UNL     1     -44.364  42.006  25.089  1.00  0.00    -0.016 A 
ATOM     27  H   UNL     1     -44.937  43.518  23.532  1.00  0.00     0.084 H 
ATOM     28  H   UNL     1     -43.488  41.505  24.700  1.00  0.00     0.066 H 
BRANCH  23  29
ATOM     29  C   UNL     1     -47.105  44.328  25.140  1.00  0.00     0.030 C 
ATOM     30  H   UNL     1     -47.577  44.153  24.170  1.00  0.00     0.048 H 
ATOM     31  H   UNL     1     -47.837  44.234  25.946  1.00  0.00     0.048 H 
ATOM     32  H   UNL     1     -46.652  45.321  25.160  1.00  0.00     0.048 H 
ENDBRANCH  23  29
ENDBRANCH  12  22
BRANCH  17  33
ATOM     33  N   UNL     1     -42.323  42.999  27.886  1.00  0.00    -0.383 N 
ATOM     34  H   UNL     1     -43.019  43.712  28.124  1.00  0.00     0.158 HD
ATOM     35  H   UNL     1     -41.353  43.278  27.912  1.00  0.00     0.158 HD
ENDBRANCH  17  33
ENDBRANCH   1  11
BRANCH   3  36
ATOM     36  O   UNL     1     -48.411  36.635  29.171  1.00  0.00    -0.390 OA
ATOM     37  H   UNL     1     -48.685  37.175  29.933  1.00  0.00     0.211 HD
ENDBRANCH   3  36
BRANCH   4  38
ATOM     38  C   UNL     1     -46.591  35.849  26.528  1.00  0.00     0.117 C 
ATOM     39  H   UNL     1     -46.591  36.761  25.923  1.00  0.00     0.073 H 
ATOM     40  H   UNL     1     -45.731  35.291  26.134  1.00  0.00     0.073 H 
BRANCH  38  41
ATOM     41  O   UNL     1     -47.729  35.018  26.324  1.00  0.00    -0.491 OA
BRANCH  41  42
ATOM     42  C   UNL     1     -47.570  33.807  25.710  1.00  0.00     0.121 A 
ATOM     43  C   UNL     1     -46.428  33.707  24.917  1.00  0.00    -0.019 A 
ATOM     44  C   UNL     1     -48.412  32.699  25.824  1.00  0.00     0.007 A 
ATOM     45  C   UNL     1     -46.135  32.520  24.245  1.00  0.00    -0.049 A 
ATOM     46  H   UNL     1     -45.759  34.559  24.825  1.00  0.00     0.066 H 
ATOM     47  C   UNL     1     -48.139  31.503  25.176  1.00  0.00     0.076 A 
ATOM     48  H   UNL     1     -49.305  32.716  26.438  1.00  0.00     0.069 H 
ATOM     49  C   UNL     1     -46.989  31.414  24.373  1.00  0.00     0.001 A 
ATOM     50  H   UNL     1     -45.239  32.464  23.633  1.00  0.00     0.063 H 
ATOM     51  N   UNL     1     -48.983  30.472  25.345  1.00  0.00    -0.231 NA
ATOM     52  C   UNL     1     -46.738  30.198  23.732  1.00  0.00    -0.049 A 
ATOM     53  C   UNL     1     -48.734  29.300  24.723  1.00  0.00     0.129 A 
ATOM     54  C   UNL     1     -47.618  29.134  23.910  1.00  0.00    -0.019 A 
ATOM     55  H   UNL     1     -45.862  30.068  23.102  1.00  0.00     0.063 H 
ATOM     56  H   UNL     1     -47.420  28.182  23.430  1.00  0.00     0.066 H 
BRANCH  53  57
ATOM     57  N   UNL     1     -49.619  28.228  24.937  1.00  0.00    -0.356 N 
ATOM     58  C   UNL     1     -49.547  27.263  25.995  1.00  0.00     0.021 C 
ATOM     59  C   UNL     1     -49.916  27.225  23.953  1.00  0.00     0.021 C 
ATOM     60  C   UNL     1     -50.421  26.363  25.114  1.00  0.00    -0.018 C 
ATOM     61  H   UNL     1     -48.531  26.893  26.169  1.00  0.00     0.049 H 
ATOM     62  H   UNL     1     -50.003  27.600  26.928  1.00  0.00     0.049 H 
ATOM     63  H   UNL     1     -49.024  26.839  23.449  1.00  0.00     0.049 H 
ATOM     64  H   UNL     1     -50.670  27.538  23.227  1.00  0.00     0.049 H 
ATOM     65  H   UNL     1     -51.497  26.448  25.306  1.00  0.00     0.030 H 
ATOM     66  H   UNL     1     -50.139  25.308  25.081  1.00  0.00     0.030 H 
ENDBRANCH  53  57
ENDBRANCH  41  42
ENDBRANCH  38  41
ENDBRANCH   4  38
TORSDOF 9
ENDMDL
MODEL 2
REMARK VINA RESULT:      -9.9      1.285      1.736
REMARK SMILES Cn1ccc(-c2cn([C@H]3C[C@H](O)[C@@H](COc4ccc5ccc(N6CCC6)nc5c4)O3)c3ncnc(N)c23)n1
REMARK SMILES IDX 9 1 10 2 11 3 13 4 30 5 8 11 6 12 7 13 37 14 31 16 35 17
REMARK SMILES IDX 32 18 34 19 33 20 5 22 2 23 3 24 38 25 4 26 1 29 36 33 12 36
REMARK SMILES IDX 14 38 15 41 16 42 17 43 29 44 18 45 28 47 19 49 27 51 20 52
REMARK SMILES IDX 22 53 21 54 23 57 24 58 26 59 25 60
REMARK H PARENT 9 6 10 7 10 8 11 9 13 10 7 15 33 21 3 27 4 28 1 30 1 31 1 32
REMARK H PARENT 36 34 36 35 12 37 14 39 14 40 17 46 29 48 18 50 20 55 21 56
REMARK H PARENT 24 61 24 62 26 63 26 64 25 65 25 66
REMARK Flexibility Score: inf
ROOT
ATOM      1  C   UNL     1     -46.846  36.862  29.064  1.00  0.00     0.138 C 
ATOM      2  C   UNL     1     -48.252  36.771  28.498  1.00  0.00     0.022 C 
ATOM      3  C   UNL     1     -48.045  35.942  27.252  1.00  0.00     0.088 C 
ATOM      4  C   UNL     1     -46.996  34.942  27.729  1.00  0.00     0.120 C 
ATOM      5  O   UNL     1     -46.156  35.653  28.667  1.00  0.00    -0.348 OA
ATOM      6  H   UNL     1     -46.840  36.916  30.158  1.00  0.00     0.085 H 
ATOM      7  H   UNL     1     -48.907  36.232  29.196  1.00  0.00     0.034 H 
ATOM      8  H   UNL     1     -48.732  37.732  28.289  1.00  0.00     0.034 H 
ATOM      9  H   UNL     1     -47.667  36.571  26.441  1.00  0.00     0.063 H 
ATOM     10  H   UNL     1     -47.496  34.131  28.275  1.00  0.00     0.067 H 
ENDROOT
BRANCH   1  11
ATOM     11  N   UNL     1     -46.112  38.029  28.577  1.00  0.00    -0.305 N 
ATOM     12  C   UNL     1     -45.505  39.858  27.448  1.00  0.00     0.033 A 
ATOM     13  C   UNL     1     -46.428  38.829  27.508  1.00  0.00     0.019 A 
ATOM     14  C   UNL     1     -44.556  39.646  28.496  1.00  0.00     0.071 A 
ATOM     15  H   UNL     1     -47.286  38.616  26.886  1.00  0.00     0.083 H 
ATOM     16  C   UNL     1     -44.976  38.512  29.183  1.00  0.00     0.148 A 
ATOM     17  C   UNL     1     -43.385  40.259  28.979  1.00  0.00     0.137 A 
ATOM     18  N   UNL     1     -44.396  37.964  30.266  1.00  0.00    -0.218 NA
ATOM     19  N   UNL     1     -42.783  39.751  30.074  1.00  0.00    -0.219 NA
ATOM     20  C   UNL     1     -43.307  38.651  30.642  1.00  0.00     0.120 A 
ATOM     21  H   UNL     1     -42.781  38.273  31.513  1.00  0.00     0.106 H 
BRANCH  12  22
ATOM     22  C   UNL     1     -45.513  40.967  26.486  1.00  0.00     0.095 A 
ATOM     23  N   UNL     1     -44.929  42.321  24.969  1.00  0.00    -0.275 N 
ATOM     24  C   UNL     1     -46.160  42.758  25.355  1.00  0.00     0.025 A 
ATOM     25  N   UNL     1     -44.504  41.238  25.645  1.00  0.00    -0.173 NA
ATOM     26  C   UNL     1     -46.568  41.899  26.348  1.00  0.00    -0.016 A 
ATOM     27  H   UNL     1     -46.635  43.620  24.909  1.00  0.00     0.084 H 
ATOM     28  H   UNL     1     -47.500  41.938  26.893  1.00  0.00     0.066 H 
BRANCH  23  29
ATOM     29  C   UNL     1     -44.084  42.900  23.954  1.00  0.00     0.030 C 
ATOM     30  H   UNL     1     -43.092  42.450  24.034  1.00  0.00     0.048 H 
ATOM     31  H   UNL     1     -44.525  42.688  22.976  1.00  0.00     0.048 H 
ATOM     32  H   UNL     1     -44.017  43.979  24.108  1.00  0.00     0.048 H 
ENDBRANCH  23  29
ENDBRANCH  12  22
BRANCH  17  33
ATOM     33  N   UNL     1     -42.793  41.371  28.401  1.00  0.00    -0.383 N 
ATOM     34  H   UNL     1     -43.447  41.902  27.818  1.00  0.00     0.158 HD
ATOM     35  H   UNL     1     -42.246  41.894  29.069  1.00  0.00     0.158 HD
ENDBRANCH  17  33
ENDBRANCH   1  11
BRANCH   3  36
ATOM     36  O   UNL     1     -49.255  35.326  26.851  1.00  0.00    -0.390 OA
ATOM     37  H   UNL     1     -49.043  34.699  26.137  1.00  0.00     0.211 HD
ENDBRANCH   3  36
BRANCH   4  38
ATOM     38  C   UNL     1     -46.117  34.311  26.644  1.00  0.00     0.117 C 
ATOM     39  H   UNL     1     -45.150  34.814  26.549  1.00  0.00     0.073 H 
ATOM     40  H   UNL     1     -45.840  33.306  26.991  1.00  0.00     0.073 H 
BRANCH  38  41
ATOM     41  O   UNL     1     -46.799  34.128  25.407  1.00  0.00    -0.491 OA
BRANCH  41  42
ATOM     42  C   UNL     1     -46.957  32.863  24.912  1.00  0.00     0.121 A 
ATOM     43  C   UNL     1     -46.134  32.560  23.828  1.00  0.00    -0.019 A 
ATOM     44  C   UNL     1     -47.823  31.882  25.397  1.00  0.00     0.007 A 
ATOM     45  C   UNL     1     -46.181  31.299  23.235  1.00  0.00    -0.049 A 
ATOM     46  H   UNL     1     -45.449  33.313  23.444  1.00  0.00     0.066 H 
ATOM     47  C   UNL     1     -47.882  30.615  24.834  1.00  0.00     0.076 A 
ATOM     48  H   UNL     1     -48.473  32.056  26.246  1.00  0.00     0.069 H 
ATOM     49  C   UNL     1     -47.054  30.321  23.736  1.00  0.00     0.001 A 
ATOM     50  H   UNL     1     -45.532  31.085  22.390  1.00  0.00     0.063 H 
ATOM     51  N   UNL     1     -48.725  29.714  25.363  1.00  0.00    -0.231 NA
ATOM     52  C   UNL     1     -47.135  29.039  23.188  1.00  0.00    -0.049 A 
ATOM     53  C   UNL     1     -48.797  28.475  24.829  1.00  0.00     0.129 A 
ATOM     54  C   UNL     1     -48.012  28.110  23.740  1.00  0.00    -0.019 A 
ATOM     55  H   UNL     1     -46.516  28.753  22.342  1.00  0.00     0.063 H 
ATOM     56  H   UNL     1     -48.066  27.107  23.332  1.00  0.00     0.066 H 
BRANCH  53  57
ATOM     57  N   UNL     1     -49.670  27.542  25.418  1.00  0.00    -0.356 N 
ATOM     58  C   UNL     1     -49.378  26.691  26.534  1.00  0.00     0.021 C 
ATOM     59  C   UNL     1     -50.318  26.484  24.695  1.00  0.00     0.021 C 
ATOM     60  C   UNL     1     -50.539  25.813  26.053  1.00  0.00    -0.018 C 
ATOM     61  H   UNL     1     -48.388  26.225  26.471  1.00  0.00     0.049 H 
ATOM     62  H   UNL     1     -49.519  27.175  27.503  1.00  0.00     0.049 H 
ATOM     63  H   UNL     1     -49.642  25.946  24.022  1.00  0.00     0.049 H 
ATOM     64  H   UNL     1     -51.219  26.805  24.169  1.00  0.00     0.049 H 
ATOM     65  H   UNL     1     -51.504  26.043  26.520  1.00  0.00     0.030 H 
ATOM     66  H   UNL     1     -50.366  24.734  26.085  1.00  0.00     0.030 H 
ENDBRANCH  53  57
ENDBRANCH  41  42
ENDBRANCH  38  41
ENDBRANCH   4  38
TORSDOF 9
ENDMDL
MODEL 3
REMARK VINA RESULT:      -9.3      2.207     12.129
REMARK SMILES Cn1ccc(-c2cn([C@H]3C[C@H](O)[C@@H](COc4ccc5ccc(N6CCC6)nc5c4)O3)c3ncnc(N)c23)n1
REMARK SMILES IDX 9 1 10 2 11 3 13 4 30 5 8 11 6 12 7 13 37 14 31 16 35 17
REMARK SMILES IDX 32 18 34 19 33 20 5 22 2 23 3 24 38 25 4 26 1 29 36 33 12 36
REMARK SMILES IDX 14 38 15 41 16 42 17 43 29 44 18 45 28 47 19 49 27 51 20 52
REMARK SMILES IDX 22 53 21 54 23 57 24 58 26 59 25 60
REMARK H PARENT 9 6 10 7 10 8 11 9 13 10 7 15 33 21 3 27 4 28 1 30 1 31 1 32
REMARK H PARENT 36 34 36 35 12 37 14 39 14 40 17 46 29 48 18 50 20 55 21 56
REMARK H PARENT 24 61 24 62 26 63 26 64 25 65 25 66
REMARK Flexibility Score: inf
ROOT
ATOM      1  C   UNL     1     -48.332  31.770  23.849  1.00  0.00     0.138 C 
ATOM      2  C   UNL     1     -49.618  32.112  24.583  1.00  0.00     0.022 C 
ATOM      3  C   UNL     1     -49.106  32.632  25.905  1.00  0.00     0.088 C 
ATOM      4  C   UNL     1     -47.866  33.404  25.463  1.00  0.00     0.120 C 
ATOM      5  O   UNL     1     -47.318  32.679  24.338  1.00  0.00    -0.348 OA
ATOM      6  H   UNL     1     -48.421  31.907  22.766  1.00  0.00     0.085 H 
ATOM      7  H   UNL     1     -50.154  32.910  24.053  1.00  0.00     0.034 H 
ATOM      8  H   UNL     1     -50.320  31.280  24.700  1.00  0.00     0.034 H 
ATOM      9  H   UNL     1     -48.851  31.797  26.564  1.00  0.00     0.063 H 
ATOM     10  H   UNL     1     -48.170  34.396  25.105  1.00  0.00     0.067 H 
ENDROOT
BRANCH   1  11
ATOM     11  N   UNL     1     -47.903  30.390  24.068  1.00  0.00    -0.305 N 
ATOM     12  C   UNL     1     -47.806  28.257  24.722  1.00  0.00     0.033 A 
ATOM     13  C   UNL     1     -48.502  29.444  24.863  1.00  0.00     0.019 A 
ATOM     14  C   UNL     1     -46.706  28.503  23.843  1.00  0.00     0.071 A 
ATOM     15  H   UNL     1     -49.377  29.682  25.450  1.00  0.00     0.083 H 
ATOM     16  C   UNL     1     -46.811  29.832  23.447  1.00  0.00     0.148 A 
ATOM     17  C   UNL     1     -45.620  27.786  23.309  1.00  0.00     0.137 A 
ATOM     18  N   UNL     1     -46.002  30.485  22.593  1.00  0.00    -0.218 NA
ATOM     19  N   UNL     1     -44.796  28.400  22.434  1.00  0.00    -0.219 NA
ATOM     20  C   UNL     1     -45.023  29.690  22.136  1.00  0.00     0.120 A 
ATOM     21  H   UNL     1     -44.326  30.144  21.438  1.00  0.00     0.106 H 
BRANCH  12  22
ATOM     22  C   UNL     1     -48.150  26.978  25.356  1.00  0.00     0.095 A 
ATOM     23  N   UNL     1     -47.995  25.124  26.365  1.00  0.00    -0.275 N 
ATOM     24  C   UNL     1     -49.321  25.241  26.076  1.00  0.00     0.025 A 
ATOM     25  N   UNL     1     -47.254  26.161  25.931  1.00  0.00    -0.173 NA
ATOM     26  C   UNL     1     -49.455  26.438  25.412  1.00  0.00    -0.016 A 
ATOM     27  H   UNL     1     -50.043  24.486  26.354  1.00  0.00     0.084 H 
ATOM     28  H   UNL     1     -50.372  26.863  25.027  1.00  0.00     0.066 H 
BRANCH  23  29
ATOM     29  C   UNL     1     -47.351  24.032  27.052  1.00  0.00     0.030 C 
ATOM     30  H   UNL     1     -46.278  24.083  26.851  1.00  0.00     0.048 H 
ATOM     31  H   UNL     1     -47.547  24.136  28.123  1.00  0.00     0.048 H 
ATOM     32  H   UNL     1     -47.754  23.084  26.689  1.00  0.00     0.048 H 
ENDBRANCH  23  29
ENDBRANCH  12  22
BRANCH  17  33
ATOM     33  N   UNL     1     -45.330  26.466  23.619  1.00  0.00    -0.383 N 
ATOM     34  H   UNL     1     -46.167  25.875  23.628  1.00  0.00     0.158 HD
ATOM     35  H   UNL     1     -44.534  26.126  23.099  1.00  0.00     0.158 HD
ENDBRANCH  17  33
ENDBRANCH   1  11
BRANCH   3  36
ATOM     36  O   UNL     1     -50.075  33.453  26.531  1.00  0.00    -0.390 OA
ATOM     37  H   UNL     1     -49.978  33.340  27.493  1.00  0.00     0.211 HD
ENDBRANCH   3  36
BRANCH   4  38
ATOM     38  C   UNL     1     -46.774  33.595  26.521  1.00  0.00     0.117 C 
ATOM     39  H   UNL     1     -46.280  32.654  26.782  1.00  0.00     0.073 H 
ATOM     40  H   UNL     1     -45.966  34.176  26.055  1.00  0.00     0.073 H 
BRANCH  38  41
ATOM     41  O   UNL     1     -47.209  34.353  27.645  1.00  0.00    -0.491 OA
BRANCH  41  42
ATOM     42  C   UNL     1     -46.601  35.546  27.922  1.00  0.00     0.121 A 
ATOM     43  C   UNL     1     -45.997  35.609  29.177  1.00  0.00    -0.019 A 
ATOM     44  C   UNL     1     -46.519  36.654  27.077  1.00  0.00     0.007 A 
ATOM     45  C   UNL     1     -45.327  36.763  29.583  1.00  0.00    -0.049 A 
ATOM     46  H   UNL     1     -46.046  34.751  29.843  1.00  0.00     0.066 H 
ATOM     47  C   UNL     1     -45.850  37.811  27.450  1.00  0.00     0.076 A 
ATOM     48  H   UNL     1     -46.956  36.656  26.086  1.00  0.00     0.069 H 
ATOM     49  C   UNL     1     -45.250  37.868  28.720  1.00  0.00     0.001 A 
ATOM     50  H   UNL     1     -44.864  36.791  30.565  1.00  0.00     0.063 H 
ATOM     51  N   UNL     1     -45.795  38.832  26.580  1.00  0.00    -0.231 NA
ATOM     52  C   UNL     1     -44.583  39.044  29.071  1.00  0.00    -0.049 A 
ATOM     53  C   UNL     1     -45.148  39.966  26.924  1.00  0.00     0.129 A 
ATOM     54  C   UNL     1     -44.532  40.100  28.164  1.00  0.00    -0.019 A 
ATOM     55  H   UNL     1     -44.097  39.145  30.037  1.00  0.00     0.063 H 
ATOM     56  H   UNL     1     -44.000  41.009  28.422  1.00  0.00     0.066 H 
BRANCH  53  57
ATOM     57  N   UNL     1     -45.082  41.011  25.985  1.00  0.00    -0.356 N 
ATOM     58  C   UNL     1     -44.023  41.967  25.848  1.00  0.00     0.021 C 
ATOM     59  C   UNL     1     -46.098  42.015  25.831  1.00  0.00     0.021 C 
ATOM     60  C   UNL     1     -45.036  42.851  25.111  1.00  0.00    -0.018 C 
ATOM     61  H   UNL     1     -43.676  42.363  26.808  1.00  0.00     0.049 H 
ATOM     62  H   UNL     1     -43.183  41.608  25.249  1.00  0.00     0.049 H 
ATOM     63  H   UNL     1     -46.440  42.430  26.785  1.00  0.00     0.049 H 
ATOM     64  H   UNL     1     -46.943  41.689  25.221  1.00  0.00     0.049 H 
ATOM     65  H   UNL     1     -45.030  42.734  24.021  1.00  0.00     0.030 H 
ATOM     66  H   UNL     1     -45.014  43.914  25.364  1.00  0.00     0.030 H 
ENDBRANCH  53  57
ENDBRANCH  41  42
ENDBRANCH  38  41
ENDBRANCH   4  38
TORSDOF 9
ENDMDL
MODEL 4
REMARK VINA RESULT:      -9.2      2.556      3.602
REMARK SMILES Cn1ccc(-c2cn([C@H]3C[C@H](O)[C@@H](COc4ccc5ccc(N6CCC6)nc5c4)O3)c3ncnc(N)c23)n1
REMARK SMILES IDX 9 1 10 2 11 3 13 4 30 5 8 11 6 12 7 13 37 14 31 16 35 17
REMARK SMILES IDX 32 18 34 19 33 20 5 22 2 23 3 24 38 25 4 26 1 29 36 33 12 36
REMARK SMILES IDX 14 38 15 41 16 42 17 43 29 44 18 45 28 47 19 49 27 51 20 52
REMARK SMILES IDX 22 53 21 54 23 57 24 58 26 59 25 60
REMARK H PARENT 9 6 10 7 10 8 11 9 13 10 7 15 33 21 3 27 4 28 1 30 1 31 1 32
REMARK H PARENT 36 34 36 35 12 37 14 39 14 40 17 46 29 48 18 50 20 55 21 56
REMARK H PARENT 24 61 24 62 26 63 26 64 25 65 25 66
REMARK Flexibility Score: inf
ROOT
ATOM      1  C   UNL     1     -45.556  38.396  27.608  1.00  0.00     0.138 C 
ATOM      2  C   UNL     1     -45.114  38.244  29.054  1.00  0.00     0.022 C 
ATOM      3  C   UNL     1     -46.104  37.236  29.589  1.00  0.00     0.088 C 
ATOM      4  C   UNL     1     -46.257  36.302  28.393  1.00  0.00     0.120 C 
ATOM      5  O   UNL     1     -46.138  37.131  27.214  1.00  0.00    -0.348 OA
ATOM      6  H   UNL     1     -44.718  38.612  26.937  1.00  0.00     0.085 H 
ATOM      7  H   UNL     1     -44.100  37.825  29.097  1.00  0.00     0.034 H 
ATOM      8  H   UNL     1     -45.101  39.171  29.635  1.00  0.00     0.034 H 
ATOM      9  H   UNL     1     -47.047  37.732  29.840  1.00  0.00     0.063 H 
ATOM     10  H   UNL     1     -45.422  35.589  28.386  1.00  0.00     0.067 H 
ENDROOT
BRANCH   1  11
ATOM     11  N   UNL     1     -46.535  39.467  27.424  1.00  0.00    -0.305 N 
ATOM     12  C   UNL     1     -48.376  40.725  27.531  1.00  0.00     0.033 A 
ATOM     13  C   UNL     1     -47.835  39.496  27.861  1.00  0.00     0.019 A 
ATOM     14  C   UNL     1     -47.377  41.458  26.817  1.00  0.00     0.071 A 
ATOM     15  H   UNL     1     -48.267  38.653  28.381  1.00  0.00     0.083 H 
ATOM     16  C   UNL     1     -46.246  40.649  26.785  1.00  0.00     0.148 A 
ATOM     17  C   UNL     1     -47.257  42.709  26.184  1.00  0.00     0.137 A 
ATOM     18  N   UNL     1     -45.053  40.952  26.240  1.00  0.00    -0.218 NA
ATOM     19  N   UNL     1     -46.072  43.058  25.641  1.00  0.00    -0.219 NA
ATOM     20  C   UNL     1     -45.059  42.176  25.692  1.00  0.00     0.120 A 
ATOM     21  H   UNL     1     -44.130  42.497  25.232  1.00  0.00     0.106 H 
BRANCH  12  22
ATOM     22  C   UNL     1     -49.728  41.189  27.867  1.00  0.00     0.095 A 
ATOM     23  N   UNL     1     -51.334  42.376  28.565  1.00  0.00    -0.275 N 
ATOM     24  C   UNL     1     -51.927  41.232  28.123  1.00  0.00     0.025 A 
ATOM     25  N   UNL     1     -49.995  42.376  28.431  1.00  0.00    -0.173 NA
ATOM     26  C   UNL     1     -50.906  40.433  27.665  1.00  0.00    -0.016 A 
ATOM     27  H   UNL     1     -52.996  41.079  28.168  1.00  0.00     0.084 H 
ATOM     28  H   UNL     1     -51.001  39.444  27.241  1.00  0.00     0.066 H 
BRANCH  23  29
ATOM     29  C   UNL     1     -51.989  43.523  29.144  1.00  0.00     0.030 C 
ATOM     30  H   UNL     1     -52.938  43.677  28.625  1.00  0.00     0.048 H 
ATOM     31  H   UNL     1     -52.160  43.322  30.206  1.00  0.00     0.048 H 
ATOM     32  H   UNL     1     -51.353  44.403  29.028  1.00  0.00     0.048 H 
ENDBRANCH  23  29
ENDBRANCH  12  22
BRANCH  17  33
ATOM     33  N   UNL     1     -48.287  43.630  26.078  1.00  0.00    -0.383 N 
ATOM     34  H   UNL     1     -49.210  43.188  26.112  1.00  0.00     0.158 HD
ATOM     35  H   UNL     1     -48.139  44.429  26.678  1.00  0.00     0.158 HD
ENDBRANCH  17  33
ENDBRANCH   1  11
BRANCH   3  36
ATOM     36  O   UNL     1     -45.590  36.587  30.737  1.00  0.00    -0.390 OA
ATOM     37  H   UNL     1     -45.172  35.758  30.443  1.00  0.00     0.211 HD
ENDBRANCH   3  36
BRANCH   4  38
ATOM     38  C   UNL     1     -47.563  35.503  28.318  1.00  0.00     0.117 C 
ATOM     39  H   UNL     1     -47.494  34.546  28.844  1.00  0.00     0.073 H 
ATOM     40  H   UNL     1     -48.315  36.052  28.900  1.00  0.00     0.073 H 
BRANCH  38  41
ATOM     41  O   UNL     1     -48.083  35.402  26.996  1.00  0.00    -0.491 OA
BRANCH  41  42
ATOM     42  C   UNL     1     -47.831  34.274  26.264  1.00  0.00     0.121 A 
ATOM     43  C   UNL     1     -46.648  34.316  25.527  1.00  0.00    -0.019 A 
ATOM     44  C   UNL     1     -48.617  33.122  26.213  1.00  0.00     0.007 A 
ATOM     45  C   UNL     1     -46.261  33.226  24.748  1.00  0.00    -0.049 A 
ATOM     46  H   UNL     1     -46.021  35.205  25.563  1.00  0.00     0.066 H 
ATOM     47  C   UNL     1     -48.251  32.019  25.455  1.00  0.00     0.076 A 
ATOM     48  H   UNL     1     -49.538  33.028  26.777  1.00  0.00     0.069 H 
ATOM     49  C   UNL     1     -47.061  32.074  24.710  1.00  0.00     0.001 A 
ATOM     50  H   UNL     1     -45.336  33.281  24.181  1.00  0.00     0.063 H 
ATOM     51  N   UNL     1     -49.046  30.937  25.468  1.00  0.00    -0.231 NA
ATOM     52  C   UNL     1     -46.716  30.949  23.955  1.00  0.00    -0.049 A 
ATOM     53  C   UNL     1     -48.707  29.854  24.736  1.00  0.00     0.129 A 
ATOM     54  C   UNL     1     -47.546  29.832  23.971  1.00  0.00    -0.019 A 
ATOM     55  H   UNL     1     -45.805  30.932  23.363  1.00  0.00     0.063 H 
ATOM     56  H   UNL     1     -47.275  28.949  23.402  1.00  0.00     0.066 H 
BRANCH  53  57
ATOM     57  N   UNL     1     -49.543  28.724  24.786  1.00  0.00    -0.356 N 
ATOM     58  C   UNL     1     -49.127  27.353  24.727  1.00  0.00     0.021 C 
ATOM     59  C   UNL     1     -50.640  28.498  23.887  1.00  0.00     0.021 C 
ATOM     60  C   UNL     1     -50.564  27.027  24.306  1.00  0.00    -0.018 C 
ATOM     61  H   UNL     1     -48.367  27.169  23.960  1.00  0.00     0.049 H 
ATOM     62  H   UNL     1     -48.812  26.949  25.691  1.00  0.00     0.049 H 
ATOM     63  H   UNL     1     -50.385  28.692  22.840  1.00  0.00     0.049 H 
ATOM     64  H   UNL     1     -51.552  29.029  24.172  1.00  0.00     0.049 H 
ATOM     65  H   UNL     1     -51.229  26.758  25.135  1.00  0.00     0.030 H 
ATOM     66  H   UNL     1     -50.671  26.297  23.500  1.00  0.00     0.030 H 
ENDBRANCH  53  57
ENDBRANCH  41  42
ENDBRANCH  38  41
ENDBRANCH   4  38
TORSDOF 9
ENDMDL
MODEL 5
REMARK VINA RESULT:      -9.1      2.419      4.298
REMARK SMILES Cn1ccc(-c2cn([C@H]3C[C@H](O)[C@@H](COc4ccc5ccc(N6CCC6)nc5c4)O3)c3ncnc(N)c23)n1
REMARK SMILES IDX 9 1 10 2 11 3 13 4 30 5 8 11 6 12 7 13 37 14 31 16 35 17
REMARK SMILES IDX 32 18 34 19 33 20 5 22 2 23 3 24 38 25 4 26 1 29 36 33 12 36
REMARK SMILES IDX 14 38 15 41 16 42 17 43 29 44 18 45 28 47 19 49 27 51 20 52
REMARK SMILES IDX 22 53 21 54 23 57 24 58 26 59 25 60
REMARK H PARENT 9 6 10 7 10 8 11 9 13 10 7 15 33 21 3 27 4 28 1 30 1 31 1 32
REMARK H PARENT 36 34 36 35 12 37 14 39 14 40 17 46 29 48 18 50 20 55 21 56
REMARK H PARENT 24 61 24 62 26 63 26 64 25 65 25 66
REMARK Flexibility Score: inf
ROOT
ATOM      1  C   UNL     1     -44.367  39.942  27.138  1.00  0.00     0.138 C 
ATOM      2  C   UNL     1     -43.881  40.107  28.568  1.00  0.00     0.022 C 
ATOM      3  C   UNL     1     -44.739  39.116  29.317  1.00  0.00     0.088 C 
ATOM      4  C   UNL     1     -44.811  37.966  28.316  1.00  0.00     0.120 C 
ATOM      5  O   UNL     1     -44.812  38.572  27.003  1.00  0.00    -0.348 OA
ATOM      6  H   UNL     1     -43.574  40.119  26.404  1.00  0.00     0.085 H 
ATOM      7  H   UNL     1     -42.826  39.815  28.644  1.00  0.00     0.034 H 
ATOM      8  H   UNL     1     -43.960  41.122  28.971  1.00  0.00     0.034 H 
ATOM      9  H   UNL     1     -45.726  39.546  29.512  1.00  0.00     0.063 H 
ATOM     10  H   UNL     1     -43.901  37.358  28.404  1.00  0.00     0.067 H 
ENDROOT
BRANCH   1  11
ATOM     11  N   UNL     1     -45.465  40.850  26.803  1.00  0.00    -0.305 N 
ATOM     12  C   UNL     1     -47.480  41.792  26.612  1.00  0.00     0.033 A 
ATOM     13  C   UNL     1     -46.806  40.653  27.013  1.00  0.00     0.019 A 
ATOM     14  C   UNL     1     -46.511  42.704  26.088  1.00  0.00     0.071 A 
ATOM     15  H   UNL     1     -47.174  39.731  27.441  1.00  0.00     0.083 H 
ATOM     16  C   UNL     1     -45.272  42.089  26.239  1.00  0.00     0.148 A 
ATOM     17  C   UNL     1     -46.494  43.983  25.502  1.00  0.00     0.137 A 
ATOM     18  N   UNL     1     -44.072  42.600  25.909  1.00  0.00    -0.218 NA
ATOM     19  N   UNL     1     -45.309  44.539  25.174  1.00  0.00    -0.219 NA
ATOM     20  C   UNL     1     -44.188  43.829  25.385  1.00  0.00     0.120 A 
ATOM     21  H   UNL     1     -43.261  44.313  25.093  1.00  0.00     0.106 H 
BRANCH  12  22
ATOM     22  C   UNL     1     -48.926  42.020  26.719  1.00  0.00     0.095 A 
ATOM     23  N   UNL     1     -50.919  42.564  26.260  1.00  0.00    -0.275 N 
ATOM     24  C   UNL     1     -50.976  42.129  27.549  1.00  0.00     0.025 A 
ATOM     25  N   UNL     1     -49.682  42.519  25.730  1.00  0.00    -0.173 NA
ATOM     26  C   UNL     1     -49.691  41.771  27.882  1.00  0.00    -0.016 A 
ATOM     27  H   UNL     1     -51.898  42.110  28.114  1.00  0.00     0.084 H 
ATOM     28  H   UNL     1     -49.356  41.380  28.832  1.00  0.00     0.066 H 
BRANCH  23  29
ATOM     29  C   UNL     1     -52.015  43.054  25.461  1.00  0.00     0.030 C 
ATOM     30  H   UNL     1     -51.665  43.175  24.433  1.00  0.00     0.048 H 
ATOM     31  H   UNL     1     -52.828  42.324  25.507  1.00  0.00     0.048 H 
ATOM     32  H   UNL     1     -52.353  44.015  25.855  1.00  0.00     0.048 H 
ENDBRANCH  23  29
ENDBRANCH  12  22
BRANCH  17  33
ATOM     33  N   UNL     1     -47.630  44.731  25.235  1.00  0.00    -0.383 N 
ATOM     34  H   UNL     1     -47.408  45.698  24.981  1.00  0.00     0.158 HD
ATOM     35  H   UNL     1     -48.272  44.235  24.634  1.00  0.00     0.158 HD
ENDBRANCH  17  33
ENDBRANCH   1  11
BRANCH   3  36
ATOM     36  O   UNL     1     -44.130  38.748  30.541  1.00  0.00    -0.390 OA
ATOM     37  H   UNL     1     -43.308  38.272  30.329  1.00  0.00     0.211 HD
ENDBRANCH   3  36
BRANCH   4  38
ATOM     38  C   UNL     1     -46.019  37.032  28.442  1.00  0.00     0.117 C 
ATOM     39  H   UNL     1     -45.741  36.043  28.818  1.00  0.00     0.073 H 
ATOM     40  H   UNL     1     -46.659  37.430  29.241  1.00  0.00     0.073 H 
BRANCH  38  41
ATOM     41  O   UNL     1     -46.826  36.999  27.269  1.00  0.00    -0.491 OA
BRANCH  41  42
ATOM     42  C   UNL     1     -47.276  35.796  26.801  1.00  0.00     0.121 A 
ATOM     43  C   UNL     1     -48.591  35.494  27.154  1.00  0.00    -0.019 A 
ATOM     44  C   UNL     1     -46.564  34.891  26.012  1.00  0.00     0.007 A 
ATOM     45  C   UNL     1     -49.182  34.304  26.730  1.00  0.00    -0.049 A 
ATOM     46  H   UNL     1     -49.160  36.194  27.762  1.00  0.00     0.066 H 
ATOM     47  C   UNL     1     -47.131  33.705  25.567  1.00  0.00     0.076 A 
ATOM     48  H   UNL     1     -45.546  35.080  25.696  1.00  0.00     0.069 H 
ATOM     49  C   UNL     1     -48.454  33.406  25.935  1.00  0.00     0.001 A 
ATOM     50  H   UNL     1     -50.207  34.089  27.018  1.00  0.00     0.063 H 
ATOM     51  N   UNL     1     -46.394  32.889  24.796  1.00  0.00    -0.231 NA
ATOM     52  C   UNL     1     -49.000  32.205  25.473  1.00  0.00    -0.049 A 
ATOM     53  C   UNL     1     -46.927  31.730  24.353  1.00  0.00     0.129 A 
ATOM     54  C   UNL     1     -48.230  31.363  24.676  1.00  0.00    -0.019 A 
ATOM     55  H   UNL     1     -50.019  31.922  25.721  1.00  0.00     0.063 H 
ATOM     56  H   UNL     1     -48.653  30.438  24.299  1.00  0.00     0.066 H 
BRANCH  53  57
ATOM     57  N   UNL     1     -46.144  30.905  23.526  1.00  0.00    -0.356 N 
ATOM     58  C   UNL     1     -45.769  31.172  22.168  1.00  0.00     0.021 C 
ATOM     59  C   UNL     1     -46.451  29.531  23.242  1.00  0.00     0.021 C 
ATOM     60  C   UNL     1     -45.516  29.665  22.036  1.00  0.00    -0.018 C 
ATOM     61  H   UNL     1     -46.597  31.556  21.563  1.00  0.00     0.049 H 
ATOM     62  H   UNL     1     -44.889  31.810  22.073  1.00  0.00     0.049 H 
ATOM     63  H   UNL     1     -47.504  29.369  22.991  1.00  0.00     0.049 H 
ATOM     64  H   UNL     1     -46.125  28.842  24.025  1.00  0.00     0.049 H 
ATOM     65  H   UNL     1     -44.481  29.361  22.230  1.00  0.00     0.030 H 
ATOM     66  H   UNL     1     -45.865  29.202  21.110  1.00  0.00     0.030 H 
ENDBRANCH  53  57
ENDBRANCH  41  42
ENDBRANCH  38  41
ENDBRANCH   4  38
TORSDOF 9
ENDMDL
MODEL 6
REMARK VINA RESULT:      -8.9      4.423      9.226
REMARK SMILES Cn1ccc(-c2cn([C@H]3C[C@H](O)[C@@H](COc4ccc5ccc(N6CCC6)nc5c4)O3)c3ncnc(N)c23)n1
REMARK SMILES IDX 9 1 10 2 11 3 13 4 30 5 8 11 6 12 7 13 37 14 31 16 35 17
REMARK SMILES IDX 32 18 34 19 33 20 5 22 2 23 3 24 38 25 4 26 1 29 36 33 12 36
REMARK SMILES IDX 14 38 15 41 16 42 17 43 29 44 18 45 28 47 19 49 27 51 20 52
REMARK SMILES IDX 22 53 21 54 23 57 24 58 26 59 25 60
REMARK H PARENT 9 6 10 7 10 8 11 9 13 10 7 15 33 21 3 27 4 28 1 30 1 31 1 32
REMARK H PARENT 36 34 36 35 12 37 14 39 14 40 17 46 29 48 18 50 20 55 21 56
REMARK H PARENT 24 61 24 62 26 63 26 64 25 65 25 66
REMARK Flexibility Score: inf
ROOT
ATOM      1  C   UNL     1     -48.813  36.432  28.218  1.00  0.00     0.138 C 
ATOM      2  C   UNL     1     -48.449  35.776  26.897  1.00  0.00     0.022 C 
ATOM      3  C   UNL     1     -46.949  35.946  26.856  1.00  0.00     0.088 C 
ATOM      4  C   UNL     1     -46.582  35.724  28.321  1.00  0.00     0.120 C 
ATOM      5  O   UNL     1     -47.677  36.261  29.098  1.00  0.00    -0.348 OA
ATOM      6  H   UNL     1     -49.685  35.966  28.689  1.00  0.00     0.085 H 
ATOM      7  H   UNL     1     -48.700  34.708  26.924  1.00  0.00     0.034 H 
ATOM      8  H   UNL     1     -48.944  36.198  26.017  1.00  0.00     0.034 H 
ATOM      9  H   UNL     1     -46.694  36.956  26.523  1.00  0.00     0.063 H 
ATOM     10  H   UNL     1     -46.530  34.645  28.517  1.00  0.00     0.067 H 
ENDROOT
BRANCH   1  11
ATOM     11  N   UNL     1     -49.117  37.856  28.079  1.00  0.00    -0.305 N 
ATOM     12  C   UNL     1     -49.043  40.016  27.515  1.00  0.00     0.033 A 
ATOM     13  C   UNL     1     -48.344  38.823  27.487  1.00  0.00     0.019 A 
ATOM     14  C   UNL     1     -50.276  39.776  28.199  1.00  0.00     0.071 A 
ATOM     15  H   UNL     1     -47.370  38.587  27.082  1.00  0.00     0.083 H 
ATOM     16  C   UNL     1     -50.290  38.423  28.519  1.00  0.00     0.148 A 
ATOM     17  C   UNL     1     -51.405  40.514  28.599  1.00  0.00     0.137 A 
ATOM     18  N   UNL     1     -51.276  37.752  29.141  1.00  0.00    -0.218 NA
ATOM     19  N   UNL     1     -52.424  39.875  29.211  1.00  0.00    -0.219 NA
ATOM     20  C   UNL     1     -52.303  38.558  29.449  1.00  0.00     0.120 A 
ATOM     21  H   UNL     1     -53.143  38.091  29.953  1.00  0.00     0.106 H 
BRANCH  12  22
ATOM     22  C   UNL     1     -48.598  41.289  26.935  1.00  0.00     0.095 A 
ATOM     23  N   UNL     1     -48.605  43.212  26.053  1.00  0.00    -0.275 N 
ATOM     24  C   UNL     1     -47.285  42.897  26.164  1.00  0.00     0.025 A 
ATOM     25  N   UNL     1     -49.430  42.249  26.505  1.00  0.00    -0.173 NA
ATOM     26  C   UNL     1     -47.245  41.645  26.731  1.00  0.00    -0.016 A 
ATOM     27  H   UNL     1     -46.501  43.566  25.839  1.00  0.00     0.084 H 
ATOM     28  H   UNL     1     -46.360  41.072  26.969  1.00  0.00     0.066 H 
BRANCH  23  29
ATOM     29  C   UNL     1     -49.164  44.426  25.509  1.00  0.00     0.030 C 
ATOM     30  H   UNL     1     -49.839  44.159  24.692  1.00  0.00     0.048 H 
ATOM     31  H   UNL     1     -49.709  44.940  26.305  1.00  0.00     0.048 H 
ATOM     32  H   UNL     1     -48.359  45.062  25.135  1.00  0.00     0.048 H 
ENDBRANCH  23  29
ENDBRANCH  12  22
BRANCH  17  33
ATOM     33  N   UNL     1     -51.551  41.880  28.405  1.00  0.00    -0.383 N 
ATOM     34  H   UNL     1     -50.651  42.359  28.314  1.00  0.00     0.158 HD
ATOM     35  H   UNL     1     -52.253  42.085  27.709  1.00  0.00     0.158 HD
ENDBRANCH  17  33
ENDBRANCH   1  11
BRANCH   3  36
ATOM     36  O   UNL     1     -46.359  34.996  25.988  1.00  0.00    -0.390 OA
ATOM     37  H   UNL     1     -45.813  35.483  25.346  1.00  0.00     0.211 HD
ENDBRANCH   3  36
BRANCH   4  38
ATOM     38  C   UNL     1     -45.269  36.357  28.795  1.00  0.00     0.117 C 
ATOM     39  H   UNL     1     -44.642  35.647  29.343  1.00  0.00     0.073 H 
ATOM     40  H   UNL     1     -44.671  36.577  27.901  1.00  0.00     0.073 H 
BRANCH  38  41
ATOM     41  O   UNL     1     -45.456  37.601  29.462  1.00  0.00    -0.491 OA
BRANCH  41  42
ATOM     42  C   UNL     1     -44.637  38.652  29.157  1.00  0.00     0.121 A 
ATOM     43  C   UNL     1     -43.664  38.925  30.117  1.00  0.00    -0.019 A 
ATOM     44  C   UNL     1     -44.678  39.430  27.998  1.00  0.00     0.007 A 
ATOM     45  C   UNL     1     -42.751  39.962  29.926  1.00  0.00    -0.049 A 
ATOM     46  H   UNL     1     -43.615  38.322  31.022  1.00  0.00     0.066 H 
ATOM     47  C   UNL     1     -43.776  40.460  27.776  1.00  0.00     0.076 A 
ATOM     48  H   UNL     1     -45.402  39.253  27.212  1.00  0.00     0.069 H 
ATOM     49  C   UNL     1     -42.803  40.732  28.754  1.00  0.00     0.001 A 
ATOM     50  H   UNL     1     -42.002  40.157  30.688  1.00  0.00     0.063 H 
ATOM     51  N   UNL     1     -43.862  41.155  26.631  1.00  0.00    -0.231 NA
ATOM     52  C   UNL     1     -41.907  41.775  28.505  1.00  0.00    -0.049 A 
ATOM     53  C   UNL     1     -42.992  42.162  26.396  1.00  0.00     0.129 A 
ATOM     54  C   UNL     1     -42.003  42.493  27.316  1.00  0.00    -0.019 A 
ATOM     55  H   UNL     1     -41.131  42.028  29.222  1.00  0.00     0.063 H 
ATOM     56  H   UNL     1     -41.300  43.292  27.108  1.00  0.00     0.066 H 
BRANCH  53  57
ATOM     57  N   UNL     1     -43.087  42.858  25.178  1.00  0.00    -0.356 N 
ATOM     58  C   UNL     1     -43.024  44.280  25.002  1.00  0.00     0.021 C 
ATOM     59  C   UNL     1     -44.187  42.727  24.263  1.00  0.00     0.021 C 
ATOM     60  C   UNL     1     -43.725  44.056  23.657  1.00  0.00    -0.018 C 
ATOM     61  H   UNL     1     -43.613  44.830  25.745  1.00  0.00     0.049 H 
ATOM     62  H   UNL     1     -42.006  44.670  24.948  1.00  0.00     0.049 H 
ATOM     63  H   UNL     1     -45.163  42.764  24.758  1.00  0.00     0.049 H 
ATOM     64  H   UNL     1     -44.110  41.853  23.613  1.00  0.00     0.049 H 
ATOM     65  H   UNL     1     -43.044  43.951  22.804  1.00  0.00     0.030 H 
ATOM     66  H   UNL     1     -44.516  44.766  23.407  1.00  0.00     0.030 H 
ENDBRANCH  53  57
ENDBRANCH  41  42
ENDBRANCH  38  41
ENDBRANCH   4  38
TORSDOF 9
ENDMDL
MODEL 7
REMARK VINA RESULT:      -8.7      1.873      3.421
REMARK SMILES Cn1ccc(-c2cn([C@H]3C[C@H](O)[C@@H](COc4ccc5ccc(N6CCC6)nc5c4)O3)c3ncnc(N)c23)n1
REMARK SMILES IDX 9 1 10 2 11 3 13 4 30 5 8 11 6 12 7 13 37 14 31 16 35 17
REMARK SMILES IDX 32 18 34 19 33 20 5 22 2 23 3 24 38 25 4 26 1 29 36 33 12 36
REMARK SMILES IDX 14 38 15 41 16 42 17 43 29 44 18 45 28 47 19 49 27 51 20 52
REMARK SMILES IDX 22 53 21 54 23 57 24 58 26 59 25 60
REMARK H PARENT 9 6 10 7 10 8 11 9 13 10 7 15 33 21 3 27 4 28 1 30 1 31 1 32
REMARK H PARENT 36 34 36 35 12 37 14 39 14 40 17 46 29 48 18 50 20 55 21 56
REMARK H PARENT 24 61 24 62 26 63 26 64 25 65 25 66
REMARK Flexibility Score: inf
ROOT
ATOM      1  C   UNL     1     -47.546  36.651  28.853  1.00  0.00     0.138 C 
ATOM      2  C   UNL     1     -48.865  36.162  28.281  1.00  0.00     0.022 C 
ATOM      3  C   UNL     1     -48.420  35.378  27.070  1.00  0.00     0.088 C 
ATOM      4  C   UNL     1     -47.148  34.718  27.591  1.00  0.00     0.120 C 
ATOM      5  O   UNL     1     -46.548  35.663  28.507  1.00  0.00    -0.348 OA
ATOM      6  H   UNL     1     -47.573  36.744  29.944  1.00  0.00     0.085 H 
ATOM      7  H   UNL     1     -49.361  35.491  28.995  1.00  0.00     0.034 H 
ATOM      8  H   UNL     1     -49.584  36.950  28.033  1.00  0.00     0.034 H 
ATOM      9  H   UNL     1     -48.214  36.057  26.238  1.00  0.00     0.063 H 
ATOM     10  H   UNL     1     -47.418  33.821  28.165  1.00  0.00     0.067 H 
ENDROOT
BRANCH   1  11
ATOM     11  N   UNL     1     -47.148  37.957  28.327  1.00  0.00    -0.305 N 
ATOM     12  C   UNL     1     -45.967  39.660  27.494  1.00  0.00     0.033 A 
ATOM     13  C   UNL     1     -45.879  38.390  28.035  1.00  0.00     0.019 A 
ATOM     14  C   UNL     1     -47.347  40.037  27.504  1.00  0.00     0.071 A 
ATOM     15  H   UNL     1     -45.019  37.761  28.219  1.00  0.00     0.083 H 
ATOM     16  C   UNL     1     -48.047  38.948  28.013  1.00  0.00     0.148 A 
ATOM     17  C   UNL     1     -48.123  41.155  27.147  1.00  0.00     0.137 A 
ATOM     18  N   UNL     1     -49.379  38.849  28.171  1.00  0.00    -0.218 NA
ATOM     19  N   UNL     1     -49.464  41.089  27.274  1.00  0.00    -0.219 NA
ATOM     20  C   UNL     1     -50.007  39.966  27.774  1.00  0.00     0.120 A 
ATOM     21  H   UNL     1     -51.088  39.966  27.869  1.00  0.00     0.106 H 
BRANCH  12  22
ATOM     22  C   UNL     1     -44.845  40.462  26.993  1.00  0.00     0.095 A 
ATOM     23  N   UNL     1     -43.003  41.496  26.876  1.00  0.00    -0.275 N 
ATOM     24  C   UNL     1     -43.590  41.716  25.667  1.00  0.00     0.025 A 
ATOM     25  N   UNL     1     -43.746  40.745  27.709  1.00  0.00    -0.173 NA
ATOM     26  C   UNL     1     -44.798  41.060  25.712  1.00  0.00    -0.016 A 
ATOM     27  H   UNL     1     -43.120  42.306  24.893  1.00  0.00     0.084 H 
ATOM     28  H   UNL     1     -45.538  41.015  24.926  1.00  0.00     0.066 H 
BRANCH  23  29
ATOM     29  C   UNL     1     -41.720  41.987  27.318  1.00  0.00     0.030 C 
ATOM     30  H   UNL     1     -41.816  42.317  28.355  1.00  0.00     0.048 H 
ATOM     31  H   UNL     1     -40.995  41.172  27.240  1.00  0.00     0.048 H 
ATOM     32  H   UNL     1     -41.413  42.823  26.687  1.00  0.00     0.048 H 
ENDBRANCH  23  29
ENDBRANCH  12  22
BRANCH  17  33
ATOM     33  N   UNL     1     -47.599  42.344  26.662  1.00  0.00    -0.383 N 
ATOM     34  H   UNL     1     -46.969  42.794  27.333  1.00  0.00     0.158 HD
ATOM     35  H   UNL     1     -47.266  42.247  25.714  1.00  0.00     0.158 HD
ENDBRANCH  17  33
ENDBRANCH   1  11
BRANCH   3  36
ATOM     36  O   UNL     1     -49.412  34.443  26.685  1.00  0.00    -0.390 OA
ATOM     37  H   UNL     1     -49.254  33.624  27.187  1.00  0.00     0.211 HD
ENDBRANCH   3  36
BRANCH   4  38
ATOM     38  C   UNL     1     -46.113  34.311  26.536  1.00  0.00     0.117 C 
ATOM     39  H   UNL     1     -45.233  34.960  26.547  1.00  0.00     0.073 H 
ATOM     40  H   UNL     1     -45.705  33.336  26.837  1.00  0.00     0.073 H 
BRANCH  38  41
ATOM     41  O   UNL     1     -46.677  34.121  25.242  1.00  0.00    -0.491 OA
BRANCH  41  42
ATOM     42  C   UNL     1     -46.853  32.850  24.771  1.00  0.00     0.121 A 
ATOM     43  C   UNL     1     -46.052  32.523  23.678  1.00  0.00    -0.019 A 
ATOM     44  C   UNL     1     -47.719  31.884  25.286  1.00  0.00     0.007 A 
ATOM     45  C   UNL     1     -46.119  31.253  23.106  1.00  0.00    -0.049 A 
ATOM     46  H   UNL     1     -45.367  33.263  23.271  1.00  0.00     0.066 H 
ATOM     47  C   UNL     1     -47.799  30.609  24.744  1.00  0.00     0.076 A 
ATOM     48  H   UNL     1     -48.354  32.078  26.142  1.00  0.00     0.069 H 
ATOM     49  C   UNL     1     -46.992  30.291  23.638  1.00  0.00     0.001 A 
ATOM     50  H   UNL     1     -45.485  31.020  22.255  1.00  0.00     0.063 H 
ATOM     51  N   UNL     1     -48.641  29.724  25.302  1.00  0.00    -0.231 NA
ATOM     52  C   UNL     1     -47.092  29.000  23.112  1.00  0.00    -0.049 A 
ATOM     53  C   UNL     1     -48.732  28.478  24.789  1.00  0.00     0.129 A 
ATOM     54  C   UNL     1     -47.968  28.088  23.694  1.00  0.00    -0.019 A 
ATOM     55  H   UNL     1     -46.490  28.696  22.260  1.00  0.00     0.063 H 
ATOM     56  H   UNL     1     -48.037  27.079  23.303  1.00  0.00     0.066 H 
BRANCH  53  57
ATOM     57  N   UNL     1     -49.602  27.562  25.407  1.00  0.00    -0.356 N 
ATOM     58  C   UNL     1     -49.293  26.714  26.521  1.00  0.00     0.021 C 
ATOM     59  C   UNL     1     -50.284  26.508  24.709  1.00  0.00     0.021 C 
ATOM     60  C   UNL     1     -50.479  25.850  26.078  1.00  0.00    -0.018 C 
ATOM     61  H   UNL     1     -48.313  26.233  26.435  1.00  0.00     0.049 H 
ATOM     62  H   UNL     1     -49.401  27.206  27.490  1.00  0.00     0.049 H 
ATOM     63  H   UNL     1     -49.634  25.956  24.022  1.00  0.00     0.049 H 
ATOM     64  H   UNL     1     -51.195  26.840  24.204  1.00  0.00     0.049 H 
ATOM     65  H   UNL     1     -51.428  26.097  26.568  1.00  0.00     0.030 H 
ATOM     66  H   UNL     1     -50.322  24.769  26.113  1.00  0.00     0.030 H 
ENDBRANCH  53  57
ENDBRANCH  41  42
ENDBRANCH  38  41
ENDBRANCH   4  38
TORSDOF 9
ENDMDL
