MODEL 1
REMARK VINA RESULT:      -8.6      0.000      0.000
REMARK SMILES CC1(C)CCN(Cc2ccc(N3CC(=O)NC4(CCN(c5ncnc6[nH]ccc56)CC4)C3)cc2)CC1
REMARK SMILES IDX 8 1 9 2 10 3 11 4 33 5 34 6 7 11 6 14 2 15 4 16 36 17 5 18
REMARK SMILES IDX 35 21 1 28 3 32 12 36 13 37 32 38 14 39 17 42 15 45 16 46
REMARK SMILES IDX 18 47 31 48 19 50 30 53 20 56 21 61 22 62 29 63 23 64 25 65
REMARK SMILES IDX 28 66 24 67 26 69 27 70
REMARK H PARENT 9 7 10 8 33 9 34 10 7 12 7 13 4 19 4 20 36 22 36 23 5 24 5 25
REMARK H PARENT 35 26 35 27 1 29 1 30 1 31 3 33 3 34 3 35 13 40 13 41 32 43
REMARK H PARENT 32 44 16 49 18 51 18 52 31 54 31 55 19 57 19 58 30 59 30 60
REMARK H PARENT 23 68 28 71 26 72 27 73
REMARK Flexibility Score: inf
ROOT
ATOM      1  C   UNL     1     -47.328  33.651  26.615  1.00  0.00    -0.034 A 
ATOM      2  C   UNL     1     -48.713  33.831  26.608  1.00  0.00    -0.056 A 
ATOM      3  C   UNL     1     -49.516  33.142  25.692  1.00  0.00    -0.038 A 
ATOM      4  C   UNL     1     -48.972  32.257  24.747  1.00  0.00     0.037 A 
ATOM      5  C   UNL     1     -47.582  32.075  24.780  1.00  0.00    -0.038 A 
ATOM      6  C   UNL     1     -46.769  32.761  25.694  1.00  0.00    -0.056 A 
ATOM      7  H   UNL     1     -49.175  34.511  27.320  1.00  0.00     0.063 H 
ATOM      8  H   UNL     1     -50.592  33.292  25.745  1.00  0.00     0.064 H 
ATOM      9  H   UNL     1     -47.086  31.407  24.082  1.00  0.00     0.064 H 
ATOM     10  H   UNL     1     -45.695  32.591  25.673  1.00  0.00     0.063 H 
ENDROOT
BRANCH   1  11
ATOM     11  C   UNL     1     -46.456  34.382  27.615  1.00  0.00     0.023 C 
ATOM     12  H   UNL     1     -46.025  33.607  28.264  1.00  0.00     0.048 H 
ATOM     13  H   UNL     1     -45.606  34.849  27.101  1.00  0.00     0.048 H 
BRANCH  11  14
ATOM     14  N   UNL     1     -47.196  35.356  28.435  1.00  0.00    -0.299 NA
ATOM     15  C   UNL     1     -46.041  38.093  27.987  1.00  0.00    -0.033 C 
ATOM     16  C   UNL     1     -45.348  37.017  28.850  1.00  0.00    -0.035 C 
ATOM     17  C   UNL     1     -46.993  37.407  26.983  1.00  0.00    -0.035 C 
ATOM     18  C   UNL     1     -46.331  35.997  29.435  1.00  0.00    -0.001 C 
ATOM     19  H   UNL     1     -44.600  36.485  28.247  1.00  0.00     0.029 H 
ATOM     20  H   UNL     1     -44.792  37.490  29.670  1.00  0.00     0.029 H 
ATOM     21  C   UNL     1     -47.908  36.368  27.640  1.00  0.00    -0.001 C 
ATOM     22  H   UNL     1     -47.612  38.160  26.477  1.00  0.00     0.029 H 
ATOM     23  H   UNL     1     -46.409  36.919  26.192  1.00  0.00     0.029 H 
ATOM     24  H   UNL     1     -46.967  36.487  30.181  1.00  0.00     0.043 H 
ATOM     25  H   UNL     1     -45.776  35.234  29.996  1.00  0.00     0.043 H 
ATOM     26  H   UNL     1     -48.622  36.878  28.298  1.00  0.00     0.043 H 
ATOM     27  H   UNL     1     -48.531  35.897  26.872  1.00  0.00     0.043 H 
BRANCH  15  28
ATOM     28  C   UNL     1     -46.817  39.082  28.878  1.00  0.00    -0.060 C 
ATOM     29  H   UNL     1     -46.799  38.762  29.927  1.00  0.00     0.024 H 
ATOM     30  H   UNL     1     -46.405  40.094  28.840  1.00  0.00     0.024 H 
ATOM     31  H   UNL     1     -47.868  39.146  28.571  1.00  0.00     0.024 H 
ENDBRANCH  15  28
BRANCH  15  32
ATOM     32  C   UNL     1     -44.975  38.889  27.213  1.00  0.00    -0.060 C 
ATOM     33  H   UNL     1     -44.921  38.569  26.167  1.00  0.00     0.024 H 
ATOM     34  H   UNL     1     -43.981  38.750  27.655  1.00  0.00     0.024 H 
ATOM     35  H   UNL     1     -45.199  39.961  27.221  1.00  0.00     0.024 H 
ENDBRANCH  15  32
ENDBRANCH  11  14
ENDBRANCH   1  11
BRANCH   4  36
ATOM     36  N   UNL     1     -49.821  31.581  23.853  1.00  0.00    -0.360 N 
ATOM     37  C   UNL     1     -50.623  32.497  22.995  1.00  0.00     0.097 C 
ATOM     38  C   UNL     1     -49.288  30.408  23.136  1.00  0.00     0.042 C 
ATOM     39  C   UNL     1     -51.519  31.784  21.966  1.00  0.00     0.240 C 
ATOM     40  H   UNL     1     -49.956  33.161  22.431  1.00  0.00     0.060 H 
ATOM     41  H   UNL     1     -51.298  33.102  23.611  1.00  0.00     0.060 H 
ATOM     42  C   UNL     1     -50.474  29.590  22.535  1.00  0.00     0.061 C 
ATOM     43  H   UNL     1     -48.701  29.776  23.808  1.00  0.00     0.052 H 
ATOM     44  H   UNL     1     -48.622  30.748  22.331  1.00  0.00     0.052 H 
ATOM     45  O   UNL     1     -52.425  32.367  21.369  1.00  0.00    -0.273 OA
ATOM     46  N   UNL     1     -51.252  30.475  21.649  1.00  0.00    -0.347 N 
ATOM     47  C   UNL     1     -51.409  29.061  23.649  1.00  0.00    -0.010 C 
ATOM     48  C   UNL     1     -49.909  28.410  21.705  1.00  0.00    -0.010 C 
ATOM     49  H   UNL     1     -51.943  30.070  21.029  1.00  0.00     0.164 HD
ATOM     50  C   UNL     1     -50.689  28.084  24.581  1.00  0.00     0.022 C 
ATOM     51  H   UNL     1     -52.270  28.556  23.189  1.00  0.00     0.031 H 
ATOM     52  H   UNL     1     -51.839  29.877  24.243  1.00  0.00     0.031 H 
ATOM     53  C   UNL     1     -50.099  27.054  22.384  1.00  0.00     0.022 C 
ATOM     54  H   UNL     1     -48.843  28.569  21.498  1.00  0.00     0.031 H 
ATOM     55  H   UNL     1     -50.388  28.359  20.718  1.00  0.00     0.031 H 
ATOM     56  N   UNL     1     -49.868  27.134  23.823  1.00  0.00    -0.356 N 
ATOM     57  H   UNL     1     -50.096  28.666  25.297  1.00  0.00     0.049 H 
ATOM     58  H   UNL     1     -51.434  27.529  25.163  1.00  0.00     0.049 H 
ATOM     59  H   UNL     1     -49.479  26.288  21.902  1.00  0.00     0.049 H 
ATOM     60  H   UNL     1     -51.132  26.717  22.224  1.00  0.00     0.049 H 
BRANCH  56  61
ATOM     61  C   UNL     1     -48.557  26.944  24.265  1.00  0.00     0.141 A 
ATOM     62  N   UNL     1     -47.533  27.507  23.565  1.00  0.00    -0.219 NA
ATOM     63  C   UNL     1     -48.208  26.182  25.403  1.00  0.00     0.061 A 
ATOM     64  C   UNL     1     -46.266  27.341  23.992  1.00  0.00     0.120 A 
ATOM     65  C   UNL     1     -46.860  26.105  25.724  1.00  0.00     0.142 A 
ATOM     66  C   UNL     1     -48.891  25.393  26.377  1.00  0.00    -0.031 A 
ATOM     67  N   UNL     1     -45.837  26.666  25.068  1.00  0.00    -0.218 NA
ATOM     68  H   UNL     1     -45.498  27.815  23.389  1.00  0.00     0.106 H 
ATOM     69  N   UNL     1     -46.724  25.337  26.848  1.00  0.00    -0.346 N 
ATOM     70  C   UNL     1     -47.955  24.893  27.257  1.00  0.00     0.003 A 
ATOM     71  H   UNL     1     -49.956  25.207  26.424  1.00  0.00     0.065 H 
ATOM     72  H   UNL     1     -45.837  25.132  27.282  1.00  0.00     0.167 HD
ATOM     73  H   UNL     1     -48.055  24.257  28.127  1.00  0.00     0.082 H 
ENDBRANCH  56  61
ENDBRANCH   4  36
TORSDOF 6
ENDMDL
MODEL 2
REMARK VINA RESULT:      -8.3      7.028     14.724
REMARK SMILES CC1(C)CCN(Cc2ccc(N3CC(=O)NC4(CCN(c5ncnc6[nH]ccc56)CC4)C3)cc2)CC1
REMARK SMILES IDX 8 1 9 2 10 3 11 4 33 5 34 6 7 11 6 14 2 15 4 16 36 17 5 18
REMARK SMILES IDX 35 21 1 28 3 32 12 36 13 37 32 38 14 39 17 42 15 45 16 46
REMARK SMILES IDX 18 47 31 48 19 50 30 53 20 56 21 61 22 62 29 63 23 64 25 65
REMARK SMILES IDX 28 66 24 67 26 69 27 70
REMARK H PARENT 9 7 10 8 33 9 34 10 7 12 7 13 4 19 4 20 36 22 36 23 5 24 5 25
REMARK H PARENT 35 26 35 27 1 29 1 30 1 31 3 33 3 34 3 35 13 40 13 41 32 43
REMARK H PARENT 32 44 16 49 18 51 18 52 31 54 31 55 19 57 19 58 30 59 30 60
REMARK H PARENT 23 68 28 71 26 72 27 73
REMARK Flexibility Score: inf
ROOT
ATOM      1  C   UNL     1     -45.138  39.307  27.775  1.00  0.00    -0.034 A 
ATOM      2  C   UNL     1     -46.201  39.866  27.061  1.00  0.00    -0.056 A 
ATOM      3  C   UNL     1     -46.062  41.108  26.431  1.00  0.00    -0.038 A 
ATOM      4  C   UNL     1     -44.865  41.841  26.492  1.00  0.00     0.037 A 
ATOM      5  C   UNL     1     -43.803  41.257  27.197  1.00  0.00    -0.038 A 
ATOM      6  C   UNL     1     -43.933  40.013  27.832  1.00  0.00    -0.056 A 
ATOM      7  H   UNL     1     -47.147  39.334  26.992  1.00  0.00     0.063 H 
ATOM      8  H   UNL     1     -46.907  41.487  25.862  1.00  0.00     0.064 H 
ATOM      9  H   UNL     1     -42.845  41.761  27.290  1.00  0.00     0.064 H 
ATOM     10  H   UNL     1     -43.082  39.607  28.373  1.00  0.00     0.063 H 
ENDROOT
BRANCH   1  11
ATOM     11  C   UNL     1     -45.279  37.956  28.445  1.00  0.00     0.023 C 
ATOM     12  H   UNL     1     -44.667  37.260  27.854  1.00  0.00     0.048 H 
ATOM     13  H   UNL     1     -44.823  37.983  29.442  1.00  0.00     0.048 H 
BRANCH  11  14
ATOM     14  N   UNL     1     -46.669  37.471  28.496  1.00  0.00    -0.299 NA
ATOM     15  C   UNL     1     -46.903  34.995  26.810  1.00  0.00    -0.033 C 
ATOM     16  C   UNL     1     -46.808  36.416  26.213  1.00  0.00    -0.035 C 
ATOM     17  C   UNL     1     -46.285  34.993  28.225  1.00  0.00    -0.035 C 
ATOM     18  C   UNL     1     -47.306  37.502  27.173  1.00  0.00    -0.001 C 
ATOM     19  H   UNL     1     -45.767  36.633  25.940  1.00  0.00     0.029 H 
ATOM     20  H   UNL     1     -47.381  36.472  25.279  1.00  0.00     0.029 H 
ATOM     21  C   UNL     1     -46.800  36.139  29.104  1.00  0.00    -0.001 C 
ATOM     22  H   UNL     1     -46.492  34.038  28.725  1.00  0.00     0.029 H 
ATOM     23  H   UNL     1     -45.192  35.063  28.152  1.00  0.00     0.029 H 
ATOM     24  H   UNL     1     -48.390  37.403  27.307  1.00  0.00     0.043 H 
ATOM     25  H   UNL     1     -47.169  38.488  26.711  1.00  0.00     0.043 H 
ATOM     26  H   UNL     1     -47.860  35.971  29.334  1.00  0.00     0.043 H 
ATOM     27  H   UNL     1     -46.299  36.101  30.078  1.00  0.00     0.043 H 
BRANCH  15  28
ATOM     28  C   UNL     1     -48.372  34.530  26.862  1.00  0.00    -0.060 C 
ATOM     29  H   UNL     1     -48.439  33.474  27.150  1.00  0.00     0.024 H 
ATOM     30  H   UNL     1     -48.968  35.101  27.580  1.00  0.00     0.024 H 
ATOM     31  H   UNL     1     -48.852  34.635  25.882  1.00  0.00     0.024 H 
ENDBRANCH  15  28
BRANCH  15  32
ATOM     32  C   UNL     1     -46.127  34.013  25.915  1.00  0.00    -0.060 C 
ATOM     33  H   UNL     1     -45.106  34.367  25.729  1.00  0.00     0.024 H 
ATOM     34  H   UNL     1     -46.618  33.892  24.942  1.00  0.00     0.024 H 
ATOM     35  H   UNL     1     -46.056  33.025  26.381  1.00  0.00     0.024 H 
ENDBRANCH  15  32
ENDBRANCH  11  14
ENDBRANCH   1  11
BRANCH   4  36
ATOM     36  N   UNL     1     -44.770  43.080  25.835  1.00  0.00    -0.360 N 
ATOM     37  C   UNL     1     -44.399  42.959  24.398  1.00  0.00     0.097 C 
ATOM     38  C   UNL     1     -45.810  44.091  26.099  1.00  0.00     0.042 C 
ATOM     39  C   UNL     1     -44.343  44.298  23.640  1.00  0.00     0.240 C 
ATOM     40  H   UNL     1     -45.128  42.327  23.875  1.00  0.00     0.060 H 
ATOM     41  H   UNL     1     -43.401  42.518  24.298  1.00  0.00     0.060 H 
ATOM     42  C   UNL     1     -45.306  45.486  25.612  1.00  0.00     0.061 C 
ATOM     43  H   UNL     1     -46.051  44.132  27.165  1.00  0.00     0.052 H 
ATOM     44  H   UNL     1     -46.727  43.816  25.559  1.00  0.00     0.052 H 
ATOM     45  O   UNL     1     -43.810  44.405  22.535  1.00  0.00    -0.273 OA
ATOM     46  N   UNL     1     -44.976  45.391  24.179  1.00  0.00    -0.347 N 
ATOM     47  C   UNL     1     -44.037  45.922  26.383  1.00  0.00    -0.010 C 
ATOM     48  C   UNL     1     -46.434  46.530  25.805  1.00  0.00    -0.010 C 
ATOM     49  H   UNL     1     -44.814  46.241  23.651  1.00  0.00     0.164 HD
ATOM     50  C   UNL     1     -44.311  46.102  27.877  1.00  0.00     0.022 C 
ATOM     51  H   UNL     1     -43.666  46.869  25.965  1.00  0.00     0.031 H 
ATOM     52  H   UNL     1     -43.213  45.210  26.250  1.00  0.00     0.031 H 
ATOM     53  C   UNL     1     -46.164  47.499  26.956  1.00  0.00     0.022 C 
ATOM     54  H   UNL     1     -47.394  46.025  25.970  1.00  0.00     0.031 H 
ATOM     55  H   UNL     1     -46.577  47.127  24.894  1.00  0.00     0.031 H 
ATOM     56  N   UNL     1     -45.569  46.822  28.103  1.00  0.00    -0.356 N 
ATOM     57  H   UNL     1     -44.309  45.112  28.349  1.00  0.00     0.049 H 
ATOM     58  H   UNL     1     -43.488  46.670  28.327  1.00  0.00     0.049 H 
ATOM     59  H   UNL     1     -47.075  48.050  27.221  1.00  0.00     0.049 H 
ATOM     60  H   UNL     1     -45.462  48.272  26.615  1.00  0.00     0.049 H 
BRANCH  56  61
ATOM     61  C   UNL     1     -46.448  46.272  29.039  1.00  0.00     0.141 A 
ATOM     62  N   UNL     1     -47.594  45.678  28.604  1.00  0.00    -0.219 NA
ATOM     63  C   UNL     1     -46.235  46.300  30.437  1.00  0.00     0.061 A 
ATOM     64  C   UNL     1     -48.441  45.132  29.499  1.00  0.00     0.120 A 
ATOM     65  C   UNL     1     -47.194  45.691  31.235  1.00  0.00     0.142 A 
ATOM     66  C   UNL     1     -45.258  46.832  31.330  1.00  0.00    -0.031 A 
ATOM     67  N   UNL     1     -48.316  45.081  30.833  1.00  0.00    -0.218 NA
ATOM     68  H   UNL     1     -49.335  44.676  29.086  1.00  0.00     0.106 H 
ATOM     69  N   UNL     1     -46.812  45.816  32.542  1.00  0.00    -0.346 N 
ATOM     70  C   UNL     1     -45.634  46.513  32.618  1.00  0.00     0.003 A 
ATOM     71  H   UNL     1     -44.375  47.396  31.058  1.00  0.00     0.065 H 
ATOM     72  H   UNL     1     -47.345  45.453  33.319  1.00  0.00     0.167 HD
ATOM     73  H   UNL     1     -45.174  46.726  33.573  1.00  0.00     0.082 H 
ENDBRANCH  56  61
ENDBRANCH   4  36
TORSDOF 6
ENDMDL
MODEL 3
REMARK VINA RESULT:      -8.0      7.406     13.608
REMARK SMILES CC1(C)CCN(Cc2ccc(N3CC(=O)NC4(CCN(c5ncnc6[nH]ccc56)CC4)C3)cc2)CC1
REMARK SMILES IDX 8 1 9 2 10 3 11 4 33 5 34 6 7 11 6 14 2 15 4 16 36 17 5 18
REMARK SMILES IDX 35 21 1 28 3 32 12 36 13 37 32 38 14 39 17 42 15 45 16 46
REMARK SMILES IDX 18 47 31 48 19 50 30 53 20 56 21 61 22 62 29 63 23 64 25 65
REMARK SMILES IDX 28 66 24 67 26 69 27 70
REMARK H PARENT 9 7 10 8 33 9 34 10 7 12 7 13 4 19 4 20 36 22 36 23 5 24 5 25
REMARK H PARENT 35 26 35 27 1 29 1 30 1 31 3 33 3 34 3 35 13 40 13 41 32 43
REMARK H PARENT 32 44 16 49 18 51 18 52 31 54 31 55 19 57 19 58 30 59 30 60
REMARK H PARENT 23 68 28 71 26 72 27 73
REMARK Flexibility Score: inf
ROOT
ATOM      1  C   UNL     1     -45.348  39.791  28.017  1.00  0.00    -0.034 A 
ATOM      2  C   UNL     1     -46.259  40.374  27.133  1.00  0.00    -0.056 A 
ATOM      3  C   UNL     1     -45.848  41.366  26.236  1.00  0.00    -0.038 A 
ATOM      4  C   UNL     1     -44.519  41.819  26.189  1.00  0.00     0.037 A 
ATOM      5  C   UNL     1     -43.613  41.211  27.071  1.00  0.00    -0.038 A 
ATOM      6  C   UNL     1     -44.017  40.216  27.973  1.00  0.00    -0.056 A 
ATOM      7  H   UNL     1     -47.299  40.055  27.139  1.00  0.00     0.063 H 
ATOM      8  H   UNL     1     -46.587  41.768  25.548  1.00  0.00     0.064 H 
ATOM      9  H   UNL     1     -42.568  41.506  27.095  1.00  0.00     0.064 H 
ATOM     10  H   UNL     1     -43.277  39.781  28.641  1.00  0.00     0.063 H 
ENDROOT
BRANCH   1  11
ATOM     11  C   UNL     1     -45.785  38.705  28.978  1.00  0.00     0.023 C 
ATOM     12  H   UNL     1     -45.308  38.943  29.940  1.00  0.00     0.048 H 
ATOM     13  H   UNL     1     -46.865  38.774  29.155  1.00  0.00     0.048 H 
BRANCH  11  14
ATOM     14  N   UNL     1     -45.389  37.352  28.552  1.00  0.00    -0.299 NA
ATOM     15  C   UNL     1     -47.819  35.882  27.575  1.00  0.00    -0.033 C 
ATOM     16  C   UNL     1     -47.527  36.127  29.071  1.00  0.00    -0.035 C 
ATOM     17  C   UNL     1     -47.083  36.944  26.730  1.00  0.00    -0.035 C 
ATOM     18  C   UNL     1     -46.035  36.314  29.366  1.00  0.00    -0.001 C 
ATOM     19  H   UNL     1     -48.071  37.018  29.413  1.00  0.00     0.029 H 
ATOM     20  H   UNL     1     -47.910  35.293  29.674  1.00  0.00     0.029 H 
ATOM     21  C   UNL     1     -45.609  37.102  27.121  1.00  0.00    -0.001 C 
ATOM     22  H   UNL     1     -47.145  36.686  25.665  1.00  0.00     0.029 H 
ATOM     23  H   UNL     1     -47.586  37.914  26.835  1.00  0.00     0.029 H 
ATOM     24  H   UNL     1     -45.508  35.366  29.203  1.00  0.00     0.043 H 
ATOM     25  H   UNL     1     -45.898  36.531  30.433  1.00  0.00     0.043 H 
ATOM     26  H   UNL     1     -45.061  36.192  26.845  1.00  0.00     0.043 H 
ATOM     27  H   UNL     1     -45.155  37.890  26.510  1.00  0.00     0.043 H 
BRANCH  15  28
ATOM     28  C   UNL     1     -47.376  34.464  27.166  1.00  0.00    -0.060 C 
ATOM     29  H   UNL     1     -47.403  33.781  28.023  1.00  0.00     0.024 H 
ATOM     30  H   UNL     1     -48.014  34.033  26.388  1.00  0.00     0.024 H 
ATOM     31  H   UNL     1     -46.350  34.469  26.781  1.00  0.00     0.024 H 
ENDBRANCH  15  28
BRANCH  15  32
ATOM     32  C   UNL     1     -49.334  35.995  27.327  1.00  0.00    -0.060 C 
ATOM     33  H   UNL     1     -49.831  35.027  27.451  1.00  0.00     0.024 H 
ATOM     34  H   UNL     1     -49.542  36.347  26.309  1.00  0.00     0.024 H 
ATOM     35  H   UNL     1     -49.798  36.698  28.027  1.00  0.00     0.024 H 
ENDBRANCH  15  32
ENDBRANCH  11  14
ENDBRANCH   1  11
BRANCH   4  36
ATOM     36  N   UNL     1     -44.152  42.812  25.265  1.00  0.00    -0.360 N 
ATOM     37  C   UNL     1     -42.737  42.702  24.811  1.00  0.00     0.097 C 
ATOM     38  C   UNL     1     -45.098  43.147  24.186  1.00  0.00     0.042 C 
ATOM     39  C   UNL     1     -42.324  43.743  23.755  1.00  0.00     0.240 C 
ATOM     40  H   UNL     1     -42.562  41.712  24.369  1.00  0.00     0.060 H 
ATOM     41  H   UNL     1     -42.054  42.845  25.656  1.00  0.00     0.060 H 
ATOM     42  C   UNL     1     -44.689  44.511  23.546  1.00  0.00     0.061 C 
ATOM     43  H   UNL     1     -46.121  43.206  24.571  1.00  0.00     0.052 H 
ATOM     44  H   UNL     1     -45.074  42.355  23.425  1.00  0.00     0.052 H 
ATOM     45  O   UNL     1     -41.145  43.956  23.471  1.00  0.00    -0.273 OA
ATOM     46  N   UNL     1     -43.304  44.400  23.054  1.00  0.00    -0.347 N 
ATOM     47  C   UNL     1     -44.754  45.657  24.585  1.00  0.00    -0.010 C 
ATOM     48  C   UNL     1     -45.629  44.816  22.353  1.00  0.00    -0.010 C 
ATOM     49  H   UNL     1     -42.937  45.121  22.444  1.00  0.00     0.164 HD
ATOM     50  C   UNL     1     -46.176  45.876  25.103  1.00  0.00     0.022 C 
ATOM     51  H   UNL     1     -44.388  46.585  24.123  1.00  0.00     0.031 H 
ATOM     52  H   UNL     1     -44.083  45.476  25.434  1.00  0.00     0.031 H 
ATOM     53  C   UNL     1     -46.629  45.934  22.648  1.00  0.00     0.022 C 
ATOM     54  H   UNL     1     -46.172  43.909  22.057  1.00  0.00     0.031 H 
ATOM     55  H   UNL     1     -45.054  45.109  21.465  1.00  0.00     0.031 H 
ATOM     56  N   UNL     1     -47.151  45.846  24.008  1.00  0.00    -0.356 N 
ATOM     57  H   UNL     1     -46.385  45.116  25.866  1.00  0.00     0.049 H 
ATOM     58  H   UNL     1     -46.230  46.851  25.603  1.00  0.00     0.049 H 
ATOM     59  H   UNL     1     -47.425  45.952  21.893  1.00  0.00     0.049 H 
ATOM     60  H   UNL     1     -46.122  46.903  22.541  1.00  0.00     0.049 H 
BRANCH  56  61
ATOM     61  C   UNL     1     -48.287  45.055  24.199  1.00  0.00     0.141 A 
ATOM     62  N   UNL     1     -49.180  44.919  23.180  1.00  0.00    -0.219 NA
ATOM     63  C   UNL     1     -48.589  44.382  25.405  1.00  0.00     0.061 A 
ATOM     64  C   UNL     1     -50.271  44.147  23.351  1.00  0.00     0.120 A 
ATOM     65  C   UNL     1     -49.747  43.618  25.431  1.00  0.00     0.142 A 
ATOM     66  C   UNL     1     -48.014  44.272  26.708  1.00  0.00    -0.031 A 
ATOM     67  N   UNL     1     -50.629  43.449  24.438  1.00  0.00    -0.218 NA
ATOM     68  H   UNL     1     -50.941  44.081  22.500  1.00  0.00     0.106 H 
ATOM     69  N   UNL     1     -49.862  43.047  26.668  1.00  0.00    -0.346 N 
ATOM     70  C   UNL     1     -48.814  43.439  27.460  1.00  0.00     0.003 A 
ATOM     71  H   UNL     1     -47.113  44.758  27.057  1.00  0.00     0.065 H 
ATOM     72  H   UNL     1     -50.624  42.442  26.938  1.00  0.00     0.167 HD
ATOM     73  H   UNL     1     -48.734  43.100  28.485  1.00  0.00     0.082 H 
ENDBRANCH  56  61
ENDBRANCH   4  36
TORSDOF 6
ENDMDL
MODEL 4
REMARK VINA RESULT:      -7.9      6.682     13.156
REMARK SMILES CC1(C)CCN(Cc2ccc(N3CC(=O)NC4(CCN(c5ncnc6[nH]ccc56)CC4)C3)cc2)CC1
REMARK SMILES IDX 8 1 9 2 10 3 11 4 33 5 34 6 7 11 6 14 2 15 4 16 36 17 5 18
REMARK SMILES IDX 35 21 1 28 3 32 12 36 13 37 32 38 14 39 17 42 15 45 16 46
REMARK SMILES IDX 18 47 31 48 19 50 30 53 20 56 21 61 22 62 29 63 23 64 25 65
REMARK SMILES IDX 28 66 24 67 26 69 27 70
REMARK H PARENT 9 7 10 8 33 9 34 10 7 12 7 13 4 19 4 20 36 22 36 23 5 24 5 25
REMARK H PARENT 35 26 35 27 1 29 1 30 1 31 3 33 3 34 3 35 13 40 13 41 32 43
REMARK H PARENT 32 44 16 49 18 51 18 52 31 54 31 55 19 57 19 58 30 59 30 60
REMARK H PARENT 23 68 28 71 26 72 27 73
REMARK Flexibility Score: inf
ROOT
ATOM      1  C   UNL     1     -45.322  38.699  27.726  1.00  0.00    -0.034 A 
ATOM      2  C   UNL     1     -44.169  39.472  27.885  1.00  0.00    -0.056 A 
ATOM      3  C   UNL     1     -44.119  40.785  27.401  1.00  0.00    -0.038 A 
ATOM      4  C   UNL     1     -45.209  41.373  26.738  1.00  0.00     0.037 A 
ATOM      5  C   UNL     1     -46.364  40.588  26.603  1.00  0.00    -0.038 A 
ATOM      6  C   UNL     1     -46.423  39.273  27.084  1.00  0.00    -0.056 A 
ATOM      7  H   UNL     1     -43.301  39.054  28.389  1.00  0.00     0.063 H 
ATOM      8  H   UNL     1     -43.212  41.357  27.575  1.00  0.00     0.064 H 
ATOM      9  H   UNL     1     -47.248  40.972  26.102  1.00  0.00     0.064 H 
ATOM     10  H   UNL     1     -47.339  38.703  26.947  1.00  0.00     0.063 H 
ENDROOT
BRANCH   1  11
ATOM     11  C   UNL     1     -45.386  37.284  28.262  1.00  0.00     0.023 C 
ATOM     12  H   UNL     1     -44.772  36.676  27.583  1.00  0.00     0.048 H 
ATOM     13  H   UNL     1     -44.892  37.231  29.240  1.00  0.00     0.048 H 
BRANCH  11  14
ATOM     14  N   UNL     1     -46.753  36.739  28.314  1.00  0.00    -0.299 NA
ATOM     15  C   UNL     1     -46.933  34.370  26.476  1.00  0.00    -0.033 C 
ATOM     16  C   UNL     1     -46.909  35.828  25.971  1.00  0.00    -0.035 C 
ATOM     17  C   UNL     1     -46.279  34.302  27.873  1.00  0.00    -0.035 C 
ATOM     18  C   UNL     1     -47.425  36.829  27.011  1.00  0.00    -0.001 C 
ATOM     19  H   UNL     1     -45.885  36.105  25.688  1.00  0.00     0.029 H 
ATOM     20  H   UNL     1     -47.509  35.921  25.056  1.00  0.00     0.029 H 
ATOM     21  C   UNL     1     -46.816  35.367  28.837  1.00  0.00    -0.001 C 
ATOM     22  H   UNL     1     -46.435  33.309  28.314  1.00  0.00     0.029 H 
ATOM     23  H   UNL     1     -45.191  34.422  27.779  1.00  0.00     0.029 H 
ATOM     24  H   UNL     1     -48.500  36.677  27.163  1.00  0.00     0.043 H 
ATOM     25  H   UNL     1     -47.340  37.848  26.611  1.00  0.00     0.043 H 
ATOM     26  H   UNL     1     -47.862  35.141  29.080  1.00  0.00     0.043 H 
ATOM     27  H   UNL     1     -46.289  35.287  29.794  1.00  0.00     0.043 H 
BRANCH  15  28
ATOM     28  C   UNL     1     -48.380  33.842  26.532  1.00  0.00    -0.060 C 
ATOM     29  H   UNL     1     -48.926  34.282  27.374  1.00  0.00     0.024 H 
ATOM     30  H   UNL     1     -48.945  34.070  25.623  1.00  0.00     0.024 H 
ATOM     31  H   UNL     1     -48.396  32.753  26.661  1.00  0.00     0.024 H 
ENDBRANCH  15  28
BRANCH  15  32
ATOM     32  C   UNL     1     -46.141  33.480  25.501  1.00  0.00    -0.060 C 
ATOM     33  H   UNL     1     -45.098  33.374  25.817  1.00  0.00     0.024 H 
ATOM     34  H   UNL     1     -46.141  33.905  24.490  1.00  0.00     0.024 H 
ATOM     35  H   UNL     1     -46.574  32.476  25.442  1.00  0.00     0.024 H 
ENDBRANCH  15  32
ENDBRANCH  11  14
ENDBRANCH   1  11
BRANCH   4  36
ATOM     36  N   UNL     1     -45.114  42.697  26.277  1.00  0.00    -0.360 N 
ATOM     37  C   UNL     1     -43.740  43.075  25.845  1.00  0.00     0.097 C 
ATOM     38  C   UNL     1     -46.177  43.206  25.392  1.00  0.00     0.042 C 
ATOM     39  C   UNL     1     -43.619  44.503  25.282  1.00  0.00     0.240 C 
ATOM     40  H   UNL     1     -43.393  42.392  25.059  1.00  0.00     0.060 H 
ATOM     41  H   UNL     1     -43.048  43.029  26.693  1.00  0.00     0.060 H 
ATOM     42  C   UNL     1     -46.100  44.764  25.337  1.00  0.00     0.061 C 
ATOM     43  H   UNL     1     -47.163  42.893  25.748  1.00  0.00     0.052 H 
ATOM     44  H   UNL     1     -46.039  42.790  24.384  1.00  0.00     0.052 H 
ATOM     45  O   UNL     1     -42.530  45.057  25.127  1.00  0.00    -0.273 OA
ATOM     46  N   UNL     1     -44.757  45.151  24.869  1.00  0.00    -0.347 N 
ATOM     47  C   UNL     1     -46.333  45.384  26.736  1.00  0.00    -0.010 C 
ATOM     48  C   UNL     1     -47.158  45.292  24.336  1.00  0.00    -0.010 C 
ATOM     49  H   UNL     1     -44.586  46.111  24.593  1.00  0.00     0.164 HD
ATOM     50  C   UNL     1     -47.733  45.077  27.269  1.00  0.00     0.022 C 
ATOM     51  H   UNL     1     -46.197  46.473  26.677  1.00  0.00     0.031 H 
ATOM     52  H   UNL     1     -45.586  45.043  27.463  1.00  0.00     0.031 H 
ATOM     53  C   UNL     1     -48.346  45.969  25.019  1.00  0.00     0.022 C 
ATOM     54  H   UNL     1     -47.520  44.473  23.700  1.00  0.00     0.031 H 
ATOM     55  H   UNL     1     -46.714  46.018  23.642  1.00  0.00     0.031 H 
ATOM     56  N   UNL     1     -48.750  45.259  26.228  1.00  0.00    -0.356 N 
ATOM     57  H   UNL     1     -47.732  44.058  27.675  1.00  0.00     0.049 H 
ATOM     58  H   UNL     1     -47.954  45.752  28.106  1.00  0.00     0.049 H 
ATOM     59  H   UNL     1     -49.175  46.102  24.313  1.00  0.00     0.049 H 
ATOM     60  H   UNL     1     -48.058  46.990  25.304  1.00  0.00     0.049 H 
BRANCH  56  61
ATOM     61  C   UNL     1     -49.683  44.231  26.075  1.00  0.00     0.141 A 
ATOM     62  N   UNL     1     -50.609  44.318  25.080  1.00  0.00    -0.219 NA
ATOM     63  C   UNL     1     -49.744  43.088  26.905  1.00  0.00     0.061 A 
ATOM     64  C   UNL     1     -51.504  43.324  24.917  1.00  0.00     0.120 A 
ATOM     65  C   UNL     1     -50.719  42.144  26.611  1.00  0.00     0.142 A 
ATOM     66  C   UNL     1     -49.057  42.600  28.057  1.00  0.00    -0.031 A 
ATOM     67  N   UNL     1     -51.625  42.193  25.628  1.00  0.00    -0.218 NA
ATOM     68  H   UNL     1     -52.214  43.456  24.107  1.00  0.00     0.106 H 
ATOM     69  N   UNL     1     -50.616  41.120  27.513  1.00  0.00    -0.346 N 
ATOM     70  C   UNL     1     -49.609  41.385  28.403  1.00  0.00     0.003 A 
ATOM     71  H   UNL     1     -48.247  43.091  28.580  1.00  0.00     0.065 H 
ATOM     72  H   UNL     1     -51.216  40.309  27.509  1.00  0.00     0.167 HD
ATOM     73  H   UNL     1     -49.379  40.695  29.205  1.00  0.00     0.082 H 
ENDBRANCH  56  61
ENDBRANCH   4  36
TORSDOF 6
ENDMDL
MODEL 5
REMARK VINA RESULT:      -7.8      6.961     14.136
REMARK SMILES CC1(C)CCN(Cc2ccc(N3CC(=O)NC4(CCN(c5ncnc6[nH]ccc56)CC4)C3)cc2)CC1
REMARK SMILES IDX 8 1 9 2 10 3 11 4 33 5 34 6 7 11 6 14 2 15 4 16 36 17 5 18
REMARK SMILES IDX 35 21 1 28 3 32 12 36 13 37 32 38 14 39 17 42 15 45 16 46
REMARK SMILES IDX 18 47 31 48 19 50 30 53 20 56 21 61 22 62 29 63 23 64 25 65
REMARK SMILES IDX 28 66 24 67 26 69 27 70
REMARK H PARENT 9 7 10 8 33 9 34 10 7 12 7 13 4 19 4 20 36 22 36 23 5 24 5 25
REMARK H PARENT 35 26 35 27 1 29 1 30 1 31 3 33 3 34 3 35 13 40 13 41 32 43
REMARK H PARENT 32 44 16 49 18 51 18 52 31 54 31 55 19 57 19 58 30 59 30 60
REMARK H PARENT 23 68 28 71 26 72 27 73
REMARK Flexibility Score: inf
ROOT
ATOM      1  C   UNL     1     -45.050  38.990  27.912  1.00  0.00    -0.034 A 
ATOM      2  C   UNL     1     -45.862  39.439  26.868  1.00  0.00    -0.056 A 
ATOM      3  C   UNL     1     -45.634  40.685  26.272  1.00  0.00    -0.038 A 
ATOM      4  C   UNL     1     -44.595  41.530  26.696  1.00  0.00     0.037 A 
ATOM      5  C   UNL     1     -43.779  41.056  27.733  1.00  0.00    -0.038 A 
ATOM      6  C   UNL     1     -44.001  39.810  28.336  1.00  0.00    -0.056 A 
ATOM      7  H   UNL     1     -46.681  38.817  26.512  1.00  0.00     0.063 H 
ATOM      8  H   UNL     1     -46.273  40.977  25.443  1.00  0.00     0.064 H 
ATOM      9  H   UNL     1     -42.955  41.651  28.116  1.00  0.00     0.064 H 
ATOM     10  H   UNL     1     -43.344  39.491  29.142  1.00  0.00     0.063 H 
ENDROOT
BRANCH   1  11
ATOM     11  C   UNL     1     -45.284  37.636  28.549  1.00  0.00     0.023 C 
ATOM     12  H   UNL     1     -44.684  36.921  27.969  1.00  0.00     0.048 H 
ATOM     13  H   UNL     1     -44.868  37.622  29.564  1.00  0.00     0.048 H 
BRANCH  11  14
ATOM     14  N   UNL     1     -46.697  37.219  28.536  1.00  0.00    -0.299 NA
ATOM     15  C   UNL     1     -46.988  34.801  26.778  1.00  0.00    -0.033 C 
ATOM     16  C   UNL     1     -46.800  36.229  26.222  1.00  0.00    -0.035 C 
ATOM     17  C   UNL     1     -46.425  34.733  28.214  1.00  0.00    -0.035 C 
ATOM     18  C   UNL     1     -47.281  37.315  27.191  1.00  0.00    -0.001 C 
ATOM     19  H   UNL     1     -45.740  36.401  25.994  1.00  0.00     0.029 H 
ATOM     20  H   UNL     1     -47.334  36.338  25.269  1.00  0.00     0.029 H 
ATOM     21  C   UNL     1     -46.916  35.881  29.103  1.00  0.00    -0.001 C 
ATOM     22  H   UNL     1     -46.697  33.777  28.680  1.00  0.00     0.029 H 
ATOM     23  H   UNL     1     -45.327  34.750  28.183  1.00  0.00     0.029 H 
ATOM     24  H   UNL     1     -48.372  37.267  27.282  1.00  0.00     0.043 H 
ATOM     25  H   UNL     1     -47.078  38.304  26.761  1.00  0.00     0.043 H 
ATOM     26  H   UNL     1     -47.991  35.761  29.289  1.00  0.00     0.043 H 
ATOM     27  H   UNL     1     -46.456  35.794  30.094  1.00  0.00     0.043 H 
BRANCH  15  28
ATOM     28  C   UNL     1     -48.478  34.408  26.763  1.00  0.00    -0.060 C 
ATOM     29  H   UNL     1     -48.812  34.096  27.759  1.00  0.00     0.024 H 
ATOM     30  H   UNL     1     -49.126  35.231  26.446  1.00  0.00     0.024 H 
ATOM     31  H   UNL     1     -48.657  33.571  26.078  1.00  0.00     0.024 H 
ENDBRANCH  15  28
BRANCH  15  32
ATOM     32  C   UNL     1     -46.226  33.804  25.886  1.00  0.00    -0.060 C 
ATOM     33  H   UNL     1     -45.318  34.254  25.472  1.00  0.00     0.024 H 
ATOM     34  H   UNL     1     -46.846  33.473  25.044  1.00  0.00     0.024 H 
ATOM     35  H   UNL     1     -45.928  32.915  26.452  1.00  0.00     0.024 H 
ENDBRANCH  15  32
ENDBRANCH  11  14
ENDBRANCH   1  11
BRANCH   4  36
ATOM     36  N   UNL     1     -44.399  42.769  26.061  1.00  0.00    -0.360 N 
ATOM     37  C   UNL     1     -43.198  42.797  25.181  1.00  0.00     0.097 C 
ATOM     38  C   UNL     1     -45.572  43.454  25.489  1.00  0.00     0.042 C 
ATOM     39  C   UNL     1     -42.991  44.124  24.428  1.00  0.00     0.240 C 
ATOM     40  H   UNL     1     -43.272  42.008  24.421  1.00  0.00     0.060 H 
ATOM     41  H   UNL     1     -42.289  42.644  25.772  1.00  0.00     0.060 H 
ATOM     42  C   UNL     1     -45.213  44.947  25.212  1.00  0.00     0.061 C 
ATOM     43  H   UNL     1     -46.427  43.395  26.170  1.00  0.00     0.052 H 
ATOM     44  H   UNL     1     -45.859  42.958  24.551  1.00  0.00     0.052 H 
ATOM     45  O   UNL     1     -41.928  44.405  23.873  1.00  0.00    -0.273 OA
ATOM     46  N   UNL     1     -44.051  44.989  24.306  1.00  0.00    -0.347 N 
ATOM     47  C   UNL     1     -44.844  45.685  26.522  1.00  0.00    -0.010 C 
ATOM     48  C   UNL     1     -46.416  45.642  24.526  1.00  0.00    -0.010 C 
ATOM     49  H   UNL     1     -43.795  45.866  23.869  1.00  0.00     0.164 HD
ATOM     50  C   UNL     1     -46.022  45.738  27.496  1.00  0.00     0.022 C 
ATOM     51  H   UNL     1     -44.524  46.709  26.283  1.00  0.00     0.031 H 
ATOM     52  H   UNL     1     -43.982  45.226  27.021  1.00  0.00     0.031 H 
ATOM     53  C   UNL     1     -47.154  46.612  25.449  1.00  0.00     0.022 C 
ATOM     54  H   UNL     1     -47.121  44.892  24.146  1.00  0.00     0.031 H 
ATOM     55  H   UNL     1     -46.092  46.205  23.641  1.00  0.00     0.031 H 
ATOM     56  N   UNL     1     -47.269  46.085  26.805  1.00  0.00    -0.356 N 
ATOM     57  H   UNL     1     -46.088  44.771  28.009  1.00  0.00     0.049 H 
ATOM     58  H   UNL     1     -45.818  46.493  28.265  1.00  0.00     0.049 H 
ATOM     59  H   UNL     1     -48.126  46.888  25.023  1.00  0.00     0.049 H 
ATOM     60  H   UNL     1     -46.593  47.555  25.497  1.00  0.00     0.049 H 
BRANCH  56  61
ATOM     61  C   UNL     1     -48.383  45.289  27.082  1.00  0.00     0.141 A 
ATOM     62  N   UNL     1     -48.205  44.093  27.707  1.00  0.00    -0.219 NA
ATOM     63  C   UNL     1     -49.710  45.640  26.741  1.00  0.00     0.061 A 
ATOM     64  C   UNL     1     -49.276  43.325  27.991  1.00  0.00     0.120 A 
ATOM     65  C   UNL     1     -50.712  44.750  27.104  1.00  0.00     0.142 A 
ATOM     66  C   UNL     1     -50.361  46.713  26.062  1.00  0.00    -0.031 A 
ATOM     67  N   UNL     1     -50.567  43.580  27.737  1.00  0.00    -0.218 NA
ATOM     68  H   UNL     1     -49.064  42.384  28.489  1.00  0.00     0.106 H 
ATOM     69  N   UNL     1     -51.913  45.262  26.697  1.00  0.00    -0.346 N 
ATOM     70  C   UNL     1     -51.716  46.458  26.057  1.00  0.00     0.003 A 
ATOM     71  H   UNL     1     -49.885  47.578  25.618  1.00  0.00     0.065 H 
ATOM     72  H   UNL     1     -52.798  44.800  26.846  1.00  0.00     0.167 HD
ATOM     73  H   UNL     1     -52.549  47.015  25.649  1.00  0.00     0.082 H 
ENDBRANCH  56  61
ENDBRANCH   4  36
TORSDOF 6
ENDMDL
MODEL 6
REMARK VINA RESULT:      -7.7      1.026      2.061
REMARK SMILES CC1(C)CCN(Cc2ccc(N3CC(=O)NC4(CCN(c5ncnc6[nH]ccc56)CC4)C3)cc2)CC1
REMARK SMILES IDX 8 1 9 2 10 3 11 4 33 5 34 6 7 11 6 14 2 15 4 16 36 17 5 18
REMARK SMILES IDX 35 21 1 28 3 32 12 36 13 37 32 38 14 39 17 42 15 45 16 46
REMARK SMILES IDX 18 47 31 48 19 50 30 53 20 56 21 61 22 62 29 63 23 64 25 65
REMARK SMILES IDX 28 66 24 67 26 69 27 70
REMARK H PARENT 9 7 10 8 33 9 34 10 7 12 7 13 4 19 4 20 36 22 36 23 5 24 5 25
REMARK H PARENT 35 26 35 27 1 29 1 30 1 31 3 33 3 34 3 35 13 40 13 41 32 43
REMARK H PARENT 32 44 16 49 18 51 18 52 31 54 31 55 19 57 19 58 30 59 30 60
REMARK H PARENT 23 68 28 71 26 72 27 73
REMARK Flexibility Score: inf
ROOT
ATOM      1  C   UNL     1     -47.962  33.353  26.320  1.00  0.00    -0.034 A 
ATOM      2  C   UNL     1     -49.354  33.470  26.278  1.00  0.00    -0.056 A 
ATOM      3  C   UNL     1     -50.101  32.762  25.331  1.00  0.00    -0.038 A 
ATOM      4  C   UNL     1     -49.493  31.916  24.388  1.00  0.00     0.037 A 
ATOM      5  C   UNL     1     -48.097  31.796  24.455  1.00  0.00    -0.038 A 
ATOM      6  C   UNL     1     -47.340  32.502  25.401  1.00  0.00    -0.056 A 
ATOM      7  H   UNL     1     -49.864  34.118  26.987  1.00  0.00     0.063 H 
ATOM      8  H   UNL     1     -51.183  32.862  25.357  1.00  0.00     0.064 H 
ATOM      9  H   UNL     1     -47.554  31.162  23.761  1.00  0.00     0.064 H 
ATOM     10  H   UNL     1     -46.260  32.381  25.407  1.00  0.00     0.063 H 
ENDROOT
BRANCH   1  11
ATOM     11  C   UNL     1     -47.151  34.106  27.353  1.00  0.00     0.023 C 
ATOM     12  H   UNL     1     -47.874  34.700  27.931  1.00  0.00     0.048 H 
ATOM     13  H   UNL     1     -46.706  33.401  28.067  1.00  0.00     0.048 H 
BRANCH  11  14
ATOM     14  N   UNL     1     -46.137  34.997  26.766  1.00  0.00    -0.299 NA
ATOM     15  C   UNL     1     -46.267  37.667  28.137  1.00  0.00    -0.033 C 
ATOM     16  C   UNL     1     -47.306  37.204  27.093  1.00  0.00    -0.035 C 
ATOM     17  C   UNL     1     -45.590  36.430  28.766  1.00  0.00    -0.035 C 
ATOM     18  C   UNL     1     -46.748  36.164  26.115  1.00  0.00    -0.001 C 
ATOM     19  H   UNL     1     -48.180  36.778  27.605  1.00  0.00     0.029 H 
ATOM     20  H   UNL     1     -47.682  38.065  26.525  1.00  0.00     0.029 H 
ATOM     21  C   UNL     1     -45.104  35.418  27.723  1.00  0.00    -0.001 C 
ATOM     22  H   UNL     1     -44.739  36.743  29.386  1.00  0.00     0.029 H 
ATOM     23  H   UNL     1     -46.291  35.931  29.449  1.00  0.00     0.029 H 
ATOM     24  H   UNL     1     -45.998  36.635  25.469  1.00  0.00     0.043 H 
ATOM     25  H   UNL     1     -47.544  35.841  25.432  1.00  0.00     0.043 H 
ATOM     26  H   UNL     1     -44.271  35.853  27.157  1.00  0.00     0.043 H 
ATOM     27  H   UNL     1     -44.666  34.554  28.234  1.00  0.00     0.043 H 
BRANCH  15  28
ATOM     28  C   UNL     1     -45.216  38.583  27.481  1.00  0.00    -0.060 C 
ATOM     29  H   UNL     1     -44.700  38.066  26.663  1.00  0.00     0.024 H 
ATOM     30  H   UNL     1     -45.655  39.494  27.062  1.00  0.00     0.024 H 
ATOM     31  H   UNL     1     -44.455  38.892  28.207  1.00  0.00     0.024 H 
ENDBRANCH  15  28
BRANCH  15  32
ATOM     32  C   UNL     1     -46.977  38.474  29.239  1.00  0.00    -0.060 C 
ATOM     33  H   UNL     1     -46.752  39.543  29.155  1.00  0.00     0.024 H 
ATOM     34  H   UNL     1     -46.660  38.145  30.236  1.00  0.00     0.024 H 
ATOM     35  H   UNL     1     -48.064  38.357  29.176  1.00  0.00     0.024 H 
ENDBRANCH  15  32
ENDBRANCH  11  14
ENDBRANCH   1  11
BRANCH   4  36
ATOM     36  N   UNL     1     -50.287  31.218  23.461  1.00  0.00    -0.360 N 
ATOM     37  C   UNL     1     -50.839  32.087  22.385  1.00  0.00     0.097 C 
ATOM     38  C   UNL     1     -49.812  29.907  22.983  1.00  0.00     0.042 C 
ATOM     39  C   UNL     1     -51.665  31.338  21.323  1.00  0.00     0.240 C 
ATOM     40  H   UNL     1     -50.021  32.591  21.855  1.00  0.00     0.060 H 
ATOM     41  H   UNL     1     -51.511  32.840  22.810  1.00  0.00     0.060 H 
ATOM     42  C   UNL     1     -50.996  29.145  22.309  1.00  0.00     0.061 C 
ATOM     43  H   UNL     1     -49.409  29.315  23.810  1.00  0.00     0.052 H 
ATOM     44  H   UNL     1     -49.002  30.059  22.256  1.00  0.00     0.052 H 
ATOM     45  O   UNL     1     -52.397  31.926  20.526  1.00  0.00    -0.273 OA
ATOM     46  N   UNL     1     -51.524  29.977  21.212  1.00  0.00    -0.347 N 
ATOM     47  C   UNL     1     -52.137  28.879  23.320  1.00  0.00    -0.010 C 
ATOM     48  C   UNL     1     -50.474  27.808  21.726  1.00  0.00    -0.010 C 
ATOM     49  H   UNL     1     -52.167  29.567  20.545  1.00  0.00     0.164 HD
ATOM     50  C   UNL     1     -51.684  27.969  24.464  1.00  0.00     0.022 C 
ATOM     51  H   UNL     1     -52.982  28.411  22.796  1.00  0.00     0.031 H 
ATOM     52  H   UNL     1     -52.539  29.810  23.736  1.00  0.00     0.031 H 
ATOM     53  C   UNL     1     -50.928  26.587  22.526  1.00  0.00     0.022 C 
ATOM     54  H   UNL     1     -49.378  27.821  21.669  1.00  0.00     0.031 H 
ATOM     55  H   UNL     1     -50.813  27.672  20.690  1.00  0.00     0.031 H 
ATOM     56  N   UNL     1     -50.892  26.841  23.963  1.00  0.00    -0.356 N 
ATOM     57  H   UNL     1     -51.128  28.578  25.187  1.00  0.00     0.049 H 
ATOM     58  H   UNL     1     -52.568  27.583  24.986  1.00  0.00     0.049 H 
ATOM     59  H   UNL     1     -50.348  25.700  22.243  1.00  0.00     0.049 H 
ATOM     60  H   UNL     1     -51.962  26.344  22.249  1.00  0.00     0.049 H 
BRANCH  56  61
ATOM     61  C   UNL     1     -49.690  26.575  24.623  1.00  0.00     0.141 A 
ATOM     62  N   UNL     1     -49.688  25.710  25.675  1.00  0.00    -0.219 NA
ATOM     63  C   UNL     1     -48.451  27.162  24.277  1.00  0.00     0.061 A 
ATOM     64  C   UNL     1     -48.531  25.437  26.308  1.00  0.00     0.120 A 
ATOM     65  C   UNL     1     -47.341  26.779  25.018  1.00  0.00     0.142 A 
ATOM     66  C   UNL     1     -47.983  28.123  23.331  1.00  0.00    -0.031 A 
ATOM     67  N   UNL     1     -47.307  25.916  26.040  1.00  0.00    -0.218 NA
ATOM     68  H   UNL     1     -48.599  24.741  27.138  1.00  0.00     0.106 H 
ATOM     69  N   UNL     1     -46.248  27.444  24.535  1.00  0.00    -0.346 N 
ATOM     70  C   UNL     1     -46.623  28.270  23.508  1.00  0.00     0.003 A 
ATOM     71  H   UNL     1     -48.581  28.654  22.602  1.00  0.00     0.065 H 
ATOM     72  H   UNL     1     -45.317  27.335  24.908  1.00  0.00     0.167 HD
ATOM     73  H   UNL     1     -45.897  28.892  23.001  1.00  0.00     0.082 H 
ENDBRANCH  56  61
ENDBRANCH   4  36
TORSDOF 6
ENDMDL
MODEL 7
REMARK VINA RESULT:      -7.4      6.217     13.471
REMARK SMILES CC1(C)CCN(Cc2ccc(N3CC(=O)NC4(CCN(c5ncnc6[nH]ccc56)CC4)C3)cc2)CC1
REMARK SMILES IDX 8 1 9 2 10 3 11 4 33 5 34 6 7 11 6 14 2 15 4 16 36 17 5 18
REMARK SMILES IDX 35 21 1 28 3 32 12 36 13 37 32 38 14 39 17 42 15 45 16 46
REMARK SMILES IDX 18 47 31 48 19 50 30 53 20 56 21 61 22 62 29 63 23 64 25 65
REMARK SMILES IDX 28 66 24 67 26 69 27 70
REMARK H PARENT 9 7 10 8 33 9 34 10 7 12 7 13 4 19 4 20 36 22 36 23 5 24 5 25
REMARK H PARENT 35 26 35 27 1 29 1 30 1 31 3 33 3 34 3 35 13 40 13 41 32 43
REMARK H PARENT 32 44 16 49 18 51 18 52 31 54 31 55 19 57 19 58 30 59 30 60
REMARK H PARENT 23 68 28 71 26 72 27 73
REMARK Flexibility Score: inf
ROOT
ATOM      1  C   UNL     1     -47.021  38.662  27.882  1.00  0.00    -0.034 A 
ATOM      2  C   UNL     1     -46.617  39.376  26.751  1.00  0.00    -0.056 A 
ATOM      3  C   UNL     1     -47.304  40.530  26.354  1.00  0.00    -0.038 A 
ATOM      4  C   UNL     1     -48.418  41.011  27.062  1.00  0.00     0.037 A 
ATOM      5  C   UNL     1     -48.798  40.291  28.204  1.00  0.00    -0.038 A 
ATOM      6  C   UNL     1     -48.117  39.135  28.610  1.00  0.00    -0.056 A 
ATOM      7  H   UNL     1     -45.762  39.036  26.171  1.00  0.00     0.063 H 
ATOM      8  H   UNL     1     -46.934  41.068  25.486  1.00  0.00     0.064 H 
ATOM      9  H   UNL     1     -49.650  40.599  28.805  1.00  0.00     0.064 H 
ATOM     10  H   UNL     1     -48.456  38.608  29.498  1.00  0.00     0.063 H 
ENDROOT
BRANCH   1  11
ATOM     11  C   UNL     1     -46.271  37.423  28.324  1.00  0.00     0.023 C 
ATOM     12  H   UNL     1     -45.614  37.151  27.486  1.00  0.00     0.048 H 
ATOM     13  H   UNL     1     -45.604  37.666  29.160  1.00  0.00     0.048 H 
BRANCH  11  14
ATOM     14  N   UNL     1     -47.154  36.289  28.646  1.00  0.00    -0.299 NA
ATOM     15  C   UNL     1     -46.914  34.216  26.484  1.00  0.00    -0.033 C 
ATOM     16  C   UNL     1     -47.703  35.532  26.307  1.00  0.00    -0.035 C 
ATOM     17  C   UNL     1     -45.856  34.400  27.594  1.00  0.00    -0.035 C 
ATOM     18  C   UNL     1     -48.204  36.111  27.634  1.00  0.00    -0.001 C 
ATOM     19  H   UNL     1     -47.069  36.279  25.810  1.00  0.00     0.029 H 
ATOM     20  H   UNL     1     -48.559  35.373  25.638  1.00  0.00     0.029 H 
ATOM     21  C   UNL     1     -46.430  35.029  28.869  1.00  0.00    -0.001 C 
ATOM     22  H   UNL     1     -45.402  33.433  27.844  1.00  0.00     0.029 H 
ATOM     23  H   UNL     1     -45.036  35.030  27.223  1.00  0.00     0.029 H 
ATOM     24  H   UNL     1     -48.980  35.457  28.049  1.00  0.00     0.043 H 
ATOM     25  H   UNL     1     -48.713  37.065  27.447  1.00  0.00     0.043 H 
ATOM     26  H   UNL     1     -47.117  34.319  29.345  1.00  0.00     0.043 H 
ATOM     27  H   UNL     1     -45.625  35.163  29.600  1.00  0.00     0.043 H 
BRANCH  15  28
ATOM     28  C   UNL     1     -47.869  33.059  26.835  1.00  0.00    -0.060 C 
ATOM     29  H   UNL     1     -48.410  33.265  27.767  1.00  0.00     0.024 H 
ATOM     30  H   UNL     1     -48.618  32.882  26.058  1.00  0.00     0.024 H 
ATOM     31  H   UNL     1     -47.317  32.123  26.975  1.00  0.00     0.024 H 
ENDBRANCH  15  28
BRANCH  15  32
ATOM     32  C   UNL     1     -46.209  33.864  25.162  1.00  0.00    -0.060 C 
ATOM     33  H   UNL     1     -46.727  33.052  24.640  1.00  0.00     0.024 H 
ATOM     34  H   UNL     1     -45.177  33.539  25.339  1.00  0.00     0.024 H 
ATOM     35  H   UNL     1     -46.179  34.726  24.488  1.00  0.00     0.024 H 
ENDBRANCH  15  32
ENDBRANCH  11  14
ENDBRANCH   1  11
BRANCH   4  36
ATOM     36  N   UNL     1     -49.070  42.178  26.629  1.00  0.00    -0.360 N 
ATOM     37  C   UNL     1     -50.533  41.994  26.420  1.00  0.00     0.097 C 
ATOM     38  C   UNL     1     -48.717  43.455  27.276  1.00  0.00     0.042 C 
ATOM     39  C   UNL     1     -51.282  43.272  26.001  1.00  0.00     0.240 C 
ATOM     40  H   UNL     1     -51.002  41.639  27.347  1.00  0.00     0.060 H 
ATOM     41  H   UNL     1     -50.715  41.266  25.622  1.00  0.00     0.060 H 
ATOM     42  C   UNL     1     -49.230  44.637  26.395  1.00  0.00     0.061 C 
ATOM     43  H   UNL     1     -47.635  43.534  27.414  1.00  0.00     0.052 H 
ATOM     44  H   UNL     1     -49.184  43.499  28.269  1.00  0.00     0.052 H 
ATOM     45  O   UNL     1     -52.425  43.242  25.542  1.00  0.00    -0.273 OA
ATOM     46  N   UNL     1     -50.686  44.491  26.217  1.00  0.00    -0.347 N 
ATOM     47  C   UNL     1     -48.558  44.628  25.001  1.00  0.00    -0.010 C 
ATOM     48  C   UNL     1     -48.941  45.975  27.120  1.00  0.00    -0.010 C 
ATOM     49  H   UNL     1     -51.218  45.263  25.834  1.00  0.00     0.164 HD
ATOM     50  C   UNL     1     -47.046  44.836  25.096  1.00  0.00     0.022 C 
ATOM     51  H   UNL     1     -48.996  45.425  24.383  1.00  0.00     0.031 H 
ATOM     52  H   UNL     1     -48.762  43.699  24.456  1.00  0.00     0.031 H 
ATOM     53  C   UNL     1     -47.806  46.773  26.477  1.00  0.00     0.022 C 
ATOM     54  H   UNL     1     -48.704  45.791  28.176  1.00  0.00     0.031 H 
ATOM     55  H   UNL     1     -49.832  46.616  27.134  1.00  0.00     0.031 H 
ATOM     56  N   UNL     1     -46.715  45.906  26.044  1.00  0.00    -0.356 N 
ATOM     57  H   UNL     1     -46.584  43.881  25.372  1.00  0.00     0.049 H 
ATOM     58  H   UNL     1     -46.658  45.103  24.106  1.00  0.00     0.049 H 
ATOM     59  H   UNL     1     -47.466  47.573  27.146  1.00  0.00     0.049 H 
ATOM     60  H   UNL     1     -48.196  47.297  25.593  1.00  0.00     0.049 H 
BRANCH  56  61
ATOM     61  C   UNL     1     -45.718  45.629  26.981  1.00  0.00     0.141 A 
ATOM     62  N   UNL     1     -45.667  46.356  28.131  1.00  0.00    -0.219 NA
ATOM     63  C   UNL     1     -44.727  44.635  26.811  1.00  0.00     0.061 A 
ATOM     64  C   UNL     1     -44.716  46.087  29.047  1.00  0.00     0.120 A 
ATOM     65  C   UNL     1     -43.815  44.467  27.845  1.00  0.00     0.142 A 
ATOM     66  C   UNL     1     -44.353  43.700  25.799  1.00  0.00    -0.031 A 
ATOM     67  N   UNL     1     -43.757  45.151  28.994  1.00  0.00    -0.218 NA
ATOM     68  H   UNL     1     -44.732  46.703  29.940  1.00  0.00     0.106 H 
ATOM     69  N   UNL     1     -42.949  43.466  27.501  1.00  0.00    -0.346 N 
ATOM     70  C   UNL     1     -43.262  42.990  26.254  1.00  0.00     0.003 A 
ATOM     71  H   UNL     1     -44.830  43.567  24.837  1.00  0.00     0.065 H 
ATOM     72  H   UNL     1     -42.191  43.154  28.089  1.00  0.00     0.167 HD
ATOM     73  H   UNL     1     -42.681  42.199  25.799  1.00  0.00     0.082 H 
ENDBRANCH  56  61
ENDBRANCH   4  36
TORSDOF 6
ENDMDL
