MODEL 1
REMARK VINA RESULT:     -10.9      0.000      0.000
REMARK SMILES Cn1ccc(-c2cn(-c3cncc(COc4ccc5ccc(N6CC(F)(F)C6)nc5c4)c3)c3ncnc(N)c23)n1
REMARK SMILES IDX 9 1 10 2 11 3 12 4 13 5 32 6 8 10 6 11 7 12 39 13 33 15
REMARK SMILES IDX 37 16 34 17 36 18 35 19 5 21 2 22 3 23 40 24 4 25 1 28 38 32
REMARK SMILES IDX 14 35 15 38 16 39 17 40 31 41 18 42 30 44 19 46 29 48 20 49
REMARK SMILES IDX 22 50 21 51 23 54 24 55 28 56 25 57 26 62 27 63
REMARK H PARENT 10 7 12 8 32 9 7 14 35 20 3 26 4 27 1 29 1 30 1 31 38 33 38 34
REMARK H PARENT 14 36 14 37 17 43 31 45 18 47 20 52 21 53 24 58 24 59 28 60
REMARK H PARENT 28 61
REMARK Flexibility Score: inf
ROOT
ATOM      1  C   UNL     1     -45.639  38.439  28.475  1.00  0.00     0.066 A 
ATOM      2  C   UNL     1     -45.312  37.755  29.641  1.00  0.00     0.051 A 
ATOM      3  N   UNL     1     -45.933  36.623  30.061  1.00  0.00    -0.262 NA
ATOM      4  C   UNL     1     -46.921  36.138  29.284  1.00  0.00     0.034 A 
ATOM      5  C   UNL     1     -47.328  36.723  28.094  1.00  0.00     0.010 A 
ATOM      6  C   UNL     1     -46.679  37.902  27.700  1.00  0.00    -0.028 A 
ATOM      7  H   UNL     1     -44.516  38.060  30.309  1.00  0.00     0.086 H 
ATOM      8  H   UNL     1     -47.390  35.234  29.665  1.00  0.00     0.084 H 
ATOM      9  H   UNL     1     -47.018  38.383  26.788  1.00  0.00     0.065 H 
ENDROOT
BRANCH   1  10
ATOM     10  N   UNL     1     -44.954  39.630  28.071  1.00  0.00    -0.299 N 
ATOM     11  C   UNL     1     -44.431  41.477  26.885  1.00  0.00     0.033 A 
ATOM     12  C   UNL     1     -45.324  40.435  27.009  1.00  0.00     0.021 A 
ATOM     13  C   UNL     1     -43.491  41.370  27.941  1.00  0.00     0.071 A 
ATOM     14  H   UNL     1     -46.173  40.208  26.380  1.00  0.00     0.083 H 
ATOM     15  C   UNL     1     -43.815  40.205  28.642  1.00  0.00     0.150 A 
ATOM     16  C   UNL     1     -42.402  42.115  28.424  1.00  0.00     0.137 A 
ATOM     17  N   UNL     1     -43.141  39.743  29.715  1.00  0.00    -0.218 NA
ATOM     18  N   UNL     1     -41.711  41.662  29.486  1.00  0.00    -0.219 NA
ATOM     19  C   UNL     1     -42.106  40.517  30.058  1.00  0.00     0.120 A 
ATOM     20  H   UNL     1     -41.520  40.182  30.909  1.00  0.00     0.106 H 
BRANCH  11  21
ATOM     21  C   UNL     1     -44.478  42.496  25.841  1.00  0.00     0.095 A 
ATOM     22  N   UNL     1     -44.723  44.366  24.892  1.00  0.00    -0.275 N 
ATOM     23  C   UNL     1     -44.484  43.493  23.871  1.00  0.00     0.025 A 
ATOM     24  N   UNL     1     -44.733  43.783  26.104  1.00  0.00    -0.173 NA
ATOM     25  C   UNL     1     -44.332  42.258  24.459  1.00  0.00    -0.016 A 
ATOM     26  H   UNL     1     -44.454  43.809  22.837  1.00  0.00     0.084 H 
ATOM     27  H   UNL     1     -44.148  41.318  23.957  1.00  0.00     0.066 H 
BRANCH  22  28
ATOM     28  C   UNL     1     -44.962  45.784  24.785  1.00  0.00     0.030 C 
ATOM     29  H   UNL     1     -45.515  46.127  25.662  1.00  0.00     0.048 H 
ATOM     30  H   UNL     1     -45.545  45.968  23.879  1.00  0.00     0.048 H 
ATOM     31  H   UNL     1     -43.995  46.292  24.730  1.00  0.00     0.048 H 
ENDBRANCH  22  28
ENDBRANCH  11  21
BRANCH  16  32
ATOM     32  N   UNL     1     -41.988  43.338  27.909  1.00  0.00    -0.383 N 
ATOM     33  H   UNL     1     -41.158  43.650  28.403  1.00  0.00     0.158 HD
ATOM     34  H   UNL     1     -42.729  44.025  27.843  1.00  0.00     0.158 HD
ENDBRANCH  16  32
ENDBRANCH   1  10
BRANCH   5  35
ATOM     35  C   UNL     1     -48.471  36.126  27.314  1.00  0.00     0.115 C 
ATOM     36  H   UNL     1     -49.417  36.652  27.494  1.00  0.00     0.076 H 
ATOM     37  H   UNL     1     -48.246  36.261  26.249  1.00  0.00     0.076 H 
BRANCH  35  38
ATOM     38  O   UNL     1     -48.621  34.718  27.517  1.00  0.00    -0.489 OA
BRANCH  38  39
ATOM     39  C   UNL     1     -48.168  33.863  26.551  1.00  0.00     0.122 A 
ATOM     40  C   UNL     1     -46.869  34.121  26.114  1.00  0.00    -0.019 A 
ATOM     41  C   UNL     1     -48.869  32.784  26.006  1.00  0.00     0.007 A 
ATOM     42  C   UNL     1     -46.284  33.319  25.136  1.00  0.00    -0.049 A 
ATOM     43  H   UNL     1     -46.311  34.952  26.538  1.00  0.00     0.066 H 
ATOM     44  C   UNL     1     -48.310  31.969  25.028  1.00  0.00     0.076 A 
ATOM     45  H   UNL     1     -49.872  32.534  26.335  1.00  0.00     0.069 H 
ATOM     46  C   UNL     1     -47.002  32.245  24.590  1.00  0.00     0.001 A 
ATOM     47  H   UNL     1     -45.271  33.537  24.808  1.00  0.00     0.063 H 
ATOM     48  N   UNL     1     -49.034  30.949  24.533  1.00  0.00    -0.231 NA
ATOM     49  C   UNL     1     -46.453  31.415  23.610  1.00  0.00    -0.049 A 
ATOM     50  C   UNL     1     -48.497  30.154  23.582  1.00  0.00     0.129 A 
ATOM     51  C   UNL     1     -47.207  30.360  23.105  1.00  0.00    -0.019 A 
ATOM     52  H   UNL     1     -45.444  31.575  23.240  1.00  0.00     0.063 H 
ATOM     53  H   UNL     1     -46.780  29.702  22.356  1.00  0.00     0.066 H 
BRANCH  50  54
ATOM     54  N   UNL     1     -49.267  29.085  23.092  1.00  0.00    -0.344 N 
ATOM     55  C   UNL     1     -48.819  27.721  23.042  1.00  0.00     0.085 C 
ATOM     56  C   UNL     1     -50.583  28.713  23.523  1.00  0.00     0.085 C 
ATOM     57  C   UNL     1     -50.296  27.295  22.995  1.00  0.00     0.282 C 
ATOM     58  H   UNL     1     -48.284  27.404  23.943  1.00  0.00     0.056 H 
ATOM     59  H   UNL     1     -48.235  27.497  22.146  1.00  0.00     0.056 H 
ATOM     60  H   UNL     1     -51.374  29.257  23.002  1.00  0.00     0.056 H 
ATOM     61  H   UNL     1     -50.718  28.778  24.608  1.00  0.00     0.056 H 
ATOM     62  F   UNL     1     -50.801  27.004  21.772  1.00  0.00    -0.203 F 
ATOM     63  F   UNL     1     -50.652  26.277  23.814  1.00  0.00    -0.203 F 
ENDBRANCH  50  54
ENDBRANCH  38  39
ENDBRANCH  35  38
ENDBRANCH   5  35
TORSDOF 8
ENDMDL
MODEL 2
REMARK VINA RESULT:     -10.8      4.603     12.757
REMARK SMILES Cn1ccc(-c2cn(-c3cncc(COc4ccc5ccc(N6CC(F)(F)C6)nc5c4)c3)c3ncnc(N)c23)n1
REMARK SMILES IDX 9 1 10 2 11 3 12 4 13 5 32 6 8 10 6 11 7 12 39 13 33 15
REMARK SMILES IDX 37 16 34 17 36 18 35 19 5 21 2 22 3 23 40 24 4 25 1 28 38 32
REMARK SMILES IDX 14 35 15 38 16 39 17 40 31 41 18 42 30 44 19 46 29 48 20 49
REMARK SMILES IDX 22 50 21 51 23 54 24 55 28 56 25 57 26 62 27 63
REMARK H PARENT 10 7 12 8 32 9 7 14 35 20 3 26 4 27 1 29 1 30 1 31 38 33 38 34
REMARK H PARENT 14 36 14 37 17 43 31 45 18 47 20 52 21 53 24 58 24 59 28 60
REMARK H PARENT 28 61
REMARK Flexibility Score: inf
ROOT
ATOM      1  C   UNL     1     -47.750  32.348  25.318  1.00  0.00     0.066 A 
ATOM      2  C   UNL     1     -46.461  32.794  25.050  1.00  0.00     0.051 A 
ATOM      3  N   UNL     1     -45.984  34.013  25.413  1.00  0.00    -0.262 NA
ATOM      4  C   UNL     1     -46.822  34.827  26.083  1.00  0.00     0.034 A 
ATOM      5  C   UNL     1     -48.126  34.489  26.420  1.00  0.00     0.010 A 
ATOM      6  C   UNL     1     -48.591  33.231  26.011  1.00  0.00    -0.028 A 
ATOM      7  H   UNL     1     -45.715  32.196  24.540  1.00  0.00     0.086 H 
ATOM      8  H   UNL     1     -46.397  35.792  26.347  1.00  0.00     0.084 H 
ATOM      9  H   UNL     1     -49.622  32.977  26.241  1.00  0.00     0.065 H 
ENDROOT
BRANCH   1  10
ATOM     10  N   UNL     1     -48.208  31.051  24.916  1.00  0.00    -0.299 N 
ATOM     11  C   UNL     1     -48.722  28.857  25.021  1.00  0.00     0.033 A 
ATOM     12  C   UNL     1     -48.260  29.940  25.737  1.00  0.00     0.021 A 
ATOM     13  C   UNL     1     -49.034  29.304  23.712  1.00  0.00     0.071 A 
ATOM     14  H   UNL     1     -47.935  29.966  26.766  1.00  0.00     0.083 H 
ATOM     15  C   UNL     1     -48.680  30.654  23.661  1.00  0.00     0.150 A 
ATOM     16  C   UNL     1     -49.593  28.753  22.546  1.00  0.00     0.137 A 
ATOM     17  N   UNL     1     -48.809  31.441  22.573  1.00  0.00    -0.218 NA
ATOM     18  N   UNL     1     -49.718  29.521  21.448  1.00  0.00    -0.219 NA
ATOM     19  C   UNL     1     -49.319  30.798  21.517  1.00  0.00     0.120 A 
ATOM     20  H   UNL     1     -49.431  31.382  20.609  1.00  0.00     0.106 H 
BRANCH  11  21
ATOM     21  C   UNL     1     -48.858  27.503  25.550  1.00  0.00     0.095 A 
ATOM     22  N   UNL     1     -48.351  25.571  26.234  1.00  0.00    -0.275 N 
ATOM     23  C   UNL     1     -49.715  25.591  26.247  1.00  0.00     0.025 A 
ATOM     24  N   UNL     1     -47.802  26.722  25.805  1.00  0.00    -0.173 NA
ATOM     25  C   UNL     1     -50.078  26.839  25.793  1.00  0.00    -0.016 A 
ATOM     26  H   UNL     1     -50.302  24.739  26.559  1.00  0.00     0.084 H 
ATOM     27  H   UNL     1     -51.083  27.212  25.651  1.00  0.00     0.066 H 
BRANCH  22  28
ATOM     28  C   UNL     1     -47.495  24.474  26.612  1.00  0.00     0.030 C 
ATOM     29  H   UNL     1     -48.098  23.679  27.058  1.00  0.00     0.048 H 
ATOM     30  H   UNL     1     -46.764  24.842  27.337  1.00  0.00     0.048 H 
ATOM     31  H   UNL     1     -46.994  24.103  25.714  1.00  0.00     0.048 H 
ENDBRANCH  22  28
ENDBRANCH  11  21
BRANCH  16  32
ATOM     32  N   UNL     1     -50.080  27.456  22.437  1.00  0.00    -0.383 N 
ATOM     33  H   UNL     1     -50.418  27.144  23.341  1.00  0.00     0.158 HD
ATOM     34  H   UNL     1     -49.443  26.819  21.974  1.00  0.00     0.158 HD
ENDBRANCH  16  32
ENDBRANCH   1  10
BRANCH   5  35
ATOM     35  C   UNL     1     -48.999  35.485  27.138  1.00  0.00     0.115 C 
ATOM     36  H   UNL     1     -49.204  36.374  26.528  1.00  0.00     0.076 H 
ATOM     37  H   UNL     1     -49.970  35.004  27.310  1.00  0.00     0.076 H 
BRANCH  35  38
ATOM     38  O   UNL     1     -48.499  35.852  28.426  1.00  0.00    -0.489 OA
BRANCH  38  39
ATOM     39  C   UNL     1     -47.451  36.727  28.500  1.00  0.00     0.122 A 
ATOM     40  C   UNL     1     -46.521  36.430  29.495  1.00  0.00    -0.019 A 
ATOM     41  C   UNL     1     -47.239  37.836  27.677  1.00  0.00     0.007 A 
ATOM     42  C   UNL     1     -45.400  37.238  29.674  1.00  0.00    -0.049 A 
ATOM     43  H   UNL     1     -46.670  35.564  30.135  1.00  0.00     0.066 H 
ATOM     44  C   UNL     1     -46.131  38.661  27.834  1.00  0.00     0.076 A 
ATOM     45  H   UNL     1     -47.925  38.089  26.875  1.00  0.00     0.069 H 
ATOM     46  C   UNL     1     -45.203  38.355  28.847  1.00  0.00     0.001 A 
ATOM     47  H   UNL     1     -44.687  36.991  30.455  1.00  0.00     0.063 H 
ATOM     48  N   UNL     1     -45.981  39.720  27.019  1.00  0.00    -0.231 NA
ATOM     49  C   UNL     1     -44.093  39.191  28.990  1.00  0.00    -0.049 A 
ATOM     50  C   UNL     1     -44.907  40.525  27.167  1.00  0.00     0.129 A 
ATOM     51  C   UNL     1     -43.944  40.283  28.141  1.00  0.00    -0.019 A 
ATOM     52  H   UNL     1     -43.341  38.998  29.749  1.00  0.00     0.063 H 
ATOM     53  H   UNL     1     -43.076  40.925  28.236  1.00  0.00     0.066 H 
BRANCH  50  54
ATOM     54  N   UNL     1     -44.764  41.616  26.292  1.00  0.00    -0.344 N 
ATOM     55  C   UNL     1     -45.857  42.414  25.807  1.00  0.00     0.085 C 
ATOM     56  C   UNL     1     -43.919  42.759  26.483  1.00  0.00     0.085 C 
ATOM     57  C   UNL     1     -44.841  43.532  25.521  1.00  0.00     0.282 C 
ATOM     58  H   UNL     1     -46.595  42.657  26.577  1.00  0.00     0.056 H 
ATOM     59  H   UNL     1     -46.342  41.981  24.928  1.00  0.00     0.056 H 
ATOM     60  H   UNL     1     -42.898  42.601  26.129  1.00  0.00     0.056 H 
ATOM     61  H   UNL     1     -43.920  43.130  27.513  1.00  0.00     0.056 H 
ATOM     62  F   UNL     1     -44.407  43.641  24.242  1.00  0.00    -0.203 F 
ATOM     63  F   UNL     1     -45.195  44.779  25.917  1.00  0.00    -0.203 F 
ENDBRANCH  50  54
ENDBRANCH  38  39
ENDBRANCH  35  38
ENDBRANCH   5  35
TORSDOF 8
ENDMDL
MODEL 3
REMARK VINA RESULT:     -10.8      4.549     12.486
REMARK SMILES Cn1ccc(-c2cn(-c3cncc(COc4ccc5ccc(N6CC(F)(F)C6)nc5c4)c3)c3ncnc(N)c23)n1
REMARK SMILES IDX 9 1 10 2 11 3 12 4 13 5 32 6 8 10 6 11 7 12 39 13 33 15
REMARK SMILES IDX 37 16 34 17 36 18 35 19 5 21 2 22 3 23 40 24 4 25 1 28 38 32
REMARK SMILES IDX 14 35 15 38 16 39 17 40 31 41 18 42 30 44 19 46 29 48 20 49
REMARK SMILES IDX 22 50 21 51 23 54 24 55 28 56 25 57 26 62 27 63
REMARK H PARENT 10 7 12 8 32 9 7 14 35 20 3 26 4 27 1 29 1 30 1 31 38 33 38 34
REMARK H PARENT 14 36 14 37 17 43 31 45 18 47 20 52 21 53 24 58 24 59 28 60
REMARK H PARENT 28 61
REMARK Flexibility Score: inf
ROOT
ATOM      1  C   UNL     1     -47.173  32.682  26.153  1.00  0.00     0.066 A 
ATOM      2  C   UNL     1     -46.495  32.373  27.326  1.00  0.00     0.051 A 
ATOM      3  N   UNL     1     -46.055  33.297  28.220  1.00  0.00    -0.262 NA
ATOM      4  C   UNL     1     -46.308  34.591  27.942  1.00  0.00     0.034 A 
ATOM      5  C   UNL     1     -46.987  35.021  26.811  1.00  0.00     0.010 A 
ATOM      6  C   UNL     1     -47.409  34.041  25.900  1.00  0.00    -0.028 A 
ATOM      7  H   UNL     1     -46.272  31.360  27.639  1.00  0.00     0.086 H 
ATOM      8  H   UNL     1     -45.933  35.292  28.682  1.00  0.00     0.084 H 
ATOM      9  H   UNL     1     -47.909  34.377  24.996  1.00  0.00     0.065 H 
ENDROOT
BRANCH   1  10
ATOM     10  N   UNL     1     -47.620  31.671  25.240  1.00  0.00    -0.299 N 
ATOM     11  C   UNL     1     -48.774  29.914  24.421  1.00  0.00     0.033 A 
ATOM     12  C   UNL     1     -48.623  30.756  25.502  1.00  0.00     0.021 A 
ATOM     13  C   UNL     1     -47.878  30.344  23.409  1.00  0.00     0.071 A 
ATOM     14  H   UNL     1     -49.147  30.726  26.446  1.00  0.00     0.083 H 
ATOM     15  C   UNL     1     -47.155  31.410  23.948  1.00  0.00     0.150 A 
ATOM     16  C   UNL     1     -47.583  29.987  22.082  1.00  0.00     0.137 A 
ATOM     17  N   UNL     1     -46.186  32.087  23.298  1.00  0.00    -0.218 NA
ATOM     18  N   UNL     1     -46.611  30.644  21.423  1.00  0.00    -0.219 NA
ATOM     19  C   UNL     1     -45.971  31.634  22.058  1.00  0.00     0.120 A 
ATOM     20  H   UNL     1     -45.190  32.136  21.495  1.00  0.00     0.106 H 
BRANCH  11  21
ATOM     21  C   UNL     1     -49.706  28.792  24.362  1.00  0.00     0.095 A 
ATOM     22  N   UNL     1     -51.308  27.564  23.745  1.00  0.00    -0.275 N 
ATOM     23  C   UNL     1     -50.806  26.941  24.850  1.00  0.00     0.025 A 
ATOM     24  N   UNL     1     -50.661  28.700  23.429  1.00  0.00    -0.173 NA
ATOM     25  C   UNL     1     -49.764  27.728  25.284  1.00  0.00    -0.016 A 
ATOM     26  H   UNL     1     -51.225  26.022  25.234  1.00  0.00     0.084 H 
ATOM     27  H   UNL     1     -49.139  27.557  26.150  1.00  0.00     0.066 H 
BRANCH  22  28
ATOM     28  C   UNL     1     -52.421  27.133  22.936  1.00  0.00     0.030 C 
ATOM     29  H   UNL     1     -52.649  27.901  22.192  1.00  0.00     0.048 H 
ATOM     30  H   UNL     1     -53.283  26.978  23.590  1.00  0.00     0.048 H 
ATOM     31  H   UNL     1     -52.143  26.201  22.437  1.00  0.00     0.048 H 
ENDBRANCH  22  28
ENDBRANCH  11  21
BRANCH  16  32
ATOM     32  N   UNL     1     -48.256  29.012  21.355  1.00  0.00    -0.383 N 
ATOM     33  H   UNL     1     -47.647  28.652  20.627  1.00  0.00     0.158 HD
ATOM     34  H   UNL     1     -49.175  29.299  21.041  1.00  0.00     0.158 HD
ENDBRANCH  16  32
ENDBRANCH   1  10
BRANCH   5  35
ATOM     35  C   UNL     1     -47.187  36.495  26.569  1.00  0.00     0.115 C 
ATOM     36  H   UNL     1     -46.564  36.870  25.747  1.00  0.00     0.076 H 
ATOM     37  H   UNL     1     -48.227  36.636  26.251  1.00  0.00     0.076 H 
BRANCH  35  38
ATOM     38  O   UNL     1     -47.016  37.291  27.745  1.00  0.00    -0.489 OA
BRANCH  38  39
ATOM     39  C   UNL     1     -46.120  38.323  27.716  1.00  0.00     0.122 A 
ATOM     40  C   UNL     1     -45.192  38.312  28.756  1.00  0.00    -0.019 A 
ATOM     41  C   UNL     1     -46.054  39.334  26.753  1.00  0.00     0.007 A 
ATOM     42  C   UNL     1     -44.219  39.305  28.840  1.00  0.00    -0.049 A 
ATOM     43  H   UNL     1     -45.228  37.525  29.505  1.00  0.00     0.066 H 
ATOM     44  C   UNL     1     -45.095  40.339  26.815  1.00  0.00     0.076 A 
ATOM     45  H   UNL     1     -46.742  39.367  25.915  1.00  0.00     0.069 H 
ATOM     46  C   UNL     1     -44.168  40.320  27.873  1.00  0.00     0.001 A 
ATOM     47  H   UNL     1     -43.505  39.280  29.659  1.00  0.00     0.063 H 
ATOM     48  N   UNL     1     -45.083  41.292  25.866  1.00  0.00    -0.231 NA
ATOM     49  C   UNL     1     -43.209  41.334  27.919  1.00  0.00    -0.049 A 
ATOM     50  C   UNL     1     -44.154  42.271  25.920  1.00  0.00     0.129 A 
ATOM     51  C   UNL     1     -43.201  42.315  26.932  1.00  0.00    -0.019 A 
ATOM     52  H   UNL     1     -42.463  41.365  28.709  1.00  0.00     0.063 H 
ATOM     53  H   UNL     1     -42.448  43.095  26.953  1.00  0.00     0.066 H 
BRANCH  50  54
ATOM     54  N   UNL     1     -44.151  43.246  24.907  1.00  0.00    -0.344 N 
ATOM     55  C   UNL     1     -43.775  42.997  23.543  1.00  0.00     0.085 C 
ATOM     56  C   UNL     1     -45.251  44.085  24.527  1.00  0.00     0.085 C 
ATOM     57  C   UNL     1     -44.580  44.247  23.150  1.00  0.00     0.282 C 
ATOM     58  H   UNL     1     -44.174  42.058  23.146  1.00  0.00     0.056 H 
ATOM     59  H   UNL     1     -42.696  43.059  23.381  1.00  0.00     0.056 H 
ATOM     60  H   UNL     1     -45.322  44.996  25.126  1.00  0.00     0.056 H 
ATOM     61  H   UNL     1     -46.210  43.558  24.508  1.00  0.00     0.056 H 
ATOM     62  F   UNL     1     -43.871  45.387  22.966  1.00  0.00    -0.203 F 
ATOM     63  F   UNL     1     -45.397  44.121  22.077  1.00  0.00    -0.203 F 
ENDBRANCH  50  54
ENDBRANCH  38  39
ENDBRANCH  35  38
ENDBRANCH   5  35
TORSDOF 8
ENDMDL
MODEL 4
REMARK VINA RESULT:     -10.7      1.840      2.760
REMARK SMILES Cn1ccc(-c2cn(-c3cncc(COc4ccc5ccc(N6CC(F)(F)C6)nc5c4)c3)c3ncnc(N)c23)n1
REMARK SMILES IDX 9 1 10 2 11 3 12 4 13 5 32 6 8 10 6 11 7 12 39 13 33 15
REMARK SMILES IDX 37 16 34 17 36 18 35 19 5 21 2 22 3 23 40 24 4 25 1 28 38 32
REMARK SMILES IDX 14 35 15 38 16 39 17 40 31 41 18 42 30 44 19 46 29 48 20 49
REMARK SMILES IDX 22 50 21 51 23 54 24 55 28 56 25 57 26 62 27 63
REMARK H PARENT 10 7 12 8 32 9 7 14 35 20 3 26 4 27 1 29 1 30 1 31 38 33 38 34
REMARK H PARENT 14 36 14 37 17 43 31 45 18 47 20 52 21 53 24 58 24 59 28 60
REMARK H PARENT 28 61
REMARK Flexibility Score: inf
ROOT
ATOM      1  C   UNL     1     -45.769  38.835  28.174  1.00  0.00     0.066 A 
ATOM      2  C   UNL     1     -44.918  38.541  29.233  1.00  0.00     0.051 A 
ATOM      3  N   UNL     1     -45.001  37.416  29.990  1.00  0.00    -0.262 NA
ATOM      4  C   UNL     1     -45.971  36.534  29.677  1.00  0.00     0.034 A 
ATOM      5  C   UNL     1     -46.870  36.710  28.635  1.00  0.00     0.010 A 
ATOM      6  C   UNL     1     -46.767  37.892  27.887  1.00  0.00    -0.028 A 
ATOM      7  H   UNL     1     -44.099  39.181  29.537  1.00  0.00     0.086 H 
ATOM      8  H   UNL     1     -46.000  35.653  30.313  1.00  0.00     0.084 H 
ATOM      9  H   UNL     1     -47.492  38.050  27.094  1.00  0.00     0.065 H 
ENDROOT
BRANCH   1  10
ATOM     10  N   UNL     1     -45.641  40.035  27.402  1.00  0.00    -0.299 N 
ATOM     11  C   UNL     1     -44.697  41.681  26.181  1.00  0.00     0.033 A 
ATOM     12  C   UNL     1     -44.468  40.483  26.823  1.00  0.00     0.021 A 
ATOM     13  C   UNL     1     -46.078  41.980  26.302  1.00  0.00     0.071 A 
ATOM     14  H   UNL     1     -43.534  39.952  26.927  1.00  0.00     0.083 H 
ATOM     15  C   UNL     1     -46.635  40.967  27.086  1.00  0.00     0.150 A 
ATOM     16  C   UNL     1     -46.956  42.974  25.838  1.00  0.00     0.137 A 
ATOM     17  N   UNL     1     -47.933  40.900  27.444  1.00  0.00    -0.218 NA
ATOM     18  N   UNL     1     -48.252  42.929  26.195  1.00  0.00    -0.219 NA
ATOM     19  C   UNL     1     -48.661  41.917  26.972  1.00  0.00     0.120 A 
ATOM     20  H   UNL     1     -49.713  41.919  27.243  1.00  0.00     0.106 H 
BRANCH  11  21
ATOM     21  C   UNL     1     -43.675  42.472  25.502  1.00  0.00     0.095 A 
ATOM     22  N   UNL     1     -42.625  43.479  23.973  1.00  0.00    -0.275 N 
ATOM     23  C   UNL     1     -41.820  43.588  25.068  1.00  0.00     0.025 A 
ATOM     24  N   UNL     1     -43.760  42.796  24.207  1.00  0.00    -0.173 NA
ATOM     25  C   UNL     1     -42.474  42.928  26.083  1.00  0.00    -0.016 A 
ATOM     26  H   UNL     1     -40.869  44.101  25.036  1.00  0.00     0.084 H 
ATOM     27  H   UNL     1     -42.126  42.790  27.098  1.00  0.00     0.066 H 
BRANCH  22  28
ATOM     28  C   UNL     1     -42.371  44.000  22.652  1.00  0.00     0.030 C 
ATOM     29  H   UNL     1     -41.666  43.346  22.132  1.00  0.00     0.048 H 
ATOM     30  H   UNL     1     -41.947  45.002  22.753  1.00  0.00     0.048 H 
ATOM     31  H   UNL     1     -43.319  44.034  22.108  1.00  0.00     0.048 H 
ENDBRANCH  22  28
ENDBRANCH  11  21
BRANCH  16  32
ATOM     32  N   UNL     1     -46.600  44.009  24.980  1.00  0.00    -0.383 N 
ATOM     33  H   UNL     1     -47.090  43.902  24.098  1.00  0.00     0.158 HD
ATOM     34  H   UNL     1     -45.600  44.146  24.900  1.00  0.00     0.158 HD
ENDBRANCH  16  32
ENDBRANCH   1  10
BRANCH   5  35
ATOM     35  C   UNL     1     -47.944  35.683  28.387  1.00  0.00     0.115 C 
ATOM     36  H   UNL     1     -47.680  34.698  28.795  1.00  0.00     0.076 H 
ATOM     37  H   UNL     1     -48.839  36.007  28.931  1.00  0.00     0.076 H 
BRANCH  35  38
ATOM     38  O   UNL     1     -48.325  35.581  27.012  1.00  0.00    -0.489 OA
BRANCH  38  39
ATOM     39  C   UNL     1     -47.953  34.471  26.307  1.00  0.00     0.122 A 
ATOM     40  C   UNL     1     -46.762  34.611  25.596  1.00  0.00    -0.019 A 
ATOM     41  C   UNL     1     -48.635  33.252  26.261  1.00  0.00     0.007 A 
ATOM     42  C   UNL     1     -46.265  33.552  24.840  1.00  0.00    -0.049 A 
ATOM     43  H   UNL     1     -46.218  35.552  25.632  1.00  0.00     0.066 H 
ATOM     44  C   UNL     1     -48.163  32.179  25.513  1.00  0.00     0.076 A 
ATOM     45  H   UNL     1     -49.552  33.092  26.818  1.00  0.00     0.069 H 
ATOM     46  C   UNL     1     -46.964  32.336  24.795  1.00  0.00     0.001 A 
ATOM     47  H   UNL     1     -45.335  33.681  24.292  1.00  0.00     0.063 H 
ATOM     48  N   UNL     1     -48.864  31.032  25.499  1.00  0.00    -0.231 NA
ATOM     49  C   UNL     1     -46.501  31.248  24.051  1.00  0.00    -0.049 A 
ATOM     50  C   UNL     1     -48.412  29.986  24.773  1.00  0.00     0.129 A 
ATOM     51  C   UNL     1     -47.231  30.064  24.043  1.00  0.00    -0.019 A 
ATOM     52  H   UNL     1     -45.576  31.310  23.483  1.00  0.00     0.063 H 
ATOM     53  H   UNL     1     -46.868  29.210  23.482  1.00  0.00     0.066 H 
BRANCH  50  54
ATOM     54  N   UNL     1     -49.154  28.792  24.788  1.00  0.00    -0.344 N 
ATOM     55  C   UNL     1     -48.951  27.701  23.875  1.00  0.00     0.085 C 
ATOM     56  C   UNL     1     -49.341  27.916  25.908  1.00  0.00     0.085 C 
ATOM     57  C   UNL     1     -49.634  26.785  24.905  1.00  0.00     0.282 C 
ATOM     58  H   UNL     1     -47.895  27.473  23.696  1.00  0.00     0.056 H 
ATOM     59  H   UNL     1     -49.485  27.831  22.931  1.00  0.00     0.056 H 
ATOM     60  H   UNL     1     -50.179  28.208  26.545  1.00  0.00     0.056 H 
ATOM     61  H   UNL     1     -48.432  27.775  26.502  1.00  0.00     0.056 H 
ATOM     62  F   UNL     1     -50.943  26.507  24.690  1.00  0.00    -0.203 F 
ATOM     63  F   UNL     1     -49.023  25.602  25.153  1.00  0.00    -0.203 F 
ENDBRANCH  50  54
ENDBRANCH  38  39
ENDBRANCH  35  38
ENDBRANCH   5  35
TORSDOF 8
ENDMDL
MODEL 5
REMARK VINA RESULT:     -10.3      4.733     12.723
REMARK SMILES Cn1ccc(-c2cn(-c3cncc(COc4ccc5ccc(N6CC(F)(F)C6)nc5c4)c3)c3ncnc(N)c23)n1
REMARK SMILES IDX 9 1 10 2 11 3 12 4 13 5 32 6 8 10 6 11 7 12 39 13 33 15
REMARK SMILES IDX 37 16 34 17 36 18 35 19 5 21 2 22 3 23 40 24 4 25 1 28 38 32
REMARK SMILES IDX 14 35 15 38 16 39 17 40 31 41 18 42 30 44 19 46 29 48 20 49
REMARK SMILES IDX 22 50 21 51 23 54 24 55 28 56 25 57 26 62 27 63
REMARK H PARENT 10 7 12 8 32 9 7 14 35 20 3 26 4 27 1 29 1 30 1 31 38 33 38 34
REMARK H PARENT 14 36 14 37 17 43 31 45 18 47 20 52 21 53 24 58 24 59 28 60
REMARK H PARENT 28 61
REMARK Flexibility Score: inf
ROOT
ATOM      1  C   UNL     1     -49.020  33.402  26.082  1.00  0.00     0.066 A 
ATOM      2  C   UNL     1     -50.122  34.111  26.546  1.00  0.00     0.051 A 
ATOM      3  N   UNL     1     -50.048  35.318  27.165  1.00  0.00    -0.262 NA
ATOM      4  C   UNL     1     -48.822  35.854  27.325  1.00  0.00     0.034 A 
ATOM      5  C   UNL     1     -47.651  35.248  26.893  1.00  0.00     0.010 A 
ATOM      6  C   UNL     1     -47.763  33.994  26.275  1.00  0.00    -0.028 A 
ATOM      7  H   UNL     1     -51.144  33.767  26.437  1.00  0.00     0.086 H 
ATOM      8  H   UNL     1     -48.814  36.816  27.829  1.00  0.00     0.084 H 
ATOM      9  H   UNL     1     -46.845  33.500  25.969  1.00  0.00     0.065 H 
ENDROOT
BRANCH   1  10
ATOM     10  N   UNL     1     -49.148  32.131  25.433  1.00  0.00    -0.299 N 
ATOM     11  C   UNL     1     -48.716  29.995  24.851  1.00  0.00     0.033 A 
ATOM     12  C   UNL     1     -48.332  31.039  25.664  1.00  0.00     0.021 A 
ATOM     13  C   UNL     1     -49.856  30.413  24.118  1.00  0.00     0.071 A 
ATOM     14  H   UNL     1     -47.506  31.071  26.359  1.00  0.00     0.083 H 
ATOM     15  C   UNL     1     -50.085  31.745  24.470  1.00  0.00     0.150 A 
ATOM     16  C   UNL     1     -50.754  29.838  23.202  1.00  0.00     0.137 A 
ATOM     17  N   UNL     1     -51.078  32.510  23.973  1.00  0.00    -0.218 NA
ATOM     18  N   UNL     1     -51.742  30.591  22.686  1.00  0.00    -0.219 NA
ATOM     19  C   UNL     1     -51.844  31.866  23.086  1.00  0.00     0.120 A 
ATOM     20  H   UNL     1     -52.650  32.442  22.643  1.00  0.00     0.106 H 
BRANCH  11  21
ATOM     21  C   UNL     1     -48.048  28.698  24.786  1.00  0.00     0.095 A 
ATOM     22  N   UNL     1     -47.463  26.731  25.282  1.00  0.00    -0.275 N 
ATOM     23  C   UNL     1     -46.692  27.055  24.204  1.00  0.00     0.025 A 
ATOM     24  N   UNL     1     -48.293  27.719  25.663  1.00  0.00    -0.173 NA
ATOM     25  C   UNL     1     -47.043  28.341  23.863  1.00  0.00    -0.016 A 
ATOM     26  H   UNL     1     -45.970  26.369  23.784  1.00  0.00     0.084 H 
ATOM     27  H   UNL     1     -46.625  28.939  23.064  1.00  0.00     0.066 H 
BRANCH  22  28
ATOM     28  C   UNL     1     -47.456  25.488  26.013  1.00  0.00     0.030 C 
ATOM     29  H   UNL     1     -46.493  24.990  25.874  1.00  0.00     0.048 H 
ATOM     30  H   UNL     1     -48.262  24.858  25.630  1.00  0.00     0.048 H 
ATOM     31  H   UNL     1     -47.610  25.712  27.072  1.00  0.00     0.048 H 
ENDBRANCH  22  28
ENDBRANCH  11  21
BRANCH  16  32
ATOM     32  N   UNL     1     -50.733  28.508  22.800  1.00  0.00    -0.383 N 
ATOM     33  H   UNL     1     -51.641  28.089  22.972  1.00  0.00     0.158 HD
ATOM     34  H   UNL     1     -49.945  27.984  23.162  1.00  0.00     0.158 HD
ENDBRANCH  16  32
ENDBRANCH   1  10
BRANCH   5  35
ATOM     35  C   UNL     1     -46.322  35.910  27.152  1.00  0.00     0.115 C 
ATOM     36  H   UNL     1     -45.485  35.203  27.086  1.00  0.00     0.076 H 
ATOM     37  H   UNL     1     -46.162  36.646  26.355  1.00  0.00     0.076 H 
BRANCH  35  38
ATOM     38  O   UNL     1     -46.282  36.637  28.383  1.00  0.00    -0.489 OA
BRANCH  38  39
ATOM     39  C   UNL     1     -45.460  37.726  28.477  1.00  0.00     0.122 A 
ATOM     40  C   UNL     1     -44.720  37.789  29.657  1.00  0.00    -0.019 A 
ATOM     41  C   UNL     1     -45.297  38.725  27.515  1.00  0.00     0.007 A 
ATOM     42  C   UNL     1     -43.838  38.845  29.878  1.00  0.00    -0.049 A 
ATOM     43  H   UNL     1     -44.831  37.012  30.409  1.00  0.00     0.066 H 
ATOM     44  C   UNL     1     -44.426  39.791  27.710  1.00  0.00     0.076 A 
ATOM     45  H   UNL     1     -45.835  38.702  26.573  1.00  0.00     0.069 H 
ATOM     46  C   UNL     1     -43.690  39.848  28.908  1.00  0.00     0.001 A 
ATOM     47  H   UNL     1     -43.271  38.878  30.804  1.00  0.00     0.063 H 
ATOM     48  N   UNL     1     -44.314  40.730  26.753  1.00  0.00    -0.231 NA
ATOM     49  C   UNL     1     -42.816  40.923  29.088  1.00  0.00    -0.049 A 
ATOM     50  C   UNL     1     -43.470  41.768  26.937  1.00  0.00     0.129 A 
ATOM     51  C   UNL     1     -42.705  41.888  28.092  1.00  0.00    -0.019 A 
ATOM     52  H   UNL     1     -42.217  41.013  29.989  1.00  0.00     0.063 H 
ATOM     53  H   UNL     1     -42.015  42.716  28.218  1.00  0.00     0.066 H 
BRANCH  50  54
ATOM     54  N   UNL     1     -43.359  42.728  25.915  1.00  0.00    -0.344 N 
ATOM     55  C   UNL     1     -42.122  43.328  25.499  1.00  0.00     0.085 C 
ATOM     56  C   UNL     1     -43.834  42.599  24.568  1.00  0.00     0.085 C 
ATOM     57  C   UNL     1     -42.799  43.664  24.160  1.00  0.00     0.282 C 
ATOM     58  H   UNL     1     -41.295  42.615  25.423  1.00  0.00     0.056 H 
ATOM     59  H   UNL     1     -41.838  44.186  26.113  1.00  0.00     0.056 H 
ATOM     60  H   UNL     1     -44.880  42.892  24.453  1.00  0.00     0.056 H 
ATOM     61  H   UNL     1     -43.660  41.606  24.141  1.00  0.00     0.056 H 
ATOM     62  F   UNL     1     -43.270  44.927  24.023  1.00  0.00    -0.203 F 
ATOM     63  F   UNL     1     -42.083  43.394  23.042  1.00  0.00    -0.203 F 
ENDBRANCH  50  54
ENDBRANCH  38  39
ENDBRANCH  35  38
ENDBRANCH   5  35
TORSDOF 8
ENDMDL
MODEL 6
REMARK VINA RESULT:     -10.2      2.247      4.162
REMARK SMILES Cn1ccc(-c2cn(-c3cncc(COc4ccc5ccc(N6CC(F)(F)C6)nc5c4)c3)c3ncnc(N)c23)n1
REMARK SMILES IDX 9 1 10 2 11 3 12 4 13 5 32 6 8 10 6 11 7 12 39 13 33 15
REMARK SMILES IDX 37 16 34 17 36 18 35 19 5 21 2 22 3 23 40 24 4 25 1 28 38 32
REMARK SMILES IDX 14 35 15 38 16 39 17 40 31 41 18 42 30 44 19 46 29 48 20 49
REMARK SMILES IDX 22 50 21 51 23 54 24 55 28 56 25 57 26 62 27 63
REMARK H PARENT 10 7 12 8 32 9 7 14 35 20 3 26 4 27 1 29 1 30 1 31 38 33 38 34
REMARK H PARENT 14 36 14 37 17 43 31 45 18 47 20 52 21 53 24 58 24 59 28 60
REMARK H PARENT 28 61
REMARK Flexibility Score: inf
ROOT
ATOM      1  C   UNL     1     -43.430  41.586  27.950  1.00  0.00     0.066 A 
ATOM      2  C   UNL     1     -42.480  41.487  28.960  1.00  0.00     0.051 A 
ATOM      3  N   UNL     1     -42.415  40.462  29.850  1.00  0.00    -0.262 NA
ATOM      4  C   UNL     1     -43.332  39.482  29.728  1.00  0.00     0.034 A 
ATOM      5  C   UNL     1     -44.321  39.464  28.754  1.00  0.00     0.010 A 
ATOM      6  C   UNL     1     -44.369  40.547  27.865  1.00  0.00    -0.028 A 
ATOM      7  H   UNL     1     -41.693  42.215  29.114  1.00  0.00     0.086 H 
ATOM      8  H   UNL     1     -43.243  38.689  30.465  1.00  0.00     0.084 H 
ATOM      9  H   UNL     1     -45.163  40.554  27.124  1.00  0.00     0.065 H 
ENDROOT
BRANCH   1  10
ATOM     10  N   UNL     1     -43.457  42.686  27.033  1.00  0.00    -0.299 N 
ATOM     11  C   UNL     1     -43.255  43.849  25.111  1.00  0.00     0.033 A 
ATOM     12  C   UNL     1     -43.157  42.601  25.686  1.00  0.00     0.021 A 
ATOM     13  C   UNL     1     -43.692  44.754  26.111  1.00  0.00     0.071 A 
ATOM     14  H   UNL     1     -42.857  41.675  25.218  1.00  0.00     0.083 H 
ATOM     15  C   UNL     1     -43.780  44.020  27.296  1.00  0.00     0.150 A 
ATOM     16  C   UNL     1     -44.049  46.112  26.181  1.00  0.00     0.137 A 
ATOM     17  N   UNL     1     -44.151  44.530  28.489  1.00  0.00    -0.218 NA
ATOM     18  N   UNL     1     -44.409  46.639  27.365  1.00  0.00    -0.219 NA
ATOM     19  C   UNL     1     -44.432  45.836  28.437  1.00  0.00     0.120 A 
ATOM     20  H   UNL     1     -44.722  46.301  29.375  1.00  0.00     0.106 H 
BRANCH  11  21
ATOM     21  C   UNL     1     -42.958  44.150  23.713  1.00  0.00     0.095 A 
ATOM     22  N   UNL     1     -43.155  44.910  21.754  1.00  0.00    -0.275 N 
ATOM     23  C   UNL     1     -42.017  44.159  21.716  1.00  0.00     0.025 A 
ATOM     24  N   UNL     1     -43.755  44.915  22.958  1.00  0.00    -0.173 NA
ATOM     25  C   UNL     1     -41.868  43.638  22.981  1.00  0.00    -0.016 A 
ATOM     26  H   UNL     1     -41.428  44.050  20.816  1.00  0.00     0.084 H 
ATOM     27  H   UNL     1     -41.083  42.976  23.322  1.00  0.00     0.066 H 
BRANCH  22  28
ATOM     28  C   UNL     1     -43.743  45.652  20.666  1.00  0.00     0.030 C 
ATOM     29  H   UNL     1     -43.951  46.674  20.992  1.00  0.00     0.048 H 
ATOM     30  H   UNL     1     -44.672  45.156  20.373  1.00  0.00     0.048 H 
ATOM     31  H   UNL     1     -43.034  45.663  19.834  1.00  0.00     0.048 H 
ENDBRANCH  22  28
ENDBRANCH  11  21
BRANCH  16  32
ATOM     32  N   UNL     1     -44.103  46.974  25.092  1.00  0.00    -0.383 N 
ATOM     33  H   UNL     1     -44.724  47.749  25.304  1.00  0.00     0.158 HD
ATOM     34  H   UNL     1     -44.286  46.508  24.212  1.00  0.00     0.158 HD
ENDBRANCH  16  32
ENDBRANCH   1  10
BRANCH   5  35
ATOM     35  C   UNL     1     -45.325  38.341  28.723  1.00  0.00     0.115 C 
ATOM     36  H   UNL     1     -45.413  37.835  29.693  1.00  0.00     0.076 H 
ATOM     37  H   UNL     1     -46.307  38.787  28.523  1.00  0.00     0.076 H 
BRANCH  35  38
ATOM     38  O   UNL     1     -45.091  37.399  27.674  1.00  0.00    -0.489 OA
BRANCH  38  39
ATOM     39  C   UNL     1     -46.082  36.514  27.351  1.00  0.00     0.122 A 
ATOM     40  C   UNL     1     -47.353  36.887  27.785  1.00  0.00    -0.019 A 
ATOM     41  C   UNL     1     -45.928  35.325  26.633  1.00  0.00     0.007 A 
ATOM     42  C   UNL     1     -48.454  36.077  27.516  1.00  0.00    -0.049 A 
ATOM     43  H   UNL     1     -47.486  37.815  28.336  1.00  0.00     0.066 H 
ATOM     44  C   UNL     1     -47.009  34.497  26.352  1.00  0.00     0.076 A 
ATOM     45  H   UNL     1     -44.961  35.010  26.256  1.00  0.00     0.069 H 
ATOM     46  C   UNL     1     -48.285  34.881  26.802  1.00  0.00     0.001 A 
ATOM     47  H   UNL     1     -49.437  36.385  27.864  1.00  0.00     0.063 H 
ATOM     48  N   UNL     1     -46.802  33.360  25.664  1.00  0.00    -0.231 NA
ATOM     49  C   UNL     1     -49.362  34.040  26.509  1.00  0.00    -0.049 A 
ATOM     50  C   UNL     1     -47.847  32.551  25.389  1.00  0.00     0.129 A 
ATOM     51  C   UNL     1     -49.139  32.867  25.794  1.00  0.00    -0.019 A 
ATOM     52  H   UNL     1     -50.371  34.291  26.824  1.00  0.00     0.063 H 
ATOM     53  H   UNL     1     -49.973  32.219  25.549  1.00  0.00     0.066 H 
BRANCH  50  54
ATOM     54  N   UNL     1     -47.608  31.376  24.654  1.00  0.00    -0.344 N 
ATOM     55  C   UNL     1     -48.535  30.803  23.717  1.00  0.00     0.085 C 
ATOM     56  C   UNL     1     -46.479  31.114  23.809  1.00  0.00     0.085 C 
ATOM     57  C   UNL     1     -47.345  30.077  23.068  1.00  0.00     0.282 C 
ATOM     58  H   UNL     1     -49.020  31.545  23.074  1.00  0.00     0.056 H 
ATOM     59  H   UNL     1     -49.278  30.160  24.194  1.00  0.00     0.056 H 
ATOM     60  H   UNL     1     -45.623  30.708  24.351  1.00  0.00     0.056 H 
ATOM     61  H   UNL     1     -46.182  31.976  23.203  1.00  0.00     0.056 H 
ATOM     62  F   UNL     1     -47.159  28.784  23.426  1.00  0.00    -0.203 F 
ATOM     63  F   UNL     1     -47.285  30.117  21.715  1.00  0.00    -0.203 F 
ENDBRANCH  50  54
ENDBRANCH  38  39
ENDBRANCH  35  38
ENDBRANCH   5  35
TORSDOF 8
ENDMDL
MODEL 7
REMARK VINA RESULT:     -10.0      1.929      2.453
REMARK SMILES Cn1ccc(-c2cn(-c3cncc(COc4ccc5ccc(N6CC(F)(F)C6)nc5c4)c3)c3ncnc(N)c23)n1
REMARK SMILES IDX 9 1 10 2 11 3 12 4 13 5 32 6 8 10 6 11 7 12 39 13 33 15
REMARK SMILES IDX 37 16 34 17 36 18 35 19 5 21 2 22 3 23 40 24 4 25 1 28 38 32
REMARK SMILES IDX 14 35 15 38 16 39 17 40 31 41 18 42 30 44 19 46 29 48 20 49
REMARK SMILES IDX 22 50 21 51 23 54 24 55 28 56 25 57 26 62 27 63
REMARK H PARENT 10 7 12 8 32 9 7 14 35 20 3 26 4 27 1 29 1 30 1 31 38 33 38 34
REMARK H PARENT 14 36 14 37 17 43 31 45 18 47 20 52 21 53 24 58 24 59 28 60
REMARK H PARENT 28 61
REMARK Flexibility Score: inf
ROOT
ATOM      1  C   UNL     1     -45.688  37.783  28.295  1.00  0.00     0.066 A 
ATOM      2  C   UNL     1     -45.898  37.399  29.615  1.00  0.00     0.051 A 
ATOM      3  N   UNL     1     -46.431  36.207  29.988  1.00  0.00    -0.262 NA
ATOM      4  C   UNL     1     -46.764  35.347  29.005  1.00  0.00     0.034 A 
ATOM      5  C   UNL     1     -46.590  35.611  27.654  1.00  0.00     0.010 A 
ATOM      6  C   UNL     1     -46.056  36.860  27.305  1.00  0.00    -0.028 A 
ATOM      7  H   UNL     1     -45.637  38.017  30.466  1.00  0.00     0.086 H 
ATOM      8  H   UNL     1     -47.190  34.410  29.353  1.00  0.00     0.084 H 
ATOM      9  H   UNL     1     -45.952  37.084  26.247  1.00  0.00     0.065 H 
ENDROOT
BRANCH   1  10
ATOM     10  N   UNL     1     -45.121  39.052  27.950  1.00  0.00    -0.299 N 
ATOM     11  C   UNL     1     -44.775  40.991  26.850  1.00  0.00     0.033 A 
ATOM     12  C   UNL     1     -45.562  39.862  26.920  1.00  0.00     0.021 A 
ATOM     13  C   UNL     1     -43.836  40.931  27.911  1.00  0.00     0.071 A 
ATOM     14  H   UNL     1     -46.380  39.581  26.273  1.00  0.00     0.083 H 
ATOM     15  C   UNL     1     -44.048  39.711  28.557  1.00  0.00     0.150 A 
ATOM     16  C   UNL     1     -42.828  41.757  28.437  1.00  0.00     0.137 A 
ATOM     17  N   UNL     1     -43.339  39.270  29.616  1.00  0.00    -0.218 NA
ATOM     18  N   UNL     1     -42.103  41.328  29.486  1.00  0.00    -0.219 NA
ATOM     19  C   UNL     1     -42.387  40.126  30.004  1.00  0.00     0.120 A 
ATOM     20  H   UNL     1     -41.776  39.813  30.845  1.00  0.00     0.106 H 
BRANCH  11  21
ATOM     21  C   UNL     1     -44.916  42.046  25.851  1.00  0.00     0.095 A 
ATOM     22  N   UNL     1     -44.455  43.365  24.268  1.00  0.00    -0.275 N 
ATOM     23  C   UNL     1     -45.694  43.754  24.687  1.00  0.00     0.025 A 
ATOM     24  N   UNL     1     -43.953  42.330  24.966  1.00  0.00    -0.173 NA
ATOM     25  C   UNL     1     -46.018  42.917  25.731  1.00  0.00    -0.016 A 
ATOM     26  H   UNL     1     -46.225  44.577  24.231  1.00  0.00     0.084 H 
ATOM     27  H   UNL     1     -46.921  42.940  26.325  1.00  0.00     0.066 H 
BRANCH  22  28
ATOM     28  C   UNL     1     -43.677  43.946  23.202  1.00  0.00     0.030 C 
ATOM     29  H   UNL     1     -43.325  43.155  22.536  1.00  0.00     0.048 H 
ATOM     30  H   UNL     1     -42.826  44.471  23.643  1.00  0.00     0.048 H 
ATOM     31  H   UNL     1     -44.315  44.642  22.650  1.00  0.00     0.048 H 
ENDBRANCH  22  28
ENDBRANCH  11  21
BRANCH  16  32
ATOM     32  N   UNL     1     -42.533  43.037  27.980  1.00  0.00    -0.383 N 
ATOM     33  H   UNL     1     -43.239  43.328  27.311  1.00  0.00     0.158 HD
ATOM     34  H   UNL     1     -41.576  43.148  27.668  1.00  0.00     0.158 HD
ENDBRANCH  16  32
ENDBRANCH   1  10
BRANCH   5  35
ATOM     35  C   UNL     1     -47.031  34.599  26.628  1.00  0.00     0.115 C 
ATOM     36  H   UNL     1     -47.009  35.005  25.608  1.00  0.00     0.076 H 
ATOM     37  H   UNL     1     -46.303  33.779  26.644  1.00  0.00     0.076 H 
BRANCH  35  38
ATOM     38  O   UNL     1     -48.302  34.013  26.919  1.00  0.00    -0.489 OA
BRANCH  38  39
ATOM     39  C   UNL     1     -48.688  32.901  26.223  1.00  0.00     0.122 A 
ATOM     40  C   UNL     1     -49.634  33.143  25.227  1.00  0.00    -0.019 A 
ATOM     41  C   UNL     1     -48.214  31.601  26.411  1.00  0.00     0.007 A 
ATOM     42  C   UNL     1     -50.108  32.097  24.439  1.00  0.00    -0.049 A 
ATOM     43  H   UNL     1     -50.003  34.153  25.065  1.00  0.00     0.066 H 
ATOM     44  C   UNL     1     -48.672  30.538  25.640  1.00  0.00     0.076 A 
ATOM     45  H   UNL     1     -47.461  31.373  27.158  1.00  0.00     0.069 H 
ATOM     46  C   UNL     1     -49.631  30.794  24.644  1.00  0.00     0.001 A 
ATOM     47  H   UNL     1     -50.846  32.306  23.669  1.00  0.00     0.063 H 
ATOM     48  N   UNL     1     -48.186  29.305  25.871  1.00  0.00    -0.231 NA
ATOM     49  C   UNL     1     -50.078  29.716  23.876  1.00  0.00    -0.049 A 
ATOM     50  C   UNL     1     -48.627  28.268  25.126  1.00  0.00     0.129 A 
ATOM     51  C   UNL     1     -49.569  28.444  24.118  1.00  0.00    -0.019 A 
ATOM     52  H   UNL     1     -50.812  29.857  23.087  1.00  0.00     0.063 H 
ATOM     53  H   UNL     1     -49.900  27.607  23.514  1.00  0.00     0.066 H 
BRANCH  50  54
ATOM     54  N   UNL     1     -48.092  26.992  25.375  1.00  0.00    -0.344 N 
ATOM     55  C   UNL     1     -47.123  26.705  26.396  1.00  0.00     0.085 C 
ATOM     56  C   UNL     1     -48.833  25.792  25.638  1.00  0.00     0.085 C 
ATOM     57  C   UNL     1     -47.578  25.237  26.338  1.00  0.00     0.282 C 
ATOM     58  H   UNL     1     -47.330  27.206  27.347  1.00  0.00     0.056 H 
ATOM     59  H   UNL     1     -46.096  26.894  26.073  1.00  0.00     0.056 H 
ATOM     60  H   UNL     1     -49.135  25.267  24.730  1.00  0.00     0.056 H 
ATOM     61  H   UNL     1     -49.692  25.950  26.299  1.00  0.00     0.056 H 
ATOM     62  F   UNL     1     -46.811  24.396  25.602  1.00  0.00    -0.203 F 
ATOM     63  F   UNL     1     -47.788  24.627  27.529  1.00  0.00    -0.203 F 
ENDBRANCH  50  54
ENDBRANCH  38  39
ENDBRANCH  35  38
ENDBRANCH   5  35
TORSDOF 8
ENDMDL
