MODEL 1
REMARK VINA RESULT:     -10.1      0.000      0.000
REMARK SMILES CCNc1ccc2ccc(OC[C@H]3O[C@@H](n4ccc5c(N)ncnc54)[C@H](O)[C@@H]3O)cc2n1
REMARK SMILES IDX 11 1 10 2 4 3 5 4 32 5 6 6 31 8 7 9 30 11 8 12 9 14 3 17
REMARK SMILES IDX 2 19 1 22 12 26 13 29 14 30 28 31 15 33 26 34 29 38 16 40
REMARK SMILES IDX 17 41 25 42 18 43 19 45 24 46 20 48 23 49 22 50 21 52 27 55
REMARK H PARENT 5 7 6 10 30 13 8 15 9 16 3 18 2 20 2 21 1 23 1 24 1 25 12 27
REMARK H PARENT 12 28 13 32 28 35 15 36 26 37 29 39 17 44 18 47 23 51 21 53
REMARK H PARENT 21 54 27 56
REMARK Flexibility Score: inf
ROOT
ATOM      1  O   UNL     1     -48.439  35.443  27.235  1.00  0.00    -0.491 OA
ENDROOT
BRANCH   1   2
ATOM      2  C   UNL     1     -48.077  34.379  26.458  1.00  0.00     0.121 A 
ATOM      3  C   UNL     1     -48.646  30.075  24.503  1.00  0.00     0.126 A 
ATOM      4  C   UNL     1     -47.427  30.162  23.841  1.00  0.00    -0.019 A 
ATOM      5  N   UNL     1     -49.082  31.066  25.308  1.00  0.00    -0.231 NA
ATOM      6  C   UNL     1     -46.650  31.307  23.984  1.00  0.00    -0.049 A 
ATOM      7  H   UNL     1     -47.075  29.341  23.226  1.00  0.00     0.066 H 
ATOM      8  C   UNL     1     -48.339  32.178  25.451  1.00  0.00     0.076 A 
ATOM      9  C   UNL     1     -47.103  32.346  24.800  1.00  0.00     0.001 A 
ATOM     10  H   UNL     1     -45.699  31.376  23.465  1.00  0.00     0.063 H 
ATOM     11  C   UNL     1     -48.804  33.202  26.270  1.00  0.00     0.007 A 
ATOM     12  C   UNL     1     -46.364  33.525  24.980  1.00  0.00    -0.049 A 
ATOM     13  H   UNL     1     -49.760  33.036  26.754  1.00  0.00     0.069 H 
ATOM     14  C   UNL     1     -46.854  34.533  25.806  1.00  0.00    -0.019 A 
ATOM     15  H   UNL     1     -45.408  33.664  24.481  1.00  0.00     0.063 H 
ATOM     16  H   UNL     1     -46.278  35.445  25.943  1.00  0.00     0.066 H 
BRANCH   3  17
ATOM     17  N   UNL     1     -49.388  28.892  24.362  1.00  0.00    -0.370 N 
ATOM     18  H   UNL     1     -49.024  28.180  24.988  1.00  0.00     0.162 HD
BRANCH  17  19
ATOM     19  C   UNL     1     -49.567  28.394  23.001  1.00  0.00     0.013 C 
ATOM     20  H   UNL     1     -48.743  28.791  22.397  1.00  0.00     0.049 H 
ATOM     21  H   UNL     1     -49.482  27.302  22.947  1.00  0.00     0.049 H 
BRANCH  19  22
ATOM     22  C   UNL     1     -50.876  28.874  22.391  1.00  0.00    -0.048 C 
ATOM     23  H   UNL     1     -51.128  28.268  21.515  1.00  0.00     0.025 H 
ATOM     24  H   UNL     1     -50.800  29.919  22.072  1.00  0.00     0.025 H 
ATOM     25  H   UNL     1     -51.706  28.802  23.101  1.00  0.00     0.025 H 
ENDBRANCH  19  22
ENDBRANCH  17  19
ENDBRANCH   3  17
ENDBRANCH   1   2
BRANCH   1  26
ATOM     26  C   UNL     1     -47.496  36.489  27.451  1.00  0.00     0.117 C 
ATOM     27  H   UNL     1     -47.063  36.865  26.516  1.00  0.00     0.073 H 
ATOM     28  H   UNL     1     -48.064  37.344  27.837  1.00  0.00     0.073 H 
BRANCH  26  29
ATOM     29  C   UNL     1     -46.414  36.100  28.468  1.00  0.00     0.123 C 
ATOM     30  O   UNL     1     -45.194  36.795  28.116  1.00  0.00    -0.345 OA
ATOM     31  C   UNL     1     -46.755  36.512  29.898  1.00  0.00     0.114 C 
ATOM     32  H   UNL     1     -46.210  35.026  28.417  1.00  0.00     0.067 H 
ATOM     33  C   UNL     1     -44.945  37.812  29.114  1.00  0.00     0.164 C 
ATOM     34  C   UNL     1     -46.214  37.927  29.970  1.00  0.00     0.128 C 
ATOM     35  H   UNL     1     -47.813  36.436  30.158  1.00  0.00     0.066 H 
ATOM     36  H   UNL     1     -44.069  37.512  29.701  1.00  0.00     0.088 H 
ATOM     37  H   UNL     1     -46.931  38.632  29.536  1.00  0.00     0.068 H 
BRANCH  31  38
ATOM     38  O   UNL     1     -46.030  35.694  30.830  1.00  0.00    -0.387 OA
ATOM     39  H   UNL     1     -45.651  34.969  30.292  1.00  0.00     0.211 HD
ENDBRANCH  31  38
BRANCH  33  40
ATOM     40  N   UNL     1     -44.594  39.069  28.454  1.00  0.00    -0.303 N 
ATOM     41  C   UNL     1     -45.171  39.599  27.323  1.00  0.00     0.009 A 
ATOM     42  C   UNL     1     -43.585  39.903  28.883  1.00  0.00     0.147 A 
ATOM     43  C   UNL     1     -44.523  40.780  27.027  1.00  0.00    -0.031 A 
ATOM     44  H   UNL     1     -45.979  39.090  26.812  1.00  0.00     0.082 H 
ATOM     45  C   UNL     1     -43.517  40.980  28.009  1.00  0.00     0.061 A 
ATOM     46  N   UNL     1     -42.812  39.701  29.967  1.00  0.00    -0.218 NA
ATOM     47  H   UNL     1     -44.742  41.422  26.184  1.00  0.00     0.065 H 
ATOM     48  C   UNL     1     -42.539  41.947  28.277  1.00  0.00     0.136 A 
ATOM     49  C   UNL     1     -41.907  40.689  30.111  1.00  0.00     0.120 A 
ATOM     50  N   UNL     1     -41.736  41.784  29.347  1.00  0.00    -0.219 NA
ATOM     51  H   UNL     1     -41.230  40.595  30.956  1.00  0.00     0.106 H 
BRANCH  48  52
ATOM     52  N   UNL     1     -42.350  43.085  27.508  1.00  0.00    -0.383 N 
ATOM     53  H   UNL     1     -42.791  43.069  26.599  1.00  0.00     0.158 HD
ATOM     54  H   UNL     1     -42.477  43.924  28.060  1.00  0.00     0.158 HD
ENDBRANCH  48  52
ENDBRANCH  33  40
BRANCH  34  55
ATOM     55  O   UNL     1     -45.981  38.291  31.333  1.00  0.00    -0.386 OA
ATOM     56  H   UNL     1     -46.826  38.128  31.807  1.00  0.00     0.211 HD
ENDBRANCH  34  55
ENDBRANCH  26  29
ENDBRANCH   1  26
TORSDOF 10
ENDMDL
MODEL 2
REMARK VINA RESULT:      -9.9      1.541      2.046
REMARK SMILES CCNc1ccc2ccc(OC[C@H]3O[C@@H](n4ccc5c(N)ncnc54)[C@H](O)[C@@H]3O)cc2n1
REMARK SMILES IDX 11 1 10 2 4 3 5 4 32 5 6 6 31 8 7 9 30 11 8 12 9 14 3 17
REMARK SMILES IDX 2 19 1 22 12 26 13 29 14 30 28 31 15 33 26 34 29 38 16 40
REMARK SMILES IDX 17 41 25 42 18 43 19 45 24 46 20 48 23 49 22 50 21 52 27 55
REMARK H PARENT 5 7 6 10 30 13 8 15 9 16 3 18 2 20 2 21 1 23 1 24 1 25 12 27
REMARK H PARENT 12 28 13 32 28 35 15 36 26 37 29 39 17 44 18 47 23 51 21 53
REMARK H PARENT 21 54 27 56
REMARK Flexibility Score: inf
ROOT
ATOM      1  O   UNL     1     -47.667  36.636  26.768  1.00  0.00    -0.491 OA
ENDROOT
BRANCH   1   2
ATOM      2  C   UNL     1     -47.771  35.351  26.317  1.00  0.00     0.121 A 
ATOM      3  C   UNL     1     -46.308  31.472  23.974  1.00  0.00     0.126 A 
ATOM      4  C   UNL     1     -47.455  30.769  24.326  1.00  0.00    -0.019 A 
ATOM      5  N   UNL     1     -46.122  32.752  24.356  1.00  0.00    -0.231 NA
ATOM      6  C   UNL     1     -48.421  31.385  25.114  1.00  0.00    -0.049 A 
ATOM      7  H   UNL     1     -47.604  29.752  23.980  1.00  0.00     0.066 H 
ATOM      8  C   UNL     1     -47.050  33.356  25.120  1.00  0.00     0.076 A 
ATOM      9  C   UNL     1     -48.229  32.704  25.530  1.00  0.00     0.001 A 
ATOM     10  H   UNL     1     -49.316  30.836  25.391  1.00  0.00     0.063 H 
ATOM     11  C   UNL     1     -46.844  34.672  25.523  1.00  0.00     0.007 A 
ATOM     12  C   UNL     1     -49.167  33.376  26.328  1.00  0.00    -0.049 A 
ATOM     13  H   UNL     1     -45.924  35.140  25.189  1.00  0.00     0.069 H 
ATOM     14  C   UNL     1     -48.933  34.693  26.716  1.00  0.00    -0.019 A 
ATOM     15  H   UNL     1     -50.080  32.881  26.649  1.00  0.00     0.063 H 
ATOM     16  H   UNL     1     -49.663  35.211  27.334  1.00  0.00     0.066 H 
BRANCH   3  17
ATOM     17  N   UNL     1     -45.370  30.830  23.151  1.00  0.00    -0.370 N 
ATOM     18  H   UNL     1     -44.994  31.491  22.477  1.00  0.00     0.162 HD
BRANCH  17  19
ATOM     19  C   UNL     1     -45.799  29.582  22.525  1.00  0.00     0.013 C 
ATOM     20  H   UNL     1     -46.607  29.169  23.141  1.00  0.00     0.049 H 
ATOM     21  H   UNL     1     -46.231  29.747  21.531  1.00  0.00     0.049 H 
BRANCH  19  22
ATOM     22  C   UNL     1     -44.673  28.560  22.472  1.00  0.00    -0.048 C 
ATOM     23  H   UNL     1     -44.628  28.100  21.481  1.00  0.00     0.025 H 
ATOM     24  H   UNL     1     -44.830  27.766  23.210  1.00  0.00     0.025 H 
ATOM     25  H   UNL     1     -43.699  29.017  22.676  1.00  0.00     0.025 H 
ENDBRANCH  19  22
ENDBRANCH  17  19
ENDBRANCH   3  17
ENDBRANCH   1   2
BRANCH   1  26
ATOM     26  C   UNL     1     -47.769  36.883  28.167  1.00  0.00     0.117 C 
ATOM     27  H   UNL     1     -47.997  37.933  28.394  1.00  0.00     0.073 H 
ATOM     28  H   UNL     1     -48.659  36.343  28.514  1.00  0.00     0.073 H 
BRANCH  26  29
ATOM     29  C   UNL     1     -46.541  36.384  28.941  1.00  0.00     0.123 C 
ATOM     30  O   UNL     1     -45.361  36.958  28.332  1.00  0.00    -0.345 OA
ATOM     31  C   UNL     1     -46.534  36.816  30.404  1.00  0.00     0.114 C 
ATOM     32  H   UNL     1     -46.458  35.295  28.863  1.00  0.00     0.067 H 
ATOM     33  C   UNL     1     -44.811  37.939  29.242  1.00  0.00     0.164 C 
ATOM     34  C   UNL     1     -45.855  38.171  30.343  1.00  0.00     0.128 C 
ATOM     35  H   UNL     1     -47.517  36.843  30.881  1.00  0.00     0.066 H 
ATOM     36  H   UNL     1     -43.864  37.551  29.638  1.00  0.00     0.088 H 
ATOM     37  H   UNL     1     -46.575  38.947  30.059  1.00  0.00     0.068 H 
BRANCH  31  38
ATOM     38  O   UNL     1     -45.713  35.926  31.176  1.00  0.00    -0.387 OA
ATOM     39  H   UNL     1     -45.078  35.545  30.534  1.00  0.00     0.211 HD
ENDBRANCH  31  38
BRANCH  33  40
ATOM     40  N   UNL     1     -44.485  39.160  28.506  1.00  0.00    -0.303 N 
ATOM     41  C   UNL     1     -45.073  39.609  27.347  1.00  0.00     0.009 A 
ATOM     42  C   UNL     1     -43.493  40.039  28.882  1.00  0.00     0.147 A 
ATOM     43  C   UNL     1     -44.449  40.782  26.978  1.00  0.00    -0.031 A 
ATOM     44  H   UNL     1     -45.871  39.054  26.869  1.00  0.00     0.082 H 
ATOM     45  C   UNL     1     -43.446  41.062  27.945  1.00  0.00     0.061 A 
ATOM     46  N   UNL     1     -42.716  39.919  29.975  1.00  0.00    -0.218 NA
ATOM     47  H   UNL     1     -44.681  41.368  26.098  1.00  0.00     0.065 H 
ATOM     48  C   UNL     1     -42.488  42.063  28.152  1.00  0.00     0.136 A 
ATOM     49  C   UNL     1     -41.830  40.932  30.057  1.00  0.00     0.120 A 
ATOM     50  N   UNL     1     -41.682  41.981  29.228  1.00  0.00    -0.219 NA
ATOM     51  H   UNL     1     -41.151  40.902  30.905  1.00  0.00     0.106 H 
BRANCH  48  52
ATOM     52  N   UNL     1     -42.322  43.156  27.314  1.00  0.00    -0.383 N 
ATOM     53  H   UNL     1     -41.364  43.392  27.099  1.00  0.00     0.158 HD
ATOM     54  H   UNL     1     -42.968  43.118  26.535  1.00  0.00     0.158 HD
ENDBRANCH  48  52
ENDBRANCH  33  40
BRANCH  34  55
ATOM     55  O   UNL     1     -45.307  38.502  31.622  1.00  0.00    -0.386 OA
ATOM     56  H   UNL     1     -45.891  39.199  31.996  1.00  0.00     0.211 HD
ENDBRANCH  34  55
ENDBRANCH  26  29
ENDBRANCH   1  26
TORSDOF 10
ENDMDL
MODEL 3
REMARK VINA RESULT:      -9.2      3.270     11.390
REMARK SMILES CCNc1ccc2ccc(OC[C@H]3O[C@@H](n4ccc5c(N)ncnc54)[C@H](O)[C@@H]3O)cc2n1
REMARK SMILES IDX 11 1 10 2 4 3 5 4 32 5 6 6 31 8 7 9 30 11 8 12 9 14 3 17
REMARK SMILES IDX 2 19 1 22 12 26 13 29 14 30 28 31 15 33 26 34 29 38 16 40
REMARK SMILES IDX 17 41 25 42 18 43 19 45 24 46 20 48 23 49 22 50 21 52 27 55
REMARK H PARENT 5 7 6 10 30 13 8 15 9 16 3 18 2 20 2 21 1 23 1 24 1 25 12 27
REMARK H PARENT 12 28 13 32 28 35 15 36 26 37 29 39 17 44 18 47 23 51 21 53
REMARK H PARENT 21 54 27 56
REMARK Flexibility Score: inf
ROOT
ATOM      1  O   UNL     1     -46.596  32.342  25.446  1.00  0.00    -0.491 OA
ENDROOT
BRANCH   1   2
ATOM      2  C   UNL     1     -46.902  33.526  26.054  1.00  0.00     0.121 A 
ATOM      3  C   UNL     1     -45.901  37.686  28.143  1.00  0.00     0.126 A 
ATOM      4  C   UNL     1     -47.249  37.973  28.324  1.00  0.00    -0.019 A 
ATOM      5  N   UNL     1     -45.498  36.534  27.568  1.00  0.00    -0.231 NA
ATOM      6  C   UNL     1     -48.208  37.070  27.878  1.00  0.00    -0.049 A 
ATOM      7  H   UNL     1     -47.554  38.888  28.820  1.00  0.00     0.066 H 
ATOM      8  C   UNL     1     -46.418  35.655  27.132  1.00  0.00     0.076 A 
ATOM      9  C   UNL     1     -47.801  35.883  27.265  1.00  0.00     0.001 A 
ATOM     10  H   UNL     1     -49.261  37.295  28.018  1.00  0.00     0.063 H 
ATOM     11  C   UNL     1     -45.995  34.476  26.527  1.00  0.00     0.007 A 
ATOM     12  C   UNL     1     -48.722  34.936  26.794  1.00  0.00    -0.049 A 
ATOM     13  H   UNL     1     -44.923  34.336  26.441  1.00  0.00     0.069 H 
ATOM     14  C   UNL     1     -48.269  33.765  26.191  1.00  0.00    -0.019 A 
ATOM     15  H   UNL     1     -49.792  35.104  26.893  1.00  0.00     0.063 H 
ATOM     16  H   UNL     1     -48.987  33.033  25.828  1.00  0.00     0.066 H 
BRANCH   3  17
ATOM     17  N   UNL     1     -44.961  38.605  28.634  1.00  0.00    -0.370 N 
ATOM     18  H   UNL     1     -45.014  38.643  29.648  1.00  0.00     0.162 HD
BRANCH  17  19
ATOM     19  C   UNL     1     -44.969  39.933  28.027  1.00  0.00     0.013 C 
ATOM     20  H   UNL     1     -46.012  40.177  27.790  1.00  0.00     0.049 H 
ATOM     21  H   UNL     1     -44.630  40.707  28.726  1.00  0.00     0.049 H 
BRANCH  19  22
ATOM     22  C   UNL     1     -44.168  39.970  26.735  1.00  0.00    -0.048 C 
ATOM     23  H   UNL     1     -43.231  39.418  26.856  1.00  0.00     0.025 H 
ATOM     24  H   UNL     1     -43.923  41.000  26.455  1.00  0.00     0.025 H 
ATOM     25  H   UNL     1     -44.719  39.520  25.902  1.00  0.00     0.025 H 
ENDBRANCH  19  22
ENDBRANCH  17  19
ENDBRANCH   3  17
ENDBRANCH   1   2
BRANCH   1  26
ATOM     26  C   UNL     1     -47.262  32.000  24.233  1.00  0.00     0.117 C 
ATOM     27  H   UNL     1     -48.315  31.735  24.391  1.00  0.00     0.073 H 
ATOM     28  H   UNL     1     -47.310  32.919  23.636  1.00  0.00     0.073 H 
BRANCH  26  29
ATOM     29  C   UNL     1     -46.513  30.921  23.439  1.00  0.00     0.123 C 
ATOM     30  O   UNL     1     -46.857  29.630  23.996  1.00  0.00    -0.345 OA
ATOM     31  C   UNL     1     -46.903  30.878  21.964  1.00  0.00     0.114 C 
ATOM     32  H   UNL     1     -45.431  31.050  23.545  1.00  0.00     0.067 H 
ATOM     33  C   UNL     1     -47.691  28.930  23.043  1.00  0.00     0.164 C 
ATOM     34  C   UNL     1     -48.099  29.945  21.967  1.00  0.00     0.128 C 
ATOM     35  H   UNL     1     -47.112  31.852  21.515  1.00  0.00     0.066 H 
ATOM     36  H   UNL     1     -47.115  28.092  22.632  1.00  0.00     0.088 H 
ATOM     37  H   UNL     1     -49.007  30.490  22.250  1.00  0.00     0.068 H 
BRANCH  31  38
ATOM     38  O   UNL     1     -45.851  30.274  21.194  1.00  0.00    -0.387 OA
ATOM     39  H   UNL     1     -45.371  29.700  21.827  1.00  0.00     0.211 HD
ENDBRANCH  31  38
BRANCH  33  40
ATOM     40  N   UNL     1     -48.839  28.347  23.735  1.00  0.00    -0.303 N 
ATOM     41  C   UNL     1     -50.159  28.708  23.596  1.00  0.00     0.009 A 
ATOM     42  C   UNL     1     -48.740  27.337  24.666  1.00  0.00     0.147 A 
ATOM     43  C   UNL     1     -50.908  27.924  24.449  1.00  0.00    -0.031 A 
ATOM     44  H   UNL     1     -50.458  29.500  22.920  1.00  0.00     0.082 H 
ATOM     45  C   UNL     1     -50.018  27.053  25.131  1.00  0.00     0.061 A 
ATOM     46  N   UNL     1     -47.598  26.734  25.046  1.00  0.00    -0.218 NA
ATOM     47  H   UNL     1     -51.981  27.984  24.577  1.00  0.00     0.065 H 
ATOM     48  C   UNL     1     -50.127  26.046  26.099  1.00  0.00     0.136 A 
ATOM     49  C   UNL     1     -47.831  25.795  25.985  1.00  0.00     0.120 A 
ATOM     50  N   UNL     1     -49.009  25.419  26.516  1.00  0.00    -0.219 NA
ATOM     51  H   UNL     1     -46.957  25.269  26.360  1.00  0.00     0.106 H 
BRANCH  48  52
ATOM     52  N   UNL     1     -51.330  25.638  26.654  1.00  0.00    -0.383 N 
ATOM     53  H   UNL     1     -51.256  25.166  27.544  1.00  0.00     0.158 HD
ATOM     54  H   UNL     1     -52.030  26.367  26.582  1.00  0.00     0.158 HD
ENDBRANCH  48  52
ENDBRANCH  33  40
BRANCH  34  55
ATOM     55  O   UNL     1     -48.286  29.387  20.664  1.00  0.00    -0.386 OA
ATOM     56  H   UNL     1     -47.503  28.817  20.497  1.00  0.00     0.211 HD
ENDBRANCH  34  55
ENDBRANCH  26  29
ENDBRANCH   1  26
TORSDOF 10
ENDMDL
MODEL 4
REMARK VINA RESULT:      -9.1      2.029      2.726
REMARK SMILES CCNc1ccc2ccc(OC[C@H]3O[C@@H](n4ccc5c(N)ncnc54)[C@H](O)[C@@H]3O)cc2n1
REMARK SMILES IDX 11 1 10 2 4 3 5 4 32 5 6 6 31 8 7 9 30 11 8 12 9 14 3 17
REMARK SMILES IDX 2 19 1 22 12 26 13 29 14 30 28 31 15 33 26 34 29 38 16 40
REMARK SMILES IDX 17 41 25 42 18 43 19 45 24 46 20 48 23 49 22 50 21 52 27 55
REMARK H PARENT 5 7 6 10 30 13 8 15 9 16 3 18 2 20 2 21 1 23 1 24 1 25 12 27
REMARK H PARENT 12 28 13 32 28 35 15 36 26 37 29 39 17 44 18 47 23 51 21 53
REMARK H PARENT 21 54 27 56
REMARK Flexibility Score: inf
ROOT
ATOM      1  O   UNL     1     -46.344  35.903  27.043  1.00  0.00    -0.491 OA
ENDROOT
BRANCH   1   2
ATOM      2  C   UNL     1     -46.916  34.793  26.490  1.00  0.00     0.121 A 
ATOM      3  C   UNL     1     -46.931  30.754  23.968  1.00  0.00     0.126 A 
ATOM      4  C   UNL     1     -48.292  30.569  24.183  1.00  0.00    -0.019 A 
ATOM      5  N   UNL     1     -46.281  31.829  24.459  1.00  0.00    -0.231 NA
ATOM      6  C   UNL     1     -48.997  31.495  24.946  1.00  0.00    -0.049 A 
ATOM      7  H   UNL     1     -48.807  29.718  23.751  1.00  0.00     0.066 H 
ATOM      8  C   UNL     1     -46.954  32.729  25.199  1.00  0.00     0.076 A 
ATOM      9  C   UNL     1     -48.328  32.601  25.474  1.00  0.00     0.001 A 
ATOM     10  H   UNL     1     -50.060  31.349  25.116  1.00  0.00     0.063 H 
ATOM     11  C   UNL     1     -46.272  33.826  25.714  1.00  0.00     0.007 A 
ATOM     12  C   UNL     1     -48.986  33.565  26.252  1.00  0.00    -0.049 A 
ATOM     13  H   UNL     1     -45.214  33.889  25.482  1.00  0.00     0.069 H 
ATOM     14  C   UNL     1     -48.277  34.654  26.755  1.00  0.00    -0.019 A 
ATOM     15  H   UNL     1     -50.047  33.475  26.469  1.00  0.00     0.063 H 
ATOM     16  H   UNL     1     -48.791  35.399  27.357  1.00  0.00     0.066 H 
BRANCH   3  17
ATOM     17  N   UNL     1     -46.260  29.818  23.167  1.00  0.00    -0.370 N 
ATOM     18  H   UNL     1     -45.727  29.182  23.753  1.00  0.00     0.162 HD
BRANCH  17  19
ATOM     19  C   UNL     1     -45.464  30.355  22.065  1.00  0.00     0.013 C 
ATOM     20  H   UNL     1     -44.719  31.031  22.500  1.00  0.00     0.049 H 
ATOM     21  H   UNL     1     -44.896  29.571  21.549  1.00  0.00     0.049 H 
BRANCH  19  22
ATOM     22  C   UNL     1     -46.316  31.151  21.088  1.00  0.00    -0.048 C 
ATOM     23  H   UNL     1     -47.025  31.781  21.633  1.00  0.00     0.025 H 
ATOM     24  H   UNL     1     -46.886  30.485  20.432  1.00  0.00     0.025 H 
ATOM     25  H   UNL     1     -45.705  31.802  20.454  1.00  0.00     0.025 H 
ENDBRANCH  19  22
ENDBRANCH  17  19
ENDBRANCH   3  17
ENDBRANCH   1   2
BRANCH   1  26
ATOM     26  C   UNL     1     -46.874  37.185  26.716  1.00  0.00     0.117 C 
ATOM     27  H   UNL     1     -46.266  37.713  25.971  1.00  0.00     0.073 H 
ATOM     28  H   UNL     1     -47.823  37.005  26.197  1.00  0.00     0.073 H 
BRANCH  26  29
ATOM     29  C   UNL     1     -47.133  38.046  27.959  1.00  0.00     0.123 C 
ATOM     30  O   UNL     1     -45.896  38.709  28.314  1.00  0.00    -0.345 OA
ATOM     31  C   UNL     1     -48.166  39.145  27.726  1.00  0.00     0.114 C 
ATOM     32  H   UNL     1     -47.426  37.417  28.805  1.00  0.00     0.067 H 
ATOM     33  C   UNL     1     -46.034  40.119  28.023  1.00  0.00     0.164 C 
ATOM     34  C   UNL     1     -47.319  40.287  27.199  1.00  0.00     0.128 C 
ATOM     35  H   UNL     1     -48.988  38.870  27.062  1.00  0.00     0.066 H 
ATOM     36  H   UNL     1     -46.071  40.665  28.973  1.00  0.00     0.088 H 
ATOM     37  H   UNL     1     -47.130  40.159  26.127  1.00  0.00     0.068 H 
BRANCH  31  38
ATOM     38  O   UNL     1     -48.749  39.545  28.977  1.00  0.00    -0.387 OA
ATOM     39  H   UNL     1     -48.018  39.486  29.628  1.00  0.00     0.211 HD
ENDBRANCH  31  38
BRANCH  33  40
ATOM     40  N   UNL     1     -44.844  40.591  27.317  1.00  0.00    -0.303 N 
ATOM     41  C   UNL     1     -44.733  40.864  25.973  1.00  0.00     0.009 A 
ATOM     42  C   UNL     1     -43.628  40.810  27.926  1.00  0.00     0.147 A 
ATOM     43  C   UNL     1     -43.435  41.257  25.723  1.00  0.00    -0.031 A 
ATOM     44  H   UNL     1     -45.575  40.740  25.303  1.00  0.00     0.082 H 
ATOM     45  C   UNL     1     -42.728  41.225  26.955  1.00  0.00     0.061 A 
ATOM     46  N   UNL     1     -43.373  40.652  29.239  1.00  0.00    -0.218 NA
ATOM     47  H   UNL     1     -43.035  41.524  24.753  1.00  0.00     0.065 H 
ATOM     48  C   UNL     1     -41.421  41.496  27.381  1.00  0.00     0.136 A 
ATOM     49  C   UNL     1     -42.085  40.931  29.522  1.00  0.00     0.120 A 
ATOM     50  N   UNL     1     -41.116  41.345  28.685  1.00  0.00    -0.219 NA
ATOM     51  H   UNL     1     -41.790  40.812  30.562  1.00  0.00     0.106 H 
BRANCH  48  52
ATOM     52  N   UNL     1     -40.410  41.929  26.537  1.00  0.00    -0.383 N 
ATOM     53  H   UNL     1     -40.439  42.911  26.298  1.00  0.00     0.158 HD
ATOM     54  H   UNL     1     -39.513  41.557  26.822  1.00  0.00     0.158 HD
ENDBRANCH  48  52
ENDBRANCH  33  40
BRANCH  34  55
ATOM     55  O   UNL     1     -47.995  41.531  27.400  1.00  0.00    -0.386 OA
ATOM     56  H   UNL     1     -48.384  41.486  28.302  1.00  0.00     0.211 HD
ENDBRANCH  34  55
ENDBRANCH  26  29
ENDBRANCH   1  26
TORSDOF 10
ENDMDL
MODEL 5
REMARK VINA RESULT:      -8.9      1.701      2.570
REMARK SMILES CCNc1ccc2ccc(OC[C@H]3O[C@@H](n4ccc5c(N)ncnc54)[C@H](O)[C@@H]3O)cc2n1
REMARK SMILES IDX 11 1 10 2 4 3 5 4 32 5 6 6 31 8 7 9 30 11 8 12 9 14 3 17
REMARK SMILES IDX 2 19 1 22 12 26 13 29 14 30 28 31 15 33 26 34 29 38 16 40
REMARK SMILES IDX 17 41 25 42 18 43 19 45 24 46 20 48 23 49 22 50 21 52 27 55
REMARK H PARENT 5 7 6 10 30 13 8 15 9 16 3 18 2 20 2 21 1 23 1 24 1 25 12 27
REMARK H PARENT 12 28 13 32 28 35 15 36 26 37 29 39 17 44 18 47 23 51 21 53
REMARK H PARENT 21 54 27 56
REMARK Flexibility Score: inf
ROOT
ATOM      1  O   UNL     1     -48.463  35.041  27.104  1.00  0.00    -0.491 OA
ENDROOT
BRANCH   1   2
ATOM      2  C   UNL     1     -48.059  33.997  26.322  1.00  0.00     0.121 A 
ATOM      3  C   UNL     1     -48.345  29.600  24.516  1.00  0.00     0.126 A 
ATOM      4  C   UNL     1     -47.199  29.788  23.752  1.00  0.00    -0.019 A 
ATOM      5  N   UNL     1     -48.813  30.566  25.333  1.00  0.00    -0.231 NA
ATOM      6  C   UNL     1     -46.534  31.009  23.804  1.00  0.00    -0.049 A 
ATOM      7  H   UNL     1     -46.817  28.988  23.127  1.00  0.00     0.066 H 
ATOM      8  C   UNL     1     -48.177  31.751  25.389  1.00  0.00     0.076 A 
ATOM      9  C   UNL     1     -47.021  32.021  24.632  1.00  0.00     0.001 A 
ATOM     10  H   UNL     1     -45.639  31.157  23.206  1.00  0.00     0.063 H 
ATOM     11  C   UNL     1     -48.675  32.747  26.222  1.00  0.00     0.007 A 
ATOM     12  C   UNL     1     -46.394  33.273  24.725  1.00  0.00    -0.049 A 
ATOM     13  H   UNL     1     -49.567  32.502  26.788  1.00  0.00     0.069 H 
ATOM     14  C   UNL     1     -46.916  34.252  25.567  1.00  0.00    -0.019 A 
ATOM     15  H   UNL     1     -45.500  33.491  24.144  1.00  0.00     0.063 H 
ATOM     16  H   UNL     1     -46.425  35.220  25.636  1.00  0.00     0.066 H 
BRANCH   3  17
ATOM     17  N   UNL     1     -48.972  28.346  24.463  1.00  0.00    -0.370 N 
ATOM     18  H   UNL     1     -49.925  28.451  24.129  1.00  0.00     0.162 HD
BRANCH  17  19
ATOM     19  C   UNL     1     -48.895  27.527  25.671  1.00  0.00     0.013 C 
ATOM     20  H   UNL     1     -48.606  28.189  26.496  1.00  0.00     0.049 H 
ATOM     21  H   UNL     1     -49.870  27.108  25.947  1.00  0.00     0.049 H 
BRANCH  19  22
ATOM     22  C   UNL     1     -47.843  26.436  25.548  1.00  0.00    -0.048 C 
ATOM     23  H   UNL     1     -46.915  26.850  25.143  1.00  0.00     0.025 H 
ATOM     24  H   UNL     1     -48.181  25.639  24.877  1.00  0.00     0.025 H 
ATOM     25  H   UNL     1     -47.614  25.981  26.517  1.00  0.00     0.025 H 
ENDBRANCH  19  22
ENDBRANCH  17  19
ENDBRANCH   3  17
ENDBRANCH   1   2
BRANCH   1  26
ATOM     26  C   UNL     1     -47.629  36.193  27.197  1.00  0.00     0.117 C 
ATOM     27  H   UNL     1     -47.277  36.538  26.217  1.00  0.00     0.073 H 
ATOM     28  H   UNL     1     -48.268  37.012  27.548  1.00  0.00     0.073 H 
BRANCH  26  29
ATOM     29  C   UNL     1     -46.470  35.997  28.184  1.00  0.00     0.123 C 
ATOM     30  O   UNL     1     -45.354  36.801  27.734  1.00  0.00    -0.345 OA
ATOM     31  C   UNL     1     -46.800  36.461  29.600  1.00  0.00     0.114 C 
ATOM     32  H   UNL     1     -46.144  34.952  28.189  1.00  0.00     0.067 H 
ATOM     33  C   UNL     1     -45.186  37.904  28.656  1.00  0.00     0.164 C 
ATOM     34  C   UNL     1     -46.425  37.930  29.562  1.00  0.00     0.128 C 
ATOM     35  H   UNL     1     -47.831  36.283  29.914  1.00  0.00     0.066 H 
ATOM     36  H   UNL     1     -44.258  37.745  29.219  1.00  0.00     0.088 H 
ATOM     37  H   UNL     1     -47.236  38.519  29.119  1.00  0.00     0.068 H 
BRANCH  31  38
ATOM     38  O   UNL     1     -45.949  35.794  30.547  1.00  0.00    -0.387 OA
ATOM     39  H   UNL     1     -45.040  36.077  30.314  1.00  0.00     0.211 HD
ENDBRANCH  31  38
BRANCH  33  40
ATOM     40  N   UNL     1     -45.009  39.146  27.905  1.00  0.00    -0.303 N 
ATOM     41  C   UNL     1     -43.820  39.759  27.588  1.00  0.00     0.009 A 
ATOM     42  C   UNL     1     -46.053  39.902  27.420  1.00  0.00     0.147 A 
ATOM     43  C   UNL     1     -44.107  40.918  26.898  1.00  0.00    -0.031 A 
ATOM     44  H   UNL     1     -42.870  39.336  27.892  1.00  0.00     0.082 H 
ATOM     45  C   UNL     1     -45.520  41.017  26.787  1.00  0.00     0.061 A 
ATOM     46  N   UNL     1     -47.360  39.598  27.538  1.00  0.00    -0.218 NA
ATOM     47  H   UNL     1     -43.377  41.625  26.526  1.00  0.00     0.065 H 
ATOM     48  C   UNL     1     -46.432  41.920  26.225  1.00  0.00     0.136 A 
ATOM     49  C   UNL     1     -48.134  40.545  26.971  1.00  0.00     0.120 A 
ATOM     50  N   UNL     1     -47.751  41.662  26.326  1.00  0.00    -0.219 NA
ATOM     51  H   UNL     1     -49.207  40.384  27.037  1.00  0.00     0.106 H 
BRANCH  48  52
ATOM     52  N   UNL     1     -46.059  43.073  25.552  1.00  0.00    -0.383 N 
ATOM     53  H   UNL     1     -46.791  43.512  25.010  1.00  0.00     0.158 HD
ATOM     54  H   UNL     1     -45.507  43.680  26.146  1.00  0.00     0.158 HD
ENDBRANCH  48  52
ENDBRANCH  33  40
BRANCH  34  55
ATOM     55  O   UNL     1     -46.182  38.407  30.887  1.00  0.00    -0.386 OA
ATOM     56  H   UNL     1     -46.357  39.374  30.864  1.00  0.00     0.211 HD
ENDBRANCH  34  55
ENDBRANCH  26  29
ENDBRANCH   1  26
TORSDOF 10
ENDMDL
MODEL 6
REMARK VINA RESULT:      -8.9      3.383     11.083
REMARK SMILES CCNc1ccc2ccc(OC[C@H]3O[C@@H](n4ccc5c(N)ncnc54)[C@H](O)[C@@H]3O)cc2n1
REMARK SMILES IDX 11 1 10 2 4 3 5 4 32 5 6 6 31 8 7 9 30 11 8 12 9 14 3 17
REMARK SMILES IDX 2 19 1 22 12 26 13 29 14 30 28 31 15 33 26 34 29 38 16 40
REMARK SMILES IDX 17 41 25 42 18 43 19 45 24 46 20 48 23 49 22 50 21 52 27 55
REMARK H PARENT 5 7 6 10 30 13 8 15 9 16 3 18 2 20 2 21 1 23 1 24 1 25 12 27
REMARK H PARENT 12 28 13 32 28 35 15 36 26 37 29 39 17 44 18 47 23 51 21 53
REMARK H PARENT 21 54 27 56
REMARK Flexibility Score: inf
ROOT
ATOM      1  O   UNL     1     -48.565  32.990  26.357  1.00  0.00    -0.491 OA
ENDROOT
BRANCH   1   2
ATOM      2  C   UNL     1     -47.823  34.052  26.791  1.00  0.00     0.121 A 
ATOM      3  C   UNL     1     -47.097  38.603  27.989  1.00  0.00     0.126 A 
ATOM      4  C   UNL     1     -45.762  38.359  28.293  1.00  0.00    -0.019 A 
ATOM      5  N   UNL     1     -47.905  37.623  27.536  1.00  0.00    -0.231 NA
ATOM      6  C   UNL     1     -45.252  37.072  28.157  1.00  0.00    -0.049 A 
ATOM      7  H   UNL     1     -45.117  39.166  28.623  1.00  0.00     0.066 H 
ATOM      8  C   UNL     1     -47.422  36.374  27.403  1.00  0.00     0.076 A 
ATOM      9  C   UNL     1     -46.087  36.047  27.706  1.00  0.00     0.001 A 
ATOM     10  H   UNL     1     -44.210  36.881  28.396  1.00  0.00     0.063 H 
ATOM     11  C   UNL     1     -48.267  35.367  26.949  1.00  0.00     0.007 A 
ATOM     12  C   UNL     1     -45.630  34.730  27.552  1.00  0.00    -0.049 A 
ATOM     13  H   UNL     1     -49.288  35.657  26.727  1.00  0.00     0.069 H 
ATOM     14  C   UNL     1     -46.499  33.741  27.097  1.00  0.00    -0.019 A 
ATOM     15  H   UNL     1     -44.600  34.468  27.784  1.00  0.00     0.063 H 
ATOM     16  H   UNL     1     -46.139  32.722  26.978  1.00  0.00     0.066 H 
BRANCH   3  17
ATOM     17  N   UNL     1     -47.568  39.919  28.107  1.00  0.00    -0.370 N 
ATOM     18  H   UNL     1     -47.068  40.398  28.850  1.00  0.00     0.162 HD
BRANCH  17  19
ATOM     19  C   UNL     1     -49.015  40.086  28.214  1.00  0.00     0.013 C 
ATOM     20  H   UNL     1     -49.382  40.398  27.229  1.00  0.00     0.049 H 
ATOM     21  H   UNL     1     -49.523  39.140  28.439  1.00  0.00     0.049 H 
BRANCH  19  22
ATOM     22  C   UNL     1     -49.387  41.163  29.222  1.00  0.00    -0.048 C 
ATOM     23  H   UNL     1     -50.168  41.810  28.812  1.00  0.00     0.025 H 
ATOM     24  H   UNL     1     -48.521  41.787  29.466  1.00  0.00     0.025 H 
ATOM     25  H   UNL     1     -49.762  40.733  30.157  1.00  0.00     0.025 H 
ENDBRANCH  19  22
ENDBRANCH  17  19
ENDBRANCH   3  17
ENDBRANCH   1   2
BRANCH   1  26
ATOM     26  C   UNL     1     -47.890  31.828  25.885  1.00  0.00     0.117 C 
ATOM     27  H   UNL     1     -46.866  31.749  26.272  1.00  0.00     0.073 H 
ATOM     28  H   UNL     1     -48.404  30.968  26.332  1.00  0.00     0.073 H 
BRANCH  26  29
ATOM     29  C   UNL     1     -47.935  31.705  24.356  1.00  0.00     0.123 C 
ATOM     30  O   UNL     1     -47.044  30.634  23.963  1.00  0.00    -0.345 OA
ATOM     31  C   UNL     1     -49.318  31.342  23.821  1.00  0.00     0.114 C 
ATOM     32  H   UNL     1     -47.573  32.626  23.888  1.00  0.00     0.067 H 
ATOM     33  C   UNL     1     -47.845  29.524  23.495  1.00  0.00     0.164 C 
ATOM     34  C   UNL     1     -49.302  29.826  23.871  1.00  0.00     0.128 C 
ATOM     35  H   UNL     1     -50.154  31.787  24.366  1.00  0.00     0.066 H 
ATOM     36  H   UNL     1     -47.703  29.429  22.411  1.00  0.00     0.088 H 
ATOM     37  H   UNL     1     -49.539  29.475  24.882  1.00  0.00     0.068 H 
BRANCH  31  38
ATOM     38  O   UNL     1     -49.439  31.755  22.451  1.00  0.00    -0.387 OA
ATOM     39  H   UNL     1     -48.622  32.263  22.265  1.00  0.00     0.211 HD
ENDBRANCH  31  38
BRANCH  33  40
ATOM     40  N   UNL     1     -47.354  28.282  24.089  1.00  0.00    -0.303 N 
ATOM     41  C   UNL     1     -46.147  27.669  23.848  1.00  0.00     0.009 A 
ATOM     42  C   UNL     1     -48.076  27.524  24.986  1.00  0.00     0.147 A 
ATOM     43  C   UNL     1     -46.099  26.510  24.593  1.00  0.00    -0.031 A 
ATOM     44  H   UNL     1     -45.430  28.093  23.155  1.00  0.00     0.082 H 
ATOM     45  C   UNL     1     -47.317  26.410  25.317  1.00  0.00     0.061 A 
ATOM     46  N   UNL     1     -49.300  27.827  25.457  1.00  0.00    -0.218 NA
ATOM     47  H   UNL     1     -45.279  25.803  24.603  1.00  0.00     0.065 H 
ATOM     48  C   UNL     1     -47.887  25.506  26.223  1.00  0.00     0.136 A 
ATOM     49  C   UNL     1     -49.744  26.880  26.307  1.00  0.00     0.120 A 
ATOM     50  N   UNL     1     -49.115  25.763  26.715  1.00  0.00    -0.219 NA
ATOM     51  H   UNL     1     -50.736  27.040  26.722  1.00  0.00     0.106 H 
BRANCH  48  52
ATOM     52  N   UNL     1     -47.254  24.353  26.662  1.00  0.00    -0.383 N 
ATOM     53  H   UNL     1     -47.853  23.680  27.119  1.00  0.00     0.158 HD
ATOM     54  H   UNL     1     -46.621  23.994  25.957  1.00  0.00     0.158 HD
ENDBRANCH  48  52
ENDBRANCH  33  40
BRANCH  34  55
ATOM     55  O   UNL     1     -50.272  29.297  22.963  1.00  0.00    -0.386 OA
ATOM     56  H   UNL     1     -49.763  28.868  22.240  1.00  0.00     0.211 HD
ENDBRANCH  34  55
ENDBRANCH  26  29
ENDBRANCH   1  26
TORSDOF 10
ENDMDL
MODEL 7
REMARK VINA RESULT:      -8.8      1.952     10.216
REMARK SMILES CCNc1ccc2ccc(OC[C@H]3O[C@@H](n4ccc5c(N)ncnc54)[C@H](O)[C@@H]3O)cc2n1
REMARK SMILES IDX 11 1 10 2 4 3 5 4 32 5 6 6 31 8 7 9 30 11 8 12 9 14 3 17
REMARK SMILES IDX 2 19 1 22 12 26 13 29 14 30 28 31 15 33 26 34 29 38 16 40
REMARK SMILES IDX 17 41 25 42 18 43 19 45 24 46 20 48 23 49 22 50 21 52 27 55
REMARK H PARENT 5 7 6 10 30 13 8 15 9 16 3 18 2 20 2 21 1 23 1 24 1 25 12 27
REMARK H PARENT 12 28 13 32 28 35 15 36 26 37 29 39 17 44 18 47 23 51 21 53
REMARK H PARENT 21 54 27 56
REMARK Flexibility Score: inf
ROOT
ATOM      1  O   UNL     1     -46.919  38.357  26.892  1.00  0.00    -0.491 OA
ENDROOT
BRANCH   1   2
ATOM      2  C   UNL     1     -45.826  39.089  27.261  1.00  0.00     0.121 A 
ATOM      3  C   UNL     1     -42.439  42.381  26.662  1.00  0.00     0.126 A 
ATOM      4  C   UNL     1     -41.894  42.116  27.913  1.00  0.00    -0.019 A 
ATOM      5  N   UNL     1     -43.507  41.699  26.201  1.00  0.00    -0.231 NA
ATOM      6  C   UNL     1     -42.477  41.148  28.723  1.00  0.00    -0.049 A 
ATOM      7  H   UNL     1     -41.013  42.650  28.254  1.00  0.00     0.066 H 
ATOM      8  C   UNL     1     -44.079  40.761  26.978  1.00  0.00     0.076 A 
ATOM      9  C   UNL     1     -43.594  40.449  28.262  1.00  0.00     0.001 A 
ATOM     10  H   UNL     1     -42.052  40.941  29.702  1.00  0.00     0.063 H 
ATOM     11  C   UNL     1     -45.190  40.072  26.501  1.00  0.00     0.007 A 
ATOM     12  C   UNL     1     -44.226  39.463  29.035  1.00  0.00    -0.049 A 
ATOM     13  H   UNL     1     -45.535  40.342  25.509  1.00  0.00     0.069 H 
ATOM     14  C   UNL     1     -45.337  38.790  28.532  1.00  0.00    -0.019 A 
ATOM     15  H   UNL     1     -43.858  39.215  30.028  1.00  0.00     0.063 H 
ATOM     16  H   UNL     1     -45.823  38.026  29.134  1.00  0.00     0.066 H 
BRANCH   3  17
ATOM     17  N   UNL     1     -41.805  43.342  25.859  1.00  0.00    -0.370 N 
ATOM     18  H   UNL     1     -41.199  43.922  26.431  1.00  0.00     0.162 HD
BRANCH  17  19
ATOM     19  C   UNL     1     -42.669  44.133  24.986  1.00  0.00     0.013 C 
ATOM     20  H   UNL     1     -42.017  44.727  24.334  1.00  0.00     0.049 H 
ATOM     21  H   UNL     1     -43.269  43.502  24.319  1.00  0.00     0.049 H 
BRANCH  19  22
ATOM     22  C   UNL     1     -43.548  45.090  25.776  1.00  0.00    -0.048 C 
ATOM     23  H   UNL     1     -43.103  45.290  26.755  1.00  0.00     0.025 H 
ATOM     24  H   UNL     1     -44.545  44.665  25.936  1.00  0.00     0.025 H 
ATOM     25  H   UNL     1     -43.673  46.048  25.261  1.00  0.00     0.025 H 
ENDBRANCH  19  22
ENDBRANCH  17  19
ENDBRANCH   3  17
ENDBRANCH   1   2
BRANCH   1  26
ATOM     26  C   UNL     1     -46.741  36.989  26.536  1.00  0.00     0.117 C 
ATOM     27  H   UNL     1     -47.129  36.761  25.535  1.00  0.00     0.073 H 
ATOM     28  H   UNL     1     -45.660  36.832  26.438  1.00  0.00     0.073 H 
BRANCH  26  29
ATOM     29  C   UNL     1     -47.298  36.031  27.598  1.00  0.00     0.123 C 
ATOM     30  O   UNL     1     -47.925  34.918  26.917  1.00  0.00    -0.345 OA
ATOM     31  C   UNL     1     -46.219  35.439  28.500  1.00  0.00     0.114 C 
ATOM     32  H   UNL     1     -48.067  36.529  28.196  1.00  0.00     0.067 H 
ATOM     33  C   UNL     1     -47.108  33.741  27.119  1.00  0.00     0.164 C 
ATOM     34  C   UNL     1     -45.779  34.211  27.726  1.00  0.00     0.128 C 
ATOM     35  H   UNL     1     -45.398  36.118  28.742  1.00  0.00     0.066 H 
ATOM     36  H   UNL     1     -47.651  33.055  27.781  1.00  0.00     0.088 H 
ATOM     37  H   UNL     1     -45.057  34.489  26.949  1.00  0.00     0.068 H 
BRANCH  31  38
ATOM     38  O   UNL     1     -46.797  35.014  29.745  1.00  0.00    -0.387 OA
ATOM     39  H   UNL     1     -46.157  34.372  30.116  1.00  0.00     0.211 HD
ENDBRANCH  31  38
BRANCH  33  40
ATOM     40  N   UNL     1     -46.933  33.043  25.847  1.00  0.00    -0.303 N 
ATOM     41  C   UNL     1     -46.173  33.451  24.776  1.00  0.00     0.009 A 
ATOM     42  C   UNL     1     -47.550  31.851  25.537  1.00  0.00     0.147 A 
ATOM     43  C   UNL     1     -46.308  32.515  23.774  1.00  0.00    -0.031 A 
ATOM     44  H   UNL     1     -45.614  34.379  24.805  1.00  0.00     0.082 H 
ATOM     45  C   UNL     1     -47.179  31.497  24.246  1.00  0.00     0.061 A 
ATOM     46  N   UNL     1     -48.363  31.156  26.354  1.00  0.00    -0.218 NA
ATOM     47  H   UNL     1     -45.840  32.565  22.799  1.00  0.00     0.065 H 
ATOM     48  C   UNL     1     -47.713  30.303  23.742  1.00  0.00     0.136 A 
ATOM     49  C   UNL     1     -48.819  30.038  25.754  1.00  0.00     0.120 A 
ATOM     50  N   UNL     1     -48.538  29.578  24.522  1.00  0.00    -0.219 NA
ATOM     51  H   UNL     1     -49.498  29.425  26.342  1.00  0.00     0.106 H 
BRANCH  48  52
ATOM     52  N   UNL     1     -47.431  29.808  22.478  1.00  0.00    -0.383 N 
ATOM     53  H   UNL     1     -47.036  30.476  21.831  1.00  0.00     0.158 HD
ATOM     54  H   UNL     1     -46.977  28.904  22.534  1.00  0.00     0.158 HD
ENDBRANCH  48  52
ENDBRANCH  33  40
BRANCH  34  55
ATOM     55  O   UNL     1     -45.163  33.271  28.609  1.00  0.00    -0.386 OA
ATOM     56  H   UNL     1     -45.290  32.387  28.198  1.00  0.00     0.211 HD
ENDBRANCH  34  55
ENDBRANCH  26  29
ENDBRANCH   1  26
TORSDOF 10
ENDMDL
