MODEL 1
REMARK VINA RESULT:     -10.1      0.000      0.000
REMARK SMILES CNc1ccc2ccc(OCc3cncc(-c4c(C)[nH]c5c(N)ncnc45)c3)cc2n1
REMARK SMILES IDX 11 1 10 4 9 5 3 6 4 7 31 8 5 9 30 11 6 12 29 14 7 15 8 17
REMARK SMILES IDX 2 20 1 22 12 26 13 27 28 28 14 29 16 31 15 33 17 35 18 36
REMARK SMILES IDX 27 37 20 38 21 39 26 40 22 42 25 43 24 44 19 46 23 50
REMARK H PARENT 11 2 11 3 4 10 5 13 29 16 7 18 8 19 2 21 1 23 1 24 1 25 13 30
REMARK H PARENT 28 32 15 34 20 41 25 45 19 47 19 48 19 49 23 51 23 52
REMARK Flexibility Score: inf
ROOT
ATOM      1  C   UNL     1     -45.927  34.569  27.344  1.00  0.00     0.115 C 
ATOM      2  H   UNL     1     -45.953  33.607  27.872  1.00  0.00     0.076 H 
ATOM      3  H   UNL     1     -45.012  34.556  26.738  1.00  0.00     0.076 H 
ENDROOT
BRANCH   1   4
ATOM      4  O   UNL     1     -47.020  34.678  26.428  1.00  0.00    -0.489 OA
BRANCH   4   5
ATOM      5  C   UNL     1     -47.497  33.537  25.844  1.00  0.00     0.122 A 
ATOM      6  C   UNL     1     -46.385  30.124  22.718  1.00  0.00     0.126 A 
ATOM      7  C   UNL     1     -47.606  29.490  22.891  1.00  0.00    -0.019 A 
ATOM      8  N   UNL     1     -46.051  31.243  23.388  1.00  0.00    -0.231 NA
ATOM      9  C   UNL     1     -48.529  30.038  23.774  1.00  0.00    -0.049 A 
ATOM     10  H   UNL     1     -47.834  28.572  22.363  1.00  0.00     0.066 H 
ATOM     11  C   UNL     1     -46.942  31.779  24.245  1.00  0.00     0.076 A 
ATOM     12  C   UNL     1     -48.207  31.206  24.470  1.00  0.00     0.001 A 
ATOM     13  H   UNL     1     -49.487  29.548  23.917  1.00  0.00     0.063 H 
ATOM     14  C   UNL     1     -46.616  32.937  24.935  1.00  0.00     0.007 A 
ATOM     15  C   UNL     1     -49.103  31.803  25.373  1.00  0.00    -0.049 A 
ATOM     16  H   UNL     1     -45.641  33.388  24.763  1.00  0.00     0.069 H 
ATOM     17  C   UNL     1     -48.749  32.967  26.055  1.00  0.00    -0.019 A 
ATOM     18  H   UNL     1     -50.086  31.368  25.544  1.00  0.00     0.063 H 
ATOM     19  H   UNL     1     -49.479  33.405  26.727  1.00  0.00     0.066 H 
BRANCH   6  20
ATOM     20  N   UNL     1     -45.403  29.625  21.858  1.00  0.00    -0.373 N 
ATOM     21  H   UNL     1     -45.939  29.278  21.061  1.00  0.00     0.161 HD
BRANCH  20  22
ATOM     22  C   UNL     1     -44.593  28.570  22.442  1.00  0.00     0.005 C 
ATOM     23  H   UNL     1     -43.528  28.712  22.231  1.00  0.00     0.045 H 
ATOM     24  H   UNL     1     -44.742  28.499  23.526  1.00  0.00     0.045 H 
ATOM     25  H   UNL     1     -44.885  27.611  22.002  1.00  0.00     0.045 H 
ENDBRANCH  20  22
ENDBRANCH   6  20
ENDBRANCH   4   5
ENDBRANCH   1   4
BRANCH   1  26
ATOM     26  C   UNL     1     -45.829  35.738  28.286  1.00  0.00     0.008 A 
ATOM     27  C   UNL     1     -46.247  35.649  29.609  1.00  0.00     0.033 A 
ATOM     28  C   UNL     1     -45.352  36.977  27.842  1.00  0.00    -0.045 A 
ATOM     29  N   UNL     1     -46.195  36.674  30.492  1.00  0.00    -0.264 NA
ATOM     30  H   UNL     1     -46.643  34.721  30.015  1.00  0.00     0.084 H 
ATOM     31  C   UNL     1     -45.280  38.061  28.721  1.00  0.00     0.004 A 
ATOM     32  H   UNL     1     -45.026  37.097  26.810  1.00  0.00     0.063 H 
ATOM     33  C   UNL     1     -45.702  37.848  30.028  1.00  0.00     0.035 A 
ATOM     34  H   UNL     1     -45.647  38.635  30.775  1.00  0.00     0.085 H 
BRANCH  31  35
ATOM     35  C   UNL     1     -44.757  39.343  28.278  1.00  0.00     0.030 A 
ATOM     36  C   UNL     1     -45.249  40.064  27.195  1.00  0.00     0.022 A 
ATOM     37  C   UNL     1     -43.645  40.070  28.798  1.00  0.00     0.102 A 
ATOM     38  N   UNL     1     -44.489  41.209  27.090  1.00  0.00    -0.354 N 
ATOM     39  C   UNL     1     -43.518  41.234  28.056  1.00  0.00     0.108 A 
ATOM     40  N   UNL     1     -42.812  39.768  29.820  1.00  0.00    -0.234 NA
ATOM     41  H   UNL     1     -44.595  41.917  26.376  1.00  0.00     0.166 HD
ATOM     42  C   UNL     1     -42.518  42.146  28.351  1.00  0.00     0.151 A 
ATOM     43  C   UNL     1     -41.870  40.699  30.025  1.00  0.00     0.118 A 
ATOM     44  N   UNL     1     -41.683  41.854  29.357  1.00  0.00    -0.218 NA
ATOM     45  H   UNL     1     -41.172  40.501  30.832  1.00  0.00     0.106 H 
BRANCH  36  46
ATOM     46  C   UNL     1     -46.343  39.787  26.226  1.00  0.00    -0.024 C 
ATOM     47  H   UNL     1     -46.069  40.109  25.215  1.00  0.00     0.030 H 
ATOM     48  H   UNL     1     -46.565  38.716  26.181  1.00  0.00     0.030 H 
ATOM     49  H   UNL     1     -47.253  40.321  26.517  1.00  0.00     0.030 H 
ENDBRANCH  36  46
BRANCH  42  50
ATOM     50  N   UNL     1     -42.342  43.344  27.675  1.00  0.00    -0.382 N 
ATOM     51  H   UNL     1     -42.139  44.074  28.352  1.00  0.00     0.158 HD
ATOM     52  H   UNL     1     -43.089  43.572  27.034  1.00  0.00     0.158 HD
ENDBRANCH  42  50
ENDBRANCH  31  35
ENDBRANCH   1  26
TORSDOF 8
ENDMDL
MODEL 2
REMARK VINA RESULT:      -9.7      1.480      2.687
REMARK SMILES CNc1ccc2ccc(OCc3cncc(-c4c(C)[nH]c5c(N)ncnc45)c3)cc2n1
REMARK SMILES IDX 11 1 10 4 9 5 3 6 4 7 31 8 5 9 30 11 6 12 29 14 7 15 8 17
REMARK SMILES IDX 2 20 1 22 12 26 13 27 28 28 14 29 16 31 15 33 17 35 18 36
REMARK SMILES IDX 27 37 20 38 21 39 26 40 22 42 25 43 24 44 19 46 23 50
REMARK H PARENT 11 2 11 3 4 10 5 13 29 16 7 18 8 19 2 21 1 23 1 24 1 25 13 30
REMARK H PARENT 28 32 15 34 20 41 25 45 19 47 19 48 19 49 23 51 23 52
REMARK Flexibility Score: inf
ROOT
ATOM      1  C   UNL     1     -46.649  36.790  27.163  1.00  0.00     0.115 C 
ATOM      2  H   UNL     1     -47.030  37.389  26.326  1.00  0.00     0.076 H 
ATOM      3  H   UNL     1     -47.525  36.522  27.766  1.00  0.00     0.076 H 
ENDROOT
BRANCH   1   4
ATOM      4  O   UNL     1     -46.082  35.563  26.698  1.00  0.00    -0.489 OA
BRANCH   4   5
ATOM      5  C   UNL     1     -46.928  34.554  26.329  1.00  0.00     0.122 A 
ATOM      6  C   UNL     1     -47.155  30.522  23.808  1.00  0.00     0.126 A 
ATOM      7  C   UNL     1     -48.495  30.340  24.116  1.00  0.00    -0.019 A 
ATOM      8  N   UNL     1     -46.445  31.569  24.269  1.00  0.00    -0.231 NA
ATOM      9  C   UNL     1     -49.137  31.281  24.913  1.00  0.00    -0.049 A 
ATOM     10  H   UNL     1     -49.032  29.470  23.758  1.00  0.00     0.066 H 
ATOM     11  C   UNL     1     -47.061  32.484  25.042  1.00  0.00     0.076 A 
ATOM     12  C   UNL     1     -48.420  32.381  25.392  1.00  0.00     0.001 A 
ATOM     13  H   UNL     1     -50.185  31.146  25.160  1.00  0.00     0.063 H 
ATOM     14  C   UNL     1     -46.345  33.574  25.516  1.00  0.00     0.007 A 
ATOM     15  C   UNL     1     -49.019  33.362  26.199  1.00  0.00    -0.049 A 
ATOM     16  H   UNL     1     -45.295  33.661  25.246  1.00  0.00     0.069 H 
ATOM     17  C   UNL     1     -48.274  34.447  26.664  1.00  0.00    -0.019 A 
ATOM     18  H   UNL     1     -50.072  33.291  26.465  1.00  0.00     0.063 H 
ATOM     19  H   UNL     1     -48.783  35.191  27.267  1.00  0.00     0.066 H 
BRANCH   6  20
ATOM     20  N   UNL     1     -46.442  29.612  23.024  1.00  0.00    -0.373 N 
ATOM     21  H   UNL     1     -45.981  29.016  23.712  1.00  0.00     0.161 HD
BRANCH  20  22
ATOM     22  C   UNL     1     -45.473  30.234  22.138  1.00  0.00     0.005 C 
ATOM     23  H   UNL     1     -44.903  29.489  21.573  1.00  0.00     0.045 H 
ATOM     24  H   UNL     1     -45.952  30.931  21.440  1.00  0.00     0.045 H 
ATOM     25  H   UNL     1     -44.756  30.804  22.738  1.00  0.00     0.045 H 
ENDBRANCH  20  22
ENDBRANCH   6  20
ENDBRANCH   4   5
ENDBRANCH   1   4
BRANCH   1  26
ATOM     26  C   UNL     1     -45.716  37.572  28.047  1.00  0.00     0.008 A 
ATOM     27  C   UNL     1     -45.412  37.159  29.339  1.00  0.00     0.033 A 
ATOM     28  C   UNL     1     -45.154  38.777  27.607  1.00  0.00    -0.045 A 
ATOM     29  N   UNL     1     -44.593  37.833  30.179  1.00  0.00    -0.264 NA
ATOM     30  H   UNL     1     -45.827  36.241  29.750  1.00  0.00     0.084 H 
ATOM     31  C   UNL     1     -44.301  39.503  28.442  1.00  0.00     0.004 A 
ATOM     32  H   UNL     1     -45.374  39.147  26.607  1.00  0.00     0.063 H 
ATOM     33  C   UNL     1     -44.049  38.980  29.704  1.00  0.00     0.035 A 
ATOM     34  H   UNL     1     -43.373  39.473  30.397  1.00  0.00     0.085 H 
BRANCH  31  35
ATOM     35  C   UNL     1     -43.688  40.739  27.983  1.00  0.00     0.030 A 
ATOM     36  C   UNL     1     -42.536  41.298  28.527  1.00  0.00     0.022 A 
ATOM     37  C   UNL     1     -44.148  41.630  26.968  1.00  0.00     0.102 A 
ATOM     38  N   UNL     1     -42.282  42.463  27.837  1.00  0.00    -0.354 N 
ATOM     39  C   UNL     1     -43.243  42.677  26.884  1.00  0.00     0.108 A 
ATOM     40  N   UNL     1     -45.244  41.554  26.179  1.00  0.00    -0.234 NA
ATOM     41  H   UNL     1     -41.523  43.101  28.027  1.00  0.00     0.166 HD
ATOM     42  C   UNL     1     -43.434  43.694  25.963  1.00  0.00     0.151 A 
ATOM     43  C   UNL     1     -45.353  42.585  25.329  1.00  0.00     0.118 A 
ATOM     44  N   UNL     1     -44.520  43.632  25.180  1.00  0.00    -0.218 NA
ATOM     45  H   UNL     1     -46.220  42.574  24.676  1.00  0.00     0.106 H 
BRANCH  36  46
ATOM     46  C   UNL     1     -41.653  40.872  29.647  1.00  0.00    -0.024 C 
ATOM     47  H   UNL     1     -41.881  39.849  29.966  1.00  0.00     0.030 H 
ATOM     48  H   UNL     1     -40.601  40.896  29.346  1.00  0.00     0.030 H 
ATOM     49  H   UNL     1     -41.786  41.533  30.509  1.00  0.00     0.030 H 
ENDBRANCH  36  46
BRANCH  42  50
ATOM     50  N   UNL     1     -42.562  44.759  25.798  1.00  0.00    -0.382 N 
ATOM     51  H   UNL     1     -43.089  45.626  25.860  1.00  0.00     0.158 HD
ATOM     52  H   UNL     1     -41.976  44.692  24.979  1.00  0.00     0.158 HD
ENDBRANCH  42  50
ENDBRANCH  31  35
ENDBRANCH   1  26
TORSDOF 8
ENDMDL
MODEL 3
REMARK VINA RESULT:      -9.7      1.629     10.310
REMARK SMILES CNc1ccc2ccc(OCc3cncc(-c4c(C)[nH]c5c(N)ncnc45)c3)cc2n1
REMARK SMILES IDX 11 1 10 4 9 5 3 6 4 7 31 8 5 9 30 11 6 12 29 14 7 15 8 17
REMARK SMILES IDX 2 20 1 22 12 26 13 27 28 28 14 29 16 31 15 33 17 35 18 36
REMARK SMILES IDX 27 37 20 38 21 39 26 40 22 42 25 43 24 44 19 46 23 50
REMARK H PARENT 11 2 11 3 4 10 5 13 29 16 7 18 8 19 2 21 1 23 1 24 1 25 13 30
REMARK H PARENT 28 32 15 34 20 41 25 45 19 47 19 48 19 49 23 51 23 52
REMARK Flexibility Score: inf
ROOT
ATOM      1  C   UNL     1     -46.455  36.783  26.734  1.00  0.00     0.115 C 
ATOM      2  H   UNL     1     -47.117  37.180  25.954  1.00  0.00     0.076 H 
ATOM      3  H   UNL     1     -45.434  37.035  26.421  1.00  0.00     0.076 H 
ENDROOT
BRANCH   1   4
ATOM      4  O   UNL     1     -46.675  37.449  27.980  1.00  0.00    -0.489 OA
BRANCH   4   5
ATOM      5  C   UNL     1     -45.623  38.095  28.568  1.00  0.00     0.122 A 
ATOM      6  C   UNL     1     -42.591  41.719  27.990  1.00  0.00     0.126 A 
ATOM      7  C   UNL     1     -41.945  41.442  29.185  1.00  0.00    -0.019 A 
ATOM      8  N   UNL     1     -43.637  40.994  27.550  1.00  0.00    -0.231 NA
ATOM      9  C   UNL     1     -42.378  40.366  29.950  1.00  0.00    -0.049 A 
ATOM     10  H   UNL     1     -41.128  42.064  29.530  1.00  0.00     0.066 H 
ATOM     11  C   UNL     1     -44.062  39.950  28.287  1.00  0.00     0.076 A 
ATOM     12  C   UNL     1     -43.455  39.593  29.506  1.00  0.00     0.001 A 
ATOM     13  H   UNL     1     -41.880  40.142  30.888  1.00  0.00     0.063 H 
ATOM     14  C   UNL     1     -45.132  39.188  27.843  1.00  0.00     0.007 A 
ATOM     15  C   UNL     1     -43.933  38.494  30.239  1.00  0.00    -0.049 A 
ATOM     16  H   UNL     1     -45.604  39.455  26.899  1.00  0.00     0.069 H 
ATOM     17  C   UNL     1     -45.012  37.746  29.769  1.00  0.00    -0.019 A 
ATOM     18  H   UNL     1     -43.461  38.210  31.177  1.00  0.00     0.063 H 
ATOM     19  H   UNL     1     -45.334  36.893  30.356  1.00  0.00     0.066 H 
BRANCH   6  20
ATOM     20  N   UNL     1     -42.220  42.792  27.175  1.00  0.00    -0.373 N 
ATOM     21  H   UNL     1     -42.354  43.605  27.777  1.00  0.00     0.161 HD
BRANCH  20  22
ATOM     22  C   UNL     1     -43.008  42.905  25.959  1.00  0.00     0.005 C 
ATOM     23  H   UNL     1     -43.604  43.823  25.946  1.00  0.00     0.045 H 
ATOM     24  H   UNL     1     -42.377  42.869  25.064  1.00  0.00     0.045 H 
ATOM     25  H   UNL     1     -43.707  42.064  25.909  1.00  0.00     0.045 H 
ENDBRANCH  20  22
ENDBRANCH   6  20
ENDBRANCH   4   5
ENDBRANCH   1   4
BRANCH   1  26
ATOM     26  C   UNL     1     -46.536  35.285  26.845  1.00  0.00     0.008 A 
ATOM     27  C   UNL     1     -46.038  34.604  27.950  1.00  0.00     0.033 A 
ATOM     28  C   UNL     1     -47.081  34.518  25.808  1.00  0.00    -0.045 A 
ATOM     29  N   UNL     1     -46.071  33.259  28.092  1.00  0.00    -0.264 NA
ATOM     30  H   UNL     1     -45.587  35.137  28.784  1.00  0.00     0.084 H 
ATOM     31  C   UNL     1     -47.138  33.126  25.915  1.00  0.00     0.004 A 
ATOM     32  H   UNL     1     -47.472  35.007  24.917  1.00  0.00     0.063 H 
ATOM     33  C   UNL     1     -46.631  32.557  27.077  1.00  0.00     0.035 A 
ATOM     34  H   UNL     1     -46.668  31.484  27.244  1.00  0.00     0.085 H 
BRANCH  31  35
ATOM     35  C   UNL     1     -47.729  32.323  24.857  1.00  0.00     0.030 A 
ATOM     36  C   UNL     1     -49.097  32.151  24.669  1.00  0.00     0.022 A 
ATOM     37  C   UNL     1     -47.067  31.531  23.873  1.00  0.00     0.102 A 
ATOM     38  N   UNL     1     -49.257  31.319  23.581  1.00  0.00    -0.354 N 
ATOM     39  C   UNL     1     -48.039  30.940  23.081  1.00  0.00     0.108 A 
ATOM     40  N   UNL     1     -45.744  31.333  23.666  1.00  0.00    -0.234 NA
ATOM     41  H   UNL     1     -50.143  30.993  23.221  1.00  0.00     0.166 HD
ATOM     42  C   UNL     1     -47.678  30.118  22.027  1.00  0.00     0.151 A 
ATOM     43  C   UNL     1     -45.490  30.516  22.634  1.00  0.00     0.118 A 
ATOM     44  N   UNL     1     -46.371  29.909  21.816  1.00  0.00    -0.218 NA
ATOM     45  H   UNL     1     -44.442  30.320  22.429  1.00  0.00     0.106 H 
BRANCH  36  46
ATOM     46  C   UNL     1     -50.279  32.662  25.413  1.00  0.00    -0.024 C 
ATOM     47  H   UNL     1     -50.542  33.676  25.093  1.00  0.00     0.030 H 
ATOM     48  H   UNL     1     -51.154  32.026  25.243  1.00  0.00     0.030 H 
ATOM     49  H   UNL     1     -50.070  32.689  26.487  1.00  0.00     0.030 H 
ENDBRANCH  36  46
BRANCH  42  50
ATOM     50  N   UNL     1     -48.588  29.513  21.174  1.00  0.00    -0.382 N 
ATOM     51  H   UNL     1     -48.285  29.659  20.215  1.00  0.00     0.158 HD
ATOM     52  H   UNL     1     -49.550  29.767  21.345  1.00  0.00     0.158 HD
ENDBRANCH  42  50
ENDBRANCH  31  35
ENDBRANCH   1  26
TORSDOF 8
ENDMDL
MODEL 4
REMARK VINA RESULT:      -9.6      2.012      3.014
REMARK SMILES CNc1ccc2ccc(OCc3cncc(-c4c(C)[nH]c5c(N)ncnc45)c3)cc2n1
REMARK SMILES IDX 11 1 10 4 9 5 3 6 4 7 31 8 5 9 30 11 6 12 29 14 7 15 8 17
REMARK SMILES IDX 2 20 1 22 12 26 13 27 28 28 14 29 16 31 15 33 17 35 18 36
REMARK SMILES IDX 27 37 20 38 21 39 26 40 22 42 25 43 24 44 19 46 23 50
REMARK H PARENT 11 2 11 3 4 10 5 13 29 16 7 18 8 19 2 21 1 23 1 24 1 25 13 30
REMARK H PARENT 28 32 15 34 20 41 25 45 19 47 19 48 19 49 23 51 23 52
REMARK Flexibility Score: inf
ROOT
ATOM      1  C   UNL     1     -46.472  34.141  27.119  1.00  0.00     0.115 C 
ATOM      2  H   UNL     1     -45.896  33.667  27.923  1.00  0.00     0.076 H 
ATOM      3  H   UNL     1     -45.817  34.143  26.239  1.00  0.00     0.076 H 
ENDROOT
BRANCH   1   4
ATOM      4  O   UNL     1     -47.615  33.354  26.775  1.00  0.00    -0.489 OA
BRANCH   4   5
ATOM      5  C   UNL     1     -47.491  32.430  25.774  1.00  0.00     0.122 A 
ATOM      6  C   UNL     1     -49.264  28.316  24.164  1.00  0.00     0.126 A 
ATOM      7  C   UNL     1     -48.384  28.291  23.093  1.00  0.00    -0.019 A 
ATOM      8  N   UNL     1     -49.276  29.316  25.065  1.00  0.00    -0.231 NA
ATOM      9  C   UNL     1     -47.467  29.326  22.952  1.00  0.00    -0.049 A 
ATOM     10  H   UNL     1     -48.420  27.491  22.364  1.00  0.00     0.066 H 
ATOM     11  C   UNL     1     -48.390  30.321  24.934  1.00  0.00     0.076 A 
ATOM     12  C   UNL     1     -47.455  30.368  23.884  1.00  0.00     0.001 A 
ATOM     13  H   UNL     1     -46.775  29.316  22.116  1.00  0.00     0.063 H 
ATOM     14  C   UNL     1     -48.384  31.354  25.861  1.00  0.00     0.007 A 
ATOM     15  C   UNL     1     -46.549  31.437  23.790  1.00  0.00    -0.049 A 
ATOM     16  H   UNL     1     -49.101  31.323  26.678  1.00  0.00     0.069 H 
ATOM     17  C   UNL     1     -46.566  32.463  24.735  1.00  0.00    -0.019 A 
ATOM     18  H   UNL     1     -45.819  31.472  22.984  1.00  0.00     0.063 H 
ATOM     19  H   UNL     1     -45.834  33.258  24.636  1.00  0.00     0.066 H 
BRANCH   6  20
ATOM     20  N   UNL     1     -50.222  27.318  24.363  1.00  0.00    -0.373 N 
ATOM     21  H   UNL     1     -49.681  26.542  24.746  1.00  0.00     0.161 HD
BRANCH  20  22
ATOM     22  C   UNL     1     -50.918  26.922  23.150  1.00  0.00     0.005 C 
ATOM     23  H   UNL     1     -50.475  27.382  22.260  1.00  0.00     0.045 H 
ATOM     24  H   UNL     1     -50.931  25.834  23.028  1.00  0.00     0.045 H 
ATOM     25  H   UNL     1     -51.956  27.264  23.208  1.00  0.00     0.045 H 
ENDBRANCH  20  22
ENDBRANCH   6  20
ENDBRANCH   4   5
ENDBRANCH   1   4
BRANCH   1  26
ATOM     26  C   UNL     1     -46.816  35.573  27.429  1.00  0.00     0.008 A 
ATOM     27  C   UNL     1     -48.130  36.028  27.428  1.00  0.00     0.033 A 
ATOM     28  C   UNL     1     -45.810  36.511  27.687  1.00  0.00    -0.045 A 
ATOM     29  N   UNL     1     -48.491  37.306  27.684  1.00  0.00    -0.264 NA
ATOM     30  H   UNL     1     -48.959  35.355  27.219  1.00  0.00     0.084 H 
ATOM     31  C   UNL     1     -46.139  37.842  27.958  1.00  0.00     0.004 A 
ATOM     32  H   UNL     1     -44.765  36.203  27.686  1.00  0.00     0.063 H 
ATOM     33  C   UNL     1     -47.488  38.176  27.954  1.00  0.00     0.035 A 
ATOM     34  H   UNL     1     -47.822  39.184  28.186  1.00  0.00     0.085 H 
BRANCH  31  35
ATOM     35  C   UNL     1     -45.104  38.817  28.258  1.00  0.00     0.030 A 
ATOM     36  C   UNL     1     -44.398  38.877  29.455  1.00  0.00     0.022 A 
ATOM     37  C   UNL     1     -44.655  39.905  27.451  1.00  0.00     0.102 A 
ATOM     38  N   UNL     1     -43.522  39.937  29.360  1.00  0.00    -0.354 N 
ATOM     39  C   UNL     1     -43.657  40.566  28.151  1.00  0.00     0.108 A 
ATOM     40  N   UNL     1     -45.060  40.297  26.221  1.00  0.00    -0.234 NA
ATOM     41  H   UNL     1     -42.894  40.243  30.090  1.00  0.00     0.166 HD
ATOM     42  C   UNL     1     -43.026  41.667  27.596  1.00  0.00     0.151 A 
ATOM     43  C   UNL     1     -44.403  41.376  25.770  1.00  0.00     0.118 A 
ATOM     44  N   UNL     1     -43.423  42.069  26.381  1.00  0.00    -0.218 NA
ATOM     45  H   UNL     1     -44.695  41.734  24.788  1.00  0.00     0.106 H 
BRANCH  36  46
ATOM     46  C   UNL     1     -44.470  38.062  30.697  1.00  0.00    -0.024 C 
ATOM     47  H   UNL     1     -43.476  37.728  31.013  1.00  0.00     0.030 H 
ATOM     48  H   UNL     1     -44.900  38.641  31.521  1.00  0.00     0.030 H 
ATOM     49  H   UNL     1     -45.090  37.174  30.535  1.00  0.00     0.030 H 
ENDBRANCH  36  46
BRANCH  42  50
ATOM     50  N   UNL     1     -42.002  42.364  28.219  1.00  0.00    -0.382 N 
ATOM     51  H   UNL     1     -42.178  43.360  28.121  1.00  0.00     0.158 HD
ATOM     52  H   UNL     1     -41.075  42.080  27.936  1.00  0.00     0.158 HD
ENDBRANCH  42  50
ENDBRANCH  31  35
ENDBRANCH   1  26
TORSDOF 8
ENDMDL
MODEL 5
REMARK VINA RESULT:      -9.5      1.452      2.004
REMARK SMILES CNc1ccc2ccc(OCc3cncc(-c4c(C)[nH]c5c(N)ncnc45)c3)cc2n1
REMARK SMILES IDX 11 1 10 4 9 5 3 6 4 7 31 8 5 9 30 11 6 12 29 14 7 15 8 17
REMARK SMILES IDX 2 20 1 22 12 26 13 27 28 28 14 29 16 31 15 33 17 35 18 36
REMARK SMILES IDX 27 37 20 38 21 39 26 40 22 42 25 43 24 44 19 46 23 50
REMARK H PARENT 11 2 11 3 4 10 5 13 29 16 7 18 8 19 2 21 1 23 1 24 1 25 13 30
REMARK H PARENT 28 32 15 34 20 41 25 45 19 47 19 48 19 49 23 51 23 52
REMARK Flexibility Score: inf
ROOT
ATOM      1  C   UNL     1     -45.666  34.424  27.733  1.00  0.00     0.115 C 
ATOM      2  H   UNL     1     -45.126  33.620  28.248  1.00  0.00     0.076 H 
ATOM      3  H   UNL     1     -45.089  34.643  26.827  1.00  0.00     0.076 H 
ENDROOT
BRANCH   1   4
ATOM      4  O   UNL     1     -46.954  33.978  27.299  1.00  0.00    -0.489 OA
BRANCH   4   5
ATOM      5  C   UNL     1     -47.024  33.148  26.215  1.00  0.00     0.122 A 
ATOM      6  C   UNL     1     -48.918  29.059  24.680  1.00  0.00     0.126 A 
ATOM      7  C   UNL     1     -48.316  29.182  23.437  1.00  0.00    -0.019 A 
ATOM      8  N   UNL     1     -48.767  29.982  25.649  1.00  0.00    -0.231 NA
ATOM      9  C   UNL     1     -47.510  30.287  23.186  1.00  0.00    -0.049 A 
ATOM     10  H   UNL     1     -48.482  28.441  22.664  1.00  0.00     0.066 H 
ATOM     11  C   UNL     1     -47.988  31.054  25.412  1.00  0.00     0.076 A 
ATOM     12  C   UNL     1     -47.331  31.250  24.182  1.00  0.00     0.001 A 
ATOM     13  H   UNL     1     -47.036  30.393  22.215  1.00  0.00     0.063 H 
ATOM     14  C   UNL     1     -47.815  32.009  26.404  1.00  0.00     0.007 A 
ATOM     15  C   UNL     1     -46.528  32.385  23.983  1.00  0.00    -0.049 A 
ATOM     16  H   UNL     1     -48.317  31.862  27.358  1.00  0.00     0.069 H 
ATOM     17  C   UNL     1     -46.373  33.329  24.998  1.00  0.00    -0.019 A 
ATOM     18  H   UNL     1     -46.011  32.535  23.037  1.00  0.00     0.063 H 
ATOM     19  H   UNL     1     -45.726  34.179  24.807  1.00  0.00     0.066 H 
BRANCH   6  20
ATOM     20  N   UNL     1     -49.750  27.983  25.000  1.00  0.00    -0.373 N 
ATOM     21  H   UNL     1     -50.668  28.416  25.105  1.00  0.00     0.161 HD
BRANCH  20  22
ATOM     22  C   UNL     1     -49.361  27.281  26.211  1.00  0.00     0.005 C 
ATOM     23  H   UNL     1     -50.061  26.474  26.454  1.00  0.00     0.045 H 
ATOM     24  H   UNL     1     -48.348  26.872  26.133  1.00  0.00     0.045 H 
ATOM     25  H   UNL     1     -49.374  27.984  27.050  1.00  0.00     0.045 H 
ENDBRANCH  20  22
ENDBRANCH   6  20
ENDBRANCH   4   5
ENDBRANCH   1   4
BRANCH   1  26
ATOM     26  C   UNL     1     -45.725  35.687  28.548  1.00  0.00     0.008 A 
ATOM     27  C   UNL     1     -46.306  35.719  29.811  1.00  0.00     0.033 A 
ATOM     28  C   UNL     1     -45.231  36.893  28.036  1.00  0.00    -0.045 A 
ATOM     29  N   UNL     1     -46.399  36.831  30.576  1.00  0.00    -0.264 NA
ATOM     30  H   UNL     1     -46.724  34.821  30.262  1.00  0.00     0.084 H 
ATOM     31  C   UNL     1     -45.305  38.064  28.794  1.00  0.00     0.004 A 
ATOM     32  H   UNL     1     -44.778  36.919  27.046  1.00  0.00     0.063 H 
ATOM     33  C   UNL     1     -45.885  37.970  30.054  1.00  0.00     0.035 A 
ATOM     34  H   UNL     1     -45.950  38.832  30.713  1.00  0.00     0.085 H 
BRANCH  31  35
ATOM     35  C   UNL     1     -44.767  39.315  28.284  1.00  0.00     0.030 A 
ATOM     36  C   UNL     1     -45.244  39.978  27.159  1.00  0.00     0.022 A 
ATOM     37  C   UNL     1     -43.652  40.061  28.771  1.00  0.00     0.102 A 
ATOM     38  N   UNL     1     -44.473  41.109  26.994  1.00  0.00    -0.354 N 
ATOM     39  C   UNL     1     -43.509  41.180  27.965  1.00  0.00     0.108 A 
ATOM     40  N   UNL     1     -42.830  39.810  29.815  1.00  0.00    -0.234 NA
ATOM     41  H   UNL     1     -44.568  41.776  26.241  1.00  0.00     0.166 HD
ATOM     42  C   UNL     1     -42.503  42.098  28.216  1.00  0.00     0.151 A 
ATOM     43  C   UNL     1     -41.881  40.743  29.975  1.00  0.00     0.118 A 
ATOM     44  N   UNL     1     -41.678  41.856  29.245  1.00  0.00    -0.218 NA
ATOM     45  H   UNL     1     -41.191  40.585  30.797  1.00  0.00     0.106 H 
BRANCH  36  46
ATOM     46  C   UNL     1     -46.333  39.656  26.197  1.00  0.00    -0.024 C 
ATOM     47  H   UNL     1     -46.082  39.991  25.185  1.00  0.00     0.030 H 
ATOM     48  H   UNL     1     -46.509  38.577  26.153  1.00  0.00     0.030 H 
ATOM     49  H   UNL     1     -47.263  40.150  26.497  1.00  0.00     0.030 H 
ENDBRANCH  36  46
BRANCH  42  50
ATOM     50  N   UNL     1     -42.312  43.255  27.476  1.00  0.00    -0.382 N 
ATOM     51  H   UNL     1     -42.713  44.038  27.983  1.00  0.00     0.158 HD
ATOM     52  H   UNL     1     -42.616  43.187  26.515  1.00  0.00     0.158 HD
ENDBRANCH  42  50
ENDBRANCH  31  35
ENDBRANCH   1  26
TORSDOF 8
ENDMDL
MODEL 6
REMARK VINA RESULT:      -9.4      1.735      2.586
REMARK SMILES CNc1ccc2ccc(OCc3cncc(-c4c(C)[nH]c5c(N)ncnc45)c3)cc2n1
REMARK SMILES IDX 11 1 10 4 9 5 3 6 4 7 31 8 5 9 30 11 6 12 29 14 7 15 8 17
REMARK SMILES IDX 2 20 1 22 12 26 13 27 28 28 14 29 16 31 15 33 17 35 18 36
REMARK SMILES IDX 27 37 20 38 21 39 26 40 22 42 25 43 24 44 19 46 23 50
REMARK H PARENT 11 2 11 3 4 10 5 13 29 16 7 18 8 19 2 21 1 23 1 24 1 25 13 30
REMARK H PARENT 28 32 15 34 20 41 25 45 19 47 19 48 19 49 23 51 23 52
REMARK Flexibility Score: inf
ROOT
ATOM      1  C   UNL     1     -46.730  34.346  25.870  1.00  0.00     0.115 C 
ATOM      2  H   UNL     1     -45.688  34.354  25.529  1.00  0.00     0.076 H 
ATOM      3  H   UNL     1     -47.345  34.381  24.962  1.00  0.00     0.076 H 
ENDROOT
BRANCH   1   4
ATOM      4  O   UNL     1     -47.044  33.117  26.529  1.00  0.00    -0.489 OA
BRANCH   4   5
ATOM      5  C   UNL     1     -47.558  32.091  25.783  1.00  0.00     0.122 A 
ATOM      6  C   UNL     1     -47.969  30.475  21.325  1.00  0.00     0.126 A 
ATOM      7  C   UNL     1     -48.691  29.364  21.735  1.00  0.00    -0.019 A 
ATOM      8  N   UNL     1     -47.510  31.397  22.192  1.00  0.00    -0.231 NA
ATOM      9  C   UNL     1     -48.970  29.205  23.087  1.00  0.00    -0.049 A 
ATOM     10  H   UNL     1     -49.018  28.621  21.018  1.00  0.00     0.066 H 
ATOM     11  C   UNL     1     -47.776  31.248  23.503  1.00  0.00     0.076 A 
ATOM     12  C   UNL     1     -48.512  30.157  24.002  1.00  0.00     0.001 A 
ATOM     13  H   UNL     1     -49.533  28.337  23.418  1.00  0.00     0.063 H 
ATOM     14  C   UNL     1     -47.318  32.195  24.408  1.00  0.00     0.007 A 
ATOM     15  C   UNL     1     -48.766  30.045  25.379  1.00  0.00    -0.049 A 
ATOM     16  H   UNL     1     -46.752  33.043  24.029  1.00  0.00     0.069 H 
ATOM     17  C   UNL     1     -48.292  31.012  26.266  1.00  0.00    -0.019 A 
ATOM     18  H   UNL     1     -49.342  29.208  25.768  1.00  0.00     0.063 H 
ATOM     19  H   UNL     1     -48.530  30.897  27.318  1.00  0.00     0.066 H 
BRANCH   6  20
ATOM     20  N   UNL     1     -47.640  30.695  19.985  1.00  0.00    -0.373 N 
ATOM     21  H   UNL     1     -47.327  29.779  19.663  1.00  0.00     0.161 HD
BRANCH  20  22
ATOM     22  C   UNL     1     -46.607  31.699  19.791  1.00  0.00     0.005 C 
ATOM     23  H   UNL     1     -45.617  31.320  20.065  1.00  0.00     0.045 H 
ATOM     24  H   UNL     1     -46.584  32.061  18.757  1.00  0.00     0.045 H 
ATOM     25  H   UNL     1     -46.817  32.555  20.440  1.00  0.00     0.045 H 
ENDBRANCH  20  22
ENDBRANCH   6  20
ENDBRANCH   4   5
ENDBRANCH   1   4
BRANCH   1  26
ATOM     26  C   UNL     1     -47.073  35.559  26.693  1.00  0.00     0.008 A 
ATOM     27  C   UNL     1     -48.378  35.831  27.089  1.00  0.00     0.033 A 
ATOM     28  C   UNL     1     -46.085  36.484  27.050  1.00  0.00    -0.045 A 
ATOM     29  N   UNL     1     -48.741  36.913  27.815  1.00  0.00    -0.264 NA
ATOM     30  H   UNL     1     -49.196  35.162  26.832  1.00  0.00     0.084 H 
ATOM     31  C   UNL     1     -46.416  37.615  27.801  1.00  0.00     0.004 A 
ATOM     32  H   UNL     1     -45.051  36.319  26.751  1.00  0.00     0.063 H 
ATOM     33  C   UNL     1     -47.749  37.769  28.162  1.00  0.00     0.035 A 
ATOM     34  H   UNL     1     -48.077  38.608  28.771  1.00  0.00     0.085 H 
BRANCH  31  35
ATOM     35  C   UNL     1     -45.393  38.565  28.204  1.00  0.00     0.030 A 
ATOM     36  C   UNL     1     -44.763  38.568  29.443  1.00  0.00     0.022 A 
ATOM     37  C   UNL     1     -44.885  39.680  27.472  1.00  0.00     0.102 A 
ATOM     38  N   UNL     1     -43.872  39.621  29.446  1.00  0.00    -0.354 N 
ATOM     39  C   UNL     1     -43.927  40.301  28.258  1.00  0.00     0.108 A 
ATOM     40  N   UNL     1     -45.209  40.126  26.236  1.00  0.00    -0.234 NA
ATOM     41  H   UNL     1     -43.289  39.890  30.226  1.00  0.00     0.166 HD
ATOM     42  C   UNL     1     -43.253  41.416  27.789  1.00  0.00     0.151 A 
ATOM     43  C   UNL     1     -44.517  41.214  25.871  1.00  0.00     0.118 A 
ATOM     44  N   UNL     1     -43.570  41.871  26.569  1.00  0.00    -0.218 NA
ATOM     45  H   UNL     1     -44.744  41.616  24.889  1.00  0.00     0.106 H 
BRANCH  36  46
ATOM     46  C   UNL     1     -44.919  37.704  30.644  1.00  0.00    -0.024 C 
ATOM     47  H   UNL     1     -44.252  36.837  30.600  1.00  0.00     0.030 H 
ATOM     48  H   UNL     1     -44.679  38.258  31.559  1.00  0.00     0.030 H 
ATOM     49  H   UNL     1     -45.948  37.337  30.718  1.00  0.00     0.030 H 
ENDBRANCH  36  46
BRANCH  42  50
ATOM     50  N   UNL     1     -42.263  42.076  28.502  1.00  0.00    -0.382 N 
ATOM     51  H   UNL     1     -41.592  42.465  27.846  1.00  0.00     0.158 HD
ATOM     52  H   UNL     1     -41.847  41.526  29.239  1.00  0.00     0.158 HD
ENDBRANCH  42  50
ENDBRANCH  31  35
ENDBRANCH   1  26
TORSDOF 8
ENDMDL
MODEL 7
REMARK VINA RESULT:      -9.2      2.623     10.777
REMARK SMILES CNc1ccc2ccc(OCc3cncc(-c4c(C)[nH]c5c(N)ncnc45)c3)cc2n1
REMARK SMILES IDX 11 1 10 4 9 5 3 6 4 7 31 8 5 9 30 11 6 12 29 14 7 15 8 17
REMARK SMILES IDX 2 20 1 22 12 26 13 27 28 28 14 29 16 31 15 33 17 35 18 36
REMARK SMILES IDX 27 37 20 38 21 39 26 40 22 42 25 43 24 44 19 46 23 50
REMARK H PARENT 11 2 11 3 4 10 5 13 29 16 7 18 8 19 2 21 1 23 1 24 1 25 13 30
REMARK H PARENT 28 32 15 34 20 41 25 45 19 47 19 48 19 49 23 51 23 52
REMARK Flexibility Score: inf
ROOT
ATOM      1  C   UNL     1     -48.515  34.889  26.804  1.00  0.00     0.115 C 
ATOM      2  H   UNL     1     -49.608  34.832  26.879  1.00  0.00     0.076 H 
ATOM      3  H   UNL     1     -48.296  35.838  26.299  1.00  0.00     0.076 H 
ENDROOT
BRANCH   1   4
ATOM      4  O   UNL     1     -47.917  34.969  28.100  1.00  0.00    -0.489 OA
BRANCH   4   5
ATOM      5  C   UNL     1     -47.027  35.978  28.345  1.00  0.00     0.122 A 
ATOM      6  C   UNL     1     -45.494  40.172  26.695  1.00  0.00     0.126 A 
ATOM      7  C   UNL     1     -44.560  40.294  27.713  1.00  0.00    -0.019 A 
ATOM      8  N   UNL     1     -46.322  39.115  26.599  1.00  0.00    -0.231 NA
ATOM      9  C   UNL     1     -44.460  39.281  28.660  1.00  0.00    -0.049 A 
ATOM     10  H   UNL     1     -43.930  41.172  27.785  1.00  0.00     0.066 H 
ATOM     11  C   UNL     1     -46.230  38.130  27.513  1.00  0.00     0.076 A 
ATOM     12  C   UNL     1     -45.303  38.170  28.571  1.00  0.00     0.001 A 
ATOM     13  H   UNL     1     -43.734  39.369  29.461  1.00  0.00     0.063 H 
ATOM     14  C   UNL     1     -47.070  37.030  27.422  1.00  0.00     0.007 A 
ATOM     15  C   UNL     1     -45.243  37.117  29.499  1.00  0.00    -0.049 A 
ATOM     16  H   UNL     1     -47.787  36.991  26.604  1.00  0.00     0.069 H 
ATOM     17  C   UNL     1     -46.102  36.023  29.384  1.00  0.00    -0.019 A 
ATOM     18  H   UNL     1     -44.522  37.139  30.313  1.00  0.00     0.063 H 
ATOM     19  H   UNL     1     -46.007  35.223  30.111  1.00  0.00     0.066 H 
BRANCH   6  20
ATOM     20  N   UNL     1     -45.660  41.155  25.717  1.00  0.00    -0.373 N 
ATOM     21  H   UNL     1     -46.067  40.645  24.933  1.00  0.00     0.161 HD
BRANCH  20  22
ATOM     22  C   UNL     1     -44.423  41.812  25.328  1.00  0.00     0.005 C 
ATOM     23  H   UNL     1     -44.515  42.902  25.361  1.00  0.00     0.045 H 
ATOM     24  H   UNL     1     -43.584  41.498  25.959  1.00  0.00     0.045 H 
ATOM     25  H   UNL     1     -44.185  41.538  24.295  1.00  0.00     0.045 H 
ENDBRANCH  20  22
ENDBRANCH   6  20
ENDBRANCH   4   5
ENDBRANCH   1   4
BRANCH   1  26
ATOM     26  C   UNL     1     -47.941  33.785  25.958  1.00  0.00     0.008 A 
ATOM     27  C   UNL     1     -46.615  33.797  25.538  1.00  0.00     0.033 A 
ATOM     28  C   UNL     1     -48.744  32.723  25.525  1.00  0.00    -0.045 A 
ATOM     29  N   UNL     1     -46.055  32.839  24.765  1.00  0.00    -0.264 NA
ATOM     30  H   UNL     1     -45.941  34.601  25.825  1.00  0.00     0.084 H 
ATOM     31  C   UNL     1     -48.205  31.711  24.727  1.00  0.00     0.004 A 
ATOM     32  H   UNL     1     -49.792  32.678  25.819  1.00  0.00     0.063 H 
ATOM     33  C   UNL     1     -46.860  31.815  24.390  1.00  0.00     0.035 A 
ATOM     34  H   UNL     1     -46.364  31.051  23.798  1.00  0.00     0.085 H 
BRANCH  31  35
ATOM     35  C   UNL     1     -49.022  30.588  24.298  1.00  0.00     0.030 A 
ATOM     36  C   UNL     1     -49.877  30.607  23.201  1.00  0.00     0.022 A 
ATOM     37  C   UNL     1     -49.161  29.309  24.916  1.00  0.00     0.102 A 
ATOM     38  N   UNL     1     -50.479  29.369  23.131  1.00  0.00    -0.354 N 
ATOM     39  C   UNL     1     -50.052  28.567  24.156  1.00  0.00     0.108 A 
ATOM     40  N   UNL     1     -48.574  28.816  26.031  1.00  0.00    -0.234 NA
ATOM     41  H   UNL     1     -51.173  29.095  22.449  1.00  0.00     0.166 HD
ATOM     42  C   UNL     1     -50.368  27.269  24.519  1.00  0.00     0.151 A 
ATOM     43  C   UNL     1     -48.947  27.560  26.311  1.00  0.00     0.118 A 
ATOM     44  N   UNL     1     -49.798  26.772  25.625  1.00  0.00    -0.218 NA
ATOM     45  H   UNL     1     -48.508  27.119  27.200  1.00  0.00     0.106 H 
BRANCH  36  46
ATOM     46  C   UNL     1     -50.214  31.672  22.218  1.00  0.00    -0.024 C 
ATOM     47  H   UNL     1     -51.011  31.349  21.540  1.00  0.00     0.030 H 
ATOM     48  H   UNL     1     -50.561  32.578  22.725  1.00  0.00     0.030 H 
ATOM     49  H   UNL     1     -49.337  31.924  21.614  1.00  0.00     0.030 H 
ENDBRANCH  36  46
BRANCH  42  50
ATOM     50  N   UNL     1     -51.227  26.454  23.797  1.00  0.00    -0.382 N 
ATOM     51  H   UNL     1     -52.031  26.231  24.377  1.00  0.00     0.158 HD
ATOM     52  H   UNL     1     -50.783  25.648  23.382  1.00  0.00     0.158 HD
ENDBRANCH  42  50
ENDBRANCH  31  35
ENDBRANCH   1  26
TORSDOF 8
ENDMDL
