MODEL 1
REMARK VINA RESULT:     -10.7      0.000      0.000
REMARK SMILES CCc1cc(N2CCNCC2)c2ccc(OCc3cncc(-n4cc([C@H]5CCCO5)c5c(N)ncnc54)c3)cc2n1
REMARK SMILES IDX 17 1 16 4 15 5 3 6 4 7 41 8 5 9 40 11 12 12 39 13 13 14
REMARK SMILES IDX 14 16 2 19 1 22 6 26 7 27 11 28 8 29 10 32 9 35 18 41 19 42
REMARK SMILES IDX 38 43 20 44 22 46 21 48 23 50 24 51 37 52 25 53 31 55 36 56
REMARK SMILES IDX 32 57 35 58 34 59 26 61 27 62 30 63 28 65 29 68 33 73
REMARK H PARENT 17 2 17 3 4 10 39 15 13 17 14 18 2 20 2 21 1 23 1 24 1 25 7 30
REMARK H PARENT 7 31 11 33 11 34 8 36 8 37 10 38 10 39 9 40 19 45 38 47 21 49
REMARK H PARENT 24 54 35 60 26 64 27 66 27 67 28 69 28 70 29 71 29 72 33 74
REMARK H PARENT 33 75
REMARK Flexibility Score: inf
ROOT
ATOM      1  C   UNL     1     -48.139  36.423  27.534  1.00  0.00     0.115 C 
ATOM      2  H   UNL     1     -49.064  36.294  28.108  1.00  0.00     0.076 H 
ATOM      3  H   UNL     1     -48.426  36.944  26.611  1.00  0.00     0.076 H 
ENDROOT
BRANCH   1   4
ATOM      4  O   UNL     1     -47.275  37.234  28.332  1.00  0.00    -0.489 OA
BRANCH   4   5
ATOM      5  C   UNL     1     -46.702  38.335  27.760  1.00  0.00     0.122 A 
ATOM      6  C   UNL     1     -42.926  41.205  28.079  1.00  0.00     0.043 A 
ATOM      7  C   UNL     1     -43.326  41.982  26.998  1.00  0.00    -0.016 A 
ATOM      8  N   UNL     1     -43.647  40.160  28.531  1.00  0.00    -0.253 NA
ATOM      9  C   UNL     1     -44.529  41.702  26.346  1.00  0.00     0.048 A 
ATOM     10  H   UNL     1     -42.700  42.810  26.694  1.00  0.00     0.066 H 
ATOM     11  C   UNL     1     -44.789  39.848  27.902  1.00  0.00     0.076 A 
ATOM     12  C   UNL     1     -45.278  40.578  26.798  1.00  0.00     0.024 A 
ATOM     13  C   UNL     1     -45.509  38.753  28.359  1.00  0.00     0.007 A 
ATOM     14  C   UNL     1     -46.468  40.131  26.177  1.00  0.00    -0.047 A 
ATOM     15  H   UNL     1     -45.124  38.200  29.212  1.00  0.00     0.069 H 
ATOM     16  C   UNL     1     -47.175  39.023  26.653  1.00  0.00    -0.019 A 
ATOM     17  H   UNL     1     -46.838  40.643  25.290  1.00  0.00     0.063 H 
ATOM     18  H   UNL     1     -48.068  38.721  26.117  1.00  0.00     0.066 H 
BRANCH   6  19
ATOM     19  C   UNL     1     -41.628  41.493  28.787  1.00  0.00    -0.013 C 
ATOM     20  H   UNL     1     -41.519  42.577  28.914  1.00  0.00     0.033 H 
ATOM     21  H   UNL     1     -40.784  41.164  28.169  1.00  0.00     0.033 H 
BRANCH  19  22
ATOM     22  C   UNL     1     -41.573  40.818  30.150  1.00  0.00    -0.060 C 
ATOM     23  H   UNL     1     -40.693  40.173  30.240  1.00  0.00     0.023 H 
ATOM     24  H   UNL     1     -42.461  40.198  30.320  1.00  0.00     0.023 H 
ATOM     25  H   UNL     1     -41.527  41.570  30.943  1.00  0.00     0.023 H 
ENDBRANCH  19  22
ENDBRANCH   6  19
BRANCH   9  26
ATOM     26  N   UNL     1     -45.001  42.492  25.287  1.00  0.00    -0.368 N 
ATOM     27  C   UNL     1     -45.867  43.625  25.690  1.00  0.00     0.030 C 
ATOM     28  C   UNL     1     -44.131  42.797  24.132  1.00  0.00     0.030 C 
ATOM     29  C   UNL     1     -45.063  44.936  25.828  1.00  0.00     0.013 C 
ATOM     30  H   UNL     1     -46.636  43.754  24.919  1.00  0.00     0.051 H 
ATOM     31  H   UNL     1     -46.397  43.427  26.629  1.00  0.00     0.051 H 
ATOM     32  C   UNL     1     -43.427  44.172  24.241  1.00  0.00     0.013 C 
ATOM     33  H   UNL     1     -44.769  42.809  23.240  1.00  0.00     0.051 H 
ATOM     34  H   UNL     1     -43.393  42.003  23.967  1.00  0.00     0.051 H 
ATOM     35  N   UNL     1     -44.322  45.284  24.604  1.00  0.00    -0.313 NA
ATOM     36  H   UNL     1     -45.756  45.753  26.059  1.00  0.00     0.045 H 
ATOM     37  H   UNL     1     -44.364  44.859  26.670  1.00  0.00     0.045 H 
ATOM     38  H   UNL     1     -42.960  44.402  23.277  1.00  0.00     0.045 H 
ATOM     39  H   UNL     1     -42.614  44.124  24.974  1.00  0.00     0.045 H 
ATOM     40  H   UNL     1     -43.766  46.121  24.774  1.00  0.00     0.122 HD
ENDBRANCH   9  26
ENDBRANCH   4   5
ENDBRANCH   1   4
BRANCH   1  41
ATOM     41  C   UNL     1     -47.581  35.051  27.261  1.00  0.00     0.010 A 
ATOM     42  C   UNL     1     -46.589  34.499  28.059  1.00  0.00     0.034 A 
ATOM     43  C   UNL     1     -48.096  34.255  26.226  1.00  0.00    -0.028 A 
ATOM     44  N   UNL     1     -46.089  33.259  27.882  1.00  0.00    -0.262 NA
ATOM     45  H   UNL     1     -46.155  35.050  28.890  1.00  0.00     0.084 H 
ATOM     46  C   UNL     1     -47.599  32.961  26.005  1.00  0.00     0.066 A 
ATOM     47  H   UNL     1     -48.898  34.669  25.624  1.00  0.00     0.065 H 
ATOM     48  C   UNL     1     -46.599  32.520  26.863  1.00  0.00     0.051 A 
ATOM     49  H   UNL     1     -46.124  31.550  26.782  1.00  0.00     0.086 H 
BRANCH  46  50
ATOM     50  N   UNL     1     -48.101  32.142  24.941  1.00  0.00    -0.299 N 
ATOM     51  C   UNL     1     -49.443  31.866  24.715  1.00  0.00     0.018 A 
ATOM     52  C   UNL     1     -47.376  31.482  23.950  1.00  0.00     0.150 A 
ATOM     53  C   UNL     1     -49.590  31.057  23.601  1.00  0.00     0.012 A 
ATOM     54  H   UNL     1     -50.209  32.281  25.352  1.00  0.00     0.083 H 
ATOM     55  C   UNL     1     -48.267  30.817  23.114  1.00  0.00     0.067 A 
ATOM     56  N   UNL     1     -46.034  31.461  23.816  1.00  0.00    -0.218 NA
ATOM     57  C   UNL     1     -47.716  30.096  22.040  1.00  0.00     0.136 A 
ATOM     58  C   UNL     1     -45.626  30.735  22.766  1.00  0.00     0.120 A 
ATOM     59  N   UNL     1     -46.382  30.069  21.880  1.00  0.00    -0.219 NA
ATOM     60  H   UNL     1     -44.553  30.680  22.612  1.00  0.00     0.106 H 
BRANCH  53  61
ATOM     61  C   UNL     1     -50.855  30.502  22.996  1.00  0.00     0.085 C 
ATOM     62  C   UNL     1     -52.162  31.084  23.519  1.00  0.00    -0.020 C 
ATOM     63  O   UNL     1     -50.869  30.752  21.569  1.00  0.00    -0.373 OA
ATOM     64  H   UNL     1     -50.850  29.415  23.145  1.00  0.00     0.066 H 
ATOM     65  C   UNL     1     -52.393  32.254  22.594  1.00  0.00    -0.027 C 
ATOM     66  H   UNL     1     -52.967  30.355  23.366  1.00  0.00     0.030 H 
ATOM     67  H   UNL     1     -52.164  31.354  24.578  1.00  0.00     0.030 H 
ATOM     68  C   UNL     1     -51.899  31.707  21.274  1.00  0.00     0.048 C 
ATOM     69  H   UNL     1     -53.434  32.583  22.554  1.00  0.00     0.029 H 
ATOM     70  H   UNL     1     -51.778  33.107  22.902  1.00  0.00     0.029 H 
ATOM     71  H   UNL     1     -51.500  32.487  20.619  1.00  0.00     0.057 H 
ATOM     72  H   UNL     1     -52.696  31.178  20.741  1.00  0.00     0.057 H 
ENDBRANCH  53  61
BRANCH  57  73
ATOM     73  N   UNL     1     -48.479  29.412  21.101  1.00  0.00    -0.383 N 
ATOM     74  H   UNL     1     -49.474  29.421  21.328  1.00  0.00     0.158 HD
ATOM     75  H   UNL     1     -48.246  29.729  20.167  1.00  0.00     0.158 HD
ENDBRANCH  57  73
ENDBRANCH  46  50
ENDBRANCH   1  41
TORSDOF 9
ENDMDL
MODEL 2
REMARK VINA RESULT:     -10.5      2.277     11.839
REMARK SMILES CCc1cc(N2CCNCC2)c2ccc(OCc3cncc(-n4cc([C@H]5CCCO5)c5c(N)ncnc54)c3)cc2n1
REMARK SMILES IDX 17 1 16 4 15 5 3 6 4 7 41 8 5 9 40 11 12 12 39 13 13 14
REMARK SMILES IDX 14 16 2 19 1 22 6 26 7 27 11 28 8 29 10 32 9 35 18 41 19 42
REMARK SMILES IDX 38 43 20 44 22 46 21 48 23 50 24 51 37 52 25 53 31 55 36 56
REMARK SMILES IDX 32 57 35 58 34 59 26 61 27 62 30 63 28 65 29 68 33 73
REMARK H PARENT 17 2 17 3 4 10 39 15 13 17 14 18 2 20 2 21 1 23 1 24 1 25 7 30
REMARK H PARENT 7 31 11 33 11 34 8 36 8 37 10 38 10 39 9 40 19 45 38 47 21 49
REMARK H PARENT 24 54 35 60 26 64 27 66 27 67 28 69 28 70 29 71 29 72 33 74
REMARK H PARENT 33 75
REMARK Flexibility Score: inf
ROOT
ATOM      1  C   UNL     1     -46.214  34.331  26.755  1.00  0.00     0.115 C 
ATOM      2  H   UNL     1     -45.304  34.144  27.338  1.00  0.00     0.076 H 
ATOM      3  H   UNL     1     -45.920  34.247  25.701  1.00  0.00     0.076 H 
ENDROOT
BRANCH   1   4
ATOM      4  O   UNL     1     -47.144  33.307  27.112  1.00  0.00    -0.489 OA
BRANCH   4   5
ATOM      5  C   UNL     1     -47.592  32.464  26.134  1.00  0.00     0.122 A 
ATOM      6  C   UNL     1     -46.642  30.984  21.718  1.00  0.00     0.043 A 
ATOM      7  C   UNL     1     -47.714  30.100  21.699  1.00  0.00    -0.016 A 
ATOM      8  N   UNL     1     -46.368  31.774  22.775  1.00  0.00    -0.253 NA
ATOM      9  C   UNL     1     -48.569  30.018  22.800  1.00  0.00     0.048 A 
ATOM     10  H   UNL     1     -47.877  29.501  20.813  1.00  0.00     0.066 H 
ATOM     11  C   UNL     1     -47.153  31.691  23.859  1.00  0.00     0.076 A 
ATOM     12  C   UNL     1     -48.265  30.826  23.933  1.00  0.00     0.024 A 
ATOM     13  C   UNL     1     -46.846  32.489  24.952  1.00  0.00     0.007 A 
ATOM     14  C   UNL     1     -48.996  30.781  25.143  1.00  0.00    -0.047 A 
ATOM     15  H   UNL     1     -45.989  33.154  24.882  1.00  0.00     0.069 H 
ATOM     16  C   UNL     1     -48.666  31.592  26.233  1.00  0.00    -0.019 A 
ATOM     17  H   UNL     1     -49.825  30.083  25.247  1.00  0.00     0.063 H 
ATOM     18  H   UNL     1     -49.254  31.492  27.137  1.00  0.00     0.066 H 
BRANCH   6  19
ATOM     19  C   UNL     1     -45.708  31.078  20.540  1.00  0.00    -0.013 C 
ATOM     20  H   UNL     1     -45.578  30.081  20.102  1.00  0.00     0.033 H 
ATOM     21  H   UNL     1     -44.716  31.403  20.875  1.00  0.00     0.033 H 
BRANCH  19  22
ATOM     22  C   UNL     1     -46.240  32.030  19.479  1.00  0.00    -0.060 C 
ATOM     23  H   UNL     1     -47.094  31.597  18.948  1.00  0.00     0.023 H 
ATOM     24  H   UNL     1     -45.469  32.266  18.737  1.00  0.00     0.023 H 
ATOM     25  H   UNL     1     -46.566  32.967  19.941  1.00  0.00     0.023 H 
ENDBRANCH  19  22
ENDBRANCH   6  19
BRANCH   9  26
ATOM     26  N   UNL     1     -49.696  29.181  22.804  1.00  0.00    -0.368 N 
ATOM     27  C   UNL     1     -50.912  29.767  22.194  1.00  0.00     0.030 C 
ATOM     28  C   UNL     1     -49.555  27.731  22.560  1.00  0.00     0.030 C 
ATOM     29  C   UNL     1     -51.063  29.354  20.714  1.00  0.00     0.013 C 
ATOM     30  H   UNL     1     -51.781  29.408  22.758  1.00  0.00     0.051 H 
ATOM     31  H   UNL     1     -50.925  30.862  22.264  1.00  0.00     0.051 H 
ATOM     32  C   UNL     1     -49.827  27.327  21.091  1.00  0.00     0.013 C 
ATOM     33  H   UNL     1     -50.289  27.222  23.197  1.00  0.00     0.051 H 
ATOM     34  H   UNL     1     -48.571  27.366  22.880  1.00  0.00     0.051 H 
ATOM     35  N   UNL     1     -51.064  27.893  20.525  1.00  0.00    -0.313 NA
ATOM     36  H   UNL     1     -52.008  29.754  20.329  1.00  0.00     0.045 H 
ATOM     37  H   UNL     1     -50.258  29.800  20.117  1.00  0.00     0.045 H 
ATOM     38  H   UNL     1     -49.889  26.234  21.035  1.00  0.00     0.045 H 
ATOM     39  H   UNL     1     -48.985  27.621  20.454  1.00  0.00     0.045 H 
ATOM     40  H   UNL     1     -51.106  27.683  19.529  1.00  0.00     0.122 HD
ENDBRANCH   9  26
ENDBRANCH   4   5
ENDBRANCH   1   4
BRANCH   1  41
ATOM     41  C   UNL     1     -46.694  35.716  27.101  1.00  0.00     0.010 A 
ATOM     42  C   UNL     1     -48.015  35.961  27.449  1.00  0.00     0.034 A 
ATOM     43  C   UNL     1     -45.801  36.799  27.151  1.00  0.00    -0.028 A 
ATOM     44  N   UNL     1     -48.483  37.174  27.809  1.00  0.00    -0.262 NA
ATOM     45  H   UNL     1     -48.759  35.168  27.451  1.00  0.00     0.084 H 
ATOM     46  C   UNL     1     -46.249  38.078  27.515  1.00  0.00     0.066 A 
ATOM     47  H   UNL     1     -44.760  36.603  26.917  1.00  0.00     0.065 H 
ATOM     48  C   UNL     1     -47.596  38.202  27.832  1.00  0.00     0.051 A 
ATOM     49  H   UNL     1     -48.063  39.140  28.110  1.00  0.00     0.086 H 
BRANCH  46  50
ATOM     50  N   UNL     1     -45.355  39.197  27.551  1.00  0.00    -0.299 N 
ATOM     51  C   UNL     1     -45.333  40.228  26.620  1.00  0.00     0.018 A 
ATOM     52  C   UNL     1     -44.363  39.475  28.490  1.00  0.00     0.150 A 
ATOM     53  C   UNL     1     -44.362  41.158  26.949  1.00  0.00     0.012 A 
ATOM     54  H   UNL     1     -46.026  40.243  25.793  1.00  0.00     0.083 H 
ATOM     55  C   UNL     1     -43.746  40.674  28.146  1.00  0.00     0.067 A 
ATOM     56  N   UNL     1     -44.025  38.715  29.551  1.00  0.00    -0.218 NA
ATOM     57  C   UNL     1     -42.716  41.126  28.990  1.00  0.00     0.136 A 
ATOM     58  C   UNL     1     -43.027  39.239  30.273  1.00  0.00     0.120 A 
ATOM     59  N   UNL     1     -42.370  40.390  30.059  1.00  0.00    -0.219 NA
ATOM     60  H   UNL     1     -42.711  38.666  31.139  1.00  0.00     0.106 H 
BRANCH  53  61
ATOM     61  C   UNL     1     -43.979  42.423  26.223  1.00  0.00     0.085 C 
ATOM     62  C   UNL     1     -44.726  42.706  24.926  1.00  0.00    -0.020 C 
ATOM     63  O   UNL     1     -44.233  43.571  27.069  1.00  0.00    -0.373 OA
ATOM     64  H   UNL     1     -42.900  42.384  26.026  1.00  0.00     0.066 H 
ATOM     65  C   UNL     1     -45.919  43.500  25.401  1.00  0.00    -0.027 C 
ATOM     66  H   UNL     1     -44.109  43.351  24.289  1.00  0.00     0.030 H 
ATOM     67  H   UNL     1     -44.991  41.825  24.336  1.00  0.00     0.030 H 
ATOM     68  C   UNL     1     -45.315  44.330  26.510  1.00  0.00     0.048 C 
ATOM     69  H   UNL     1     -46.381  44.107  24.619  1.00  0.00     0.029 H 
ATOM     70  H   UNL     1     -46.683  42.827  25.806  1.00  0.00     0.029 H 
ATOM     71  H   UNL     1     -46.038  44.572  27.294  1.00  0.00     0.057 H 
ATOM     72  H   UNL     1     -44.897  45.265  26.122  1.00  0.00     0.057 H 
ENDBRANCH  53  61
BRANCH  57  73
ATOM     73  N   UNL     1     -42.033  42.321  28.798  1.00  0.00    -0.383 N 
ATOM     74  H   UNL     1     -42.568  43.129  29.117  1.00  0.00     0.158 HD
ATOM     75  H   UNL     1     -41.095  42.249  29.171  1.00  0.00     0.158 HD
ENDBRANCH  57  73
ENDBRANCH  46  50
ENDBRANCH   1  41
TORSDOF 9
ENDMDL
MODEL 3
REMARK VINA RESULT:     -10.3      2.842     12.348
REMARK SMILES CCc1cc(N2CCNCC2)c2ccc(OCc3cncc(-n4cc([C@H]5CCCO5)c5c(N)ncnc54)c3)cc2n1
REMARK SMILES IDX 17 1 16 4 15 5 3 6 4 7 41 8 5 9 40 11 12 12 39 13 13 14
REMARK SMILES IDX 14 16 2 19 1 22 6 26 7 27 11 28 8 29 10 32 9 35 18 41 19 42
REMARK SMILES IDX 38 43 20 44 22 46 21 48 23 50 24 51 37 52 25 53 31 55 36 56
REMARK SMILES IDX 32 57 35 58 34 59 26 61 27 62 30 63 28 65 29 68 33 73
REMARK H PARENT 17 2 17 3 4 10 39 15 13 17 14 18 2 20 2 21 1 23 1 24 1 25 7 30
REMARK H PARENT 7 31 11 33 11 34 8 36 8 37 10 38 10 39 9 40 19 45 38 47 21 49
REMARK H PARENT 24 54 35 60 26 64 27 66 27 67 28 69 28 70 29 71 29 72 33 74
REMARK H PARENT 33 75
REMARK Flexibility Score: inf
ROOT
ATOM      1  C   UNL     1     -47.071  33.889  26.258  1.00  0.00     0.115 C 
ATOM      2  H   UNL     1     -46.063  33.660  26.622  1.00  0.00     0.076 H 
ATOM      3  H   UNL     1     -47.012  33.854  25.162  1.00  0.00     0.076 H 
ENDROOT
BRANCH   1   4
ATOM      4  O   UNL     1     -47.928  32.861  26.758  1.00  0.00    -0.489 OA
BRANCH   4   5
ATOM      5  C   UNL     1     -48.422  31.939  25.878  1.00  0.00     0.122 A 
ATOM      6  C   UNL     1     -49.075  27.267  25.295  1.00  0.00     0.043 A 
ATOM      7  C   UNL     1     -49.682  27.426  24.054  1.00  0.00    -0.016 A 
ATOM      8  N   UNL     1     -48.612  28.306  26.018  1.00  0.00    -0.253 NA
ATOM      9  C   UNL     1     -49.814  28.703  23.503  1.00  0.00     0.048 A 
ATOM     10  H   UNL     1     -50.024  26.546  23.527  1.00  0.00     0.066 H 
ATOM     11  C   UNL     1     -48.757  29.545  25.527  1.00  0.00     0.076 A 
ATOM     12  C   UNL     1     -49.357  29.807  24.277  1.00  0.00     0.024 A 
ATOM     13  C   UNL     1     -48.301  30.610  26.292  1.00  0.00     0.007 A 
ATOM     14  C   UNL     1     -49.506  31.156  23.878  1.00  0.00    -0.047 A 
ATOM     15  H   UNL     1     -47.838  30.395  27.252  1.00  0.00     0.069 H 
ATOM     16  C   UNL     1     -49.042  32.212  24.667  1.00  0.00    -0.019 A 
ATOM     17  H   UNL     1     -50.014  31.389  22.944  1.00  0.00     0.063 H 
ATOM     18  H   UNL     1     -49.207  33.223  24.312  1.00  0.00     0.066 H 
BRANCH   6  19
ATOM     19  C   UNL     1     -48.931  25.897  25.904  1.00  0.00    -0.013 C 
ATOM     20  H   UNL     1     -49.567  25.190  25.357  1.00  0.00     0.033 H 
ATOM     21  H   UNL     1     -49.293  25.908  26.939  1.00  0.00     0.033 H 
BRANCH  19  22
ATOM     22  C   UNL     1     -47.488  25.415  25.861  1.00  0.00    -0.060 C 
ATOM     23  H   UNL     1     -46.922  25.773  26.726  1.00  0.00     0.023 H 
ATOM     24  H   UNL     1     -46.980  25.769  24.957  1.00  0.00     0.023 H 
ATOM     25  H   UNL     1     -47.455  24.321  25.862  1.00  0.00     0.023 H 
ENDBRANCH  19  22
ENDBRANCH   6  19
BRANCH   9  26
ATOM     26  N   UNL     1     -50.369  28.907  22.229  1.00  0.00    -0.368 N 
ATOM     27  C   UNL     1     -49.539  28.424  21.102  1.00  0.00     0.030 C 
ATOM     28  C   UNL     1     -51.820  28.740  22.008  1.00  0.00     0.030 C 
ATOM     29  C   UNL     1     -49.955  27.006  20.654  1.00  0.00     0.013 C 
ATOM     30  H   UNL     1     -49.670  29.119  20.263  1.00  0.00     0.051 H 
ATOM     31  H   UNL     1     -48.469  28.425  21.344  1.00  0.00     0.051 H 
ATOM     32  C   UNL     1     -52.198  27.347  21.447  1.00  0.00     0.013 C 
ATOM     33  H   UNL     1     -52.125  29.498  21.276  1.00  0.00     0.051 H 
ATOM     34  H   UNL     1     -52.391  28.952  22.920  1.00  0.00     0.051 H 
ATOM     35  N   UNL     1     -51.382  26.913  20.300  1.00  0.00    -0.313 NA
ATOM     36  H   UNL     1     -49.361  26.723  19.778  1.00  0.00     0.045 H 
ATOM     37  H   UNL     1     -49.725  26.282  21.446  1.00  0.00     0.045 H 
ATOM     38  H   UNL     1     -53.249  27.370  21.136  1.00  0.00     0.045 H 
ATOM     39  H   UNL     1     -52.126  26.589  22.234  1.00  0.00     0.045 H 
ATOM     40  H   UNL     1     -51.609  25.946  20.072  1.00  0.00     0.122 HD
ENDBRANCH   9  26
ENDBRANCH   4   5
ENDBRANCH   1   4
BRANCH   1  41
ATOM     41  C   UNL     1     -47.433  35.261  26.763  1.00  0.00     0.010 A 
ATOM     42  C   UNL     1     -48.725  35.569  27.168  1.00  0.00     0.034 A 
ATOM     43  C   UNL     1     -46.456  36.259  26.907  1.00  0.00    -0.028 A 
ATOM     44  N   UNL     1     -49.088  36.767  27.668  1.00  0.00    -0.262 NA
ATOM     45  H   UNL     1     -49.529  34.841  27.102  1.00  0.00     0.084 H 
ATOM     46  C   UNL     1     -46.793  37.521  27.419  1.00  0.00     0.066 A 
ATOM     47  H   UNL     1     -45.438  36.009  26.628  1.00  0.00     0.065 H 
ATOM     48  C   UNL     1     -48.121  37.715  27.780  1.00  0.00     0.051 A 
ATOM     49  H   UNL     1     -48.507  38.650  28.169  1.00  0.00     0.086 H 
BRANCH  46  50
ATOM     50  N   UNL     1     -45.812  38.557  27.554  1.00  0.00    -0.299 N 
ATOM     51  C   UNL     1     -45.598  39.574  26.633  1.00  0.00     0.018 A 
ATOM     52  C   UNL     1     -44.906  38.752  28.595  1.00  0.00     0.150 A 
ATOM     53  C   UNL     1     -44.589  40.416  27.067  1.00  0.00     0.012 A 
ATOM     54  H   UNL     1     -46.194  39.645  25.736  1.00  0.00     0.083 H 
ATOM     55  C   UNL     1     -44.152  39.889  28.323  1.00  0.00     0.067 A 
ATOM     56  N   UNL     1     -44.754  37.972  29.684  1.00  0.00    -0.218 NA
ATOM     57  C   UNL     1     -43.182  40.253  29.273  1.00  0.00     0.136 A 
ATOM     58  C   UNL     1     -43.796  38.411  30.512  1.00  0.00     0.120 A 
ATOM     59  N   UNL     1     -43.021  39.497  30.372  1.00  0.00    -0.219 NA
ATOM     60  H   UNL     1     -43.628  37.818  31.405  1.00  0.00     0.106 H 
BRANCH  53  61
ATOM     61  C   UNL     1     -44.018  41.637  26.389  1.00  0.00     0.085 C 
ATOM     62  C   UNL     1     -44.630  42.006  25.044  1.00  0.00    -0.020 C 
ATOM     63  O   UNL     1     -44.211  42.801  27.229  1.00  0.00    -0.373 OA
ATOM     64  H   UNL     1     -42.938  41.483  26.274  1.00  0.00     0.066 H 
ATOM     65  C   UNL     1     -45.763  42.921  25.439  1.00  0.00    -0.027 C 
ATOM     66  H   UNL     1     -43.900  42.585  24.464  1.00  0.00     0.030 H 
ATOM     67  H   UNL     1     -44.941  41.162  24.424  1.00  0.00     0.030 H 
ATOM     68  C   UNL     1     -45.160  43.676  26.602  1.00  0.00     0.048 C 
ATOM     69  H   UNL     1     -46.096  43.579  24.633  1.00  0.00     0.029 H 
ATOM     70  H   UNL     1     -46.624  42.333  25.776  1.00  0.00     0.029 H 
ATOM     71  H   UNL     1     -45.910  43.989  27.333  1.00  0.00     0.057 H 
ATOM     72  H   UNL     1     -44.616  44.562  26.259  1.00  0.00     0.057 H 
ENDBRANCH  53  61
BRANCH  57  73
ATOM     73  N   UNL     1     -42.378  41.381  29.159  1.00  0.00    -0.383 N 
ATOM     74  H   UNL     1     -42.526  41.875  28.278  1.00  0.00     0.158 HD
ATOM     75  H   UNL     1     -42.458  41.951  29.992  1.00  0.00     0.158 HD
ENDBRANCH  57  73
ENDBRANCH  46  50
ENDBRANCH   1  41
TORSDOF 9
ENDMDL
MODEL 4
REMARK VINA RESULT:     -10.0      2.247      3.080
REMARK SMILES CCc1cc(N2CCNCC2)c2ccc(OCc3cncc(-n4cc([C@H]5CCCO5)c5c(N)ncnc54)c3)cc2n1
REMARK SMILES IDX 17 1 16 4 15 5 3 6 4 7 41 8 5 9 40 11 12 12 39 13 13 14
REMARK SMILES IDX 14 16 2 19 1 22 6 26 7 27 11 28 8 29 10 32 9 35 18 41 19 42
REMARK SMILES IDX 38 43 20 44 22 46 21 48 23 50 24 51 37 52 25 53 31 55 36 56
REMARK SMILES IDX 32 57 35 58 34 59 26 61 27 62 30 63 28 65 29 68 33 73
REMARK H PARENT 17 2 17 3 4 10 39 15 13 17 14 18 2 20 2 21 1 23 1 24 1 25 7 30
REMARK H PARENT 7 31 11 33 11 34 8 36 8 37 10 38 10 39 9 40 19 45 38 47 21 49
REMARK H PARENT 24 54 35 60 26 64 27 66 27 67 28 69 28 70 29 71 29 72 33 74
REMARK H PARENT 33 75
REMARK Flexibility Score: inf
ROOT
ATOM      1  C   UNL     1     -48.138  35.113  27.222  1.00  0.00     0.115 C 
ATOM      2  H   UNL     1     -48.812  34.634  27.941  1.00  0.00     0.076 H 
ATOM      3  H   UNL     1     -48.737  35.876  26.707  1.00  0.00     0.076 H 
ENDROOT
BRANCH   1   4
ATOM      4  O   UNL     1     -47.090  35.714  27.985  1.00  0.00    -0.489 OA
BRANCH   4   5
ATOM      5  C   UNL     1     -46.631  36.945  27.606  1.00  0.00     0.122 A 
ATOM      6  C   UNL     1     -43.479  40.307  28.769  1.00  0.00     0.043 A 
ATOM      7  C   UNL     1     -43.840  41.125  27.705  1.00  0.00    -0.016 A 
ATOM      8  N   UNL     1     -44.073  39.122  29.011  1.00  0.00    -0.253 NA
ATOM      9  C   UNL     1     -44.869  40.735  26.844  1.00  0.00     0.048 A 
ATOM     10  H   UNL     1     -43.324  42.067  27.575  1.00  0.00     0.066 H 
ATOM     11  C   UNL     1     -45.041  38.708  28.180  1.00  0.00     0.076 A 
ATOM     12  C   UNL     1     -45.478  39.468  27.074  1.00  0.00     0.024 A 
ATOM     13  C   UNL     1     -45.627  37.473  28.422  1.00  0.00     0.007 A 
ATOM     14  C   UNL     1     -46.471  38.914  26.234  1.00  0.00    -0.047 A 
ATOM     15  H   UNL     1     -45.285  36.898  29.279  1.00  0.00     0.069 H 
ATOM     16  C   UNL     1     -47.044  37.667  26.496  1.00  0.00    -0.019 A 
ATOM     17  H   UNL     1     -46.786  39.455  25.343  1.00  0.00     0.063 H 
ATOM     18  H   UNL     1     -47.785  37.291  25.799  1.00  0.00     0.066 H 
BRANCH   6  19
ATOM     19  C   UNL     1     -42.367  40.712  29.701  1.00  0.00    -0.013 C 
ATOM     20  H   UNL     1     -41.968  39.819  30.196  1.00  0.00     0.033 H 
ATOM     21  H   UNL     1     -42.761  41.359  30.494  1.00  0.00     0.033 H 
BRANCH  19  22
ATOM     22  C   UNL     1     -41.244  41.420  28.958  1.00  0.00    -0.060 C 
ATOM     23  H   UNL     1     -41.467  42.483  28.819  1.00  0.00     0.023 H 
ATOM     24  H   UNL     1     -41.085  40.979  27.968  1.00  0.00     0.023 H 
ATOM     25  H   UNL     1     -40.309  41.340  29.520  1.00  0.00     0.023 H 
ENDBRANCH  19  22
ENDBRANCH   6  19
BRANCH   9  26
ATOM     26  N   UNL     1     -45.305  41.554  25.790  1.00  0.00    -0.368 N 
ATOM     27  C   UNL     1     -46.373  42.516  26.147  1.00  0.00     0.030 C 
ATOM     28  C   UNL     1     -44.342  42.081  24.802  1.00  0.00     0.030 C 
ATOM     29  C   UNL     1     -45.795  43.903  26.501  1.00  0.00     0.013 C 
ATOM     30  H   UNL     1     -47.043  42.615  25.284  1.00  0.00     0.051 H 
ATOM     31  H   UNL     1     -46.990  42.160  26.982  1.00  0.00     0.051 H 
ATOM     32  C   UNL     1     -43.867  43.521  25.117  1.00  0.00     0.013 C 
ATOM     33  H   UNL     1     -44.849  42.093  23.829  1.00  0.00     0.051 H 
ATOM     34  H   UNL     1     -43.480  41.412  24.687  1.00  0.00     0.051 H 
ATOM     35  N   UNL     1     -44.956  44.464  25.428  1.00  0.00    -0.313 NA
ATOM     36  H   UNL     1     -46.625  44.595  26.689  1.00  0.00     0.045 H 
ATOM     37  H   UNL     1     -45.212  43.840  27.428  1.00  0.00     0.045 H 
ATOM     38  H   UNL     1     -43.314  43.903  24.252  1.00  0.00     0.045 H 
ATOM     39  H   UNL     1     -43.162  43.513  25.955  1.00  0.00     0.045 H 
ATOM     40  H   UNL     1     -44.556  45.348  25.741  1.00  0.00     0.122 HD
ENDBRANCH   9  26
ENDBRANCH   4   5
ENDBRANCH   1   4
BRANCH   1  41
ATOM     41  C   UNL     1     -47.649  34.044  26.280  1.00  0.00     0.010 A 
ATOM     42  C   UNL     1     -46.325  33.991  25.866  1.00  0.00     0.034 A 
ATOM     43  C   UNL     1     -48.505  33.021  25.842  1.00  0.00    -0.028 A 
ATOM     44  N   UNL     1     -45.830  33.030  25.060  1.00  0.00    -0.262 NA
ATOM     45  H   UNL     1     -45.602  34.740  26.179  1.00  0.00     0.084 H 
ATOM     46  C   UNL     1     -48.030  32.005  24.998  1.00  0.00     0.066 A 
ATOM     47  H   UNL     1     -49.531  33.038  26.195  1.00  0.00     0.065 H 
ATOM     48  C   UNL     1     -46.688  32.063  24.643  1.00  0.00     0.051 A 
ATOM     49  H   UNL     1     -46.211  31.348  23.983  1.00  0.00     0.086 H 
BRANCH  46  50
ATOM     50  N   UNL     1     -48.896  30.965  24.527  1.00  0.00    -0.299 N 
ATOM     51  C   UNL     1     -48.749  29.614  24.818  1.00  0.00     0.018 A 
ATOM     52  C   UNL     1     -50.020  31.086  23.711  1.00  0.00     0.150 A 
ATOM     53  C   UNL     1     -49.756  28.877  24.220  1.00  0.00     0.012 A 
ATOM     54  H   UNL     1     -47.947  29.269  25.452  1.00  0.00     0.083 H 
ATOM     55  C   UNL     1     -50.568  29.821  23.516  1.00  0.00     0.067 A 
ATOM     56  N   UNL     1     -50.503  32.224  23.174  1.00  0.00    -0.218 NA
ATOM     57  C   UNL     1     -51.723  29.744  22.720  1.00  0.00     0.136 A 
ATOM     58  C   UNL     1     -51.598  32.025  22.427  1.00  0.00     0.120 A 
ATOM     59  N   UNL     1     -52.230  30.867  22.182  1.00  0.00    -0.219 NA
ATOM     60  H   UNL     1     -52.029  32.908  21.966  1.00  0.00     0.106 H 
BRANCH  53  61
ATOM     61  C   UNL     1     -49.986  27.387  24.255  1.00  0.00     0.085 C 
ATOM     62  C   UNL     1     -48.955  26.566  25.020  1.00  0.00    -0.020 C 
ATOM     63  O   UNL     1     -51.253  27.100  24.894  1.00  0.00    -0.373 OA
ATOM     64  H   UNL     1     -50.045  27.032  23.219  1.00  0.00     0.066 H 
ATOM     65  C   UNL     1     -49.521  26.550  26.419  1.00  0.00    -0.027 C 
ATOM     66  H   UNL     1     -48.954  25.539  24.632  1.00  0.00     0.030 H 
ATOM     67  H   UNL     1     -47.928  26.935  24.965  1.00  0.00     0.030 H 
ATOM     68  C   UNL     1     -51.006  26.453  26.151  1.00  0.00     0.048 C 
ATOM     69  H   UNL     1     -49.146  25.729  27.034  1.00  0.00     0.029 H 
ATOM     70  H   UNL     1     -49.291  27.492  26.930  1.00  0.00     0.029 H 
ATOM     71  H   UNL     1     -51.605  26.927  26.933  1.00  0.00     0.057 H 
ATOM     72  H   UNL     1     -51.323  25.409  26.053  1.00  0.00     0.057 H 
ENDBRANCH  53  61
BRANCH  57  73
ATOM     73  N   UNL     1     -52.404  28.559  22.465  1.00  0.00    -0.383 N 
ATOM     74  H   UNL     1     -53.403  28.708  22.322  1.00  0.00     0.158 HD
ATOM     75  H   UNL     1     -51.935  28.040  21.733  1.00  0.00     0.158 HD
ENDBRANCH  57  73
ENDBRANCH  46  50
ENDBRANCH   1  41
TORSDOF 9
ENDMDL
MODEL 5
REMARK VINA RESULT:      -9.9      2.265     11.865
REMARK SMILES CCc1cc(N2CCNCC2)c2ccc(OCc3cncc(-n4cc([C@H]5CCCO5)c5c(N)ncnc54)c3)cc2n1
REMARK SMILES IDX 17 1 16 4 15 5 3 6 4 7 41 8 5 9 40 11 12 12 39 13 13 14
REMARK SMILES IDX 14 16 2 19 1 22 6 26 7 27 11 28 8 29 10 32 9 35 18 41 19 42
REMARK SMILES IDX 38 43 20 44 22 46 21 48 23 50 24 51 37 52 25 53 31 55 36 56
REMARK SMILES IDX 32 57 35 58 34 59 26 61 27 62 30 63 28 65 29 68 33 73
REMARK H PARENT 17 2 17 3 4 10 39 15 13 17 14 18 2 20 2 21 1 23 1 24 1 25 7 30
REMARK H PARENT 7 31 11 33 11 34 8 36 8 37 10 38 10 39 9 40 19 45 38 47 21 49
REMARK H PARENT 24 54 35 60 26 64 27 66 27 67 28 69 28 70 29 71 29 72 33 74
REMARK H PARENT 33 75
REMARK Flexibility Score: inf
ROOT
ATOM      1  C   UNL     1     -46.056  34.379  26.796  1.00  0.00     0.115 C 
ATOM      2  H   UNL     1     -45.019  34.023  26.828  1.00  0.00     0.076 H 
ATOM      3  H   UNL     1     -46.248  34.653  25.750  1.00  0.00     0.076 H 
ENDROOT
BRANCH   1   4
ATOM      4  O   UNL     1     -46.876  33.281  27.198  1.00  0.00    -0.489 OA
BRANCH   4   5
ATOM      5  C   UNL     1     -47.347  32.433  26.235  1.00  0.00     0.122 A 
ATOM      6  C   UNL     1     -46.602  31.049  21.749  1.00  0.00     0.043 A 
ATOM      7  C   UNL     1     -47.638  30.123  21.779  1.00  0.00    -0.016 A 
ATOM      8  N   UNL     1     -46.298  31.835  22.800  1.00  0.00    -0.253 NA
ATOM      9  C   UNL     1     -48.424  29.994  22.926  1.00  0.00     0.048 A 
ATOM     10  H   UNL     1     -47.830  29.530  20.895  1.00  0.00     0.066 H 
ATOM     11  C   UNL     1     -47.014  31.707  23.927  1.00  0.00     0.076 A 
ATOM     12  C   UNL     1     -48.085  30.798  24.052  1.00  0.00     0.024 A 
ATOM     13  C   UNL     1     -46.674  32.503  25.012  1.00  0.00     0.007 A 
ATOM     14  C   UNL     1     -48.741  30.709  25.302  1.00  0.00    -0.047 A 
ATOM     15  H   UNL     1     -45.849  33.202  24.902  1.00  0.00     0.069 H 
ATOM     16  C   UNL     1     -48.380  31.518  26.383  1.00  0.00    -0.019 A 
ATOM     17  H   UNL     1     -49.535  29.977  25.443  1.00  0.00     0.063 H 
ATOM     18  H   UNL     1     -48.909  31.383  27.318  1.00  0.00     0.066 H 
BRANCH   6  19
ATOM     19  C   UNL     1     -45.743  31.195  20.520  1.00  0.00    -0.013 C 
ATOM     20  H   UNL     1     -45.558  30.203  20.089  1.00  0.00     0.033 H 
ATOM     21  H   UNL     1     -44.764  31.604  20.795  1.00  0.00     0.033 H 
BRANCH  19  22
ATOM     22  C   UNL     1     -46.406  32.082  19.477  1.00  0.00    -0.060 C 
ATOM     23  H   UNL     1     -45.765  32.212  18.599  1.00  0.00     0.023 H 
ATOM     24  H   UNL     1     -46.624  33.075  19.883  1.00  0.00     0.023 H 
ATOM     25  H   UNL     1     -47.350  31.636  19.145  1.00  0.00     0.023 H 
ENDBRANCH  19  22
ENDBRANCH   6  19
BRANCH   9  26
ATOM     26  N   UNL     1     -49.515  29.112  22.983  1.00  0.00    -0.368 N 
ATOM     27  C   UNL     1     -50.812  29.698  22.573  1.00  0.00     0.030 C 
ATOM     28  C   UNL     1     -49.357  27.696  22.593  1.00  0.00     0.030 C 
ATOM     29  C   UNL     1     -51.125  29.409  21.089  1.00  0.00     0.013 C 
ATOM     30  H   UNL     1     -51.597  29.255  23.199  1.00  0.00     0.051 H 
ATOM     31  H   UNL     1     -50.852  30.781  22.744  1.00  0.00     0.051 H 
ATOM     32  C   UNL     1     -49.789  27.411  21.134  1.00  0.00     0.013 C 
ATOM     33  H   UNL     1     -49.995  27.103  23.261  1.00  0.00     0.051 H 
ATOM     34  H   UNL     1     -48.332  27.347  22.764  1.00  0.00     0.051 H 
ATOM     35  N   UNL     1     -51.102  27.971  20.769  1.00  0.00    -0.313 NA
ATOM     36  H   UNL     1     -52.121  29.801  20.854  1.00  0.00     0.045 H 
ATOM     37  H   UNL     1     -50.410  29.939  20.447  1.00  0.00     0.045 H 
ATOM     38  H   UNL     1     -49.822  26.325  20.986  1.00  0.00     0.045 H 
ATOM     39  H   UNL     1     -49.038  27.794  20.435  1.00  0.00     0.045 H 
ATOM     40  H   UNL     1     -51.254  27.847  19.769  1.00  0.00     0.122 HD
ENDBRANCH   9  26
ENDBRANCH   4   5
ENDBRANCH   1   4
BRANCH   1  41
ATOM     41  C   UNL     1     -46.155  35.564  27.720  1.00  0.00     0.010 A 
ATOM     42  C   UNL     1     -46.501  35.415  29.056  1.00  0.00     0.034 A 
ATOM     43  C   UNL     1     -45.832  36.856  27.276  1.00  0.00    -0.028 A 
ATOM     44  N   UNL     1     -46.561  36.438  29.933  1.00  0.00    -0.262 NA
ATOM     45  H   UNL     1     -46.747  34.442  29.475  1.00  0.00     0.084 H 
ATOM     46  C   UNL     1     -45.887  37.948  28.155  1.00  0.00     0.066 A 
ATOM     47  H   UNL     1     -45.524  36.970  26.242  1.00  0.00     0.065 H 
ATOM     48  C   UNL     1     -46.257  37.677  29.467  1.00  0.00     0.051 A 
ATOM     49  H   UNL     1     -46.353  38.439  30.233  1.00  0.00     0.086 H 
BRANCH  46  50
ATOM     50  N   UNL     1     -45.580  39.276  27.713  1.00  0.00    -0.299 N 
ATOM     51  C   UNL     1     -44.309  39.839  27.707  1.00  0.00     0.018 A 
ATOM     52  C   UNL     1     -46.455  40.240  27.214  1.00  0.00     0.150 A 
ATOM     53  C   UNL     1     -44.354  41.129  27.208  1.00  0.00     0.012 A 
ATOM     54  H   UNL     1     -43.452  39.275  28.040  1.00  0.00     0.083 H 
ATOM     55  C   UNL     1     -45.726  41.381  26.892  1.00  0.00     0.067 A 
ATOM     56  N   UNL     1     -47.791  40.118  27.078  1.00  0.00    -0.218 NA
ATOM     57  C   UNL     1     -46.444  42.467  26.362  1.00  0.00     0.136 A 
ATOM     58  C   UNL     1     -48.367  41.218  26.574  1.00  0.00     0.120 A 
ATOM     59  N   UNL     1     -47.774  42.364  26.206  1.00  0.00    -0.219 NA
ATOM     60  H   UNL     1     -49.444  41.177  26.446  1.00  0.00     0.106 H 
BRANCH  53  61
ATOM     61  C   UNL     1     -43.225  42.114  27.030  1.00  0.00     0.085 C 
ATOM     62  C   UNL     1     -42.834  42.918  28.263  1.00  0.00    -0.020 C 
ATOM     63  O   UNL     1     -42.021  41.414  26.632  1.00  0.00    -0.373 OA
ATOM     64  H   UNL     1     -43.500  42.797  26.217  1.00  0.00     0.066 H 
ATOM     65  C   UNL     1     -41.788  42.041  28.908  1.00  0.00    -0.027 C 
ATOM     66  H   UNL     1     -42.357  43.854  27.946  1.00  0.00     0.030 H 
ATOM     67  H   UNL     1     -43.658  43.183  28.930  1.00  0.00     0.030 H 
ATOM     68  C   UNL     1     -41.068  41.482  27.702  1.00  0.00     0.048 C 
ATOM     69  H   UNL     1     -41.123  42.580  29.588  1.00  0.00     0.029 H 
ATOM     70  H   UNL     1     -42.267  41.232  29.470  1.00  0.00     0.029 H 
ATOM     71  H   UNL     1     -40.651  40.488  27.886  1.00  0.00     0.057 H 
ATOM     72  H   UNL     1     -40.258  42.145  27.382  1.00  0.00     0.057 H 
ENDBRANCH  53  61
BRANCH  57  73
ATOM     73  N   UNL     1     -45.850  43.658  25.958  1.00  0.00    -0.383 N 
ATOM     74  H   UNL     1     -45.078  43.505  25.309  1.00  0.00     0.158 HD
ATOM     75  H   UNL     1     -46.559  44.309  25.644  1.00  0.00     0.158 HD
ENDBRANCH  57  73
ENDBRANCH  46  50
ENDBRANCH   1  41
TORSDOF 9
ENDMDL
MODEL 6
REMARK VINA RESULT:      -9.7      1.365      2.658
REMARK SMILES CCc1cc(N2CCNCC2)c2ccc(OCc3cncc(-n4cc([C@H]5CCCO5)c5c(N)ncnc54)c3)cc2n1
REMARK SMILES IDX 17 1 16 4 15 5 3 6 4 7 41 8 5 9 40 11 12 12 39 13 13 14
REMARK SMILES IDX 14 16 2 19 1 22 6 26 7 27 11 28 8 29 10 32 9 35 18 41 19 42
REMARK SMILES IDX 38 43 20 44 22 46 21 48 23 50 24 51 37 52 25 53 31 55 36 56
REMARK SMILES IDX 32 57 35 58 34 59 26 61 27 62 30 63 28 65 29 68 33 73
REMARK H PARENT 17 2 17 3 4 10 39 15 13 17 14 18 2 20 2 21 1 23 1 24 1 25 7 30
REMARK H PARENT 7 31 11 33 11 34 8 36 8 37 10 38 10 39 9 40 19 45 38 47 21 49
REMARK H PARENT 24 54 35 60 26 64 27 66 27 67 28 69 28 70 29 71 29 72 33 74
REMARK H PARENT 33 75
REMARK Flexibility Score: inf
ROOT
ATOM      1  C   UNL     1     -47.907  36.521  27.145  1.00  0.00     0.115 C 
ATOM      2  H   UNL     1     -48.896  36.515  27.621  1.00  0.00     0.076 H 
ATOM      3  H   UNL     1     -48.044  37.010  26.172  1.00  0.00     0.076 H 
ENDROOT
BRANCH   1   4
ATOM      4  O   UNL     1     -47.054  37.294  27.991  1.00  0.00    -0.489 OA
BRANCH   4   5
ATOM      5  C   UNL     1     -46.572  38.483  27.520  1.00  0.00     0.122 A 
ATOM      6  C   UNL     1     -47.939  42.849  26.229  1.00  0.00     0.043 A 
ATOM      7  C   UNL     1     -46.642  43.254  25.936  1.00  0.00    -0.016 A 
ATOM      8  N   UNL     1     -48.234  41.606  26.659  1.00  0.00    -0.253 NA
ATOM      9  C   UNL     1     -45.584  42.352  26.067  1.00  0.00     0.048 A 
ATOM     10  H   UNL     1     -46.480  44.266  25.589  1.00  0.00     0.066 H 
ATOM     11  C   UNL     1     -47.233  40.730  26.827  1.00  0.00     0.076 A 
ATOM     12  C   UNL     1     -45.885  41.047  26.554  1.00  0.00     0.024 A 
ATOM     13  C   UNL     1     -47.545  39.462  27.296  1.00  0.00     0.007 A 
ATOM     14  C   UNL     1     -44.902  40.064  26.813  1.00  0.00    -0.047 A 
ATOM     15  H   UNL     1     -48.587  39.228  27.500  1.00  0.00     0.069 H 
ATOM     16  C   UNL     1     -45.240  38.794  27.289  1.00  0.00    -0.019 A 
ATOM     17  H   UNL     1     -43.850  40.300  26.663  1.00  0.00     0.063 H 
ATOM     18  H   UNL     1     -44.436  38.095  27.487  1.00  0.00     0.066 H 
BRANCH   6  19
ATOM     19  C   UNL     1     -49.089  43.814  26.098  1.00  0.00    -0.013 C 
ATOM     20  H   UNL     1     -48.948  44.422  25.197  1.00  0.00     0.033 H 
ATOM     21  H   UNL     1     -49.092  44.508  26.947  1.00  0.00     0.033 H 
BRANCH  19  22
ATOM     22  C   UNL     1     -50.422  43.086  26.013  1.00  0.00    -0.060 C 
ATOM     23  H   UNL     1     -50.337  42.055  26.373  1.00  0.00     0.023 H 
ATOM     24  H   UNL     1     -50.789  43.052  24.981  1.00  0.00     0.023 H 
ATOM     25  H   UNL     1     -51.172  43.598  26.624  1.00  0.00     0.023 H 
ENDBRANCH  19  22
ENDBRANCH   6  19
BRANCH   9  26
ATOM     26  N   UNL     1     -44.266  42.699  25.729  1.00  0.00    -0.368 N 
ATOM     27  C   UNL     1     -43.947  42.609  24.286  1.00  0.00     0.030 C 
ATOM     28  C   UNL     1     -43.586  43.816  26.415  1.00  0.00     0.030 C 
ATOM     29  C   UNL     1     -44.099  43.974  23.582  1.00  0.00     0.013 C 
ATOM     30  H   UNL     1     -42.909  42.268  24.189  1.00  0.00     0.051 H 
ATOM     31  H   UNL     1     -44.568  41.867  23.769  1.00  0.00     0.051 H 
ATOM     32  C   UNL     1     -43.652  45.149  25.631  1.00  0.00     0.013 C 
ATOM     33  H   UNL     1     -42.531  43.535  26.524  1.00  0.00     0.051 H 
ATOM     34  H   UNL     1     -43.969  43.953  27.434  1.00  0.00     0.051 H 
ATOM     35  N   UNL     1     -43.290  45.034  24.208  1.00  0.00    -0.313 NA
ATOM     36  H   UNL     1     -43.787  43.870  22.536  1.00  0.00     0.045 H 
ATOM     37  H   UNL     1     -45.154  44.275  23.574  1.00  0.00     0.045 H 
ATOM     38  H   UNL     1     -42.974  45.867  26.105  1.00  0.00     0.045 H 
ATOM     39  H   UNL     1     -44.657  45.581  25.702  1.00  0.00     0.045 H 
ATOM     40  H   UNL     1     -43.477  45.920  23.740  1.00  0.00     0.122 HD
ENDBRANCH   9  26
ENDBRANCH   4   5
ENDBRANCH   1   4
BRANCH   1  41
ATOM     41  C   UNL     1     -47.465  35.088  27.005  1.00  0.00     0.010 A 
ATOM     42  C   UNL     1     -46.576  34.512  27.901  1.00  0.00     0.034 A 
ATOM     43  C   UNL     1     -47.994  34.265  25.999  1.00  0.00    -0.028 A 
ATOM     44  N   UNL     1     -46.184  33.223  27.843  1.00  0.00    -0.262 NA
ATOM     45  H   UNL     1     -46.139  35.084  28.716  1.00  0.00     0.084 H 
ATOM     46  C   UNL     1     -47.608  32.919  25.901  1.00  0.00     0.066 A 
ATOM     47  H   UNL     1     -48.719  34.702  25.320  1.00  0.00     0.065 H 
ATOM     48  C   UNL     1     -46.703  32.457  26.848  1.00  0.00     0.051 A 
ATOM     49  H   UNL     1     -46.316  31.445  26.865  1.00  0.00     0.086 H 
BRANCH  46  50
ATOM     50  N   UNL     1     -48.124  32.070  24.867  1.00  0.00    -0.299 N 
ATOM     51  C   UNL     1     -49.470  31.805  24.654  1.00  0.00     0.018 A 
ATOM     52  C   UNL     1     -47.410  31.364  23.899  1.00  0.00     0.150 A 
ATOM     53  C   UNL     1     -49.631  30.959  23.570  1.00  0.00     0.012 A 
ATOM     54  H   UNL     1     -50.229  32.253  25.276  1.00  0.00     0.083 H 
ATOM     55  C   UNL     1     -48.313  30.682  23.089  1.00  0.00     0.067 A 
ATOM     56  N   UNL     1     -46.070  31.318  23.764  1.00  0.00    -0.218 NA
ATOM     57  C   UNL     1     -47.774  29.915  22.042  1.00  0.00     0.136 A 
ATOM     58  C   UNL     1     -45.674  30.549  22.741  1.00  0.00     0.120 A 
ATOM     59  N   UNL     1     -46.441  29.863  21.881  1.00  0.00    -0.219 NA
ATOM     60  H   UNL     1     -44.602  30.473  22.587  1.00  0.00     0.106 H 
BRANCH  53  61
ATOM     61  C   UNL     1     -50.905  30.401  22.987  1.00  0.00     0.085 C 
ATOM     62  C   UNL     1     -52.202  31.021  23.489  1.00  0.00    -0.020 C 
ATOM     63  O   UNL     1     -50.918  30.599  21.552  1.00  0.00    -0.373 OA
ATOM     64  H   UNL     1     -50.916  29.320  23.176  1.00  0.00     0.066 H 
ATOM     65  C   UNL     1     -52.418  32.159  22.522  1.00  0.00    -0.027 C 
ATOM     66  H   UNL     1     -53.019  30.298  23.365  1.00  0.00     0.030 H 
ATOM     67  H   UNL     1     -52.199  31.329  24.538  1.00  0.00     0.030 H 
ATOM     68  C   UNL     1     -51.934  31.557  21.223  1.00  0.00     0.048 C 
ATOM     69  H   UNL     1     -53.454  32.501  22.472  1.00  0.00     0.029 H 
ATOM     70  H   UNL     1     -51.790  33.014  22.799  1.00  0.00     0.029 H 
ATOM     71  H   UNL     1     -51.525  32.306  20.539  1.00  0.00     0.057 H 
ATOM     72  H   UNL     1     -52.740  31.021  20.710  1.00  0.00     0.057 H 
ENDBRANCH  53  61
BRANCH  57  73
ATOM     73  N   UNL     1     -48.549  29.209  21.128  1.00  0.00    -0.383 N 
ATOM     74  H   UNL     1     -48.240  28.242  21.024  1.00  0.00     0.158 HD
ATOM     75  H   UNL     1     -49.532  29.329  21.341  1.00  0.00     0.158 HD
ENDBRANCH  57  73
ENDBRANCH  46  50
ENDBRANCH   1  41
TORSDOF 9
ENDMDL
MODEL 7
REMARK VINA RESULT:      -9.5      2.586      4.008
REMARK SMILES CCc1cc(N2CCNCC2)c2ccc(OCc3cncc(-n4cc([C@H]5CCCO5)c5c(N)ncnc54)c3)cc2n1
REMARK SMILES IDX 17 1 16 4 15 5 3 6 4 7 41 8 5 9 40 11 12 12 39 13 13 14
REMARK SMILES IDX 14 16 2 19 1 22 6 26 7 27 11 28 8 29 10 32 9 35 18 41 19 42
REMARK SMILES IDX 38 43 20 44 22 46 21 48 23 50 24 51 37 52 25 53 31 55 36 56
REMARK SMILES IDX 32 57 35 58 34 59 26 61 27 62 30 63 28 65 29 68 33 73
REMARK H PARENT 17 2 17 3 4 10 39 15 13 17 14 18 2 20 2 21 1 23 1 24 1 25 7 30
REMARK H PARENT 7 31 11 33 11 34 8 36 8 37 10 38 10 39 9 40 19 45 38 47 21 49
REMARK H PARENT 24 54 35 60 26 64 27 66 27 67 28 69 28 70 29 71 29 72 33 74
REMARK H PARENT 33 75
REMARK Flexibility Score: inf
ROOT
ATOM      1  C   UNL     1     -48.780  35.635  27.373  1.00  0.00     0.115 C 
ATOM      2  H   UNL     1     -49.539  35.106  27.962  1.00  0.00     0.076 H 
ATOM      3  H   UNL     1     -49.328  36.358  26.755  1.00  0.00     0.076 H 
ENDROOT
BRANCH   1   4
ATOM      4  O   UNL     1     -47.929  36.300  28.309  1.00  0.00    -0.489 OA
BRANCH   4   5
ATOM      5  C   UNL     1     -47.256  37.416  27.898  1.00  0.00     0.122 A 
ATOM      6  C   UNL     1     -47.913  41.942  26.600  1.00  0.00     0.043 A 
ATOM      7  C   UNL     1     -46.555  42.167  26.411  1.00  0.00    -0.016 A 
ATOM      8  N   UNL     1     -48.407  40.747  26.982  1.00  0.00    -0.253 NA
ATOM      9  C   UNL     1     -45.643  41.127  26.600  1.00  0.00     0.048 A 
ATOM     10  H   UNL     1     -46.231  43.150  26.097  1.00  0.00     0.066 H 
ATOM     11  C   UNL     1     -47.550  39.739  27.204  1.00  0.00     0.076 A 
ATOM     12  C   UNL     1     -46.155  39.871  27.037  1.00  0.00     0.024 A 
ATOM     13  C   UNL     1     -48.067  38.522  27.623  1.00  0.00     0.007 A 
ATOM     14  C   UNL     1     -45.338  38.759  27.347  1.00  0.00    -0.047 A 
ATOM     15  H   UNL     1     -49.143  38.432  27.746  1.00  0.00     0.069 H 
ATOM     16  C   UNL     1     -45.880  37.543  27.771  1.00  0.00    -0.019 A 
ATOM     17  H   UNL     1     -44.255  38.850  27.279  1.00  0.00     0.063 H 
ATOM     18  H   UNL     1     -45.197  36.738  28.013  1.00  0.00     0.066 H 
BRANCH   6  19
ATOM     19  C   UNL     1     -48.907  43.057  26.405  1.00  0.00    -0.013 C 
ATOM     20  H   UNL     1     -49.197  43.456  27.384  1.00  0.00     0.033 H 
ATOM     21  H   UNL     1     -49.822  42.665  25.944  1.00  0.00     0.033 H 
BRANCH  19  22
ATOM     22  C   UNL     1     -48.331  44.177  25.553  1.00  0.00    -0.060 C 
ATOM     23  H   UNL     1     -47.699  43.783  24.750  1.00  0.00     0.023 H 
ATOM     24  H   UNL     1     -47.721  44.859  26.156  1.00  0.00     0.023 H 
ATOM     25  H   UNL     1     -49.138  44.758  25.096  1.00  0.00     0.023 H 
ENDBRANCH  19  22
ENDBRANCH   6  19
BRANCH   9  26
ATOM     26  N   UNL     1     -44.268  41.292  26.366  1.00  0.00    -0.368 N 
ATOM     27  C   UNL     1     -43.931  42.081  25.160  1.00  0.00     0.030 C 
ATOM     28  C   UNL     1     -43.337  41.509  27.493  1.00  0.00     0.030 C 
ATOM     29  C   UNL     1     -43.680  43.566  25.500  1.00  0.00     0.013 C 
ATOM     30  H   UNL     1     -43.021  41.655  24.719  1.00  0.00     0.051 H 
ATOM     31  H   UNL     1     -44.709  42.016  24.390  1.00  0.00     0.051 H 
ATOM     32  C   UNL     1     -43.010  43.002  27.739  1.00  0.00     0.013 C 
ATOM     33  H   UNL     1     -42.403  40.990  27.245  1.00  0.00     0.051 H 
ATOM     34  H   UNL     1     -43.708  41.043  28.413  1.00  0.00     0.051 H 
ATOM     35  N   UNL     1     -42.638  43.750  26.525  1.00  0.00    -0.313 NA
ATOM     36  H   UNL     1     -43.368  44.090  24.590  1.00  0.00     0.045 H 
ATOM     37  H   UNL     1     -44.613  44.035  25.838  1.00  0.00     0.045 H 
ATOM     38  H   UNL     1     -42.180  43.064  28.452  1.00  0.00     0.045 H 
ATOM     39  H   UNL     1     -43.861  43.504  28.212  1.00  0.00     0.045 H 
ATOM     40  H   UNL     1     -42.560  44.740  26.751  1.00  0.00     0.122 HD
ENDBRANCH   9  26
ENDBRANCH   4   5
ENDBRANCH   1   4
BRANCH   1  41
ATOM     41  C   UNL     1     -48.058  34.608  26.540  1.00  0.00     0.010 A 
ATOM     42  C   UNL     1     -46.753  34.807  26.113  1.00  0.00     0.034 A 
ATOM     43  C   UNL     1     -48.661  33.380  26.225  1.00  0.00    -0.028 A 
ATOM     44  N   UNL     1     -46.050  33.901  25.404  1.00  0.00    -0.262 NA
ATOM     45  H   UNL     1     -46.216  35.727  26.335  1.00  0.00     0.084 H 
ATOM     46  C   UNL     1     -47.966  32.412  25.484  1.00  0.00     0.066 A 
ATOM     47  H   UNL     1     -49.668  33.206  26.591  1.00  0.00     0.065 H 
ATOM     48  C   UNL     1     -46.668  32.729  25.103  1.00  0.00     0.051 A 
ATOM     49  H   UNL     1     -46.038  32.073  24.514  1.00  0.00     0.086 H 
BRANCH  46  50
ATOM     50  N   UNL     1     -48.574  31.162  25.138  1.00  0.00    -0.299 N 
ATOM     51  C   UNL     1     -48.417  29.977  25.846  1.00  0.00     0.018 A 
ATOM     52  C   UNL     1     -49.416  30.885  24.062  1.00  0.00     0.150 A 
ATOM     53  C   UNL     1     -49.147  28.959  25.256  1.00  0.00     0.012 A 
ATOM     54  H   UNL     1     -47.812  29.942  26.739  1.00  0.00     0.083 H 
ATOM     55  C   UNL     1     -49.785  29.544  24.118  1.00  0.00     0.067 A 
ATOM     56  N   UNL     1     -49.805  31.749  23.103  1.00  0.00    -0.218 NA
ATOM     57  C   UNL     1     -50.648  29.079  23.110  1.00  0.00     0.136 A 
ATOM     58  C   UNL     1     -50.615  31.191  22.194  1.00  0.00     0.120 A 
ATOM     59  N   UNL     1     -51.058  29.925  22.151  1.00  0.00    -0.219 NA
ATOM     60  H   UNL     1     -50.958  31.841  21.395  1.00  0.00     0.106 H 
BRANCH  53  61
ATOM     61  C   UNL     1     -49.264  27.515  25.674  1.00  0.00     0.085 C 
ATOM     62  C   UNL     1     -48.494  26.507  24.830  1.00  0.00    -0.020 C 
ATOM     63  O   UNL     1     -48.760  27.350  27.021  1.00  0.00    -0.373 OA
ATOM     64  H   UNL     1     -50.329  27.253  25.680  1.00  0.00     0.066 H 
ATOM     65  C   UNL     1     -47.153  26.457  25.522  1.00  0.00    -0.027 C 
ATOM     66  H   UNL     1     -48.970  25.523  24.922  1.00  0.00     0.030 H 
ATOM     67  H   UNL     1     -48.431  26.739  23.765  1.00  0.00     0.030 H 
ATOM     68  C   UNL     1     -47.550  26.580  26.975  1.00  0.00     0.048 C 
ATOM     69  H   UNL     1     -46.585  25.548  25.311  1.00  0.00     0.029 H 
ATOM     70  H   UNL     1     -46.542  27.317  25.224  1.00  0.00     0.029 H 
ATOM     71  H   UNL     1     -46.780  27.067  27.581  1.00  0.00     0.057 H 
ATOM     72  H   UNL     1     -47.766  25.599  27.410  1.00  0.00     0.057 H 
ENDBRANCH  53  61
BRANCH  57  73
ATOM     73  N   UNL     1     -51.133  27.777  23.054  1.00  0.00    -0.383 N 
ATOM     74  H   UNL     1     -50.429  27.115  22.725  1.00  0.00     0.158 HD
ATOM     75  H   UNL     1     -51.579  27.534  23.930  1.00  0.00     0.158 HD
ENDBRANCH  57  73
ENDBRANCH  46  50
ENDBRANCH   1  41
TORSDOF 9
ENDMDL
