MODEL 1
REMARK VINA RESULT:     -10.5      0.000      0.000
REMARK SMILES CNc1cc(CCCN2CCOCC2)c2ccc(OCc3cncc(-n4ccc5c(N)ncnc54)c3)cc2n1
REMARK SMILES IDX 3 1 4 2 5 3 15 4 16 5 17 6 18 7 37 8 38 9 39 10 2 15 1 17
REMARK SMILES IDX 6 21 7 24 8 27 9 30 10 31 14 32 11 33 13 36 12 39 19 44
REMARK SMILES IDX 20 45 21 48 22 49 36 50 23 51 25 53 24 55 26 57 27 58 35 59
REMARK SMILES IDX 28 60 29 62 34 63 30 65 33 66 32 67 31 69
REMARK H PARENT 4 11 16 12 17 13 37 14 2 16 1 18 1 19 1 20 6 22 6 23 7 25 7 26
REMARK H PARENT 8 28 8 29 10 34 10 35 14 37 14 38 11 40 11 41 13 42 13 43
REMARK H PARENT 20 46 20 47 22 52 36 54 24 56 27 61 28 64 33 68 31 70 31 71
REMARK Flexibility Score: inf
ROOT
ATOM      1  C   UNL     1     -46.423  30.532  22.599  1.00  0.00     0.126 A 
ATOM      2  C   UNL     1     -47.742  30.166  22.364  1.00  0.00    -0.016 A 
ATOM      3  C   UNL     1     -48.769  30.668  23.174  1.00  0.00    -0.035 A 
ATOM      4  C   UNL     1     -48.428  31.546  24.229  1.00  0.00     0.004 A 
ATOM      5  C   UNL     1     -49.362  32.109  25.128  1.00  0.00    -0.049 A 
ATOM      6  C   UNL     1     -48.949  32.974  26.142  1.00  0.00    -0.019 A 
ATOM      7  C   UNL     1     -47.604  33.294  26.283  1.00  0.00     0.122 A 
ATOM      8  C   UNL     1     -46.679  32.739  25.399  1.00  0.00     0.007 A 
ATOM      9  C   UNL     1     -47.064  31.873  24.381  1.00  0.00     0.077 A 
ATOM     10  N   UNL     1     -46.098  31.385  23.587  1.00  0.00    -0.231 NA
ATOM     11  H   UNL     1     -47.969  29.494  21.541  1.00  0.00     0.066 H 
ATOM     12  H   UNL     1     -50.420  31.881  25.054  1.00  0.00     0.063 H 
ATOM     13  H   UNL     1     -49.683  33.395  26.824  1.00  0.00     0.066 H 
ATOM     14  H   UNL     1     -45.620  32.962  25.474  1.00  0.00     0.069 H 
ENDROOT
BRANCH   1  15
ATOM     15  N   UNL     1     -45.434  30.021  21.740  1.00  0.00    -0.373 N 
ATOM     16  H   UNL     1     -45.861  29.789  20.848  1.00  0.00     0.161 HD
BRANCH  15  17
ATOM     17  C   UNL     1     -44.685  28.902  22.288  1.00  0.00     0.005 C 
ATOM     18  H   UNL     1     -44.794  28.041  21.621  1.00  0.00     0.045 H 
ATOM     19  H   UNL     1     -43.615  29.129  22.355  1.00  0.00     0.045 H 
ATOM     20  H   UNL     1     -45.062  28.608  23.273  1.00  0.00     0.045 H 
ENDBRANCH  15  17
ENDBRANCH   1  15
BRANCH   3  21
ATOM     21  C   UNL     1     -50.186  30.226  22.884  1.00  0.00    -0.026 C 
ATOM     22  H   UNL     1     -50.518  30.672  21.936  1.00  0.00     0.032 H 
ATOM     23  H   UNL     1     -50.869  30.631  23.639  1.00  0.00     0.032 H 
BRANCH  21  24
ATOM     24  C   UNL     1     -50.304  28.702  22.802  1.00  0.00    -0.036 C 
ATOM     25  H   UNL     1     -49.321  28.267  22.596  1.00  0.00     0.028 H 
ATOM     26  H   UNL     1     -50.950  28.429  21.956  1.00  0.00     0.028 H 
BRANCH  24  27
ATOM     27  C   UNL     1     -50.890  28.129  24.099  1.00  0.00    -0.001 C 
ATOM     28  H   UNL     1     -51.424  27.206  23.836  1.00  0.00     0.043 H 
ATOM     29  H   UNL     1     -51.632  28.817  24.525  1.00  0.00     0.043 H 
BRANCH  27  30
ATOM     30  N   UNL     1     -49.845  27.815  25.081  1.00  0.00    -0.299 NA
ATOM     31  C   UNL     1     -48.623  27.326  24.407  1.00  0.00     0.022 C 
ATOM     32  C   UNL     1     -50.280  26.858  26.124  1.00  0.00     0.022 C 
ATOM     33  C   UNL     1     -47.708  26.560  25.374  1.00  0.00     0.059 C 
ATOM     34  H   UNL     1     -48.080  28.179  23.988  1.00  0.00     0.045 H 
ATOM     35  H   UNL     1     -48.888  26.654  23.579  1.00  0.00     0.045 H 
ATOM     36  C   UNL     1     -49.745  25.431  25.917  1.00  0.00     0.059 C 
ATOM     37  H   UNL     1     -49.890  27.234  27.078  1.00  0.00     0.045 H 
ATOM     38  H   UNL     1     -51.369  26.822  26.229  1.00  0.00     0.045 H 
ATOM     39  O   UNL     1     -48.314  25.360  25.874  1.00  0.00    -0.379 OA
ATOM     40  H   UNL     1     -47.430  27.186  26.228  1.00  0.00     0.058 H 
ATOM     41  H   UNL     1     -46.782  26.272  24.867  1.00  0.00     0.058 H 
ATOM     42  H   UNL     1     -50.078  24.783  26.736  1.00  0.00     0.058 H 
ATOM     43  H   UNL     1     -50.136  25.003  24.987  1.00  0.00     0.058 H 
ENDBRANCH  27  30
ENDBRANCH  24  27
ENDBRANCH  21  24
ENDBRANCH   3  21
BRANCH   7  44
ATOM     44  O   UNL     1     -47.327  34.153  27.310  1.00  0.00    -0.489 OA
BRANCH  44  45
ATOM     45  C   UNL     1     -45.955  34.484  27.531  1.00  0.00     0.115 C 
ATOM     46  H   UNL     1     -45.468  33.671  28.085  1.00  0.00     0.076 H 
ATOM     47  H   UNL     1     -45.438  34.646  26.577  1.00  0.00     0.076 H 
BRANCH  45  48
ATOM     48  C   UNL     1     -45.881  35.759  28.327  1.00  0.00     0.010 A 
ATOM     49  C   UNL     1     -46.264  35.787  29.659  1.00  0.00     0.034 A 
ATOM     50  C   UNL     1     -45.375  36.946  27.774  1.00  0.00    -0.028 A 
ATOM     51  N   UNL     1     -46.189  36.884  30.439  1.00  0.00    -0.262 NA
ATOM     52  H   UNL     1     -46.654  34.905  30.160  1.00  0.00     0.084 H 
ATOM     53  C   UNL     1     -45.283  38.113  28.548  1.00  0.00     0.066 A 
ATOM     54  H   UNL     1     -45.054  36.916  26.738  1.00  0.00     0.065 H 
ATOM     55  C   UNL     1     -45.706  38.020  29.869  1.00  0.00     0.051 A 
ATOM     56  H   UNL     1     -45.697  38.853  30.561  1.00  0.00     0.086 H 
BRANCH  53  57
ATOM     57  N   UNL     1     -44.781  39.335  27.993  1.00  0.00    -0.300 N 
ATOM     58  C   UNL     1     -45.235  39.924  26.819  1.00  0.00     0.012 A 
ATOM     59  C   UNL     1     -43.769  40.159  28.496  1.00  0.00     0.150 A 
ATOM     60  C   UNL     1     -44.538  41.086  26.583  1.00  0.00    -0.031 A 
ATOM     61  H   UNL     1     -46.034  39.490  26.236  1.00  0.00     0.082 H 
ATOM     62  C   UNL     1     -43.607  41.241  27.635  1.00  0.00     0.061 A 
ATOM     63  N   UNL     1     -43.046  39.961  29.617  1.00  0.00    -0.218 NA
ATOM     64  H   UNL     1     -44.691  41.755  25.747  1.00  0.00     0.065 H 
ATOM     65  C   UNL     1     -42.629  42.190  27.969  1.00  0.00     0.136 A 
ATOM     66  C   UNL     1     -42.146  40.930  29.835  1.00  0.00     0.120 A 
ATOM     67  N   UNL     1     -41.898  42.014  29.082  1.00  0.00    -0.219 NA
ATOM     68  H   UNL     1     -41.539  40.825  30.729  1.00  0.00     0.106 H 
BRANCH  65  69
ATOM     69  N   UNL     1     -42.350  43.310  27.198  1.00  0.00    -0.383 N 
ATOM     70  H   UNL     1     -41.651  43.929  27.581  1.00  0.00     0.158 HD
ATOM     71  H   UNL     1     -43.210  43.744  26.880  1.00  0.00     0.158 HD
ENDBRANCH  65  69
ENDBRANCH  53  57
ENDBRANCH  45  48
ENDBRANCH  44  45
ENDBRANCH   7  44
TORSDOF 11
ENDMDL
MODEL 2
REMARK VINA RESULT:      -9.4      1.848      2.425
REMARK SMILES CNc1cc(CCCN2CCOCC2)c2ccc(OCc3cncc(-n4ccc5c(N)ncnc54)c3)cc2n1
REMARK SMILES IDX 3 1 4 2 5 3 15 4 16 5 17 6 18 7 37 8 38 9 39 10 2 15 1 17
REMARK SMILES IDX 6 21 7 24 8 27 9 30 10 31 14 32 11 33 13 36 12 39 19 44
REMARK SMILES IDX 20 45 21 48 22 49 36 50 23 51 25 53 24 55 26 57 27 58 35 59
REMARK SMILES IDX 28 60 29 62 34 63 30 65 33 66 32 67 31 69
REMARK H PARENT 4 11 16 12 17 13 37 14 2 16 1 18 1 19 1 20 6 22 6 23 7 25 7 26
REMARK H PARENT 8 28 8 29 10 34 10 35 14 37 14 38 11 40 11 41 13 42 13 43
REMARK H PARENT 20 46 20 47 22 52 36 54 24 56 27 61 28 64 33 68 31 70 31 71
REMARK Flexibility Score: inf
ROOT
ATOM      1  C   UNL     1     -46.089  30.609  22.967  1.00  0.00     0.126 A 
ATOM      2  C   UNL     1     -47.360  30.102  22.731  1.00  0.00    -0.016 A 
ATOM      3  C   UNL     1     -48.457  30.576  23.462  1.00  0.00    -0.035 A 
ATOM      4  C   UNL     1     -48.235  31.571  24.442  1.00  0.00     0.004 A 
ATOM      5  C   UNL     1     -49.247  32.122  25.260  1.00  0.00    -0.049 A 
ATOM      6  C   UNL     1     -48.951  33.107  26.202  1.00  0.00    -0.019 A 
ATOM      7  C   UNL     1     -47.647  33.562  26.351  1.00  0.00     0.122 A 
ATOM      8  C   UNL     1     -46.644  33.020  25.548  1.00  0.00     0.007 A 
ATOM      9  C   UNL     1     -46.912  32.036  24.602  1.00  0.00     0.077 A 
ATOM     10  N   UNL     1     -45.878  31.572  23.882  1.00  0.00    -0.231 NA
ATOM     11  H   UNL     1     -47.496  29.343  21.966  1.00  0.00     0.066 H 
ATOM     12  H   UNL     1     -50.278  31.791  25.178  1.00  0.00     0.063 H 
ATOM     13  H   UNL     1     -49.744  33.517  26.823  1.00  0.00     0.066 H 
ATOM     14  H   UNL     1     -45.613  33.347  25.631  1.00  0.00     0.069 H 
ENDROOT
BRANCH   1  15
ATOM     15  N   UNL     1     -45.028  30.118  22.186  1.00  0.00    -0.373 N 
ATOM     16  H   UNL     1     -45.252  30.253  21.205  1.00  0.00     0.161 HD
BRANCH  15  17
ATOM     17  C   UNL     1     -44.659  28.741  22.473  1.00  0.00     0.005 C 
ATOM     18  H   UNL     1     -45.518  28.095  22.268  1.00  0.00     0.045 H 
ATOM     19  H   UNL     1     -43.837  28.403  21.833  1.00  0.00     0.045 H 
ATOM     20  H   UNL     1     -44.388  28.608  23.525  1.00  0.00     0.045 H 
ENDBRANCH  15  17
ENDBRANCH   1  15
BRANCH   3  21
ATOM     21  C   UNL     1     -49.816  29.980  23.175  1.00  0.00    -0.026 C 
ATOM     22  H   UNL     1     -50.104  30.216  22.140  1.00  0.00     0.032 H 
ATOM     23  H   UNL     1     -50.580  30.465  23.795  1.00  0.00     0.032 H 
BRANCH  21  24
ATOM     24  C   UNL     1     -49.831  28.463  23.377  1.00  0.00    -0.036 C 
ATOM     25  H   UNL     1     -48.919  28.027  22.956  1.00  0.00     0.028 H 
ATOM     26  H   UNL     1     -50.671  28.026  22.820  1.00  0.00     0.028 H 
BRANCH  24  27
ATOM     27  C   UNL     1     -49.964  28.111  24.864  1.00  0.00    -0.001 C 
ATOM     28  H   UNL     1     -50.618  27.231  24.934  1.00  0.00     0.043 H 
ATOM     29  H   UNL     1     -50.462  28.923  25.409  1.00  0.00     0.043 H 
BRANCH  27  30
ATOM     30  N   UNL     1     -48.665  27.793  25.471  1.00  0.00    -0.299 NA
ATOM     31  C   UNL     1     -47.779  27.127  24.491  1.00  0.00     0.022 C 
ATOM     32  C   UNL     1     -48.771  26.985  26.706  1.00  0.00     0.022 C 
ATOM     33  C   UNL     1     -46.634  26.373  25.182  1.00  0.00     0.059 C 
ATOM     34  H   UNL     1     -47.364  27.882  23.815  1.00  0.00     0.045 H 
ATOM     35  H   UNL     1     -48.350  26.409  23.888  1.00  0.00     0.045 H 
ATOM     36  C   UNL     1     -48.422  25.499  26.508  1.00  0.00     0.059 C 
ATOM     37  H   UNL     1     -48.057  27.410  27.422  1.00  0.00     0.045 H 
ATOM     38  H   UNL     1     -49.759  27.063  27.173  1.00  0.00     0.045 H 
ATOM     39  O   UNL     1     -47.100  25.289  25.998  1.00  0.00    -0.379 OA
ATOM     40  H   UNL     1     -46.044  27.048  25.812  1.00  0.00     0.058 H 
ATOM     41  H   UNL     1     -45.955  25.951  24.434  1.00  0.00     0.058 H 
ATOM     42  H   UNL     1     -48.492  24.967  27.463  1.00  0.00     0.058 H 
ATOM     43  H   UNL     1     -49.133  25.025  25.821  1.00  0.00     0.058 H 
ENDBRANCH  27  30
ENDBRANCH  24  27
ENDBRANCH  21  24
ENDBRANCH   3  21
BRANCH   7  44
ATOM     44  O   UNL     1     -47.485  34.530  27.303  1.00  0.00    -0.489 OA
BRANCH  44  45
ATOM     45  C   UNL     1     -47.991  35.832  27.002  1.00  0.00     0.115 C 
ATOM     46  H   UNL     1     -48.080  35.946  25.915  1.00  0.00     0.076 H 
ATOM     47  H   UNL     1     -48.969  35.985  27.475  1.00  0.00     0.076 H 
BRANCH  45  48
ATOM     48  C   UNL     1     -47.041  36.864  27.548  1.00  0.00     0.010 A 
ATOM     49  C   UNL     1     -46.363  36.646  28.738  1.00  0.00     0.034 A 
ATOM     50  C   UNL     1     -46.763  38.052  26.854  1.00  0.00    -0.028 A 
ATOM     51  N   UNL     1     -45.473  37.511  29.264  1.00  0.00    -0.262 NA
ATOM     52  H   UNL     1     -46.517  35.745  29.326  1.00  0.00     0.084 H 
ATOM     53  C   UNL     1     -45.847  38.983  27.366  1.00  0.00     0.066 A 
ATOM     54  H   UNL     1     -47.277  38.209  25.911  1.00  0.00     0.065 H 
ATOM     55  C   UNL     1     -45.236  38.657  28.572  1.00  0.00     0.051 A 
ATOM     56  H   UNL     1     -44.523  39.298  29.075  1.00  0.00     0.086 H 
BRANCH  53  57
ATOM     57  N   UNL     1     -45.563  40.205  26.675  1.00  0.00    -0.300 N 
ATOM     58  C   UNL     1     -44.371  40.493  26.021  1.00  0.00     0.012 A 
ATOM     59  C   UNL     1     -46.392  41.321  26.519  1.00  0.00     0.150 A 
ATOM     60  C   UNL     1     -44.439  41.749  25.464  1.00  0.00    -0.031 A 
ATOM     61  H   UNL     1     -43.559  39.783  25.977  1.00  0.00     0.082 H 
ATOM     62  C   UNL     1     -45.711  42.281  25.777  1.00  0.00     0.061 A 
ATOM     63  N   UNL     1     -47.641  41.475  27.004  1.00  0.00    -0.218 NA
ATOM     64  H   UNL     1     -43.660  42.227  24.886  1.00  0.00     0.065 H 
ATOM     65  C   UNL     1     -46.380  43.486  25.512  1.00  0.00     0.136 A 
ATOM     66  C   UNL     1     -48.180  42.660  26.688  1.00  0.00     0.120 A 
ATOM     67  N   UNL     1     -47.625  43.660  25.983  1.00  0.00    -0.219 NA
ATOM     68  H   UNL     1     -49.190  42.837  27.047  1.00  0.00     0.106 H 
BRANCH  65  69
ATOM     69  N   UNL     1     -45.819  44.535  24.797  1.00  0.00    -0.383 N 
ATOM     70  H   UNL     1     -45.266  44.260  23.998  1.00  0.00     0.158 HD
ATOM     71  H   UNL     1     -45.397  45.207  25.427  1.00  0.00     0.158 HD
ENDBRANCH  65  69
ENDBRANCH  53  57
ENDBRANCH  45  48
ENDBRANCH  44  45
ENDBRANCH   7  44
TORSDOF 11
ENDMDL
MODEL 3
REMARK VINA RESULT:      -9.3      1.727      2.467
REMARK SMILES CNc1cc(CCCN2CCOCC2)c2ccc(OCc3cncc(-n4ccc5c(N)ncnc54)c3)cc2n1
REMARK SMILES IDX 3 1 4 2 5 3 15 4 16 5 17 6 18 7 37 8 38 9 39 10 2 15 1 17
REMARK SMILES IDX 6 21 7 24 8 27 9 30 10 31 14 32 11 33 13 36 12 39 19 44
REMARK SMILES IDX 20 45 21 48 22 49 36 50 23 51 25 53 24 55 26 57 27 58 35 59
REMARK SMILES IDX 28 60 29 62 34 63 30 65 33 66 32 67 31 69
REMARK H PARENT 4 11 16 12 17 13 37 14 2 16 1 18 1 19 1 20 6 22 6 23 7 25 7 26
REMARK H PARENT 8 28 8 29 10 34 10 35 14 37 14 38 11 40 11 41 13 42 13 43
REMARK H PARENT 20 46 20 47 22 52 36 54 24 56 27 61 28 64 33 68 31 70 31 71
REMARK Flexibility Score: inf
ROOT
ATOM      1  C   UNL     1     -46.521  30.929  22.595  1.00  0.00     0.126 A 
ATOM      2  C   UNL     1     -47.616  30.199  23.039  1.00  0.00    -0.016 A 
ATOM      3  C   UNL     1     -48.344  30.628  24.157  1.00  0.00    -0.035 A 
ATOM      4  C   UNL     1     -47.934  31.809  24.817  1.00  0.00     0.004 A 
ATOM      5  C   UNL     1     -48.567  32.341  25.962  1.00  0.00    -0.049 A 
ATOM      6  C   UNL     1     -48.107  33.518  26.554  1.00  0.00    -0.019 A 
ATOM      7  C   UNL     1     -47.012  34.187  26.022  1.00  0.00     0.122 A 
ATOM      8  C   UNL     1     -46.383  33.664  24.893  1.00  0.00     0.007 A 
ATOM      9  C   UNL     1     -46.819  32.492  24.284  1.00  0.00     0.077 A 
ATOM     10  N   UNL     1     -46.143  32.066  23.206  1.00  0.00    -0.231 NA
ATOM     11  H   UNL     1     -47.907  29.299  22.505  1.00  0.00     0.066 H 
ATOM     12  H   UNL     1     -49.423  31.847  26.412  1.00  0.00     0.063 H 
ATOM     13  H   UNL     1     -48.608  33.910  27.437  1.00  0.00     0.066 H 
ATOM     14  H   UNL     1     -45.524  34.154  24.445  1.00  0.00     0.069 H 
ENDROOT
BRANCH   1  15
ATOM     15  N   UNL     1     -45.843  30.470  21.452  1.00  0.00    -0.373 N 
ATOM     16  H   UNL     1     -44.900  30.202  21.716  1.00  0.00     0.161 HD
BRANCH  15  17
ATOM     17  C   UNL     1     -45.848  31.403  20.337  1.00  0.00     0.005 C 
ATOM     18  H   UNL     1     -44.829  31.497  19.948  1.00  0.00     0.045 H 
ATOM     19  H   UNL     1     -46.479  31.046  19.516  1.00  0.00     0.045 H 
ATOM     20  H   UNL     1     -46.176  32.401  20.648  1.00  0.00     0.045 H 
ENDBRANCH  15  17
ENDBRANCH   1  15
BRANCH   3  21
ATOM     21  C   UNL     1     -49.518  29.788  24.608  1.00  0.00    -0.026 C 
ATOM     22  H   UNL     1     -49.997  29.334  23.729  1.00  0.00     0.032 H 
ATOM     23  H   UNL     1     -50.291  30.427  25.050  1.00  0.00     0.032 H 
BRANCH  21  24
ATOM     24  C   UNL     1     -49.094  28.688  25.585  1.00  0.00    -0.036 C 
ATOM     25  H   UNL     1     -49.384  28.968  26.603  1.00  0.00     0.028 H 
ATOM     26  H   UNL     1     -47.999  28.599  25.586  1.00  0.00     0.028 H 
BRANCH  24  27
ATOM     27  C   UNL     1     -49.717  27.342  25.195  1.00  0.00    -0.001 C 
ATOM     28  H   UNL     1     -50.129  27.455  24.182  1.00  0.00     0.043 H 
ATOM     29  H   UNL     1     -50.559  27.100  25.855  1.00  0.00     0.043 H 
BRANCH  27  30
ATOM     30  N   UNL     1     -48.727  26.258  25.191  1.00  0.00    -0.299 NA
ATOM     31  C   UNL     1     -48.908  25.379  26.367  1.00  0.00     0.022 C 
ATOM     32  C   UNL     1     -47.328  26.735  25.110  1.00  0.00     0.022 C 
ATOM     33  C   UNL     1     -47.648  24.549  26.655  1.00  0.00     0.059 C 
ATOM     34  H   UNL     1     -49.755  24.710  26.185  1.00  0.00     0.045 H 
ATOM     35  H   UNL     1     -49.135  25.979  27.259  1.00  0.00     0.045 H 
ATOM     36  C   UNL     1     -46.574  26.676  26.450  1.00  0.00     0.059 C 
ATOM     37  H   UNL     1     -46.812  26.078  24.400  1.00  0.00     0.045 H 
ATOM     38  H   UNL     1     -47.255  27.748  24.701  1.00  0.00     0.045 H 
ATOM     39  O   UNL     1     -46.522  25.360  27.017  1.00  0.00    -0.379 OA
ATOM     40  H   UNL     1     -47.371  23.945  25.784  1.00  0.00     0.058 H 
ATOM     41  H   UNL     1     -47.834  23.859  27.483  1.00  0.00     0.058 H 
ATOM     42  H   UNL     1     -45.541  27.013  26.314  1.00  0.00     0.058 H 
ATOM     43  H   UNL     1     -47.039  27.345  27.184  1.00  0.00     0.058 H 
ENDBRANCH  27  30
ENDBRANCH  24  27
ENDBRANCH  21  24
ENDBRANCH   3  21
BRANCH   7  44
ATOM     44  O   UNL     1     -46.661  35.328  26.688  1.00  0.00    -0.489 OA
BRANCH  44  45
ATOM     45  C   UNL     1     -47.532  35.768  27.732  1.00  0.00     0.115 C 
ATOM     46  H   UNL     1     -48.552  35.419  27.527  1.00  0.00     0.076 H 
ATOM     47  H   UNL     1     -47.194  35.386  28.703  1.00  0.00     0.076 H 
BRANCH  45  48
ATOM     48  C   UNL     1     -47.509  37.272  27.786  1.00  0.00     0.010 A 
ATOM     49  C   UNL     1     -48.675  37.993  27.995  1.00  0.00     0.034 A 
ATOM     50  C   UNL     1     -46.311  37.997  27.683  1.00  0.00    -0.028 A 
ATOM     51  N   UNL     1     -48.721  39.336  28.090  1.00  0.00    -0.262 NA
ATOM     52  H   UNL     1     -49.640  37.501  28.097  1.00  0.00     0.084 H 
ATOM     53  C   UNL     1     -46.312  39.397  27.772  1.00  0.00     0.066 A 
ATOM     54  H   UNL     1     -45.397  37.429  27.542  1.00  0.00     0.065 H 
ATOM     55  C   UNL     1     -47.545  40.008  27.974  1.00  0.00     0.051 A 
ATOM     56  H   UNL     1     -47.677  41.080  28.046  1.00  0.00     0.086 H 
BRANCH  53  57
ATOM     57  N   UNL     1     -45.099  40.150  27.655  1.00  0.00    -0.300 N 
ATOM     58  C   UNL     1     -43.984  39.998  28.472  1.00  0.00     0.012 A 
ATOM     59  C   UNL     1     -44.793  41.157  26.734  1.00  0.00     0.150 A 
ATOM     60  C   UNL     1     -43.000  40.875  28.081  1.00  0.00    -0.031 A 
ATOM     61  H   UNL     1     -43.954  39.265  29.264  1.00  0.00     0.082 H 
ATOM     62  C   UNL     1     -43.503  41.615  26.987  1.00  0.00     0.061 A 
ATOM     63  N   UNL     1     -45.595  41.634  25.760  1.00  0.00    -0.218 NA
ATOM     64  H   UNL     1     -42.020  40.966  28.531  1.00  0.00     0.065 H 
ATOM     65  C   UNL     1     -43.008  42.636  26.162  1.00  0.00     0.136 A 
ATOM     66  C   UNL     1     -45.017  42.602  25.037  1.00  0.00     0.120 A 
ATOM     67  N   UNL     1     -43.788  43.124  25.184  1.00  0.00    -0.219 NA
ATOM     68  H   UNL     1     -45.616  43.019  24.232  1.00  0.00     0.106 H 
BRANCH  65  69
ATOM     69  N   UNL     1     -41.747  43.196  26.306  1.00  0.00    -0.383 N 
ATOM     70  H   UNL     1     -41.740  44.178  26.544  1.00  0.00     0.158 HD
ATOM     71  H   UNL     1     -41.144  42.915  25.540  1.00  0.00     0.158 HD
ENDBRANCH  65  69
ENDBRANCH  53  57
ENDBRANCH  45  48
ENDBRANCH  44  45
ENDBRANCH   7  44
TORSDOF 11
ENDMDL
MODEL 4
REMARK VINA RESULT:      -9.2      2.000      3.297
REMARK SMILES CNc1cc(CCCN2CCOCC2)c2ccc(OCc3cncc(-n4ccc5c(N)ncnc54)c3)cc2n1
REMARK SMILES IDX 3 1 4 2 5 3 15 4 16 5 17 6 18 7 37 8 38 9 39 10 2 15 1 17
REMARK SMILES IDX 6 21 7 24 8 27 9 30 10 31 14 32 11 33 13 36 12 39 19 44
REMARK SMILES IDX 20 45 21 48 22 49 36 50 23 51 25 53 24 55 26 57 27 58 35 59
REMARK SMILES IDX 28 60 29 62 34 63 30 65 33 66 32 67 31 69
REMARK H PARENT 4 11 16 12 17 13 37 14 2 16 1 18 1 19 1 20 6 22 6 23 7 25 7 26
REMARK H PARENT 8 28 8 29 10 34 10 35 14 37 14 38 11 40 11 41 13 42 13 43
REMARK H PARENT 20 46 20 47 22 52 36 54 24 56 27 61 28 64 33 68 31 70 31 71
REMARK Flexibility Score: inf
ROOT
ATOM      1  C   UNL     1     -48.930  28.783  24.888  1.00  0.00     0.126 A 
ATOM      2  C   UNL     1     -48.421  28.918  23.603  1.00  0.00    -0.016 A 
ATOM      3  C   UNL     1     -47.648  30.036  23.264  1.00  0.00    -0.035 A 
ATOM      4  C   UNL     1     -47.407  31.016  24.254  1.00  0.00     0.004 A 
ATOM      5  C   UNL     1     -46.660  32.196  24.041  1.00  0.00    -0.049 A 
ATOM      6  C   UNL     1     -46.460  33.114  25.072  1.00  0.00    -0.019 A 
ATOM      7  C   UNL     1     -46.996  32.879  26.332  1.00  0.00     0.122 A 
ATOM      8  C   UNL     1     -47.736  31.716  26.547  1.00  0.00     0.007 A 
ATOM      9  C   UNL     1     -47.952  30.786  25.536  1.00  0.00     0.077 A 
ATOM     10  N   UNL     1     -48.683  29.701  25.839  1.00  0.00    -0.231 NA
ATOM     11  H   UNL     1     -48.621  28.144  22.868  1.00  0.00     0.066 H 
ATOM     12  H   UNL     1     -46.228  32.420  23.071  1.00  0.00     0.063 H 
ATOM     13  H   UNL     1     -45.884  34.017  24.887  1.00  0.00     0.066 H 
ATOM     14  H   UNL     1     -48.173  31.493  27.515  1.00  0.00     0.069 H 
ENDROOT
BRANCH   1  15
ATOM     15  N   UNL     1     -49.677  27.629  25.183  1.00  0.00    -0.373 N 
ATOM     16  H   UNL     1     -49.152  27.056  25.837  1.00  0.00     0.161 HD
BRANCH  15  17
ATOM     17  C   UNL     1     -50.094  26.870  24.015  1.00  0.00     0.005 C 
ATOM     18  H   UNL     1     -49.703  27.359  23.117  1.00  0.00     0.045 H 
ATOM     19  H   UNL     1     -49.692  25.851  24.033  1.00  0.00     0.045 H 
ATOM     20  H   UNL     1     -51.185  26.836  23.925  1.00  0.00     0.045 H 
ENDBRANCH  15  17
ENDBRANCH   1  15
BRANCH   3  21
ATOM     21  C   UNL     1     -47.130  30.142  21.847  1.00  0.00    -0.026 C 
ATOM     22  H   UNL     1     -46.914  29.134  21.464  1.00  0.00     0.032 H 
ATOM     23  H   UNL     1     -46.164  30.659  21.836  1.00  0.00     0.032 H 
BRANCH  21  24
ATOM     24  C   UNL     1     -48.132  30.836  20.921  1.00  0.00    -0.036 C 
ATOM     25  H   UNL     1     -47.606  31.255  20.057  1.00  0.00     0.028 H 
ATOM     26  H   UNL     1     -48.592  31.684  21.447  1.00  0.00     0.028 H 
BRANCH  24  27
ATOM     27  C   UNL     1     -49.225  29.860  20.469  1.00  0.00    -0.001 C 
ATOM     28  H   UNL     1     -49.147  28.967  21.104  1.00  0.00     0.043 H 
ATOM     29  H   UNL     1     -49.049  29.533  19.436  1.00  0.00     0.043 H 
BRANCH  27  30
ATOM     30  N   UNL     1     -50.569  30.434  20.614  1.00  0.00    -0.299 NA
ATOM     31  C   UNL     1     -50.514  31.715  21.351  1.00  0.00     0.022 C 
ATOM     32  C   UNL     1     -51.542  29.514  21.245  1.00  0.00     0.022 C 
ATOM     33  C   UNL     1     -51.885  32.100  21.925  1.00  0.00     0.059 C 
ATOM     34  H   UNL     1     -50.166  32.502  20.674  1.00  0.00     0.045 H 
ATOM     35  H   UNL     1     -49.800  31.645  22.183  1.00  0.00     0.045 H 
ATOM     36  C   UNL     1     -51.842  29.844  22.717  1.00  0.00     0.059 C 
ATOM     37  H   UNL     1     -52.476  29.607  20.677  1.00  0.00     0.045 H 
ATOM     38  H   UNL     1     -51.236  28.466  21.166  1.00  0.00     0.045 H 
ATOM     39  O   UNL     1     -52.352  31.169  22.911  1.00  0.00    -0.379 OA
ATOM     40  H   UNL     1     -52.637  32.165  21.131  1.00  0.00     0.058 H 
ATOM     41  H   UNL     1     -51.831  33.083  22.403  1.00  0.00     0.058 H 
ATOM     42  H   UNL     1     -52.588  29.146  23.113  1.00  0.00     0.058 H 
ATOM     43  H   UNL     1     -50.939  29.733  23.329  1.00  0.00     0.058 H 
ENDBRANCH  27  30
ENDBRANCH  24  27
ENDBRANCH  21  24
ENDBRANCH   3  21
BRANCH   7  44
ATOM     44  O   UNL     1     -46.728  33.849  27.258  1.00  0.00    -0.489 OA
BRANCH  44  45
ATOM     45  C   UNL     1     -47.432  35.085  27.130  1.00  0.00     0.115 C 
ATOM     46  H   UNL     1     -47.387  35.424  26.088  1.00  0.00     0.076 H 
ATOM     47  H   UNL     1     -48.478  34.967  27.439  1.00  0.00     0.076 H 
BRANCH  45  48
ATOM     48  C   UNL     1     -46.791  36.109  28.028  1.00  0.00     0.010 A 
ATOM     49  C   UNL     1     -46.752  35.922  29.402  1.00  0.00     0.034 A 
ATOM     50  C   UNL     1     -46.165  37.254  27.513  1.00  0.00    -0.028 A 
ATOM     51  N   UNL     1     -46.163  36.780  30.259  1.00  0.00    -0.262 NA
ATOM     52  H   UNL     1     -47.205  35.054  29.874  1.00  0.00     0.084 H 
ATOM     53  C   UNL     1     -45.543  38.176  28.368  1.00  0.00     0.066 A 
ATOM     54  H   UNL     1     -46.177  37.386  26.436  1.00  0.00     0.065 H 
ATOM     55  C   UNL     1     -45.576  37.885  29.727  1.00  0.00     0.051 A 
ATOM     56  H   UNL     1     -45.144  38.524  30.488  1.00  0.00     0.086 H 
BRANCH  53  57
ATOM     57  N   UNL     1     -44.911  39.356  27.857  1.00  0.00    -0.300 N 
ATOM     58  C   UNL     1     -45.252  39.992  26.669  1.00  0.00     0.012 A 
ATOM     59  C   UNL     1     -43.861  40.086  28.423  1.00  0.00     0.150 A 
ATOM     60  C   UNL     1     -44.448  41.093  26.486  1.00  0.00    -0.031 A 
ATOM     61  H   UNL     1     -46.054  39.634  26.041  1.00  0.00     0.082 H 
ATOM     62  C   UNL     1     -43.563  41.158  27.586  1.00  0.00     0.061 A 
ATOM     63  N   UNL     1     -43.216  39.816  29.576  1.00  0.00    -0.218 NA
ATOM     64  H   UNL     1     -44.500  41.781  25.653  1.00  0.00     0.065 H 
ATOM     65  C   UNL     1     -42.527  42.017  27.982  1.00  0.00     0.136 A 
ATOM     66  C   UNL     1     -42.250  40.702  29.853  1.00  0.00     0.120 A 
ATOM     67  N   UNL     1     -41.873  41.769  29.129  1.00  0.00    -0.219 NA
ATOM     68  H   UNL     1     -41.701  40.538  30.776  1.00  0.00     0.106 H 
BRANCH  65  69
ATOM     69  N   UNL     1     -42.115  43.116  27.242  1.00  0.00    -0.383 N 
ATOM     70  H   UNL     1     -41.370  43.657  27.658  1.00  0.00     0.158 HD
ATOM     71  H   UNL     1     -42.917  43.639  26.907  1.00  0.00     0.158 HD
ENDBRANCH  65  69
ENDBRANCH  53  57
ENDBRANCH  45  48
ENDBRANCH  44  45
ENDBRANCH   7  44
TORSDOF 11
ENDMDL
MODEL 5
REMARK VINA RESULT:      -9.2      2.993     12.383
REMARK SMILES CNc1cc(CCCN2CCOCC2)c2ccc(OCc3cncc(-n4ccc5c(N)ncnc54)c3)cc2n1
REMARK SMILES IDX 3 1 4 2 5 3 15 4 16 5 17 6 18 7 37 8 38 9 39 10 2 15 1 17
REMARK SMILES IDX 6 21 7 24 8 27 9 30 10 31 14 32 11 33 13 36 12 39 19 44
REMARK SMILES IDX 20 45 21 48 22 49 36 50 23 51 25 53 24 55 26 57 27 58 35 59
REMARK SMILES IDX 28 60 29 62 34 63 30 65 33 66 32 67 31 69
REMARK H PARENT 4 11 16 12 17 13 37 14 2 16 1 18 1 19 1 20 6 22 6 23 7 25 7 26
REMARK H PARENT 8 28 8 29 10 34 10 35 14 37 14 38 11 40 11 41 13 42 13 43
REMARK H PARENT 20 46 20 47 22 52 36 54 24 56 27 61 28 64 33 68 31 70 31 71
REMARK Flexibility Score: inf
ROOT
ATOM      1  C   UNL     1     -43.145  40.339  28.999  1.00  0.00     0.126 A 
ATOM      2  C   UNL     1     -43.296  41.033  27.806  1.00  0.00    -0.016 A 
ATOM      3  C   UNL     1     -44.365  40.739  26.949  1.00  0.00    -0.035 A 
ATOM      4  C   UNL     1     -45.273  39.722  27.326  1.00  0.00     0.004 A 
ATOM      5  C   UNL     1     -46.380  39.316  26.548  1.00  0.00    -0.049 A 
ATOM      6  C   UNL     1     -47.236  38.308  26.991  1.00  0.00    -0.019 A 
ATOM      7  C   UNL     1     -47.010  37.685  28.212  1.00  0.00     0.122 A 
ATOM      8  C   UNL     1     -45.917  38.081  28.982  1.00  0.00     0.007 A 
ATOM      9  C   UNL     1     -45.047  39.082  28.563  1.00  0.00     0.077 A 
ATOM     10  N   UNL     1     -44.020  39.387  29.372  1.00  0.00    -0.231 NA
ATOM     11  H   UNL     1     -42.584  41.812  27.550  1.00  0.00     0.066 H 
ATOM     12  H   UNL     1     -46.589  39.775  25.586  1.00  0.00     0.063 H 
ATOM     13  H   UNL     1     -48.082  38.009  26.376  1.00  0.00     0.066 H 
ATOM     14  H   UNL     1     -45.703  37.621  29.941  1.00  0.00     0.069 H 
ENDROOT
BRANCH   1  15
ATOM     15  N   UNL     1     -42.071  40.692  29.836  1.00  0.00    -0.373 N 
ATOM     16  H   UNL     1     -42.440  41.030  30.719  1.00  0.00     0.161 HD
BRANCH  15  17
ATOM     17  C   UNL     1     -41.136  41.635  29.244  1.00  0.00     0.005 C 
ATOM     18  H   UNL     1     -41.698  42.475  28.823  1.00  0.00     0.045 H 
ATOM     19  H   UNL     1     -40.450  42.045  29.994  1.00  0.00     0.045 H 
ATOM     20  H   UNL     1     -40.564  41.179  28.430  1.00  0.00     0.045 H 
ENDBRANCH  15  17
ENDBRANCH   1  15
BRANCH   3  21
ATOM     21  C   UNL     1     -44.475  41.515  25.656  1.00  0.00    -0.026 C 
ATOM     22  H   UNL     1     -45.487  41.935  25.570  1.00  0.00     0.032 H 
ATOM     23  H   UNL     1     -44.380  40.837  24.799  1.00  0.00     0.032 H 
BRANCH  21  24
ATOM     24  C   UNL     1     -43.444  42.644  25.575  1.00  0.00    -0.036 C 
ATOM     25  H   UNL     1     -42.461  42.267  25.878  1.00  0.00     0.028 H 
ATOM     26  H   UNL     1     -43.709  43.435  26.291  1.00  0.00     0.028 H 
BRANCH  24  27
ATOM     27  C   UNL     1     -43.387  43.231  24.159  1.00  0.00    -0.001 C 
ATOM     28  H   UNL     1     -43.957  42.558  23.504  1.00  0.00     0.043 H 
ATOM     29  H   UNL     1     -42.355  43.241  23.787  1.00  0.00     0.043 H 
BRANCH  27  30
ATOM     30  N   UNL     1     -43.979  44.573  24.097  1.00  0.00    -0.299 NA
ATOM     31  C   UNL     1     -43.856  45.261  25.402  1.00  0.00     0.022 C 
ATOM     32  C   UNL     1     -45.386  44.580  23.638  1.00  0.00     0.022 C 
ATOM     33  C   UNL     1     -44.844  46.430  25.523  1.00  0.00     0.059 C 
ATOM     34  H   UNL     1     -42.832  45.633  25.514  1.00  0.00     0.045 H 
ATOM     35  H   UNL     1     -44.053  44.557  26.222  1.00  0.00     0.045 H 
ATOM     36  C   UNL     1     -46.407  44.783  24.771  1.00  0.00     0.059 C 
ATOM     37  H   UNL     1     -45.484  45.418  22.937  1.00  0.00     0.045 H 
ATOM     38  H   UNL     1     -45.646  43.676  23.077  1.00  0.00     0.045 H 
ATOM     39  O   UNL     1     -46.212  46.001  25.501  1.00  0.00    -0.379 OA
ATOM     40  H   UNL     1     -44.697  47.152  24.712  1.00  0.00     0.058 H 
ATOM     41  H   UNL     1     -44.683  46.962  26.465  1.00  0.00     0.058 H 
ATOM     42  H   UNL     1     -47.422  44.807  24.361  1.00  0.00     0.058 H 
ATOM     43  H   UNL     1     -46.365  43.949  25.481  1.00  0.00     0.058 H 
ENDBRANCH  27  30
ENDBRANCH  24  27
ENDBRANCH  21  24
ENDBRANCH   3  21
BRANCH   7  44
ATOM     44  O   UNL     1     -47.919  36.717  28.536  1.00  0.00    -0.489 OA
BRANCH  44  45
ATOM     45  C   UNL     1     -48.633  36.106  27.460  1.00  0.00     0.115 C 
ATOM     46  H   UNL     1     -49.666  35.910  27.773  1.00  0.00     0.076 H 
ATOM     47  H   UNL     1     -48.628  36.754  26.575  1.00  0.00     0.076 H 
BRANCH  45  48
ATOM     48  C   UNL     1     -47.956  34.811  27.097  1.00  0.00     0.010 A 
ATOM     49  C   UNL     1     -46.850  34.366  27.804  1.00  0.00     0.034 A 
ATOM     50  C   UNL     1     -48.445  33.985  26.074  1.00  0.00    -0.028 A 
ATOM     51  N   UNL     1     -46.219  33.202  27.555  1.00  0.00    -0.262 NA
ATOM     52  H   UNL     1     -46.421  34.946  28.618  1.00  0.00     0.084 H 
ATOM     53  C   UNL     1     -47.817  32.765  25.777  1.00  0.00     0.066 A 
ATOM     54  H   UNL     1     -49.324  34.324  25.536  1.00  0.00     0.065 H 
ATOM     55  C   UNL     1     -46.711  32.430  26.550  1.00  0.00     0.051 A 
ATOM     56  H   UNL     1     -46.134  31.524  26.410  1.00  0.00     0.086 H 
BRANCH  53  57
ATOM     57  N   UNL     1     -48.297  31.917  24.727  1.00  0.00    -0.300 N 
ATOM     58  C   UNL     1     -49.625  31.548  24.544  1.00  0.00     0.012 A 
ATOM     59  C   UNL     1     -47.561  31.307  23.706  1.00  0.00     0.150 A 
ATOM     60  C   UNL     1     -49.731  30.732  23.442  1.00  0.00    -0.031 A 
ATOM     61  H   UNL     1     -50.409  31.902  25.196  1.00  0.00     0.082 H 
ATOM     62  C   UNL     1     -48.433  30.571  22.908  1.00  0.00     0.061 A 
ATOM     63  N   UNL     1     -46.230  31.389  23.508  1.00  0.00    -0.218 NA
ATOM     64  H   UNL     1     -50.649  30.307  23.058  1.00  0.00     0.065 H 
ATOM     65  C   UNL     1     -47.881  29.878  21.820  1.00  0.00     0.136 A 
ATOM     66  C   UNL     1     -45.818  30.690  22.441  1.00  0.00     0.120 A 
ATOM     67  N   UNL     1     -46.558  29.947  21.602  1.00  0.00    -0.219 NA
ATOM     68  H   UNL     1     -44.753  30.726  22.229  1.00  0.00     0.106 H 
BRANCH  65  69
ATOM     69  N   UNL     1     -48.627  29.096  20.949  1.00  0.00    -0.383 N 
ATOM     70  H   UNL     1     -48.595  29.383  19.982  1.00  0.00     0.158 HD
ATOM     71  H   UNL     1     -49.547  28.916  21.335  1.00  0.00     0.158 HD
ENDBRANCH  65  69
ENDBRANCH  53  57
ENDBRANCH  45  48
ENDBRANCH  44  45
ENDBRANCH   7  44
TORSDOF 11
ENDMDL
MODEL 6
REMARK VINA RESULT:      -9.1      2.909     12.231
REMARK SMILES CNc1cc(CCCN2CCOCC2)c2ccc(OCc3cncc(-n4ccc5c(N)ncnc54)c3)cc2n1
REMARK SMILES IDX 3 1 4 2 5 3 15 4 16 5 17 6 18 7 37 8 38 9 39 10 2 15 1 17
REMARK SMILES IDX 6 21 7 24 8 27 9 30 10 31 14 32 11 33 13 36 12 39 19 44
REMARK SMILES IDX 20 45 21 48 22 49 36 50 23 51 25 53 24 55 26 57 27 58 35 59
REMARK SMILES IDX 28 60 29 62 34 63 30 65 33 66 32 67 31 69
REMARK H PARENT 4 11 16 12 17 13 37 14 2 16 1 18 1 19 1 20 6 22 6 23 7 25 7 26
REMARK H PARENT 8 28 8 29 10 34 10 35 14 37 14 38 11 40 11 41 13 42 13 43
REMARK H PARENT 20 46 20 47 22 52 36 54 24 56 27 61 28 64 33 68 31 70 31 71
REMARK Flexibility Score: inf
ROOT
ATOM      1  C   UNL     1     -50.353  36.649  27.798  1.00  0.00     0.126 A 
ATOM      2  C   UNL     1     -49.434  37.654  28.069  1.00  0.00    -0.016 A 
ATOM      3  C   UNL     1     -48.071  37.452  27.817  1.00  0.00    -0.035 A 
ATOM      4  C   UNL     1     -47.660  36.206  27.289  1.00  0.00     0.004 A 
ATOM      5  C   UNL     1     -46.319  35.866  27.005  1.00  0.00    -0.049 A 
ATOM      6  C   UNL     1     -45.992  34.616  26.478  1.00  0.00    -0.019 A 
ATOM      7  C   UNL     1     -46.989  33.682  26.224  1.00  0.00     0.122 A 
ATOM      8  C   UNL     1     -48.314  34.013  26.505  1.00  0.00     0.007 A 
ATOM      9  C   UNL     1     -48.667  35.250  27.032  1.00  0.00     0.077 A 
ATOM     10  N   UNL     1     -49.969  35.471  27.274  1.00  0.00    -0.231 NA
ATOM     11  H   UNL     1     -49.785  38.602  28.469  1.00  0.00     0.066 H 
ATOM     12  H   UNL     1     -45.510  36.565  27.193  1.00  0.00     0.063 H 
ATOM     13  H   UNL     1     -44.953  34.373  26.268  1.00  0.00     0.066 H 
ATOM     14  H   UNL     1     -49.124  33.313  26.322  1.00  0.00     0.069 H 
ENDROOT
BRANCH   1  15
ATOM     15  N   UNL     1     -51.712  36.914  28.044  1.00  0.00    -0.373 N 
ATOM     16  H   UNL     1     -52.159  36.063  28.372  1.00  0.00     0.161 HD
BRANCH  15  17
ATOM     17  C   UNL     1     -52.422  37.498  26.918  1.00  0.00     0.005 C 
ATOM     18  H   UNL     1     -53.388  36.994  26.808  1.00  0.00     0.045 H 
ATOM     19  H   UNL     1     -52.625  38.562  27.078  1.00  0.00     0.045 H 
ATOM     20  H   UNL     1     -51.871  37.364  25.981  1.00  0.00     0.045 H 
ENDBRANCH  15  17
ENDBRANCH   1  15
BRANCH   3  21
ATOM     21  C   UNL     1     -47.112  38.574  28.143  1.00  0.00    -0.026 C 
ATOM     22  H   UNL     1     -46.138  38.148  28.422  1.00  0.00     0.032 H 
ATOM     23  H   UNL     1     -47.449  39.111  29.038  1.00  0.00     0.032 H 
BRANCH  21  24
ATOM     24  C   UNL     1     -46.932  39.535  26.965  1.00  0.00    -0.036 C 
ATOM     25  H   UNL     1     -47.571  40.413  27.105  1.00  0.00     0.028 H 
ATOM     26  H   UNL     1     -47.268  39.048  26.039  1.00  0.00     0.028 H 
BRANCH  24  27
ATOM     27  C   UNL     1     -45.463  39.952  26.820  1.00  0.00    -0.001 C 
ATOM     28  H   UNL     1     -45.139  39.659  25.812  1.00  0.00     0.043 H 
ATOM     29  H   UNL     1     -44.833  39.401  27.530  1.00  0.00     0.043 H 
BRANCH  27  30
ATOM     30  N   UNL     1     -45.285  41.401  26.978  1.00  0.00    -0.299 NA
ATOM     31  C   UNL     1     -46.169  42.141  26.051  1.00  0.00     0.022 C 
ATOM     32  C   UNL     1     -43.882  41.846  26.824  1.00  0.00     0.022 C 
ATOM     33  C   UNL     1     -45.693  43.587  25.846  1.00  0.00     0.059 C 
ATOM     34  H   UNL     1     -47.187  42.144  26.454  1.00  0.00     0.045 H 
ATOM     35  H   UNL     1     -46.193  41.645  25.071  1.00  0.00     0.045 H 
ATOM     36  C   UNL     1     -43.589  42.514  25.470  1.00  0.00     0.059 C 
ATOM     37  H   UNL     1     -43.697  42.583  27.616  1.00  0.00     0.045 H 
ATOM     38  H   UNL     1     -43.166  41.033  26.987  1.00  0.00     0.045 H 
ATOM     39  O   UNL     1     -44.409  43.661  25.212  1.00  0.00    -0.379 OA
ATOM     40  H   UNL     1     -45.635  44.119  26.802  1.00  0.00     0.058 H 
ATOM     41  H   UNL     1     -46.402  44.130  25.214  1.00  0.00     0.058 H 
ATOM     42  H   UNL     1     -42.545  42.845  25.434  1.00  0.00     0.058 H 
ATOM     43  H   UNL     1     -43.730  41.801  24.650  1.00  0.00     0.058 H 
ENDBRANCH  27  30
ENDBRANCH  24  27
ENDBRANCH  21  24
ENDBRANCH   3  21
BRANCH   7  44
ATOM     44  O   UNL     1     -46.543  32.498  25.705  1.00  0.00    -0.489 OA
BRANCH  44  45
ATOM     45  C   UNL     1     -46.049  32.518  24.365  1.00  0.00     0.115 C 
ATOM     46  H   UNL     1     -46.268  33.493  23.911  1.00  0.00     0.076 H 
ATOM     47  H   UNL     1     -44.968  32.333  24.349  1.00  0.00     0.076 H 
BRANCH  45  48
ATOM     48  C   UNL     1     -46.723  31.426  23.579  1.00  0.00     0.010 A 
ATOM     49  C   UNL     1     -46.388  31.196  22.253  1.00  0.00     0.034 A 
ATOM     50  C   UNL     1     -47.668  30.570  24.165  1.00  0.00    -0.028 A 
ATOM     51  N   UNL     1     -46.926  30.213  21.503  1.00  0.00    -0.262 NA
ATOM     52  H   UNL     1     -45.656  31.810  21.734  1.00  0.00     0.084 H 
ATOM     53  C   UNL     1     -48.256  29.536  23.421  1.00  0.00     0.066 A 
ATOM     54  H   UNL     1     -47.911  30.737  25.209  1.00  0.00     0.065 H 
ATOM     55  C   UNL     1     -47.846  29.410  22.098  1.00  0.00     0.051 A 
ATOM     56  H   UNL     1     -48.236  28.661  21.419  1.00  0.00     0.086 H 
BRANCH  53  57
ATOM     57  N   UNL     1     -49.232  28.663  24.002  1.00  0.00    -0.300 N 
ATOM     58  C   UNL     1     -50.581  28.639  23.668  1.00  0.00     0.012 A 
ATOM     59  C   UNL     1     -49.040  27.690  24.988  1.00  0.00     0.150 A 
ATOM     60  C   UNL     1     -51.226  27.681  24.414  1.00  0.00    -0.031 A 
ATOM     61  H   UNL     1     -50.992  29.290  22.911  1.00  0.00     0.082 H 
ATOM     62  C   UNL     1     -50.262  27.078  25.254  1.00  0.00     0.061 A 
ATOM     63  N   UNL     1     -47.882  27.380  25.605  1.00  0.00    -0.218 NA
ATOM     64  H   UNL     1     -52.278  27.436  24.353  1.00  0.00     0.065 H 
ATOM     65  C   UNL     1     -50.279  26.066  26.225  1.00  0.00     0.136 A 
ATOM     66  C   UNL     1     -48.019  26.400  26.509  1.00  0.00     0.120 A 
ATOM     67  N   UNL     1     -49.137  25.739  26.851  1.00  0.00    -0.219 NA
ATOM     68  H   UNL     1     -47.114  26.104  27.033  1.00  0.00     0.106 H 
BRANCH  65  69
ATOM     69  N   UNL     1     -51.426  25.380  26.600  1.00  0.00    -0.383 N 
ATOM     70  H   UNL     1     -51.896  25.747  27.416  1.00  0.00     0.158 HD
ATOM     71  H   UNL     1     -51.261  24.380  26.587  1.00  0.00     0.158 HD
ENDBRANCH  65  69
ENDBRANCH  53  57
ENDBRANCH  45  48
ENDBRANCH  44  45
ENDBRANCH   7  44
TORSDOF 11
ENDMDL
MODEL 7
REMARK VINA RESULT:      -8.9      2.210      4.023
REMARK SMILES CNc1cc(CCCN2CCOCC2)c2ccc(OCc3cncc(-n4ccc5c(N)ncnc54)c3)cc2n1
REMARK SMILES IDX 3 1 4 2 5 3 15 4 16 5 17 6 18 7 37 8 38 9 39 10 2 15 1 17
REMARK SMILES IDX 6 21 7 24 8 27 9 30 10 31 14 32 11 33 13 36 12 39 19 44
REMARK SMILES IDX 20 45 21 48 22 49 36 50 23 51 25 53 24 55 26 57 27 58 35 59
REMARK SMILES IDX 28 60 29 62 34 63 30 65 33 66 32 67 31 69
REMARK H PARENT 4 11 16 12 17 13 37 14 2 16 1 18 1 19 1 20 6 22 6 23 7 25 7 26
REMARK H PARENT 8 28 8 29 10 34 10 35 14 37 14 38 11 40 11 41 13 42 13 43
REMARK H PARENT 20 46 20 47 22 52 36 54 24 56 27 61 28 64 33 68 31 70 31 71
REMARK Flexibility Score: inf
ROOT
ATOM      1  C   UNL     1     -48.610  27.505  24.634  1.00  0.00     0.126 A 
ATOM      2  C   UNL     1     -49.529  27.673  23.607  1.00  0.00    -0.016 A 
ATOM      3  C   UNL     1     -50.104  28.929  23.372  1.00  0.00    -0.035 A 
ATOM      4  C   UNL     1     -49.730  30.008  24.205  1.00  0.00     0.004 A 
ATOM      5  C   UNL     1     -50.245  31.318  24.088  1.00  0.00    -0.049 A 
ATOM      6  C   UNL     1     -49.822  32.335  24.945  1.00  0.00    -0.019 A 
ATOM      7  C   UNL     1     -48.881  32.070  25.933  1.00  0.00     0.122 A 
ATOM      8  C   UNL     1     -48.371  30.777  26.053  1.00  0.00     0.007 A 
ATOM      9  C   UNL     1     -48.778  29.746  25.213  1.00  0.00     0.077 A 
ATOM     10  N   UNL     1     -48.234  28.535  25.413  1.00  0.00    -0.231 NA
ATOM     11  H   UNL     1     -49.790  26.823  22.982  1.00  0.00     0.066 H 
ATOM     12  H   UNL     1     -50.985  31.566  23.333  1.00  0.00     0.063 H 
ATOM     13  H   UNL     1     -50.232  33.336  24.840  1.00  0.00     0.066 H 
ATOM     14  H   UNL     1     -47.636  30.527  26.810  1.00  0.00     0.069 H 
ENDROOT
BRANCH   1  15
ATOM     15  N   UNL     1     -48.043  26.230  24.809  1.00  0.00    -0.373 N 
ATOM     16  H   UNL     1     -48.786  25.561  24.984  1.00  0.00     0.161 HD
BRANCH  15  17
ATOM     17  C   UNL     1     -47.010  26.169  25.831  1.00  0.00     0.005 C 
ATOM     18  H   UNL     1     -47.469  26.337  26.810  1.00  0.00     0.045 H 
ATOM     19  H   UNL     1     -46.530  25.185  25.860  1.00  0.00     0.045 H 
ATOM     20  H   UNL     1     -46.251  26.946  25.683  1.00  0.00     0.045 H 
ENDBRANCH  15  17
ENDBRANCH   1  15
BRANCH   3  21
ATOM     21  C   UNL     1     -51.110  29.053  22.250  1.00  0.00    -0.026 C 
ATOM     22  H   UNL     1     -51.986  29.611  22.610  1.00  0.00     0.032 H 
ATOM     23  H   UNL     1     -51.499  28.065  21.980  1.00  0.00     0.032 H 
BRANCH  21  24
ATOM     24  C   UNL     1     -50.520  29.760  21.027  1.00  0.00    -0.036 C 
ATOM     25  H   UNL     1     -50.814  30.815  21.035  1.00  0.00     0.028 H 
ATOM     26  H   UNL     1     -50.942  29.325  20.112  1.00  0.00     0.028 H 
BRANCH  24  27
ATOM     27  C   UNL     1     -48.992  29.623  21.003  1.00  0.00    -0.001 C 
ATOM     28  H   UNL     1     -48.730  29.058  20.098  1.00  0.00     0.043 H 
ATOM     29  H   UNL     1     -48.643  29.033  21.859  1.00  0.00     0.043 H 
BRANCH  27  30
ATOM     30  N   UNL     1     -48.324  30.930  20.962  1.00  0.00    -0.299 NA
ATOM     31  C   UNL     1     -47.832  31.224  19.598  1.00  0.00     0.022 C 
ATOM     32  C   UNL     1     -47.230  31.068  21.949  1.00  0.00     0.022 C 
ATOM     33  C   UNL     1     -46.750  32.314  19.607  1.00  0.00     0.059 C 
ATOM     34  H   UNL     1     -48.673  31.548  18.976  1.00  0.00     0.045 H 
ATOM     35  H   UNL     1     -47.404  30.319  19.145  1.00  0.00     0.045 H 
ATOM     36  C   UNL     1     -45.824  30.947  21.337  1.00  0.00     0.059 C 
ATOM     37  H   UNL     1     -47.326  32.069  22.387  1.00  0.00     0.045 H 
ATOM     38  H   UNL     1     -47.324  30.359  22.778  1.00  0.00     0.045 H 
ATOM     39  O   UNL     1     -45.566  31.911  20.309  1.00  0.00    -0.379 OA
ATOM     40  H   UNL     1     -47.126  33.234  20.068  1.00  0.00     0.058 H 
ATOM     41  H   UNL     1     -46.455  32.561  18.583  1.00  0.00     0.058 H 
ATOM     42  H   UNL     1     -45.064  31.087  22.114  1.00  0.00     0.058 H 
ATOM     43  H   UNL     1     -45.673  29.947  20.914  1.00  0.00     0.058 H 
ENDBRANCH  27  30
ENDBRANCH  24  27
ENDBRANCH  21  24
ENDBRANCH   3  21
BRANCH   7  44
ATOM     44  O   UNL     1     -48.545  33.147  26.705  1.00  0.00    -0.489 OA
BRANCH  44  45
ATOM     45  C   UNL     1     -47.656  34.108  26.133  1.00  0.00     0.115 C 
ATOM     46  H   UNL     1     -46.623  33.753  26.234  1.00  0.00     0.076 H 
ATOM     47  H   UNL     1     -47.893  34.271  25.074  1.00  0.00     0.076 H 
BRANCH  45  48
ATOM     48  C   UNL     1     -47.819  35.417  26.857  1.00  0.00     0.010 A 
ATOM     49  C   UNL     1     -49.077  35.882  27.209  1.00  0.00     0.034 A 
ATOM     50  C   UNL     1     -46.713  36.186  27.250  1.00  0.00    -0.028 A 
ATOM     51  N   UNL     1     -49.292  37.026  27.888  1.00  0.00    -0.262 NA
ATOM     52  H   UNL     1     -49.981  35.336  26.949  1.00  0.00     0.084 H 
ATOM     53  C   UNL     1     -46.889  37.386  27.955  1.00  0.00     0.066 A 
ATOM     54  H   UNL     1     -45.728  35.809  26.994  1.00  0.00     0.065 H 
ATOM     55  C   UNL     1     -48.199  37.752  28.243  1.00  0.00     0.051 A 
ATOM     56  H   UNL     1     -48.466  38.661  28.769  1.00  0.00     0.086 H 
BRANCH  53  57
ATOM     57  N   UNL     1     -45.770  38.187  28.352  1.00  0.00    -0.300 N 
ATOM     58  C   UNL     1     -44.999  37.974  29.489  1.00  0.00     0.012 A 
ATOM     59  C   UNL     1     -45.238  39.308  27.704  1.00  0.00     0.150 A 
ATOM     60  C   UNL     1     -44.008  38.925  29.562  1.00  0.00    -0.031 A 
ATOM     61  H   UNL     1     -45.192  37.152  30.162  1.00  0.00     0.082 H 
ATOM     62  C   UNL     1     -44.153  39.774  28.441  1.00  0.00     0.061 A 
ATOM     63  N   UNL     1     -45.686  39.872  26.564  1.00  0.00    -0.218 NA
ATOM     64  H   UNL     1     -43.255  38.994  30.335  1.00  0.00     0.065 H 
ATOM     65  C   UNL     1     -43.479  40.903  27.952  1.00  0.00     0.136 A 
ATOM     66  C   UNL     1     -44.966  40.939  26.194  1.00  0.00     0.120 A 
ATOM     67  N   UNL     1     -43.906  41.481  26.817  1.00  0.00    -0.219 NA
ATOM     68  H   UNL     1     -45.278  41.431  25.276  1.00  0.00     0.106 H 
BRANCH  65  69
ATOM     69  N   UNL     1     -42.391  41.484  28.588  1.00  0.00    -0.383 N 
ATOM     70  H   UNL     1     -41.641  41.772  27.976  1.00  0.00     0.158 HD
ATOM     71  H   UNL     1     -42.125  40.940  29.402  1.00  0.00     0.158 HD
ENDBRANCH  65  69
ENDBRANCH  53  57
ENDBRANCH  45  48
ENDBRANCH  44  45
ENDBRANCH   7  44
TORSDOF 11
ENDMDL
