MODEL 1
REMARK VINA RESULT:     -11.7      0.000      0.000
REMARK SMILES O=C(NCc1ccc2cc(CN3C[C@H]4C[C@@H](C3)C4)[nH]c2c1)c1cc(=O)n2ccccc2n1
REMARK SMILES IDX 5 1 6 2 7 3 8 4 9 5 10 6 19 7 20 8 21 9 4 15 3 18 1 19 2 20
REMARK SMILES IDX 22 22 23 23 32 24 24 25 31 27 25 28 26 29 30 30 27 31 29 32
REMARK SMILES IDX 28 34 11 38 12 41 13 42 17 43 14 44 16 47 15 50 18 51
REMARK H PARENT 6 10 7 11 9 12 19 13 21 14 4 16 4 17 3 21 23 26 30 33 27 35
REMARK H PARENT 29 36 28 37 11 39 11 40 13 45 13 46 17 48 17 49 14 52 16 53
REMARK H PARENT 15 54 15 55 18 56 18 57
REMARK Flexibility Score: inf
ROOT
ATOM      1  C   UNL     1     -48.133  34.964  26.624  1.00  0.00    -0.027 A 
ATOM      2  C   UNL     1     -46.862  35.046  26.040  1.00  0.00    -0.057 A 
ATOM      3  C   UNL     1     -46.332  33.977  25.306  1.00  0.00    -0.052 A 
ATOM      4  C   UNL     1     -47.087  32.798  25.160  1.00  0.00    -0.000 A 
ATOM      5  C   UNL     1     -46.863  31.553  24.507  1.00  0.00    -0.032 A 
ATOM      6  C   UNL     1     -47.974  30.760  24.713  1.00  0.00     0.030 A 
ATOM      7  N   UNL     1     -48.861  31.491  25.466  1.00  0.00    -0.357 N 
ATOM      8  C   UNL     1     -48.345  32.732  25.752  1.00  0.00     0.046 A 
ATOM      9  C   UNL     1     -48.892  33.788  26.489  1.00  0.00    -0.033 A 
ATOM     10  H   UNL     1     -46.266  35.950  26.151  1.00  0.00     0.063 H 
ATOM     11  H   UNL     1     -45.346  34.057  24.858  1.00  0.00     0.063 H 
ATOM     12  H   UNL     1     -45.982  31.272  23.947  1.00  0.00     0.065 H 
ATOM     13  H   UNL     1     -49.751  31.135  25.790  1.00  0.00     0.166 HD
ATOM     14  H   UNL     1     -49.874  33.703  26.949  1.00  0.00     0.065 H 
ENDROOT
BRANCH   1  15
ATOM     15  C   UNL     1     -48.679  36.116  27.432  1.00  0.00     0.043 C 
ATOM     16  H   UNL     1     -49.579  36.522  26.959  1.00  0.00     0.054 H 
ATOM     17  H   UNL     1     -48.964  35.773  28.433  1.00  0.00     0.054 H 
BRANCH  15  18
ATOM     18  N   UNL     1     -47.717  37.184  27.514  1.00  0.00    -0.347 N 
ATOM     19  O   UNL     1     -46.847  36.618  29.569  1.00  0.00    -0.268 OA
ATOM     20  C   UNL     1     -46.823  37.300  28.551  1.00  0.00     0.270 C 
ATOM     21  H   UNL     1     -47.508  37.729  26.685  1.00  0.00     0.164 HD
BRANCH  20  22
ATOM     22  C   UNL     1     -45.783  38.364  28.293  1.00  0.00     0.136 A 
ATOM     23  C   UNL     1     -45.893  39.038  27.147  1.00  0.00     0.035 A 
ATOM     24  N   UNL     1     -44.805  38.579  29.239  1.00  0.00    -0.225 NA
ATOM     25  C   UNL     1     -44.908  40.088  26.858  1.00  0.00     0.258 A 
ATOM     26  H   UNL     1     -46.668  38.861  26.412  1.00  0.00     0.071 H 
ATOM     27  C   UNL     1     -43.939  39.510  28.981  1.00  0.00     0.140 A 
ATOM     28  O   UNL     1     -45.002  40.711  25.802  1.00  0.00    -0.269 OA
ATOM     29  N   UNL     1     -43.937  40.287  27.828  1.00  0.00    -0.268 N 
ATOM     30  C   UNL     1     -42.864  39.781  29.980  1.00  0.00    -0.019 A 
ATOM     31  C   UNL     1     -42.969  41.266  27.627  1.00  0.00     0.014 A 
ATOM     32  C   UNL     1     -41.956  40.734  29.740  1.00  0.00    -0.057 A 
ATOM     33  H   UNL     1     -42.858  39.182  30.881  1.00  0.00     0.066 H 
ATOM     34  C   UNL     1     -42.008  41.503  28.526  1.00  0.00    -0.045 A 
ATOM     35  H   UNL     1     -43.029  41.835  26.701  1.00  0.00     0.082 H 
ATOM     36  H   UNL     1     -41.167  40.946  30.455  1.00  0.00     0.062 H 
ATOM     37  H   UNL     1     -41.258  42.270  28.359  1.00  0.00     0.064 H 
ENDBRANCH  20  22
ENDBRANCH  15  18
ENDBRANCH   1  15
BRANCH   6  38
ATOM     38  C   UNL     1     -48.296  29.376  24.258  1.00  0.00     0.039 C 
ATOM     39  H   UNL     1     -49.391  29.294  24.238  1.00  0.00     0.050 H 
ATOM     40  H   UNL     1     -47.948  29.218  23.229  1.00  0.00     0.050 H 
BRANCH  38  41
ATOM     41  N   UNL     1     -47.742  28.365  25.165  1.00  0.00    -0.297 NA
ATOM     42  C   UNL     1     -47.114  27.239  24.443  1.00  0.00     0.001 C 
ATOM     43  C   UNL     1     -48.759  27.895  26.123  1.00  0.00     0.001 C 
ATOM     44  C   UNL     1     -46.870  26.059  25.400  1.00  0.00    -0.028 C 
ATOM     45  H   UNL     1     -46.151  27.563  24.036  1.00  0.00     0.043 H 
ATOM     46  H   UNL     1     -47.733  26.902  23.601  1.00  0.00     0.043 H 
ATOM     47  C   UNL     1     -48.275  26.624  26.840  1.00  0.00    -0.028 C 
ATOM     48  H   UNL     1     -48.926  28.683  26.867  1.00  0.00     0.043 H 
ATOM     49  H   UNL     1     -49.719  27.695  25.631  1.00  0.00     0.043 H 
ATOM     50  C   UNL     1     -46.719  26.475  26.900  1.00  0.00    -0.045 C 
ATOM     51  C   UNL     1     -48.214  25.419  25.855  1.00  0.00    -0.045 C 
ATOM     52  H   UNL     1     -46.131  25.346  25.023  1.00  0.00     0.032 H 
ATOM     53  H   UNL     1     -48.812  26.424  27.773  1.00  0.00     0.032 H 
ATOM     54  H   UNL     1     -46.139  27.377  27.111  1.00  0.00     0.027 H 
ATOM     55  H   UNL     1     -46.364  25.674  27.560  1.00  0.00     0.027 H 
ATOM     56  H   UNL     1     -48.111  24.441  26.339  1.00  0.00     0.027 H 
ATOM     57  H   UNL     1     -49.009  25.351  25.107  1.00  0.00     0.027 H 
ENDBRANCH  38  41
ENDBRANCH   6  38
TORSDOF 5
ENDMDL
MODEL 2
REMARK VINA RESULT:     -10.9      1.372      2.066
REMARK SMILES O=C(NCc1ccc2cc(CN3C[C@H]4C[C@@H](C3)C4)[nH]c2c1)c1cc(=O)n2ccccc2n1
REMARK SMILES IDX 5 1 6 2 7 3 8 4 9 5 10 6 19 7 20 8 21 9 4 15 3 18 1 19 2 20
REMARK SMILES IDX 22 22 23 23 32 24 24 25 31 27 25 28 26 29 30 30 27 31 29 32
REMARK SMILES IDX 28 34 11 38 12 41 13 42 17 43 14 44 16 47 15 50 18 51
REMARK H PARENT 6 10 7 11 9 12 19 13 21 14 4 16 4 17 3 21 23 26 30 33 27 35
REMARK H PARENT 29 36 28 37 11 39 11 40 13 45 13 46 17 48 17 49 14 52 16 53
REMARK H PARENT 15 54 15 55 18 56 18 57
REMARK Flexibility Score: inf
ROOT
ATOM      1  C   UNL     1     -48.201  34.682  26.602  1.00  0.00    -0.027 A 
ATOM      2  C   UNL     1     -46.877  34.776  26.156  1.00  0.00    -0.057 A 
ATOM      3  C   UNL     1     -46.310  33.778  25.353  1.00  0.00    -0.052 A 
ATOM      4  C   UNL     1     -47.083  32.657  24.995  1.00  0.00    -0.000 A 
ATOM      5  C   UNL     1     -46.835  31.488  24.224  1.00  0.00    -0.032 A 
ATOM      6  C   UNL     1     -47.985  30.724  24.226  1.00  0.00     0.030 A 
ATOM      7  N   UNL     1     -48.919  31.400  24.974  1.00  0.00    -0.357 N 
ATOM      8  C   UNL     1     -48.396  32.576  25.454  1.00  0.00     0.046 A 
ATOM      9  C   UNL     1     -48.980  33.562  26.257  1.00  0.00    -0.033 A 
ATOM     10  H   UNL     1     -46.267  35.634  26.430  1.00  0.00     0.063 H 
ATOM     11  H   UNL     1     -45.283  33.867  25.013  1.00  0.00     0.063 H 
ATOM     12  H   UNL     1     -45.912  31.236  23.720  1.00  0.00     0.065 H 
ATOM     13  H   UNL     1     -49.848  31.047  25.167  1.00  0.00     0.166 HD
ATOM     14  H   UNL     1     -50.005  33.467  26.608  1.00  0.00     0.065 H 
ENDROOT
BRANCH   1  15
ATOM     15  C   UNL     1     -48.789  35.754  27.487  1.00  0.00     0.043 C 
ATOM     16  H   UNL     1     -49.676  36.193  27.017  1.00  0.00     0.054 H 
ATOM     17  H   UNL     1     -49.107  35.323  28.443  1.00  0.00     0.054 H 
BRANCH  15  18
ATOM     18  N   UNL     1     -47.842  36.818  27.697  1.00  0.00    -0.347 N 
ATOM     19  O   UNL     1     -46.983  36.038  29.686  1.00  0.00    -0.268 OA
ATOM     20  C   UNL     1     -46.959  36.829  28.749  1.00  0.00     0.270 C 
ATOM     21  H   UNL     1     -47.633  37.455  26.936  1.00  0.00     0.164 HD
BRANCH  20  22
ATOM     22  C   UNL     1     -45.931  37.927  28.623  1.00  0.00     0.136 A 
ATOM     23  C   UNL     1     -45.054  38.038  29.623  1.00  0.00     0.035 A 
ATOM     24  N   UNL     1     -45.952  38.730  27.504  1.00  0.00    -0.225 NA
ATOM     25  C   UNL     1     -44.030  39.087  29.538  1.00  0.00     0.258 A 
ATOM     26  H   UNL     1     -45.047  37.399  30.497  1.00  0.00     0.071 H 
ATOM     27  C   UNL     1     -45.043  39.654  27.433  1.00  0.00     0.140 A 
ATOM     28  O   UNL     1     -43.220  39.198  30.458  1.00  0.00    -0.269 OA
ATOM     29  N   UNL     1     -44.070  39.879  28.401  1.00  0.00    -0.268 N 
ATOM     30  C   UNL     1     -45.024  40.544  26.236  1.00  0.00    -0.019 A 
ATOM     31  C   UNL     1     -43.131  40.894  28.248  1.00  0.00     0.014 A 
ATOM     32  C   UNL     1     -44.100  41.507  26.135  1.00  0.00    -0.057 A 
ATOM     33  H   UNL     1     -45.776  40.376  25.476  1.00  0.00     0.066 H 
ATOM     34  C   UNL     1     -43.120  41.689  27.173  1.00  0.00    -0.045 A 
ATOM     35  H   UNL     1     -42.401  41.013  29.045  1.00  0.00     0.082 H 
ATOM     36  H   UNL     1     -44.069  42.165  25.272  1.00  0.00     0.062 H 
ATOM     37  H   UNL     1     -42.383  42.478  27.064  1.00  0.00     0.064 H 
ENDBRANCH  20  22
ENDBRANCH  15  18
ENDBRANCH   1  15
BRANCH   6  38
ATOM     38  C   UNL     1     -48.303  29.417  23.581  1.00  0.00     0.039 C 
ATOM     39  H   UNL     1     -48.926  29.638  22.703  1.00  0.00     0.050 H 
ATOM     40  H   UNL     1     -47.388  28.939  23.207  1.00  0.00     0.050 H 
BRANCH  38  41
ATOM     41  N   UNL     1     -49.031  28.527  24.490  1.00  0.00    -0.297 NA
ATOM     42  C   UNL     1     -48.310  28.299  25.759  1.00  0.00     0.001 C 
ATOM     43  C   UNL     1     -49.378  27.256  23.828  1.00  0.00     0.001 C 
ATOM     44  C   UNL     1     -48.922  27.108  26.518  1.00  0.00    -0.028 C 
ATOM     45  H   UNL     1     -48.393  29.192  26.387  1.00  0.00     0.043 H 
ATOM     46  H   UNL     1     -47.242  28.111  25.590  1.00  0.00     0.043 H 
ATOM     47  C   UNL     1     -49.840  26.218  24.864  1.00  0.00    -0.028 C 
ATOM     48  H   UNL     1     -50.195  27.443  23.121  1.00  0.00     0.043 H 
ATOM     49  H   UNL     1     -48.533  26.852  23.257  1.00  0.00     0.043 H 
ATOM     50  C   UNL     1     -50.425  26.839  26.176  1.00  0.00    -0.045 C 
ATOM     51  C   UNL     1     -48.654  25.770  25.769  1.00  0.00    -0.045 C 
ATOM     52  H   UNL     1     -48.662  27.096  27.580  1.00  0.00     0.032 H 
ATOM     53  H   UNL     1     -50.415  25.397  24.425  1.00  0.00     0.032 H 
ATOM     54  H   UNL     1     -51.076  27.710  26.069  1.00  0.00     0.027 H 
ATOM     55  H   UNL     1     -50.919  26.118  26.839  1.00  0.00     0.027 H 
ATOM     56  H   UNL     1     -48.851  24.869  26.363  1.00  0.00     0.027 H 
ATOM     57  H   UNL     1     -47.679  25.658  25.287  1.00  0.00     0.027 H 
ENDBRANCH  38  41
ENDBRANCH   6  38
TORSDOF 5
ENDMDL
MODEL 3
REMARK VINA RESULT:     -10.7      2.573      4.081
REMARK SMILES O=C(NCc1ccc2cc(CN3C[C@H]4C[C@@H](C3)C4)[nH]c2c1)c1cc(=O)n2ccccc2n1
REMARK SMILES IDX 5 1 6 2 7 3 8 4 9 5 10 6 19 7 20 8 21 9 4 15 3 18 1 19 2 20
REMARK SMILES IDX 22 22 23 23 32 24 24 25 31 27 25 28 26 29 30 30 27 31 29 32
REMARK SMILES IDX 28 34 11 38 12 41 13 42 17 43 14 44 16 47 15 50 18 51
REMARK H PARENT 6 10 7 11 9 12 19 13 21 14 4 16 4 17 3 21 23 26 30 33 27 35
REMARK H PARENT 29 36 28 37 11 39 11 40 13 45 13 46 17 48 17 49 14 52 16 53
REMARK H PARENT 15 54 15 55 18 56 18 57
REMARK Flexibility Score: inf
ROOT
ATOM      1  C   UNL     1     -46.296  36.203  28.177  1.00  0.00    -0.027 A 
ATOM      2  C   UNL     1     -47.681  36.258  27.975  1.00  0.00    -0.057 A 
ATOM      3  C   UNL     1     -48.322  35.366  27.105  1.00  0.00    -0.052 A 
ATOM      4  C   UNL     1     -47.559  34.403  26.417  1.00  0.00    -0.000 A 
ATOM      5  C   UNL     1     -47.869  33.377  25.482  1.00  0.00    -0.032 A 
ATOM      6  C   UNL     1     -46.692  32.743  25.139  1.00  0.00     0.030 A 
ATOM      7  N   UNL     1     -45.682  33.355  25.843  1.00  0.00    -0.357 N 
ATOM      8  C   UNL     1     -46.182  34.368  26.626  1.00  0.00     0.046 A 
ATOM      9  C   UNL     1     -45.523  35.250  27.490  1.00  0.00    -0.033 A 
ATOM     10  H   UNL     1     -48.281  37.001  28.496  1.00  0.00     0.063 H 
ATOM     11  H   UNL     1     -49.397  35.420  26.961  1.00  0.00     0.063 H 
ATOM     12  H   UNL     1     -48.851  33.131  25.103  1.00  0.00     0.065 H 
ATOM     13  H   UNL     1     -44.705  33.107  25.756  1.00  0.00     0.166 HD
ATOM     14  H   UNL     1     -44.445  35.205  27.624  1.00  0.00     0.065 H 
ENDROOT
BRANCH   1  15
ATOM     15  C   UNL     1     -45.617  37.188  29.099  1.00  0.00     0.043 C 
ATOM     16  H   UNL     1     -46.353  37.672  29.749  1.00  0.00     0.054 H 
ATOM     17  H   UNL     1     -44.902  36.669  29.746  1.00  0.00     0.054 H 
BRANCH  15  18
ATOM     18  N   UNL     1     -44.963  38.225  28.344  1.00  0.00    -0.347 N 
ATOM     19  O   UNL     1     -46.708  39.726  28.361  1.00  0.00    -0.268 OA
ATOM     20  C   UNL     1     -45.543  39.446  28.103  1.00  0.00     0.270 C 
ATOM     21  H   UNL     1     -43.962  38.171  28.190  1.00  0.00     0.164 HD
BRANCH  20  22
ATOM     22  C   UNL     1     -44.575  40.429  27.490  1.00  0.00     0.136 A 
ATOM     23  C   UNL     1     -43.456  40.669  28.177  1.00  0.00     0.035 A 
ATOM     24  N   UNL     1     -44.890  41.003  26.278  1.00  0.00    -0.225 NA
ATOM     25  C   UNL     1     -42.482  41.612  27.614  1.00  0.00     0.258 A 
ATOM     26  H   UNL     1     -43.218  40.209  29.128  1.00  0.00     0.071 H 
ATOM     27  C   UNL     1     -44.024  41.834  25.783  1.00  0.00     0.140 A 
ATOM     28  O   UNL     1     -41.449  41.841  28.243  1.00  0.00    -0.269 OA
ATOM     29  N   UNL     1     -42.821  42.173  26.393  1.00  0.00    -0.268 N 
ATOM     30  C   UNL     1     -44.322  42.476  24.471  1.00  0.00    -0.019 A 
ATOM     31  C   UNL     1     -41.947  43.075  25.794  1.00  0.00     0.014 A 
ATOM     32  C   UNL     1     -43.449  43.338  23.936  1.00  0.00    -0.057 A 
ATOM     33  H   UNL     1     -45.256  42.217  23.988  1.00  0.00     0.066 H 
ATOM     34  C   UNL     1     -42.221  43.649  24.617  1.00  0.00    -0.045 A 
ATOM     35  H   UNL     1     -41.025  43.295  26.328  1.00  0.00     0.082 H 
ATOM     36  H   UNL     1     -43.647  43.815  22.981  1.00  0.00     0.062 H 
ATOM     37  H   UNL     1     -41.531  44.351  24.160  1.00  0.00     0.064 H 
ENDBRANCH  20  22
ENDBRANCH  15  18
ENDBRANCH   1  15
BRANCH   6  38
ATOM     38  C   UNL     1     -46.417  31.602  24.219  1.00  0.00     0.039 C 
ATOM     39  H   UNL     1     -45.513  31.861  23.651  1.00  0.00     0.050 H 
ATOM     40  H   UNL     1     -46.181  30.694  24.791  1.00  0.00     0.050 H 
BRANCH  38  41
ATOM     41  N   UNL     1     -47.531  31.370  23.295  1.00  0.00    -0.297 NA
ATOM     42  C   UNL     1     -48.535  30.433  23.840  1.00  0.00     0.001 C 
ATOM     43  C   UNL     1     -47.046  30.936  21.973  1.00  0.00     0.001 C 
ATOM     44  C   UNL     1     -49.481  29.953  22.725  1.00  0.00    -0.028 C 
ATOM     45  H   UNL     1     -49.129  30.944  24.605  1.00  0.00     0.043 H 
ATOM     46  H   UNL     1     -48.062  29.563  24.314  1.00  0.00     0.043 H 
ATOM     47  C   UNL     1     -48.206  30.387  21.126  1.00  0.00    -0.028 C 
ATOM     48  H   UNL     1     -46.608  31.801  21.461  1.00  0.00     0.043 H 
ATOM     49  H   UNL     1     -46.263  30.172  22.059  1.00  0.00     0.043 H 
ATOM     50  C   UNL     1     -49.611  30.948  21.526  1.00  0.00    -0.045 C 
ATOM     51  C   UNL     1     -48.732  29.042  21.709  1.00  0.00    -0.045 C 
ATOM     52  H   UNL     1     -50.417  29.536  23.106  1.00  0.00     0.032 H 
ATOM     53  H   UNL     1     -47.986  30.366  20.054  1.00  0.00     0.032 H 
ATOM     54  H   UNL     1     -49.673  32.013  21.767  1.00  0.00     0.027 H 
ATOM     55  H   UNL     1     -50.415  30.707  20.820  1.00  0.00     0.027 H 
ATOM     56  H   UNL     1     -49.387  28.479  21.033  1.00  0.00     0.027 H 
ATOM     57  H   UNL     1     -47.985  28.354  22.116  1.00  0.00     0.027 H 
ENDBRANCH  38  41
ENDBRANCH   6  38
TORSDOF 5
ENDMDL
MODEL 4
REMARK VINA RESULT:     -10.4      2.711      4.822
REMARK SMILES O=C(NCc1ccc2cc(CN3C[C@H]4C[C@@H](C3)C4)[nH]c2c1)c1cc(=O)n2ccccc2n1
REMARK SMILES IDX 5 1 6 2 7 3 8 4 9 5 10 6 19 7 20 8 21 9 4 15 3 18 1 19 2 20
REMARK SMILES IDX 22 22 23 23 32 24 24 25 31 27 25 28 26 29 30 30 27 31 29 32
REMARK SMILES IDX 28 34 11 38 12 41 13 42 17 43 14 44 16 47 15 50 18 51
REMARK H PARENT 6 10 7 11 9 12 19 13 21 14 4 16 4 17 3 21 23 26 30 33 27 35
REMARK H PARENT 29 36 28 37 11 39 11 40 13 45 13 46 17 48 17 49 14 52 16 53
REMARK H PARENT 15 54 15 55 18 56 18 57
REMARK Flexibility Score: inf
ROOT
ATOM      1  C   UNL     1     -45.432  37.766  28.293  1.00  0.00    -0.027 A 
ATOM      2  C   UNL     1     -46.393  38.173  27.358  1.00  0.00    -0.057 A 
ATOM      3  C   UNL     1     -47.090  37.238  26.582  1.00  0.00    -0.052 A 
ATOM      4  C   UNL     1     -46.815  35.866  26.740  1.00  0.00    -0.000 A 
ATOM      5  C   UNL     1     -47.312  34.680  26.133  1.00  0.00    -0.032 A 
ATOM      6  C   UNL     1     -46.652  33.605  26.693  1.00  0.00     0.030 A 
ATOM      7  N   UNL     1     -45.773  34.109  27.623  1.00  0.00    -0.357 N 
ATOM      8  C   UNL     1     -45.851  35.480  27.669  1.00  0.00     0.046 A 
ATOM      9  C   UNL     1     -45.144  36.399  28.453  1.00  0.00    -0.033 A 
ATOM     10  H   UNL     1     -46.611  39.230  27.223  1.00  0.00     0.063 H 
ATOM     11  H   UNL     1     -47.834  37.569  25.864  1.00  0.00     0.063 H 
ATOM     12  H   UNL     1     -48.075  34.622  25.368  1.00  0.00     0.065 H 
ATOM     13  H   UNL     1     -45.135  33.538  28.162  1.00  0.00     0.166 HD
ATOM     14  H   UNL     1     -44.390  36.067  29.163  1.00  0.00     0.065 H 
ENDROOT
BRANCH   1  15
ATOM     15  C   UNL     1     -44.671  38.787  29.103  1.00  0.00     0.043 C 
ATOM     16  H   UNL     1     -45.221  39.035  30.018  1.00  0.00     0.054 H 
ATOM     17  H   UNL     1     -43.700  38.382  29.407  1.00  0.00     0.054 H 
BRANCH  15  18
ATOM     18  N   UNL     1     -44.504  40.008  28.358  1.00  0.00    -0.347 N 
ATOM     19  O   UNL     1     -42.463  40.598  29.244  1.00  0.00    -0.268 OA
ATOM     20  C   UNL     1     -43.369  40.777  28.437  1.00  0.00     0.270 C 
ATOM     21  H   UNL     1     -45.113  40.196  27.568  1.00  0.00     0.164 HD
BRANCH  20  22
ATOM     22  C   UNL     1     -43.347  41.874  27.401  1.00  0.00     0.136 A 
ATOM     23  C   UNL     1     -42.185  42.078  26.775  1.00  0.00     0.035 A 
ATOM     24  N   UNL     1     -44.503  42.582  27.159  1.00  0.00    -0.225 NA
ATOM     25  C   UNL     1     -42.119  43.130  25.754  1.00  0.00     0.258 A 
ATOM     26  H   UNL     1     -41.283  41.512  26.973  1.00  0.00     0.071 H 
ATOM     27  C   UNL     1     -44.440  43.509  26.252  1.00  0.00     0.140 A 
ATOM     28  O   UNL     1     -41.051  43.326  25.175  1.00  0.00    -0.269 OA
ATOM     29  N   UNL     1     -43.297  43.825  25.527  1.00  0.00    -0.268 N 
ATOM     30  C   UNL     1     -45.670  44.298  25.954  1.00  0.00    -0.019 A 
ATOM     31  C   UNL     1     -43.314  44.836  24.571  1.00  0.00     0.014 A 
ATOM     32  C   UNL     1     -45.635  45.262  25.026  1.00  0.00    -0.057 A 
ATOM     33  H   UNL     1     -46.565  44.059  26.513  1.00  0.00     0.066 H 
ATOM     34  C   UNL     1     -44.420  45.541  24.309  1.00  0.00    -0.045 A 
ATOM     35  H   UNL     1     -42.383  45.030  24.042  1.00  0.00     0.082 H 
ATOM     36  H   UNL     1     -46.520  45.847  24.794  1.00  0.00     0.062 H 
ATOM     37  H   UNL     1     -44.422  46.328  23.561  1.00  0.00     0.064 H 
ENDBRANCH  20  22
ENDBRANCH  15  18
ENDBRANCH   1  15
BRANCH   6  38
ATOM     38  C   UNL     1     -46.772  32.138  26.452  1.00  0.00     0.039 C 
ATOM     39  H   UNL     1     -45.761  31.768  26.232  1.00  0.00     0.050 H 
ATOM     40  H   UNL     1     -47.105  31.624  27.363  1.00  0.00     0.050 H 
BRANCH  38  41
ATOM     41  N   UNL     1     -47.661  31.845  25.324  1.00  0.00    -0.297 NA
ATOM     42  C   UNL     1     -48.682  30.829  25.656  1.00  0.00     0.001 C 
ATOM     43  C   UNL     1     -46.893  31.470  24.123  1.00  0.00     0.001 C 
ATOM     44  C   UNL     1     -49.351  30.304  24.373  1.00  0.00    -0.028 C 
ATOM     45  H   UNL     1     -49.451  31.284  26.289  1.00  0.00     0.043 H 
ATOM     46  H   UNL     1     -48.250  29.987  26.211  1.00  0.00     0.043 H 
ATOM     47  C   UNL     1     -47.820  30.856  23.061  1.00  0.00    -0.028 C 
ATOM     48  H   UNL     1     -46.427  32.373  23.711  1.00  0.00     0.043 H 
ATOM     49  H   UNL     1     -46.089  30.762  24.360  1.00  0.00     0.043 H 
ATOM     50  C   UNL     1     -49.313  31.309  23.176  1.00  0.00    -0.045 C 
ATOM     51  C   UNL     1     -48.351  29.467  23.523  1.00  0.00    -0.045 C 
ATOM     52  H   UNL     1     -50.311  29.815  24.559  1.00  0.00     0.032 H 
ATOM     53  H   UNL     1     -47.391  30.870  22.054  1.00  0.00     0.032 H 
ATOM     54  H   UNL     1     -49.499  32.362  23.403  1.00  0.00     0.027 H 
ATOM     55  H   UNL     1     -49.942  31.024  22.323  1.00  0.00     0.027 H 
ATOM     56  H   UNL     1     -48.817  28.871  22.729  1.00  0.00     0.027 H 
ATOM     57  H   UNL     1     -47.652  28.826  24.068  1.00  0.00     0.027 H 
ENDBRANCH  38  41
ENDBRANCH   6  38
TORSDOF 5
ENDMDL
MODEL 5
REMARK VINA RESULT:     -10.0      2.084      3.250
REMARK SMILES O=C(NCc1ccc2cc(CN3C[C@H]4C[C@@H](C3)C4)[nH]c2c1)c1cc(=O)n2ccccc2n1
REMARK SMILES IDX 5 1 6 2 7 3 8 4 9 5 10 6 19 7 20 8 21 9 4 15 3 18 1 19 2 20
REMARK SMILES IDX 22 22 23 23 32 24 24 25 31 27 25 28 26 29 30 30 27 31 29 32
REMARK SMILES IDX 28 34 11 38 12 41 13 42 17 43 14 44 16 47 15 50 18 51
REMARK H PARENT 6 10 7 11 9 12 19 13 21 14 4 16 4 17 3 21 23 26 30 33 27 35
REMARK H PARENT 29 36 28 37 11 39 11 40 13 45 13 46 17 48 17 49 14 52 16 53
REMARK H PARENT 15 54 15 55 18 56 18 57
REMARK Flexibility Score: inf
ROOT
ATOM      1  C   UNL     1     -46.212  35.661  27.825  1.00  0.00    -0.027 A 
ATOM      2  C   UNL     1     -47.608  35.737  27.746  1.00  0.00    -0.057 A 
ATOM      3  C   UNL     1     -48.336  34.861  26.931  1.00  0.00    -0.052 A 
ATOM      4  C   UNL     1     -47.651  33.892  26.172  1.00  0.00    -0.000 A 
ATOM      5  C   UNL     1     -48.057  32.878  25.262  1.00  0.00    -0.032 A 
ATOM      6  C   UNL     1     -46.925  32.230  24.813  1.00  0.00     0.030 A 
ATOM      7  N   UNL     1     -45.848  32.822  25.429  1.00  0.00    -0.357 N 
ATOM      8  C   UNL     1     -46.262  33.836  26.259  1.00  0.00     0.046 A 
ATOM      9  C   UNL     1     -45.517  34.702  27.066  1.00  0.00    -0.033 A 
ATOM     10  H   UNL     1     -48.149  36.485  28.322  1.00  0.00     0.063 H 
ATOM     11  H   UNL     1     -49.419  34.931  26.882  1.00  0.00     0.063 H 
ATOM     12  H   UNL     1     -49.073  32.648  24.969  1.00  0.00     0.065 H 
ATOM     13  H   UNL     1     -44.886  32.561  25.255  1.00  0.00     0.166 HD
ATOM     14  H   UNL     1     -44.432  34.640  27.105  1.00  0.00     0.065 H 
ENDROOT
BRANCH   1  15
ATOM     15  C   UNL     1     -45.440  36.629  28.689  1.00  0.00     0.043 C 
ATOM     16  H   UNL     1     -45.933  36.751  29.660  1.00  0.00     0.054 H 
ATOM     17  H   UNL     1     -44.433  36.244  28.882  1.00  0.00     0.054 H 
BRANCH  15  18
ATOM     18  N   UNL     1     -45.379  37.928  28.071  1.00  0.00    -0.347 N 
ATOM     19  O   UNL     1     -44.145  38.962  29.717  1.00  0.00    -0.268 OA
ATOM     20  C   UNL     1     -44.666  38.972  28.607  1.00  0.00     0.270 C 
ATOM     21  H   UNL     1     -45.653  38.030  27.100  1.00  0.00     0.164 HD
BRANCH  20  22
ATOM     22  C   UNL     1     -44.577  40.149  27.665  1.00  0.00     0.136 A 
ATOM     23  C   UNL     1     -45.722  40.552  27.109  1.00  0.00     0.035 A 
ATOM     24  N   UNL     1     -43.349  40.731  27.443  1.00  0.00    -0.225 NA
ATOM     25  C   UNL     1     -45.685  41.698  26.192  1.00  0.00     0.258 A 
ATOM     26  H   UNL     1     -46.683  40.087  27.293  1.00  0.00     0.071 H 
ATOM     27  C   UNL     1     -43.322  41.746  26.634  1.00  0.00     0.140 A 
ATOM     28  O   UNL     1     -46.735  42.074  25.673  1.00  0.00    -0.269 OA
ATOM     29  N   UNL     1     -44.438  42.268  25.989  1.00  0.00    -0.268 N 
ATOM     30  C   UNL     1     -42.014  42.411  26.368  1.00  0.00    -0.019 A 
ATOM     31  C   UNL     1     -44.322  43.360  25.134  1.00  0.00     0.014 A 
ATOM     32  C   UNL     1     -41.955  43.458  25.538  1.00  0.00    -0.057 A 
ATOM     33  H   UNL     1     -41.140  42.012  26.867  1.00  0.00     0.066 H 
ATOM     34  C   UNL     1     -43.146  43.951  24.899  1.00  0.00    -0.045 A 
ATOM     35  H   UNL     1     -45.236  43.715  24.662  1.00  0.00     0.082 H 
ATOM     36  H   UNL     1     -41.012  43.956  25.332  1.00  0.00     0.062 H 
ATOM     37  H   UNL     1     -43.068  44.803  24.231  1.00  0.00     0.064 H 
ENDBRANCH  20  22
ENDBRANCH  15  18
ENDBRANCH   1  15
BRANCH   6  38
ATOM     38  C   UNL     1     -46.749  31.091  23.865  1.00  0.00     0.039 C 
ATOM     39  H   UNL     1     -46.590  31.527  22.869  1.00  0.00     0.050 H 
ATOM     40  H   UNL     1     -45.842  30.523  24.110  1.00  0.00     0.050 H 
BRANCH  38  41
ATOM     41  N   UNL     1     -47.928  30.221  23.839  1.00  0.00    -0.297 NA
ATOM     42  C   UNL     1     -47.578  28.789  23.939  1.00  0.00     0.001 C 
ATOM     43  C   UNL     1     -48.766  30.493  22.657  1.00  0.00     0.001 C 
ATOM     44  C   UNL     1     -48.786  27.915  23.558  1.00  0.00    -0.028 C 
ATOM     45  H   UNL     1     -47.292  28.558  24.970  1.00  0.00     0.043 H 
ATOM     46  H   UNL     1     -46.728  28.533  23.294  1.00  0.00     0.043 H 
ATOM     47  C   UNL     1     -49.804  29.376  22.464  1.00  0.00    -0.028 C 
ATOM     48  H   UNL     1     -49.289  31.444  22.813  1.00  0.00     0.043 H 
ATOM     49  H   UNL     1     -48.163  30.593  21.746  1.00  0.00     0.043 H 
ATOM     50  C   UNL     1     -50.170  28.608  23.778  1.00  0.00    -0.045 C 
ATOM     51  C   UNL     1     -49.116  28.044  22.042  1.00  0.00    -0.045 C 
ATOM     52  H   UNL     1     -48.703  26.886  23.920  1.00  0.00     0.032 H 
ATOM     53  H   UNL     1     -50.647  29.674  21.833  1.00  0.00     0.032 H 
ATOM     54  H   UNL     1     -50.291  29.204  24.687  1.00  0.00     0.027 H 
ATOM     55  H   UNL     1     -51.034  27.938  23.687  1.00  0.00     0.027 H 
ATOM     56  H   UNL     1     -49.802  27.279  21.659  1.00  0.00     0.027 H 
ATOM     57  H   UNL     1     -48.269  28.121  21.356  1.00  0.00     0.027 H 
ENDBRANCH  38  41
ENDBRANCH   6  38
TORSDOF 5
ENDMDL
MODEL 6
REMARK VINA RESULT:     -10.0      2.293      3.487
REMARK SMILES O=C(NCc1ccc2cc(CN3C[C@H]4C[C@@H](C3)C4)[nH]c2c1)c1cc(=O)n2ccccc2n1
REMARK SMILES IDX 5 1 6 2 7 3 8 4 9 5 10 6 19 7 20 8 21 9 4 15 3 18 1 19 2 20
REMARK SMILES IDX 22 22 23 23 32 24 24 25 31 27 25 28 26 29 30 30 27 31 29 32
REMARK SMILES IDX 28 34 11 38 12 41 13 42 17 43 14 44 16 47 15 50 18 51
REMARK H PARENT 6 10 7 11 9 12 19 13 21 14 4 16 4 17 3 21 23 26 30 33 27 35
REMARK H PARENT 29 36 28 37 11 39 11 40 13 45 13 46 17 48 17 49 14 52 16 53
REMARK H PARENT 15 54 15 55 18 56 18 57
REMARK Flexibility Score: inf
ROOT
ATOM      1  C   UNL     1     -47.995  35.269  26.909  1.00  0.00    -0.027 A 
ATOM      2  C   UNL     1     -46.661  35.250  26.483  1.00  0.00    -0.057 A 
ATOM      3  C   UNL     1     -46.171  34.210  25.682  1.00  0.00    -0.052 A 
ATOM      4  C   UNL     1     -47.033  33.163  25.305  1.00  0.00    -0.000 A 
ATOM      5  C   UNL     1     -46.876  31.981  24.529  1.00  0.00    -0.032 A 
ATOM      6  C   UNL     1     -48.088  31.321  24.509  1.00  0.00     0.030 A 
ATOM      7  N   UNL     1     -48.971  32.072  25.247  1.00  0.00    -0.357 N 
ATOM      8  C   UNL     1     -48.355  33.195  25.743  1.00  0.00     0.046 A 
ATOM      9  C   UNL     1     -48.863  34.224  26.544  1.00  0.00    -0.033 A 
ATOM     10  H   UNL     1     -45.983  36.050  26.773  1.00  0.00     0.063 H 
ATOM     11  H   UNL     1     -45.134  34.211  25.359  1.00  0.00     0.063 H 
ATOM     12  H   UNL     1     -45.970  31.653  24.038  1.00  0.00     0.065 H 
ATOM     13  H   UNL     1     -49.930  31.801  25.424  1.00  0.00     0.166 HD
ATOM     14  H   UNL     1     -49.898  34.216  26.879  1.00  0.00     0.065 H 
ENDROOT
BRANCH   1  15
ATOM     15  C   UNL     1     -48.501  36.383  27.792  1.00  0.00     0.043 C 
ATOM     16  H   UNL     1     -49.414  36.819  27.373  1.00  0.00     0.054 H 
ATOM     17  H   UNL     1     -48.752  35.994  28.785  1.00  0.00     0.054 H 
BRANCH  15  18
ATOM     18  N   UNL     1     -47.527  37.439  27.890  1.00  0.00    -0.347 N 
ATOM     19  O   UNL     1     -46.560  36.745  29.861  1.00  0.00    -0.268 OA
ATOM     20  C   UNL     1     -46.581  37.487  28.885  1.00  0.00     0.270 C 
ATOM     21  H   UNL     1     -47.355  38.033  27.086  1.00  0.00     0.164 HD
BRANCH  20  22
ATOM     22  C   UNL     1     -45.547  38.559  28.641  1.00  0.00     0.136 A 
ATOM     23  C   UNL     1     -44.588  38.681  29.562  1.00  0.00     0.035 A 
ATOM     24  N   UNL     1     -45.643  39.327  27.502  1.00  0.00    -0.225 NA
ATOM     25  C   UNL     1     -43.555  39.705  29.361  1.00  0.00     0.258 A 
ATOM     26  H   UNL     1     -44.522  38.069  30.453  1.00  0.00     0.071 H 
ATOM     27  C   UNL     1     -44.726  40.229  27.327  1.00  0.00     0.140 A 
ATOM     28  O   UNL     1     -42.671  39.826  30.208  1.00  0.00    -0.269 OA
ATOM     29  N   UNL     1     -43.673  40.462  28.206  1.00  0.00    -0.268 N 
ATOM     30  C   UNL     1     -44.788  41.081  26.105  1.00  0.00    -0.019 A 
ATOM     31  C   UNL     1     -42.731  41.452  27.945  1.00  0.00     0.014 A 
ATOM     32  C   UNL     1     -43.857  42.021  25.899  1.00  0.00    -0.057 A 
ATOM     33  H   UNL     1     -45.603  40.907  25.415  1.00  0.00     0.066 H 
ATOM     34  C   UNL     1     -42.793  42.214  26.847  1.00  0.00    -0.045 A 
ATOM     35  H   UNL     1     -41.935  41.580  28.676  1.00  0.00     0.082 H 
ATOM     36  H   UNL     1     -43.884  42.651  25.015  1.00  0.00     0.062 H 
ATOM     37  H   UNL     1     -42.052  42.983  26.654  1.00  0.00     0.064 H 
ENDBRANCH  20  22
ENDBRANCH  15  18
ENDBRANCH   1  15
BRANCH   6  38
ATOM     38  C   UNL     1     -48.509  30.051  23.849  1.00  0.00     0.039 C 
ATOM     39  H   UNL     1     -47.594  29.474  23.654  1.00  0.00     0.050 H 
ATOM     40  H   UNL     1     -49.123  29.448  24.531  1.00  0.00     0.050 H 
BRANCH  38  41
ATOM     41  N   UNL     1     -49.211  30.303  22.587  1.00  0.00    -0.297 NA
ATOM     42  C   UNL     1     -50.491  29.570  22.495  1.00  0.00     0.001 C 
ATOM     43  C   UNL     1     -48.342  30.025  21.429  1.00  0.00     0.001 C 
ATOM     44  C   UNL     1     -51.010  29.580  21.046  1.00  0.00    -0.028 C 
ATOM     45  H   UNL     1     -51.234  30.058  23.135  1.00  0.00     0.043 H 
ATOM     46  H   UNL     1     -50.389  28.532  22.837  1.00  0.00     0.043 H 
ATOM     47  C   UNL     1     -49.171  29.973  20.135  1.00  0.00    -0.028 C 
ATOM     48  H   UNL     1     -47.603  30.830  21.348  1.00  0.00     0.043 H 
ATOM     49  H   UNL     1     -47.794  29.082  21.550  1.00  0.00     0.043 H 
ATOM     50  C   UNL     1     -50.504  30.790  20.195  1.00  0.00    -0.045 C 
ATOM     51  C   UNL     1     -50.100  28.723  20.118  1.00  0.00    -0.045 C 
ATOM     52  H   UNL     1     -52.078  29.354  20.971  1.00  0.00     0.032 H 
ATOM     53  H   UNL     1     -48.568  30.106  19.231  1.00  0.00     0.032 H 
ATOM     54  H   UNL     1     -50.469  31.766  20.687  1.00  0.00     0.027 H 
ATOM     55  H   UNL     1     -51.008  30.909  19.228  1.00  0.00     0.027 H 
ATOM     56  H   UNL     1     -50.536  28.494  19.139  1.00  0.00     0.027 H 
ATOM     57  H   UNL     1     -49.693  27.799  20.539  1.00  0.00     0.027 H 
ENDBRANCH  38  41
ENDBRANCH   6  38
TORSDOF 5
ENDMDL
MODEL 7
REMARK VINA RESULT:     -10.0      2.005      3.246
REMARK SMILES O=C(NCc1ccc2cc(CN3C[C@H]4C[C@@H](C3)C4)[nH]c2c1)c1cc(=O)n2ccccc2n1
REMARK SMILES IDX 5 1 6 2 7 3 8 4 9 5 10 6 19 7 20 8 21 9 4 15 3 18 1 19 2 20
REMARK SMILES IDX 22 22 23 23 32 24 24 25 31 27 25 28 26 29 30 30 27 31 29 32
REMARK SMILES IDX 28 34 11 38 12 41 13 42 17 43 14 44 16 47 15 50 18 51
REMARK H PARENT 6 10 7 11 9 12 19 13 21 14 4 16 4 17 3 21 23 26 30 33 27 35
REMARK H PARENT 29 36 28 37 11 39 11 40 13 45 13 46 17 48 17 49 14 52 16 53
REMARK H PARENT 15 54 15 55 18 56 18 57
REMARK Flexibility Score: inf
ROOT
ATOM      1  C   UNL     1     -46.777  36.371  28.374  1.00  0.00    -0.027 A 
ATOM      2  C   UNL     1     -45.529  35.868  27.986  1.00  0.00    -0.057 A 
ATOM      3  C   UNL     1     -45.426  34.773  27.118  1.00  0.00    -0.052 A 
ATOM      4  C   UNL     1     -46.600  34.163  26.634  1.00  0.00    -0.000 A 
ATOM      5  C   UNL     1     -46.860  33.064  25.770  1.00  0.00    -0.032 A 
ATOM      6  C   UNL     1     -48.229  32.921  25.663  1.00  0.00     0.030 A 
ATOM      7  N   UNL     1     -48.801  33.905  26.434  1.00  0.00    -0.357 N 
ATOM      8  C   UNL     1     -47.832  34.672  27.036  1.00  0.00     0.046 A 
ATOM      9  C   UNL     1     -47.955  35.765  27.902  1.00  0.00    -0.033 A 
ATOM     10  H   UNL     1     -44.615  36.327  28.358  1.00  0.00     0.063 H 
ATOM     11  H   UNL     1     -44.451  34.397  26.825  1.00  0.00     0.063 H 
ATOM     12  H   UNL     1     -46.121  32.444  25.280  1.00  0.00     0.065 H 
ATOM     13  H   UNL     1     -49.799  34.013  26.561  1.00  0.00     0.166 HD
ATOM     14  H   UNL     1     -48.932  36.133  28.206  1.00  0.00     0.065 H 
ENDROOT
BRANCH   1  15
ATOM     15  C   UNL     1     -46.870  37.536  29.330  1.00  0.00     0.043 C 
ATOM     16  H   UNL     1     -47.904  37.890  29.400  1.00  0.00     0.054 H 
ATOM     17  H   UNL     1     -46.563  37.226  30.334  1.00  0.00     0.054 H 
BRANCH  15  18
ATOM     18  N   UNL     1     -46.068  38.639  28.868  1.00  0.00    -0.347 N 
ATOM     19  O   UNL     1     -44.265  38.271  30.253  1.00  0.00    -0.268 OA
ATOM     20  C   UNL     1     -44.791  38.868  29.321  1.00  0.00     0.270 C 
ATOM     21  H   UNL     1     -46.331  39.123  28.016  1.00  0.00     0.164 HD
BRANCH  20  22
ATOM     22  C   UNL     1     -44.087  39.943  28.527  1.00  0.00     0.136 A 
ATOM     23  C   UNL     1     -42.955  40.421  29.048  1.00  0.00     0.035 A 
ATOM     24  N   UNL     1     -44.636  40.353  27.333  1.00  0.00    -0.225 NA
ATOM     25  C   UNL     1     -42.232  41.462  28.307  1.00  0.00     0.258 A 
ATOM     26  H   UNL     1     -42.532  40.088  29.988  1.00  0.00     0.071 H 
ATOM     27  C   UNL     1     -43.992  41.271  26.679  1.00  0.00     0.140 A 
ATOM     28  O   UNL     1     -41.190  41.910  28.783  1.00  0.00    -0.269 OA
ATOM     29  N   UNL     1     -42.804  41.854  27.107  1.00  0.00    -0.268 N 
ATOM     30  C   UNL     1     -44.547  41.743  25.378  1.00  0.00    -0.019 A 
ATOM     31  C   UNL     1     -42.176  42.835  26.345  1.00  0.00     0.014 A 
ATOM     32  C   UNL     1     -43.906  42.690  24.683  1.00  0.00    -0.057 A 
ATOM     33  H   UNL     1     -45.471  41.294  25.037  1.00  0.00     0.066 H 
ATOM     34  C   UNL     1     -42.680  43.255  25.180  1.00  0.00    -0.045 A 
ATOM     35  H   UNL     1     -41.250  43.249  26.741  1.00  0.00     0.082 H 
ATOM     36  H   UNL     1     -44.293  43.046  23.734  1.00  0.00     0.062 H 
ATOM     37  H   UNL     1     -42.181  44.021  24.594  1.00  0.00     0.064 H 
ENDBRANCH  20  22
ENDBRANCH  15  18
ENDBRANCH   1  15
BRANCH   6  38
ATOM     38  C   UNL     1     -49.064  31.954  24.892  1.00  0.00     0.039 C 
ATOM     39  H   UNL     1     -49.836  31.582  25.579  1.00  0.00     0.050 H 
ATOM     40  H   UNL     1     -49.588  32.465  24.074  1.00  0.00     0.050 H 
BRANCH  38  41
ATOM     41  N   UNL     1     -48.266  30.831  24.390  1.00  0.00    -0.297 NA
ATOM     42  C   UNL     1     -48.295  30.729  22.916  1.00  0.00     0.001 C 
ATOM     43  C   UNL     1     -48.669  29.565  25.028  1.00  0.00     0.001 C 
ATOM     44  C   UNL     1     -47.753  29.362  22.463  1.00  0.00    -0.028 C 
ATOM     45  H   UNL     1     -47.663  31.515  22.488  1.00  0.00     0.043 H 
ATOM     46  H   UNL     1     -49.309  30.867  22.520  1.00  0.00     0.043 H 
ATOM     47  C   UNL     1     -48.070  28.367  24.273  1.00  0.00    -0.028 C 
ATOM     48  H   UNL     1     -48.295  29.560  26.059  1.00  0.00     0.043 H 
ATOM     49  H   UNL     1     -49.761  29.461  25.072  1.00  0.00     0.043 H 
ATOM     50  C   UNL     1     -46.765  28.699  23.477  1.00  0.00    -0.045 C 
ATOM     51  C   UNL     1     -48.722  28.213  22.867  1.00  0.00    -0.045 C 
ATOM     52  H   UNL     1     -47.444  29.349  21.414  1.00  0.00     0.032 H 
ATOM     53  H   UNL     1     -48.047  27.449  24.869  1.00  0.00     0.032 H 
ATOM     54  H   UNL     1     -46.036  29.354  23.964  1.00  0.00     0.027 H 
ATOM     55  H   UNL     1     -46.234  27.822  23.088  1.00  0.00     0.027 H 
ATOM     56  H   UNL     1     -48.522  27.254  22.375  1.00  0.00     0.027 H 
ATOM     57  H   UNL     1     -49.794  28.420  22.794  1.00  0.00     0.027 H 
ENDBRANCH  38  41
ENDBRANCH   6  38
TORSDOF 5
ENDMDL
