MODEL 1
REMARK VINA RESULT:      -9.5      0.000      0.000
REMARK SMILES CC(C)(C)CNCc1cc2ccc(CNC(=O)c3cc(=O)n4ccccc4n3)cc2[nH]1
REMARK SMILES IDX 7 1 6 4 5 6 2 9 1 10 3 14 4 18 8 22 9 23 31 24 10 25 30 27
REMARK SMILES IDX 11 29 29 30 12 31 13 33 14 36 15 39 16 40 17 42 18 43 19 44
REMARK SMILES IDX 28 45 20 46 27 48 21 49 22 50 26 51 23 52 25 53 24 55
REMARK H PARENT 7 2 7 3 6 5 5 7 5 8 1 11 1 12 1 13 3 15 3 16 3 17 4 19 4 20
REMARK H PARENT 4 21 9 26 31 28 11 32 29 34 12 35 14 37 14 38 15 41 19 47
REMARK H PARENT 26 54 23 56 25 57 24 58
REMARK Flexibility Score: inf
ROOT
ATOM      1  C   UNL     1     -48.197  28.971  23.690  1.00  0.00     0.036 C 
ATOM      2  H   UNL     1     -47.881  28.891  22.644  1.00  0.00     0.049 H 
ATOM      3  H   UNL     1     -49.285  28.838  23.729  1.00  0.00     0.049 H 
ENDROOT
BRANCH   1   4
ATOM      4  N   UNL     1     -47.528  27.961  24.509  1.00  0.00    -0.311 NA
ATOM      5  H   UNL     1     -47.427  28.344  25.449  1.00  0.00     0.123 HD
BRANCH   4   6
ATOM      6  C   UNL     1     -48.321  26.730  24.570  1.00  0.00     0.000 C 
ATOM      7  H   UNL     1     -49.301  26.903  24.108  1.00  0.00     0.043 H 
ATOM      8  H   UNL     1     -47.819  25.951  23.980  1.00  0.00     0.043 H 
BRANCH   6   9
ATOM      9  C   UNL     1     -48.526  26.203  26.018  1.00  0.00    -0.026 C 
BRANCH   9  10
ATOM     10  C   UNL     1     -49.948  25.621  26.123  1.00  0.00    -0.059 C 
ATOM     11  H   UNL     1     -50.317  25.295  25.144  1.00  0.00     0.024 H 
ATOM     12  H   UNL     1     -49.974  24.754  26.792  1.00  0.00     0.024 H 
ATOM     13  H   UNL     1     -50.651  26.365  26.514  1.00  0.00     0.024 H 
ENDBRANCH   9  10
BRANCH   9  14
ATOM     14  C   UNL     1     -47.514  25.090  26.342  1.00  0.00    -0.059 C 
ATOM     15  H   UNL     1     -47.518  24.854  27.413  1.00  0.00     0.024 H 
ATOM     16  H   UNL     1     -46.492  25.379  26.076  1.00  0.00     0.024 H 
ATOM     17  H   UNL     1     -47.753  24.168  25.799  1.00  0.00     0.024 H 
ENDBRANCH   9  14
BRANCH   9  18
ATOM     18  C   UNL     1     -48.383  27.334  27.051  1.00  0.00    -0.059 C 
ATOM     19  H   UNL     1     -48.770  28.279  26.654  1.00  0.00     0.024 H 
ATOM     20  H   UNL     1     -48.939  27.119  27.970  1.00  0.00     0.024 H 
ATOM     21  H   UNL     1     -47.333  27.491  27.320  1.00  0.00     0.024 H 
ENDBRANCH   9  18
ENDBRANCH   6   9
ENDBRANCH   4   6
ENDBRANCH   1   4
BRANCH   1  22
ATOM     22  C   UNL     1     -47.838  30.323  24.195  1.00  0.00     0.030 A 
ATOM     23  C   UNL     1     -46.744  31.130  23.948  1.00  0.00    -0.032 A 
ATOM     24  N   UNL     1     -48.644  30.997  25.082  1.00  0.00    -0.357 N 
ATOM     25  C   UNL     1     -46.898  32.324  24.706  1.00  0.00    -0.000 A 
ATOM     26  H   UNL     1     -45.917  30.891  23.293  1.00  0.00     0.065 H 
ATOM     27  C   UNL     1     -48.098  32.215  25.408  1.00  0.00     0.046 A 
ATOM     28  H   UNL     1     -49.531  30.641  25.414  1.00  0.00     0.166 HD
ATOM     29  C   UNL     1     -46.128  33.492  24.860  1.00  0.00    -0.052 A 
ATOM     30  C   UNL     1     -48.573  33.221  26.258  1.00  0.00    -0.033 A 
ATOM     31  C   UNL     1     -46.585  34.507  25.709  1.00  0.00    -0.057 A 
ATOM     32  H   UNL     1     -45.191  33.609  24.324  1.00  0.00     0.063 H 
ATOM     33  C   UNL     1     -47.792  34.380  26.411  1.00  0.00    -0.027 A 
ATOM     34  H   UNL     1     -49.516  33.106  26.784  1.00  0.00     0.065 H 
ATOM     35  H   UNL     1     -45.989  35.413  25.816  1.00  0.00     0.063 H 
BRANCH  33  36
ATOM     36  C   UNL     1     -48.265  35.504  27.298  1.00  0.00     0.043 C 
ATOM     37  H   UNL     1     -48.685  35.104  28.227  1.00  0.00     0.054 H 
ATOM     38  H   UNL     1     -49.061  36.072  26.802  1.00  0.00     0.054 H 
BRANCH  36  39
ATOM     39  N   UNL     1     -47.191  36.423  27.576  1.00  0.00    -0.347 N 
ATOM     40  C   UNL     1     -47.401  37.754  27.839  1.00  0.00     0.270 C 
ATOM     41  H   UNL     1     -46.278  36.058  27.824  1.00  0.00     0.164 HD
ATOM     42  O   UNL     1     -48.479  38.323  27.724  1.00  0.00    -0.268 OA
BRANCH  40  43
ATOM     43  C   UNL     1     -46.145  38.450  28.307  1.00  0.00     0.136 A 
ATOM     44  C   UNL     1     -45.636  38.038  29.470  1.00  0.00     0.035 A 
ATOM     45  N   UNL     1     -45.606  39.442  27.521  1.00  0.00    -0.225 NA
ATOM     46  C   UNL     1     -44.412  38.682  29.961  1.00  0.00     0.258 A 
ATOM     47  H   UNL     1     -46.069  37.254  30.078  1.00  0.00     0.071 H 
ATOM     48  C   UNL     1     -44.521  40.006  27.957  1.00  0.00     0.140 A 
ATOM     49  O   UNL     1     -43.939  38.312  31.035  1.00  0.00    -0.269 OA
ATOM     50  N   UNL     1     -43.885  39.676  29.150  1.00  0.00    -0.268 N 
ATOM     51  C   UNL     1     -43.897  41.084  27.137  1.00  0.00    -0.019 A 
ATOM     52  C   UNL     1     -42.725  40.331  29.547  1.00  0.00     0.014 A 
ATOM     53  C   UNL     1     -42.779  41.685  27.561  1.00  0.00    -0.057 A 
ATOM     54  H   UNL     1     -44.383  41.347  26.205  1.00  0.00     0.066 H 
ATOM     55  C   UNL     1     -42.171  41.299  28.805  1.00  0.00    -0.045 A 
ATOM     56  H   UNL     1     -42.282  40.022  30.491  1.00  0.00     0.082 H 
ATOM     57  H   UNL     1     -42.310  42.471  26.977  1.00  0.00     0.062 H 
ATOM     58  H   UNL     1     -41.265  41.803  29.126  1.00  0.00     0.064 H 
ENDBRANCH  40  43
ENDBRANCH  36  39
ENDBRANCH  33  36
ENDBRANCH   1  22
TORSDOF 10
ENDMDL
MODEL 2
REMARK VINA RESULT:      -9.3      2.853      4.280
REMARK SMILES CC(C)(C)CNCc1cc2ccc(CNC(=O)c3cc(=O)n4ccccc4n3)cc2[nH]1
REMARK SMILES IDX 7 1 6 4 5 6 2 9 1 10 3 14 4 18 8 22 9 23 31 24 10 25 30 27
REMARK SMILES IDX 11 29 29 30 12 31 13 33 14 36 15 39 16 40 17 42 18 43 19 44
REMARK SMILES IDX 28 45 20 46 27 48 21 49 22 50 26 51 23 52 25 53 24 55
REMARK H PARENT 7 2 7 3 6 5 5 7 5 8 1 11 1 12 1 13 3 15 3 16 3 17 4 19 4 20
REMARK H PARENT 4 21 9 26 31 28 11 32 29 34 12 35 14 37 14 38 15 41 19 47
REMARK H PARENT 26 54 23 56 25 57 24 58
REMARK Flexibility Score: inf
ROOT
ATOM      1  C   UNL     1     -46.659  31.710  24.377  1.00  0.00     0.036 C 
ATOM      2  H   UNL     1     -46.647  30.784  24.962  1.00  0.00     0.049 H 
ATOM      3  H   UNL     1     -45.683  31.817  23.887  1.00  0.00     0.049 H 
ENDROOT
BRANCH   1   4
ATOM      4  N   UNL     1     -47.730  31.676  23.382  1.00  0.00    -0.311 NA
ATOM      5  H   UNL     1     -47.741  32.580  22.909  1.00  0.00     0.123 HD
BRANCH   4   6
ATOM      6  C   UNL     1     -47.493  30.617  22.396  1.00  0.00     0.000 C 
ATOM      7  H   UNL     1     -46.528  30.786  21.902  1.00  0.00     0.043 H 
ATOM      8  H   UNL     1     -47.425  29.653  22.916  1.00  0.00     0.043 H 
BRANCH   6   9
ATOM      9  C   UNL     1     -48.608  30.523  21.318  1.00  0.00    -0.026 C 
BRANCH   9  10
ATOM     10  C   UNL     1     -49.859  31.248  21.851  1.00  0.00    -0.059 C 
ATOM     11  H   UNL     1     -50.596  30.536  22.238  1.00  0.00     0.024 H 
ATOM     12  H   UNL     1     -49.602  31.935  22.666  1.00  0.00     0.024 H 
ATOM     13  H   UNL     1     -50.342  31.834  21.061  1.00  0.00     0.024 H 
ENDBRANCH   9  10
BRANCH   9  14
ATOM     14  C   UNL     1     -48.165  31.204  20.011  1.00  0.00    -0.059 C 
ATOM     15  H   UNL     1     -47.584  30.517  19.386  1.00  0.00     0.024 H 
ATOM     16  H   UNL     1     -47.538  32.081  20.203  1.00  0.00     0.024 H 
ATOM     17  H   UNL     1     -49.030  31.534  19.424  1.00  0.00     0.024 H 
ENDBRANCH   9  14
BRANCH   9  18
ATOM     18  C   UNL     1     -48.981  29.059  21.024  1.00  0.00    -0.059 C 
ATOM     19  H   UNL     1     -49.887  29.000  20.412  1.00  0.00     0.024 H 
ATOM     20  H   UNL     1     -48.187  28.538  20.478  1.00  0.00     0.024 H 
ATOM     21  H   UNL     1     -49.169  28.507  21.952  1.00  0.00     0.024 H 
ENDBRANCH   9  18
ENDBRANCH   6   9
ENDBRANCH   4   6
ENDBRANCH   1   4
BRANCH   1  22
ATOM     22  C   UNL     1     -46.887  32.855  25.298  1.00  0.00     0.030 A 
ATOM     23  C   UNL     1     -48.046  33.491  25.697  1.00  0.00    -0.032 A 
ATOM     24  N   UNL     1     -45.841  33.496  25.920  1.00  0.00    -0.357 N 
ATOM     25  C   UNL     1     -47.688  34.542  26.586  1.00  0.00    -0.000 A 
ATOM     26  H   UNL     1     -49.049  33.232  25.383  1.00  0.00     0.065 H 
ATOM     27  C   UNL     1     -46.299  34.522  26.710  1.00  0.00     0.046 A 
ATOM     28  H   UNL     1     -44.874  33.214  25.823  1.00  0.00     0.166 HD
ATOM     29  C   UNL     1     -48.418  35.509  27.302  1.00  0.00    -0.052 A 
ATOM     30  C   UNL     1     -45.598  35.424  27.520  1.00  0.00    -0.033 A 
ATOM     31  C   UNL     1     -47.733  36.421  28.114  1.00  0.00    -0.057 A 
ATOM     32  H   UNL     1     -49.500  35.549  27.230  1.00  0.00     0.063 H 
ATOM     33  C   UNL     1     -46.336  36.392  28.224  1.00  0.00    -0.027 A 
ATOM     34  H   UNL     1     -44.516  35.375  27.598  1.00  0.00     0.065 H 
ATOM     35  H   UNL     1     -48.304  37.162  28.673  1.00  0.00     0.063 H 
BRANCH  33  36
ATOM     36  C   UNL     1     -45.633  37.374  29.127  1.00  0.00     0.043 C 
ATOM     37  H   UNL     1     -44.927  36.851  29.781  1.00  0.00     0.054 H 
ATOM     38  H   UNL     1     -46.356  37.883  29.774  1.00  0.00     0.054 H 
BRANCH  36  39
ATOM     39  N   UNL     1     -44.959  38.387  28.355  1.00  0.00    -0.347 N 
ATOM     40  C   UNL     1     -45.540  39.589  28.038  1.00  0.00     0.270 C 
ATOM     41  H   UNL     1     -43.954  38.332  28.236  1.00  0.00     0.164 HD
ATOM     42  O   UNL     1     -46.715  39.868  28.243  1.00  0.00    -0.268 OA
BRANCH  40  43
ATOM     43  C   UNL     1     -44.559  40.553  27.413  1.00  0.00     0.136 A 
ATOM     44  C   UNL     1     -43.426  40.765  28.086  1.00  0.00     0.035 A 
ATOM     45  N   UNL     1     -44.880  41.137  26.209  1.00  0.00    -0.225 NA
ATOM     46  C   UNL     1     -42.440  41.689  27.513  1.00  0.00     0.258 A 
ATOM     47  H   UNL     1     -43.185  40.297  29.032  1.00  0.00     0.071 H 
ATOM     48  C   UNL     1     -44.003  41.951  25.705  1.00  0.00     0.140 A 
ATOM     49  O   UNL     1     -41.395  41.895  28.129  1.00  0.00    -0.269 OA
ATOM     50  N   UNL     1     -42.784  42.263  26.298  1.00  0.00    -0.268 N 
ATOM     51  C   UNL     1     -44.304  42.605  24.399  1.00  0.00    -0.019 A 
ATOM     52  C   UNL     1     -41.899  43.148  25.691  1.00  0.00     0.014 A 
ATOM     53  C   UNL     1     -43.421  43.449  23.855  1.00  0.00    -0.057 A 
ATOM     54  H   UNL     1     -45.251  42.366  23.928  1.00  0.00     0.066 H 
ATOM     55  C   UNL     1     -42.178  43.732  24.519  1.00  0.00    -0.045 A 
ATOM     56  H   UNL     1     -40.965  43.346  26.212  1.00  0.00     0.082 H 
ATOM     57  H   UNL     1     -43.622  43.934  22.905  1.00  0.00     0.062 H 
ATOM     58  H   UNL     1     -41.479  44.421  24.056  1.00  0.00     0.064 H 
ENDBRANCH  40  43
ENDBRANCH  36  39
ENDBRANCH  33  36
ENDBRANCH   1  22
TORSDOF 10
ENDMDL
MODEL 3
REMARK VINA RESULT:      -9.3      1.510      2.081
REMARK SMILES CC(C)(C)CNCc1cc2ccc(CNC(=O)c3cc(=O)n4ccccc4n3)cc2[nH]1
REMARK SMILES IDX 7 1 6 4 5 6 2 9 1 10 3 14 4 18 8 22 9 23 31 24 10 25 30 27
REMARK SMILES IDX 11 29 29 30 12 31 13 33 14 36 15 39 16 40 17 42 18 43 19 44
REMARK SMILES IDX 28 45 20 46 27 48 21 49 22 50 26 51 23 52 25 53 24 55
REMARK H PARENT 7 2 7 3 6 5 5 7 5 8 1 11 1 12 1 13 3 15 3 16 3 17 4 19 4 20
REMARK H PARENT 4 21 9 26 31 28 11 32 29 34 12 35 14 37 14 38 15 41 19 47
REMARK H PARENT 26 54 23 56 25 57 24 58
REMARK Flexibility Score: inf
ROOT
ATOM      1  C   UNL     1     -49.080  29.880  23.769  1.00  0.00     0.036 C 
ATOM      2  H   UNL     1     -48.319  29.346  23.188  1.00  0.00     0.049 H 
ATOM      3  H   UNL     1     -49.880  30.186  23.084  1.00  0.00     0.049 H 
ENDROOT
BRANCH   1   4
ATOM      4  N   UNL     1     -49.612  29.024  24.829  1.00  0.00    -0.311 NA
ATOM      5  H   UNL     1     -50.033  28.208  24.384  1.00  0.00     0.123 HD
BRANCH   4   6
ATOM      6  C   UNL     1     -48.544  28.585  25.732  1.00  0.00     0.000 C 
ATOM      7  H   UNL     1     -47.646  29.192  25.558  1.00  0.00     0.043 H 
ATOM      8  H   UNL     1     -48.858  28.761  26.769  1.00  0.00     0.043 H 
BRANCH   6   9
ATOM      9  C   UNL     1     -48.182  27.082  25.570  1.00  0.00    -0.026 C 
BRANCH   9  10
ATOM     10  C   UNL     1     -49.402  26.355  24.972  1.00  0.00    -0.059 C 
ATOM     11  H   UNL     1     -49.142  25.338  24.658  1.00  0.00     0.024 H 
ATOM     12  H   UNL     1     -50.216  26.279  25.701  1.00  0.00     0.024 H 
ATOM     13  H   UNL     1     -49.788  26.887  24.094  1.00  0.00     0.024 H 
ENDBRANCH   9  10
BRANCH   9  14
ATOM     14  C   UNL     1     -46.988  26.907  24.615  1.00  0.00    -0.059 C 
ATOM     15  H   UNL     1     -46.753  27.846  24.102  1.00  0.00     0.024 H 
ATOM     16  H   UNL     1     -47.191  26.156  23.845  1.00  0.00     0.024 H 
ATOM     17  H   UNL     1     -46.090  26.593  25.160  1.00  0.00     0.024 H 
ENDBRANCH   9  14
BRANCH   9  18
ATOM     18  C   UNL     1     -47.846  26.438  26.926  1.00  0.00    -0.059 C 
ATOM     19  H   UNL     1     -48.732  26.391  27.569  1.00  0.00     0.024 H 
ATOM     20  H   UNL     1     -47.476  25.414  26.810  1.00  0.00     0.024 H 
ATOM     21  H   UNL     1     -47.081  27.015  27.457  1.00  0.00     0.024 H 
ENDBRANCH   9  18
ENDBRANCH   6   9
ENDBRANCH   4   6
ENDBRANCH   1   4
BRANCH   1  22
ATOM     22  C   UNL     1     -48.456  31.083  24.383  1.00  0.00     0.030 A 
ATOM     23  C   UNL     1     -47.161  31.561  24.345  1.00  0.00    -0.032 A 
ATOM     24  N   UNL     1     -49.183  31.950  25.163  1.00  0.00    -0.357 N 
ATOM     25  C   UNL     1     -47.108  32.752  25.122  1.00  0.00    -0.000 A 
ATOM     26  H   UNL     1     -46.334  31.105  23.816  1.00  0.00     0.065 H 
ATOM     27  C   UNL     1     -48.390  32.974  25.623  1.00  0.00     0.046 A 
ATOM     28  H   UNL     1     -50.175  31.850  25.337  1.00  0.00     0.166 HD
ATOM     29  C   UNL     1     -46.087  33.665  25.444  1.00  0.00    -0.052 A 
ATOM     30  C   UNL     1     -48.707  34.071  26.433  1.00  0.00    -0.033 A 
ATOM     31  C   UNL     1     -46.385  34.766  26.255  1.00  0.00    -0.057 A 
ATOM     32  H   UNL     1     -45.080  33.523  25.065  1.00  0.00     0.063 H 
ATOM     33  C   UNL     1     -47.678  34.973  26.756  1.00  0.00    -0.027 A 
ATOM     34  H   UNL     1     -49.718  34.217  26.800  1.00  0.00     0.065 H 
ATOM     35  H   UNL     1     -45.593  35.476  26.493  1.00  0.00     0.063 H 
BRANCH  33  36
ATOM     36  C   UNL     1     -47.969  36.184  27.607  1.00  0.00     0.043 C 
ATOM     37  H   UNL     1     -48.018  35.902  28.664  1.00  0.00     0.054 H 
ATOM     38  H   UNL     1     -48.941  36.613  27.341  1.00  0.00     0.054 H 
BRANCH  36  39
ATOM     39  N   UNL     1     -46.976  37.206  27.397  1.00  0.00    -0.347 N 
ATOM     40  C   UNL     1     -47.170  38.516  27.757  1.00  0.00     0.270 C 
ATOM     41  H   UNL     1     -46.018  36.935  27.202  1.00  0.00     0.164 HD
ATOM     42  O   UNL     1     -48.235  38.978  28.149  1.00  0.00    -0.268 OA
BRANCH  40  43
ATOM     43  C   UNL     1     -45.910  39.338  27.630  1.00  0.00     0.136 A 
ATOM     44  C   UNL     1     -45.764  40.029  26.498  1.00  0.00     0.035 A 
ATOM     45  N   UNL     1     -45.008  39.332  28.670  1.00  0.00    -0.225 NA
ATOM     46  C   UNL     1     -44.556  40.848  26.333  1.00  0.00     0.258 A 
ATOM     47  H   UNL     1     -46.482  40.027  25.688  1.00  0.00     0.071 H 
ATOM     48  C   UNL     1     -43.943  40.061  28.522  1.00  0.00     0.140 A 
ATOM     49  O   UNL     1     -44.411  41.485  25.291  1.00  0.00    -0.269 OA
ATOM     50  N   UNL     1     -43.665  40.829  27.396  1.00  0.00    -0.268 N 
ATOM     51  C   UNL     1     -42.939  40.090  29.623  1.00  0.00    -0.019 A 
ATOM     52  C   UNL     1     -42.498  41.582  27.315  1.00  0.00     0.014 A 
ATOM     53  C   UNL     1     -41.832  40.831  29.500  1.00  0.00    -0.057 A 
ATOM     54  H   UNL     1     -43.149  39.497  30.506  1.00  0.00     0.066 H 
ATOM     55  C   UNL     1     -41.600  41.602  28.308  1.00  0.00    -0.045 A 
ATOM     56  H   UNL     1     -42.345  42.158  26.406  1.00  0.00     0.082 H 
ATOM     57  H   UNL     1     -41.090  40.865  30.291  1.00  0.00     0.062 H 
ATOM     58  H   UNL     1     -40.694  42.194  28.234  1.00  0.00     0.064 H 
ENDBRANCH  40  43
ENDBRANCH  36  39
ENDBRANCH  33  36
ENDBRANCH   1  22
TORSDOF 10
ENDMDL
MODEL 4
REMARK VINA RESULT:      -9.0      1.929      3.131
REMARK SMILES CC(C)(C)CNCc1cc2ccc(CNC(=O)c3cc(=O)n4ccccc4n3)cc2[nH]1
REMARK SMILES IDX 7 1 6 4 5 6 2 9 1 10 3 14 4 18 8 22 9 23 31 24 10 25 30 27
REMARK SMILES IDX 11 29 29 30 12 31 13 33 14 36 15 39 16 40 17 42 18 43 19 44
REMARK SMILES IDX 28 45 20 46 27 48 21 49 22 50 26 51 23 52 25 53 24 55
REMARK H PARENT 7 2 7 3 6 5 5 7 5 8 1 11 1 12 1 13 3 15 3 16 3 17 4 19 4 20
REMARK H PARENT 4 21 9 26 31 28 11 32 29 34 12 35 14 37 14 38 15 41 19 47
REMARK H PARENT 26 54 23 56 25 57 24 58
REMARK Flexibility Score: inf
ROOT
ATOM      1  C   UNL     1     -46.389  30.746  23.371  1.00  0.00     0.036 C 
ATOM      2  H   UNL     1     -45.314  30.778  23.158  1.00  0.00     0.049 H 
ATOM      3  H   UNL     1     -46.927  30.933  22.434  1.00  0.00     0.049 H 
ENDROOT
BRANCH   1   4
ATOM      4  N   UNL     1     -46.766  29.447  23.927  1.00  0.00    -0.311 NA
ATOM      5  H   UNL     1     -47.078  29.601  24.886  1.00  0.00     0.123 HD
BRANCH   4   6
ATOM      6  C   UNL     1     -47.856  28.845  23.154  1.00  0.00     0.000 C 
ATOM      7  H   UNL     1     -48.074  29.470  22.279  1.00  0.00     0.043 H 
ATOM      8  H   UNL     1     -47.530  27.866  22.778  1.00  0.00     0.043 H 
BRANCH   6   9
ATOM      9  C   UNL     1     -49.159  28.651  23.979  1.00  0.00    -0.026 C 
BRANCH   9  10
ATOM     10  C   UNL     1     -49.705  27.239  23.695  1.00  0.00    -0.059 C 
ATOM     11  H   UNL     1     -48.901  26.553  23.408  1.00  0.00     0.024 H 
ATOM     12  H   UNL     1     -50.200  26.820  24.577  1.00  0.00     0.024 H 
ATOM     13  H   UNL     1     -50.437  27.256  22.879  1.00  0.00     0.024 H 
ENDBRANCH   9  10
BRANCH   9  14
ATOM     14  C   UNL     1     -48.874  28.774  25.487  1.00  0.00    -0.059 C 
ATOM     15  H   UNL     1     -48.739  27.787  25.943  1.00  0.00     0.024 H 
ATOM     16  H   UNL     1     -49.696  29.268  26.016  1.00  0.00     0.024 H 
ATOM     17  H   UNL     1     -47.962  29.352  25.671  1.00  0.00     0.024 H 
ENDBRANCH   9  14
BRANCH   9  18
ATOM     18  C   UNL     1     -50.232  29.680  23.581  1.00  0.00    -0.059 C 
ATOM     19  H   UNL     1     -49.871  30.703  23.735  1.00  0.00     0.024 H 
ATOM     20  H   UNL     1     -50.509  29.591  22.525  1.00  0.00     0.024 H 
ATOM     21  H   UNL     1     -51.140  29.553  24.180  1.00  0.00     0.024 H 
ENDBRANCH   9  18
ENDBRANCH   6   9
ENDBRANCH   4   6
ENDBRANCH   1   4
BRANCH   1  22
ATOM     22  C   UNL     1     -46.713  31.811  24.357  1.00  0.00     0.030 A 
ATOM     23  C   UNL     1     -47.922  32.323  24.786  1.00  0.00    -0.032 A 
ATOM     24  N   UNL     1     -45.725  32.499  25.022  1.00  0.00    -0.357 N 
ATOM     25  C   UNL     1     -47.654  33.345  25.739  1.00  0.00    -0.000 A 
ATOM     26  H   UNL     1     -48.899  31.999  24.452  1.00  0.00     0.065 H 
ATOM     27  C   UNL     1     -46.269  33.434  25.869  1.00  0.00     0.046 A 
ATOM     28  H   UNL     1     -44.738  32.305  24.914  1.00  0.00     0.166 HD
ATOM     29  C   UNL     1     -48.463  34.203  26.506  1.00  0.00    -0.052 A 
ATOM     30  C   UNL     1     -45.646  34.342  26.735  1.00  0.00    -0.033 A 
ATOM     31  C   UNL     1     -47.858  35.119  27.375  1.00  0.00    -0.057 A 
ATOM     32  H   UNL     1     -49.545  34.155  26.431  1.00  0.00     0.063 H 
ATOM     33  C   UNL     1     -46.463  35.200  27.491  1.00  0.00    -0.027 A 
ATOM     34  H   UNL     1     -44.564  34.379  26.817  1.00  0.00     0.065 H 
ATOM     35  H   UNL     1     -48.490  35.774  27.975  1.00  0.00     0.063 H 
BRANCH  33  36
ATOM     36  C   UNL     1     -45.846  36.182  28.455  1.00  0.00     0.043 C 
ATOM     37  H   UNL     1     -44.921  35.772  28.875  1.00  0.00     0.054 H 
ATOM     38  H   UNL     1     -46.526  36.372  29.294  1.00  0.00     0.054 H 
BRANCH  36  39
ATOM     39  N   UNL     1     -45.598  37.445  27.809  1.00  0.00    -0.347 N 
ATOM     40  C   UNL     1     -46.450  38.517  27.919  1.00  0.00     0.270 C 
ATOM     41  H   UNL     1     -44.669  37.649  27.458  1.00  0.00     0.164 HD
ATOM     42  O   UNL     1     -47.557  38.474  28.442  1.00  0.00    -0.268 OA
BRANCH  40  43
ATOM     43  C   UNL     1     -45.862  39.778  27.332  1.00  0.00     0.136 A 
ATOM     44  C   UNL     1     -46.719  40.610  26.736  1.00  0.00     0.035 A 
ATOM     45  N   UNL     1     -44.508  39.995  27.448  1.00  0.00    -0.225 NA
ATOM     46  C   UNL     1     -46.193  41.852  26.156  1.00  0.00     0.258 A 
ATOM     47  H   UNL     1     -47.783  40.429  26.653  1.00  0.00     0.071 H 
ATOM     48  C   UNL     1     -44.048  41.097  26.938  1.00  0.00     0.140 A 
ATOM     49  O   UNL     1     -46.975  42.623  25.600  1.00  0.00    -0.269 OA
ATOM     50  N   UNL     1     -44.827  42.050  26.290  1.00  0.00    -0.268 N 
ATOM     51  C   UNL     1     -42.588  41.378  27.044  1.00  0.00    -0.019 A 
ATOM     52  C   UNL     1     -44.255  43.205  25.768  1.00  0.00     0.014 A 
ATOM     53  C   UNL     1     -42.085  42.504  26.526  1.00  0.00    -0.057 A 
ATOM     54  H   UNL     1     -41.973  40.642  27.549  1.00  0.00     0.066 H 
ATOM     55  C   UNL     1     -42.942  43.450  25.866  1.00  0.00    -0.045 A 
ATOM     56  H   UNL     1     -44.924  43.907  25.274  1.00  0.00     0.082 H 
ATOM     57  H   UNL     1     -41.024  42.726  26.594  1.00  0.00     0.062 H 
ATOM     58  H   UNL     1     -42.508  44.356  25.455  1.00  0.00     0.064 H 
ENDBRANCH  40  43
ENDBRANCH  36  39
ENDBRANCH  33  36
ENDBRANCH   1  22
TORSDOF 10
ENDMDL
MODEL 5
REMARK VINA RESULT:      -8.8      2.797     11.493
REMARK SMILES CC(C)(C)CNCc1cc2ccc(CNC(=O)c3cc(=O)n4ccccc4n3)cc2[nH]1
REMARK SMILES IDX 7 1 6 4 5 6 2 9 1 10 3 14 4 18 8 22 9 23 31 24 10 25 30 27
REMARK SMILES IDX 11 29 29 30 12 31 13 33 14 36 15 39 16 40 17 42 18 43 19 44
REMARK SMILES IDX 28 45 20 46 27 48 21 49 22 50 26 51 23 52 25 53 24 55
REMARK H PARENT 7 2 7 3 6 5 5 7 5 8 1 11 1 12 1 13 3 15 3 16 3 17 4 19 4 20
REMARK H PARENT 4 21 9 26 31 28 11 32 29 34 12 35 14 37 14 38 15 41 19 47
REMARK H PARENT 26 54 23 56 25 57 24 58
REMARK Flexibility Score: inf
ROOT
ATOM      1  C   UNL     1     -45.428  39.242  28.493  1.00  0.00     0.036 C 
ATOM      2  H   UNL     1     -45.041  39.207  29.518  1.00  0.00     0.049 H 
ATOM      3  H   UNL     1     -46.304  39.901  28.482  1.00  0.00     0.049 H 
ENDROOT
BRANCH   1   4
ATOM      4  N   UNL     1     -44.404  39.735  27.573  1.00  0.00    -0.311 NA
ATOM      5  H   UNL     1     -44.881  40.223  26.814  1.00  0.00     0.123 HD
BRANCH   4   6
ATOM      6  C   UNL     1     -43.497  40.666  28.251  1.00  0.00     0.000 C 
ATOM      7  H   UNL     1     -44.006  41.107  29.117  1.00  0.00     0.043 H 
ATOM      8  H   UNL     1     -42.633  40.107  28.635  1.00  0.00     0.043 H 
BRANCH   6   9
ATOM      9  C   UNL     1     -42.982  41.804  27.327  1.00  0.00    -0.026 C 
BRANCH   9  10
ATOM     10  C   UNL     1     -43.112  43.138  28.087  1.00  0.00    -0.059 C 
ATOM     11  H   UNL     1     -43.205  42.973  29.166  1.00  0.00     0.024 H 
ATOM     12  H   UNL     1     -42.236  43.775  27.923  1.00  0.00     0.024 H 
ATOM     13  H   UNL     1     -43.996  43.696  27.757  1.00  0.00     0.024 H 
ENDBRANCH   9  10
BRANCH   9  14
ATOM     14  C   UNL     1     -41.502  41.587  26.964  1.00  0.00    -0.059 C 
ATOM     15  H   UNL     1     -40.849  41.847  27.805  1.00  0.00     0.024 H 
ATOM     16  H   UNL     1     -41.199  42.204  26.112  1.00  0.00     0.024 H 
ATOM     17  H   UNL     1     -41.309  40.540  26.706  1.00  0.00     0.024 H 
ENDBRANCH   9  14
BRANCH   9  18
ATOM     18  C   UNL     1     -43.813  41.895  26.035  1.00  0.00    -0.059 C 
ATOM     19  H   UNL     1     -43.437  41.199  25.277  1.00  0.00     0.024 H 
ATOM     20  H   UNL     1     -44.866  41.647  26.209  1.00  0.00     0.024 H 
ATOM     21  H   UNL     1     -43.770  42.904  25.610  1.00  0.00     0.024 H 
ENDBRANCH   9  18
ENDBRANCH   6   9
ENDBRANCH   4   6
ENDBRANCH   1   4
BRANCH   1  22
ATOM     22  C   UNL     1     -45.827  37.868  28.086  1.00  0.00     0.030 A 
ATOM     23  C   UNL     1     -45.112  36.687  28.031  1.00  0.00    -0.032 A 
ATOM     24  N   UNL     1     -47.101  37.589  27.651  1.00  0.00    -0.357 N 
ATOM     25  C   UNL     1     -45.983  35.668  27.553  1.00  0.00    -0.000 A 
ATOM     26  H   UNL     1     -44.073  36.564  28.304  1.00  0.00     0.065 H 
ATOM     27  C   UNL     1     -47.224  36.260  27.324  1.00  0.00     0.046 A 
ATOM     28  H   UNL     1     -47.843  38.276  27.615  1.00  0.00     0.166 HD
ATOM     29  C   UNL     1     -45.831  34.293  27.297  1.00  0.00    -0.052 A 
ATOM     30  C   UNL     1     -48.330  35.543  26.850  1.00  0.00    -0.033 A 
ATOM     31  C   UNL     1     -46.925  33.560  26.819  1.00  0.00    -0.057 A 
ATOM     32  H   UNL     1     -44.879  33.801  27.470  1.00  0.00     0.063 H 
ATOM     33  C   UNL     1     -48.165  34.172  26.588  1.00  0.00    -0.027 A 
ATOM     34  H   UNL     1     -49.284  36.035  26.689  1.00  0.00     0.065 H 
ATOM     35  H   UNL     1     -46.804  32.494  26.632  1.00  0.00     0.063 H 
BRANCH  33  36
ATOM     36  C   UNL     1     -49.328  33.347  26.097  1.00  0.00     0.043 C 
ATOM     37  H   UNL     1     -49.712  33.754  25.156  1.00  0.00     0.054 H 
ATOM     38  H   UNL     1     -50.150  33.376  26.822  1.00  0.00     0.054 H 
BRANCH  36  39
ATOM     39  N   UNL     1     -48.945  31.967  25.938  1.00  0.00    -0.347 N 
ATOM     40  C   UNL     1     -49.104  31.283  24.759  1.00  0.00     0.270 C 
ATOM     41  H   UNL     1     -48.326  31.543  26.620  1.00  0.00     0.164 HD
ATOM     42  O   UNL     1     -49.709  31.711  23.783  1.00  0.00    -0.268 OA
BRANCH  40  43
ATOM     43  C   UNL     1     -48.433  29.930  24.787  1.00  0.00     0.136 A 
ATOM     44  C   UNL     1     -47.447  29.739  23.908  1.00  0.00     0.035 A 
ATOM     45  N   UNL     1     -48.864  28.995  25.700  1.00  0.00    -0.225 NA
ATOM     46  C   UNL     1     -46.761  28.441  23.903  1.00  0.00     0.258 A 
ATOM     47  H   UNL     1     -47.116  30.484  23.195  1.00  0.00     0.071 H 
ATOM     48  C   UNL     1     -48.252  27.850  25.695  1.00  0.00     0.140 A 
ATOM     49  O   UNL     1     -45.854  28.255  23.093  1.00  0.00    -0.269 OA
ATOM     50  N   UNL     1     -47.210  27.518  24.835  1.00  0.00    -0.268 N 
ATOM     51  C   UNL     1     -48.681  26.807  26.670  1.00  0.00    -0.019 A 
ATOM     52  C   UNL     1     -46.608  26.265  24.893  1.00  0.00     0.014 A 
ATOM     53  C   UNL     1     -48.070  25.617  26.688  1.00  0.00    -0.057 A 
ATOM     54  H   UNL     1     -49.491  27.058  27.345  1.00  0.00     0.066 H 
ATOM     55  C   UNL     1     -46.999  25.333  25.771  1.00  0.00    -0.045 A 
ATOM     56  H   UNL     1     -45.800  26.074  24.191  1.00  0.00     0.082 H 
ATOM     57  H   UNL     1     -48.368  24.845  27.391  1.00  0.00     0.062 H 
ATOM     58  H   UNL     1     -46.521  24.360  25.807  1.00  0.00     0.064 H 
ENDBRANCH  40  43
ENDBRANCH  36  39
ENDBRANCH  33  36
ENDBRANCH   1  22
TORSDOF 10
ENDMDL
MODEL 6
REMARK VINA RESULT:      -8.7      2.466      3.632
REMARK SMILES CC(C)(C)CNCc1cc2ccc(CNC(=O)c3cc(=O)n4ccccc4n3)cc2[nH]1
REMARK SMILES IDX 7 1 6 4 5 6 2 9 1 10 3 14 4 18 8 22 9 23 31 24 10 25 30 27
REMARK SMILES IDX 11 29 29 30 12 31 13 33 14 36 15 39 16 40 17 42 18 43 19 44
REMARK SMILES IDX 28 45 20 46 27 48 21 49 22 50 26 51 23 52 25 53 24 55
REMARK H PARENT 7 2 7 3 6 5 5 7 5 8 1 11 1 12 1 13 3 15 3 16 3 17 4 19 4 20
REMARK H PARENT 4 21 9 26 31 28 11 32 29 34 12 35 14 37 14 38 15 41 19 47
REMARK H PARENT 26 54 23 56 25 57 24 58
REMARK Flexibility Score: inf
ROOT
ATOM      1  C   UNL     1     -46.016  31.875  24.383  1.00  0.00     0.036 C 
ATOM      2  H   UNL     1     -45.109  31.676  24.966  1.00  0.00     0.049 H 
ATOM      3  H   UNL     1     -45.713  32.299  23.418  1.00  0.00     0.049 H 
ENDROOT
BRANCH   1   4
ATOM      4  N   UNL     1     -46.781  30.646  24.184  1.00  0.00    -0.311 NA
ATOM      5  H   UNL     1     -47.515  30.621  24.893  1.00  0.00     0.123 HD
BRANCH   4   6
ATOM      6  C   UNL     1     -47.394  30.621  22.852  1.00  0.00     0.000 C 
ATOM      7  H   UNL     1     -47.364  31.628  22.418  1.00  0.00     0.043 H 
ATOM      8  H   UNL     1     -46.800  29.969  22.198  1.00  0.00     0.043 H 
BRANCH   6   9
ATOM      9  C   UNL     1     -48.862  30.113  22.862  1.00  0.00    -0.026 C 
BRANCH   9  10
ATOM     10  C   UNL     1     -48.979  28.957  21.849  1.00  0.00    -0.059 C 
ATOM     11  H   UNL     1     -48.013  28.465  21.696  1.00  0.00     0.024 H 
ATOM     12  H   UNL     1     -49.688  28.197  22.195  1.00  0.00     0.024 H 
ATOM     13  H   UNL     1     -49.327  29.320  20.875  1.00  0.00     0.024 H 
ENDBRANCH   9  10
BRANCH   9  14
ATOM     14  C   UNL     1     -49.250  29.586  24.255  1.00  0.00    -0.059 C 
ATOM     15  H   UNL     1     -50.121  28.924  24.197  1.00  0.00     0.024 H 
ATOM     16  H   UNL     1     -49.504  30.401  24.941  1.00  0.00     0.024 H 
ATOM     17  H   UNL     1     -48.429  29.015  24.704  1.00  0.00     0.024 H 
ENDBRANCH   9  14
BRANCH   9  18
ATOM     18  C   UNL     1     -49.842  31.225  22.449  1.00  0.00    -0.059 C 
ATOM     19  H   UNL     1     -50.770  31.164  23.028  1.00  0.00     0.024 H 
ATOM     20  H   UNL     1     -49.421  32.222  22.618  1.00  0.00     0.024 H 
ATOM     21  H   UNL     1     -50.105  31.144  21.389  1.00  0.00     0.024 H 
ENDBRANCH   9  18
ENDBRANCH   6   9
ENDBRANCH   4   6
ENDBRANCH   1   4
BRANCH   1  22
ATOM     22  C   UNL     1     -46.854  32.856  25.122  1.00  0.00     0.030 A 
ATOM     23  C   UNL     1     -48.159  32.790  25.570  1.00  0.00    -0.032 A 
ATOM     24  N   UNL     1     -46.370  34.095  25.471  1.00  0.00    -0.357 N 
ATOM     25  C   UNL     1     -48.468  34.022  26.211  1.00  0.00    -0.000 A 
ATOM     26  H   UNL     1     -48.825  31.946  25.452  1.00  0.00     0.065 H 
ATOM     27  C   UNL     1     -47.328  34.823  26.136  1.00  0.00     0.046 A 
ATOM     28  H   UNL     1     -45.423  34.400  25.285  1.00  0.00     0.166 HD
ATOM     29  C   UNL     1     -49.612  34.532  26.851  1.00  0.00    -0.052 A 
ATOM     30  C   UNL     1     -47.273  36.115  26.673  1.00  0.00    -0.033 A 
ATOM     31  C   UNL     1     -49.576  35.823  27.392  1.00  0.00    -0.057 A 
ATOM     32  H   UNL     1     -50.513  33.932  26.930  1.00  0.00     0.063 H 
ATOM     33  C   UNL     1     -48.425  36.617  27.303  1.00  0.00    -0.027 A 
ATOM     34  H   UNL     1     -46.367  36.708  26.603  1.00  0.00     0.065 H 
ATOM     35  H   UNL     1     -50.463  36.209  27.895  1.00  0.00     0.063 H 
BRANCH  33  36
ATOM     36  C   UNL     1     -48.414  37.994  27.919  1.00  0.00     0.043 C 
ATOM     37  H   UNL     1     -48.684  37.939  28.979  1.00  0.00     0.054 H 
ATOM     38  H   UNL     1     -49.155  38.637  27.430  1.00  0.00     0.054 H 
BRANCH  36  39
ATOM     39  N   UNL     1     -47.127  38.619  27.751  1.00  0.00    -0.347 N 
ATOM     40  C   UNL     1     -46.938  39.736  26.977  1.00  0.00     0.270 C 
ATOM     41  H   UNL     1     -46.377  38.391  28.395  1.00  0.00     0.164 HD
ATOM     42  O   UNL     1     -47.789  40.226  26.244  1.00  0.00    -0.268 OA
BRANCH  40  43
ATOM     43  C   UNL     1     -45.552  40.317  27.136  1.00  0.00     0.136 A 
ATOM     44  C   UNL     1     -45.125  41.110  26.152  1.00  0.00     0.035 A 
ATOM     45  N   UNL     1     -44.830  40.005  28.266  1.00  0.00    -0.225 NA
ATOM     46  C   UNL     1     -43.786  41.702  26.268  1.00  0.00     0.258 A 
ATOM     47  H   UNL     1     -45.704  41.349  25.269  1.00  0.00     0.071 H 
ATOM     48  C   UNL     1     -43.648  40.534  28.365  1.00  0.00     0.140 A 
ATOM     49  O   UNL     1     -43.381  42.431  25.363  1.00  0.00    -0.269 OA
ATOM     50  N   UNL     1     -43.079  41.377  27.416  1.00  0.00    -0.268 N 
ATOM     51  C   UNL     1     -42.830  40.229  29.574  1.00  0.00    -0.019 A 
ATOM     52  C   UNL     1     -41.804  41.901  27.599  1.00  0.00     0.014 A 
ATOM     53  C   UNL     1     -41.608  40.758  29.705  1.00  0.00    -0.057 A 
ATOM     54  H   UNL     1     -43.265  39.575  30.320  1.00  0.00     0.066 H 
ATOM     55  C   UNL     1     -41.074  41.622  28.686  1.00  0.00    -0.045 A 
ATOM     56  H   UNL     1     -41.422  42.552  26.816  1.00  0.00     0.082 H 
ATOM     57  H   UNL     1     -40.998  40.549  30.578  1.00  0.00     0.062 H 
ATOM     58  H   UNL     1     -40.081  42.038  28.817  1.00  0.00     0.064 H 
ENDBRANCH  40  43
ENDBRANCH  36  39
ENDBRANCH  33  36
ENDBRANCH   1  22
TORSDOF 10
ENDMDL
MODEL 7
REMARK VINA RESULT:      -8.6      1.886      2.722
REMARK SMILES CC(C)(C)CNCc1cc2ccc(CNC(=O)c3cc(=O)n4ccccc4n3)cc2[nH]1
REMARK SMILES IDX 7 1 6 4 5 6 2 9 1 10 3 14 4 18 8 22 9 23 31 24 10 25 30 27
REMARK SMILES IDX 11 29 29 30 12 31 13 33 14 36 15 39 16 40 17 42 18 43 19 44
REMARK SMILES IDX 28 45 20 46 27 48 21 49 22 50 26 51 23 52 25 53 24 55
REMARK H PARENT 7 2 7 3 6 5 5 7 5 8 1 11 1 12 1 13 3 15 3 16 3 17 4 19 4 20
REMARK H PARENT 4 21 9 26 31 28 11 32 29 34 12 35 14 37 14 38 15 41 19 47
REMARK H PARENT 26 54 23 56 25 57 24 58
REMARK Flexibility Score: inf
ROOT
ATOM      1  C   UNL     1     -46.076  30.814  23.314  1.00  0.00     0.036 C 
ATOM      2  H   UNL     1     -45.546  30.003  23.826  1.00  0.00     0.049 H 
ATOM      3  H   UNL     1     -45.378  31.288  22.614  1.00  0.00     0.049 H 
ENDROOT
BRANCH   1   4
ATOM      4  N   UNL     1     -47.244  30.297  22.602  1.00  0.00    -0.311 NA
ATOM      5  H   UNL     1     -47.010  30.264  21.609  1.00  0.00     0.123 HD
BRANCH   4   6
ATOM      6  C   UNL     1     -47.582  28.948  23.065  1.00  0.00     0.000 C 
ATOM      7  H   UNL     1     -47.335  28.220  22.282  1.00  0.00     0.043 H 
ATOM      8  H   UNL     1     -46.964  28.704  23.939  1.00  0.00     0.043 H 
BRANCH   6   9
ATOM      9  C   UNL     1     -49.079  28.790  23.454  1.00  0.00    -0.026 C 
BRANCH   9  10
ATOM     10  C   UNL     1     -49.186  28.842  24.990  1.00  0.00    -0.059 C 
ATOM     11  H   UNL     1     -48.630  29.694  25.398  1.00  0.00     0.024 H 
ATOM     12  H   UNL     1     -50.228  28.941  25.312  1.00  0.00     0.024 H 
ATOM     13  H   UNL     1     -48.781  27.931  25.445  1.00  0.00     0.024 H 
ENDBRANCH   9  10
BRANCH   9  14
ATOM     14  C   UNL     1     -49.921  29.935  22.864  1.00  0.00    -0.059 C 
ATOM     15  H   UNL     1     -50.225  29.710  21.835  1.00  0.00     0.024 H 
ATOM     16  H   UNL     1     -49.365  30.878  22.841  1.00  0.00     0.024 H 
ATOM     17  H   UNL     1     -50.832  30.098  23.450  1.00  0.00     0.024 H 
ENDBRANCH   9  14
BRANCH   9  18
ATOM     18  C   UNL     1     -49.644  27.443  22.970  1.00  0.00    -0.059 C 
ATOM     19  H   UNL     1     -50.481  27.594  22.280  1.00  0.00     0.024 H 
ATOM     20  H   UNL     1     -48.890  26.852  22.439  1.00  0.00     0.024 H 
ATOM     21  H   UNL     1     -50.010  26.845  23.812  1.00  0.00     0.024 H 
ENDBRANCH   9  18
ENDBRANCH   6   9
ENDBRANCH   4   6
ENDBRANCH   1   4
BRANCH   1  22
ATOM     22  C   UNL     1     -46.523  31.807  24.326  1.00  0.00     0.030 A 
ATOM     23  C   UNL     1     -47.752  32.399  24.546  1.00  0.00    -0.032 A 
ATOM     24  N   UNL     1     -45.655  32.322  25.260  1.00  0.00    -0.357 N 
ATOM     25  C   UNL     1     -47.621  33.292  25.646  1.00  0.00    -0.000 A 
ATOM     26  H   UNL     1     -48.654  32.213  23.978  1.00  0.00     0.065 H 
ATOM     27  C   UNL     1     -46.296  33.224  26.076  1.00  0.00     0.046 A 
ATOM     28  H   UNL     1     -44.688  32.038  25.342  1.00  0.00     0.166 HD
ATOM     29  C   UNL     1     -48.508  34.152  26.319  1.00  0.00    -0.052 A 
ATOM     30  C   UNL     1     -45.810  33.974  27.153  1.00  0.00    -0.033 A 
ATOM     31  C   UNL     1     -48.038  34.913  27.396  1.00  0.00    -0.057 A 
ATOM     32  H   UNL     1     -49.546  34.224  26.011  1.00  0.00     0.063 H 
ATOM     33  C   UNL     1     -46.702  34.837  27.813  1.00  0.00    -0.027 A 
ATOM     34  H   UNL     1     -44.773  33.891  27.466  1.00  0.00     0.065 H 
ATOM     35  H   UNL     1     -48.732  35.570  27.920  1.00  0.00     0.063 H 
BRANCH  33  36
ATOM     36  C   UNL     1     -46.237  35.653  28.993  1.00  0.00     0.043 C 
ATOM     37  H   UNL     1     -45.603  35.046  29.649  1.00  0.00     0.054 H 
ATOM     38  H   UNL     1     -47.094  35.984  29.590  1.00  0.00     0.054 H 
BRANCH  36  39
ATOM     39  N   UNL     1     -45.537  36.833  28.555  1.00  0.00    -0.347 N 
ATOM     40  C   UNL     1     -46.148  38.055  28.425  1.00  0.00     0.270 C 
ATOM     41  H   UNL     1     -44.523  36.841  28.566  1.00  0.00     0.164 HD
ATOM     42  O   UNL     1     -47.355  38.242  28.522  1.00  0.00    -0.268 OA
BRANCH  40  43
ATOM     43  C   UNL     1     -45.159  39.165  28.161  1.00  0.00     0.136 A 
ATOM     44  C   UNL     1     -44.230  39.368  29.098  1.00  0.00     0.035 A 
ATOM     45  N   UNL     1     -45.266  39.883  26.991  1.00  0.00    -0.225 NA
ATOM     46  C   UNL     1     -43.244  40.433  28.880  1.00  0.00     0.258 A 
ATOM     47  H   UNL     1     -44.156  38.795  30.013  1.00  0.00     0.071 H 
ATOM     48  C   UNL     1     -44.389  40.821  26.801  1.00  0.00     0.140 A 
ATOM     49  O   UNL     1     -42.387  40.631  29.740  1.00  0.00    -0.269 OA
ATOM     50  N   UNL     1     -43.370  41.139  27.693  1.00  0.00    -0.268 N 
ATOM     51  C   UNL     1     -44.462  41.623  25.546  1.00  0.00    -0.019 A 
ATOM     52  C   UNL     1     -42.470  42.163  27.414  1.00  0.00     0.014 A 
ATOM     53  C   UNL     1     -43.573  42.597  25.322  1.00  0.00    -0.057 A 
ATOM     54  H   UNL     1     -45.251  41.381  24.844  1.00  0.00     0.066 H 
ATOM     55  C   UNL     1     -42.542  42.879  26.285  1.00  0.00    -0.045 A 
ATOM     56  H   UNL     1     -41.699  42.357  28.156  1.00  0.00     0.082 H 
ATOM     57  H   UNL     1     -43.609  43.191  24.414  1.00  0.00     0.062 H 
ATOM     58  H   UNL     1     -41.834  43.675  26.078  1.00  0.00     0.064 H 
ENDBRANCH  40  43
ENDBRANCH  36  39
ENDBRANCH  33  36
ENDBRANCH   1  22
TORSDOF 10
ENDMDL
