MODEL 1
REMARK VINA RESULT:     -10.2      0.000      0.000
REMARK SMILES CNc1ccc2ccc(OCc3cncc(-n4ccc5c(C)ncnc54)c3)cc2n1
REMARK SMILES IDX 11 1 10 4 9 5 3 6 4 7 30 8 5 9 29 11 6 12 28 14 7 15 8 17
REMARK SMILES IDX 2 20 1 22 12 26 13 27 27 28 14 29 16 31 15 33 17 35 18 36
REMARK SMILES IDX 26 37 19 38 20 40 25 41 21 43 24 44 23 45 22 47
REMARK H PARENT 11 2 11 3 4 10 5 13 28 16 7 18 8 19 2 21 1 23 1 24 1 25 13 30
REMARK H PARENT 27 32 15 34 18 39 19 42 24 46 22 48 22 49 22 50
REMARK Flexibility Score: inf
ROOT
ATOM      1  C   UNL     1     -46.593  36.854  26.771  1.00  0.00     0.115 C 
ATOM      2  H   UNL     1     -45.705  37.220  26.240  1.00  0.00     0.076 H 
ATOM      3  H   UNL     1     -47.456  37.143  26.159  1.00  0.00     0.076 H 
ENDROOT
BRANCH   1   4
ATOM      4  O   UNL     1     -46.747  37.518  28.028  1.00  0.00    -0.489 OA
BRANCH   4   5
ATOM      5  C   UNL     1     -45.658  38.145  28.568  1.00  0.00     0.122 A 
ATOM      6  C   UNL     1     -42.639  41.771  27.895  1.00  0.00     0.126 A 
ATOM      7  C   UNL     1     -41.952  41.475  29.067  1.00  0.00    -0.019 A 
ATOM      8  N   UNL     1     -43.691  41.033  27.488  1.00  0.00    -0.231 NA
ATOM      9  C   UNL     1     -42.369  40.406  29.852  1.00  0.00    -0.049 A 
ATOM     10  H   UNL     1     -41.091  42.064  29.363  1.00  0.00     0.066 H 
ATOM     11  C   UNL     1     -44.101  39.996  28.243  1.00  0.00     0.076 A 
ATOM     12  C   UNL     1     -43.466  39.641  29.446  1.00  0.00     0.001 A 
ATOM     13  H   UNL     1     -41.834  40.173  30.768  1.00  0.00     0.063 H 
ATOM     14  C   UNL     1     -45.191  39.240  27.832  1.00  0.00     0.007 A 
ATOM     15  C   UNL     1     -43.932  38.552  30.199  1.00  0.00    -0.049 A 
ATOM     16  H   UNL     1     -45.690  39.511  26.904  1.00  0.00     0.069 H 
ATOM     17  C   UNL     1     -45.029  37.808  29.762  1.00  0.00    -0.019 A 
ATOM     18  H   UNL     1     -43.449  38.283  31.136  1.00  0.00     0.063 H 
ATOM     19  H   UNL     1     -45.372  36.989  30.385  1.00  0.00     0.066 H 
BRANCH   6  20
ATOM     20  N   UNL     1     -42.172  42.845  27.114  1.00  0.00    -0.373 N 
ATOM     21  H   UNL     1     -41.662  43.487  27.713  1.00  0.00     0.161 HD
BRANCH  20  22
ATOM     22  C   UNL     1     -43.211  43.525  26.357  1.00  0.00     0.005 C 
ATOM     23  H   UNL     1     -42.809  44.370  25.786  1.00  0.00     0.045 H 
ATOM     24  H   UNL     1     -44.021  43.871  27.009  1.00  0.00     0.045 H 
ATOM     25  H   UNL     1     -43.648  42.821  25.643  1.00  0.00     0.045 H 
ENDBRANCH  20  22
ENDBRANCH   6  20
ENDBRANCH   4   5
ENDBRANCH   1   4
BRANCH   1  26
ATOM     26  C   UNL     1     -46.604  35.351  26.884  1.00  0.00     0.010 A 
ATOM     27  C   UNL     1     -46.025  34.695  27.960  1.00  0.00     0.034 A 
ATOM     28  C   UNL     1     -47.258  34.564  25.921  1.00  0.00    -0.028 A 
ATOM     29  N   UNL     1     -46.038  33.355  28.114  1.00  0.00    -0.262 NA
ATOM     30  H   UNL     1     -45.518  35.240  28.752  1.00  0.00     0.084 H 
ATOM     31  C   UNL     1     -47.291  33.167  26.043  1.00  0.00     0.066 A 
ATOM     32  H   UNL     1     -47.721  35.077  25.086  1.00  0.00     0.065 H 
ATOM     33  C   UNL     1     -46.663  32.623  27.157  1.00  0.00     0.051 A 
ATOM     34  H   UNL     1     -46.631  31.561  27.369  1.00  0.00     0.086 H 
BRANCH  31  35
ATOM     35  N   UNL     1     -47.947  32.350  25.065  1.00  0.00    -0.300 N 
ATOM     36  C   UNL     1     -49.321  32.157  24.978  1.00  0.00     0.012 A 
ATOM     37  C   UNL     1     -47.367  31.603  24.033  1.00  0.00     0.148 A 
ATOM     38  C   UNL     1     -49.605  31.313  23.930  1.00  0.00    -0.033 A 
ATOM     39  H   UNL     1     -50.007  32.618  25.671  1.00  0.00     0.082 H 
ATOM     40  C   UNL     1     -48.379  30.958  23.326  1.00  0.00     0.041 A 
ATOM     41  N   UNL     1     -46.053  31.514  23.742  1.00  0.00    -0.218 NA
ATOM     42  H   UNL     1     -50.595  30.988  23.634  1.00  0.00     0.065 H 
ATOM     43  C   UNL     1     -48.002  30.151  22.241  1.00  0.00     0.050 A 
ATOM     44  C   UNL     1     -45.801  30.724  22.690  1.00  0.00     0.118 A 
ATOM     45  N   UNL     1     -46.684  30.048  21.937  1.00  0.00    -0.241 NA
ATOM     46  H   UNL     1     -44.756  30.616  22.413  1.00  0.00     0.106 H 
BRANCH  43  47
ATOM     47  C   UNL     1     -48.971  29.394  21.385  1.00  0.00    -0.021 C 
ATOM     48  H   UNL     1     -48.780  29.600  20.329  1.00  0.00     0.030 H 
ATOM     49  H   UNL     1     -48.867  28.318  21.563  1.00  0.00     0.030 H 
ATOM     50  H   UNL     1     -50.002  29.682  21.611  1.00  0.00     0.030 H 
ENDBRANCH  43  47
ENDBRANCH  31  35
ENDBRANCH   1  26
TORSDOF 7
ENDMDL
MODEL 2
REMARK VINA RESULT:      -9.5      1.593     10.240
REMARK SMILES CNc1ccc2ccc(OCc3cncc(-n4ccc5c(C)ncnc54)c3)cc2n1
REMARK SMILES IDX 11 1 10 4 9 5 3 6 4 7 30 8 5 9 29 11 6 12 28 14 7 15 8 17
REMARK SMILES IDX 2 20 1 22 12 26 13 27 27 28 14 29 16 31 15 33 17 35 18 36
REMARK SMILES IDX 26 37 19 38 20 40 25 41 21 43 24 44 23 45 22 47
REMARK H PARENT 11 2 11 3 4 10 5 13 28 16 7 18 8 19 2 21 1 23 1 24 1 25 13 30
REMARK H PARENT 27 32 15 34 18 39 19 42 24 46 22 48 22 49 22 50
REMARK Flexibility Score: inf
ROOT
ATOM      1  C   UNL     1     -46.036  34.600  28.090  1.00  0.00     0.115 C 
ATOM      2  H   UNL     1     -45.240  33.918  28.416  1.00  0.00     0.076 H 
ATOM      3  H   UNL     1     -46.977  34.157  28.436  1.00  0.00     0.076 H 
ENDROOT
BRANCH   1   4
ATOM      4  O   UNL     1     -46.113  34.651  26.663  1.00  0.00    -0.489 OA
BRANCH   4   5
ATOM      5  C   UNL     1     -46.893  33.727  26.023  1.00  0.00     0.122 A 
ATOM      6  C   UNL     1     -46.764  30.241  22.775  1.00  0.00     0.126 A 
ATOM      7  C   UNL     1     -48.122  29.983  22.932  1.00  0.00    -0.019 A 
ATOM      8  N   UNL     1     -46.144  31.212  23.475  1.00  0.00    -0.231 NA
ATOM      9  C   UNL     1     -48.857  30.729  23.847  1.00  0.00    -0.049 A 
ATOM     10  H   UNL     1     -48.608  29.217  22.340  1.00  0.00     0.066 H 
ATOM     11  C   UNL     1     -46.849  31.938  24.363  1.00  0.00     0.076 A 
ATOM     12  C   UNL     1     -48.222  31.730  24.587  1.00  0.00     0.001 A 
ATOM     13  H   UNL     1     -49.917  30.529  23.972  1.00  0.00     0.063 H 
ATOM     14  C   UNL     1     -46.212  32.932  25.093  1.00  0.00     0.007 A 
ATOM     15  C   UNL     1     -48.914  32.513  25.525  1.00  0.00    -0.049 A 
ATOM     16  H   UNL     1     -45.149  33.096  24.928  1.00  0.00     0.069 H 
ATOM     17  C   UNL     1     -48.248  33.507  26.244  1.00  0.00    -0.019 A 
ATOM     18  H   UNL     1     -49.973  32.346  25.708  1.00  0.00     0.063 H 
ATOM     19  H   UNL     1     -48.814  34.072  26.976  1.00  0.00     0.066 H 
BRANCH   6  20
ATOM     20  N   UNL     1     -46.059  29.483  21.822  1.00  0.00    -0.373 N 
ATOM     21  H   UNL     1     -46.660  28.734  21.490  1.00  0.00     0.161 HD
BRANCH  20  22
ATOM     22  C   UNL     1     -44.780  28.976  22.295  1.00  0.00     0.005 C 
ATOM     23  H   UNL     1     -44.406  29.554  23.148  1.00  0.00     0.045 H 
ATOM     24  H   UNL     1     -44.030  28.969  21.495  1.00  0.00     0.045 H 
ATOM     25  H   UNL     1     -44.910  27.942  22.628  1.00  0.00     0.045 H 
ENDBRANCH  20  22
ENDBRANCH   6  20
ENDBRANCH   4   5
ENDBRANCH   1   4
BRANCH   1  26
ATOM     26  C   UNL     1     -45.914  35.959  28.730  1.00  0.00     0.010 A 
ATOM     27  C   UNL     1     -46.192  36.160  30.074  1.00  0.00     0.034 A 
ATOM     28  C   UNL     1     -45.454  37.062  27.992  1.00  0.00    -0.028 A 
ATOM     29  N   UNL     1     -46.068  37.352  30.693  1.00  0.00    -0.262 NA
ATOM     30  H   UNL     1     -46.535  35.349  30.712  1.00  0.00     0.084 H 
ATOM     31  C   UNL     1     -45.315  38.320  28.598  1.00  0.00     0.066 A 
ATOM     32  H   UNL     1     -45.225  36.902  26.944  1.00  0.00     0.065 H 
ATOM     33  C   UNL     1     -45.639  38.402  29.947  1.00  0.00     0.051 A 
ATOM     34  H   UNL     1     -45.562  39.312  30.529  1.00  0.00     0.086 H 
BRANCH  31  35
ATOM     35  N   UNL     1     -44.856  39.457  27.856  1.00  0.00    -0.300 N 
ATOM     36  C   UNL     1     -45.393  39.893  26.651  1.00  0.00     0.012 A 
ATOM     37  C   UNL     1     -43.812  40.332  28.175  1.00  0.00     0.148 A 
ATOM     38  C   UNL     1     -44.712  41.006  26.214  1.00  0.00    -0.033 A 
ATOM     39  H   UNL     1     -46.214  39.381  26.173  1.00  0.00     0.082 H 
ATOM     40  C   UNL     1     -43.711  41.291  27.170  1.00  0.00     0.041 A 
ATOM     41  N   UNL     1     -43.026  40.286  29.269  1.00  0.00    -0.218 NA
ATOM     42  H   UNL     1     -44.916  41.551  25.302  1.00  0.00     0.065 H 
ATOM     43  C   UNL     1     -42.715  42.272  27.302  1.00  0.00     0.050 A 
ATOM     44  C   UNL     1     -42.112  41.264  29.302  1.00  0.00     0.118 A 
ATOM     45  N   UNL     1     -41.914  42.237  28.397  1.00  0.00    -0.241 NA
ATOM     46  H   UNL     1     -41.451  41.273  30.164  1.00  0.00     0.106 H 
BRANCH  43  47
ATOM     47  C   UNL     1     -42.481  43.367  26.309  1.00  0.00    -0.021 C 
ATOM     48  H   UNL     1     -42.440  42.955  25.297  1.00  0.00     0.030 H 
ATOM     49  H   UNL     1     -43.292  44.102  26.361  1.00  0.00     0.030 H 
ATOM     50  H   UNL     1     -41.537  43.883  26.509  1.00  0.00     0.030 H 
ENDBRANCH  43  47
ENDBRANCH  31  35
ENDBRANCH   1  26
TORSDOF 7
ENDMDL
MODEL 3
REMARK VINA RESULT:      -9.5      1.950     10.297
REMARK SMILES CNc1ccc2ccc(OCc3cncc(-n4ccc5c(C)ncnc54)c3)cc2n1
REMARK SMILES IDX 11 1 10 4 9 5 3 6 4 7 30 8 5 9 29 11 6 12 28 14 7 15 8 17
REMARK SMILES IDX 2 20 1 22 12 26 13 27 27 28 14 29 16 31 15 33 17 35 18 36
REMARK SMILES IDX 26 37 19 38 20 40 25 41 21 43 24 44 23 45 22 47
REMARK H PARENT 11 2 11 3 4 10 5 13 28 16 7 18 8 19 2 21 1 23 1 24 1 25 13 30
REMARK H PARENT 27 32 15 34 18 39 19 42 24 46 22 48 22 49 22 50
REMARK Flexibility Score: inf
ROOT
ATOM      1  C   UNL     1     -44.756  38.518  28.968  1.00  0.00     0.115 C 
ATOM      2  H   UNL     1     -44.313  37.649  28.465  1.00  0.00     0.076 H 
ATOM      3  H   UNL     1     -44.888  38.227  30.018  1.00  0.00     0.076 H 
ENDROOT
BRANCH   1   4
ATOM      4  O   UNL     1     -46.063  38.793  28.458  1.00  0.00    -0.489 OA
BRANCH   4   5
ATOM      5  C   UNL     1     -46.816  37.745  28.002  1.00  0.00     0.122 A 
ATOM      6  C   UNL     1     -46.517  33.510  25.838  1.00  0.00     0.126 A 
ATOM      7  C   UNL     1     -47.895  33.330  25.902  1.00  0.00    -0.019 A 
ATOM      8  N   UNL     1     -45.927  34.622  26.320  1.00  0.00    -0.231 NA
ATOM      9  C   UNL     1     -48.684  34.309  26.495  1.00  0.00    -0.049 A 
ATOM     10  H   UNL     1     -48.352  32.441  25.484  1.00  0.00     0.066 H 
ATOM     11  C   UNL     1     -46.686  35.574  26.896  1.00  0.00     0.076 A 
ATOM     12  C   UNL     1     -48.083  35.460  27.008  1.00  0.00     0.001 A 
ATOM     13  H   UNL     1     -49.761  34.169  26.547  1.00  0.00     0.063 H 
ATOM     14  C   UNL     1     -46.081  36.717  27.402  1.00  0.00     0.007 A 
ATOM     15  C   UNL     1     -48.830  36.480  27.619  1.00  0.00    -0.049 A 
ATOM     16  H   UNL     1     -45.000  36.810  27.322  1.00  0.00     0.069 H 
ATOM     17  C   UNL     1     -48.196  37.619  28.119  1.00  0.00    -0.019 A 
ATOM     18  H   UNL     1     -49.909  36.388  27.718  1.00  0.00     0.063 H 
ATOM     19  H   UNL     1     -48.807  38.372  28.604  1.00  0.00     0.066 H 
BRANCH   6  20
ATOM     20  N   UNL     1     -45.753  32.509  25.208  1.00  0.00    -0.373 N 
ATOM     21  H   UNL     1     -44.915  32.933  24.822  1.00  0.00     0.161 HD
BRANCH  20  22
ATOM     22  C   UNL     1     -46.482  31.748  24.206  1.00  0.00     0.005 C 
ATOM     23  H   UNL     1     -47.317  31.193  24.649  1.00  0.00     0.045 H 
ATOM     24  H   UNL     1     -45.823  31.058  23.667  1.00  0.00     0.045 H 
ATOM     25  H   UNL     1     -46.900  32.441  23.469  1.00  0.00     0.045 H 
ENDBRANCH  20  22
ENDBRANCH   6  20
ENDBRANCH   4   5
ENDBRANCH   1   4
BRANCH   1  26
ATOM     26  C   UNL     1     -43.840  39.714  28.944  1.00  0.00     0.010 A 
ATOM     27  C   UNL     1     -42.902  39.936  29.940  1.00  0.00     0.034 A 
ATOM     28  C   UNL     1     -43.870  40.618  27.869  1.00  0.00    -0.028 A 
ATOM     29  N   UNL     1     -42.043  40.977  29.941  1.00  0.00    -0.262 NA
ATOM     30  H   UNL     1     -42.808  39.268  30.793  1.00  0.00     0.084 H 
ATOM     31  C   UNL     1     -42.997  41.716  27.835  1.00  0.00     0.066 A 
ATOM     32  H   UNL     1     -44.595  40.439  27.084  1.00  0.00     0.065 H 
ATOM     33  C   UNL     1     -42.110  41.842  28.898  1.00  0.00     0.051 A 
ATOM     34  H   UNL     1     -41.380  42.638  28.980  1.00  0.00     0.086 H 
BRANCH  31  35
ATOM     35  N   UNL     1     -43.020  42.652  26.750  1.00  0.00    -0.300 N 
ATOM     36  C   UNL     1     -41.964  42.892  25.879  1.00  0.00     0.012 A 
ATOM     37  C   UNL     1     -44.069  43.489  26.353  1.00  0.00     0.148 A 
ATOM     38  C   UNL     1     -42.325  43.852  24.963  1.00  0.00    -0.033 A 
ATOM     39  H   UNL     1     -41.019  42.378  25.972  1.00  0.00     0.082 H 
ATOM     40  C   UNL     1     -43.654  44.235  25.253  1.00  0.00     0.041 A 
ATOM     41  N   UNL     1     -45.292  43.572  26.916  1.00  0.00    -0.218 NA
ATOM     42  H   UNL     1     -41.695  44.235  24.170  1.00  0.00     0.065 H 
ATOM     43  C   UNL     1     -44.569  45.144  24.699  1.00  0.00     0.050 A 
ATOM     44  C   UNL     1     -46.089  44.464  26.313  1.00  0.00     0.118 A 
ATOM     45  N   UNL     1     -45.803  45.241  25.256  1.00  0.00    -0.241 NA
ATOM     46  H   UNL     1     -47.087  44.571  26.727  1.00  0.00     0.106 H 
BRANCH  43  47
ATOM     47  C   UNL     1     -44.272  46.016  23.518  1.00  0.00    -0.021 C 
ATOM     48  H   UNL     1     -44.985  45.816  22.714  1.00  0.00     0.030 H 
ATOM     49  H   UNL     1     -44.344  47.071  23.803  1.00  0.00     0.030 H 
ATOM     50  H   UNL     1     -43.263  45.831  23.138  1.00  0.00     0.030 H 
ENDBRANCH  43  47
ENDBRANCH  31  35
ENDBRANCH   1  26
TORSDOF 7
ENDMDL
MODEL 4
REMARK VINA RESULT:      -9.4      2.495     10.936
REMARK SMILES CNc1ccc2ccc(OCc3cncc(-n4ccc5c(C)ncnc54)c3)cc2n1
REMARK SMILES IDX 11 1 10 4 9 5 3 6 4 7 30 8 5 9 29 11 6 12 28 14 7 15 8 17
REMARK SMILES IDX 2 20 1 22 12 26 13 27 27 28 14 29 16 31 15 33 17 35 18 36
REMARK SMILES IDX 26 37 19 38 20 40 25 41 21 43 24 44 23 45 22 47
REMARK H PARENT 11 2 11 3 4 10 5 13 28 16 7 18 8 19 2 21 1 23 1 24 1 25 13 30
REMARK H PARENT 27 32 15 34 18 39 19 42 24 46 22 48 22 49 22 50
REMARK Flexibility Score: inf
ROOT
ATOM      1  C   UNL     1     -46.854  34.517  25.838  1.00  0.00     0.115 C 
ATOM      2  H   UNL     1     -46.807  34.812  24.781  1.00  0.00     0.076 H 
ATOM      3  H   UNL     1     -45.860  34.130  26.091  1.00  0.00     0.076 H 
ENDROOT
BRANCH   1   4
ATOM      4  O   UNL     1     -47.771  33.436  26.026  1.00  0.00    -0.489 OA
BRANCH   4   5
ATOM      5  C   UNL     1     -47.589  32.297  25.291  1.00  0.00     0.122 A 
ATOM      6  C   UNL     1     -49.267  27.883  24.645  1.00  0.00     0.126 A 
ATOM      7  C   UNL     1     -48.342  27.630  23.637  1.00  0.00    -0.019 A 
ATOM      8  N   UNL     1     -49.301  29.065  25.293  1.00  0.00    -0.231 NA
ATOM      9  C   UNL     1     -47.442  28.626  23.272  1.00  0.00    -0.049 A 
ATOM     10  H   UNL     1     -48.313  26.664  23.148  1.00  0.00     0.066 H 
ATOM     11  C   UNL     1     -48.433  30.033  24.944  1.00  0.00     0.076 A 
ATOM     12  C   UNL     1     -47.476  29.858  23.928  1.00  0.00     0.001 A 
ATOM     13  H   UNL     1     -46.719  28.430  22.485  1.00  0.00     0.063 H 
ATOM     14  C   UNL     1     -48.471  31.255  25.601  1.00  0.00     0.007 A 
ATOM     15  C   UNL     1     -46.592  30.900  23.599  1.00  0.00    -0.049 A 
ATOM     16  H   UNL     1     -49.212  31.399  26.386  1.00  0.00     0.069 H 
ATOM     17  C   UNL     1     -46.653  32.118  24.278  1.00  0.00    -0.019 A 
ATOM     18  H   UNL     1     -45.860  30.770  22.807  1.00  0.00     0.063 H 
ATOM     19  H   UNL     1     -45.969  32.904  23.977  1.00  0.00     0.066 H 
BRANCH   6  20
ATOM     20  N   UNL     1     -50.145  26.843  25.005  1.00  0.00    -0.373 N 
ATOM     21  H   UNL     1     -51.003  27.251  25.365  1.00  0.00     0.161 HD
BRANCH  20  22
ATOM     22  C   UNL     1     -49.576  25.879  25.933  1.00  0.00     0.005 C 
ATOM     23  H   UNL     1     -48.723  26.299  26.479  1.00  0.00     0.045 H 
ATOM     24  H   UNL     1     -49.271  24.960  25.421  1.00  0.00     0.045 H 
ATOM     25  H   UNL     1     -50.337  25.604  26.669  1.00  0.00     0.045 H 
ENDBRANCH  20  22
ENDBRANCH   6  20
ENDBRANCH   4   5
ENDBRANCH   1   4
BRANCH   1  26
ATOM     26  C   UNL     1     -47.123  35.693  26.741  1.00  0.00     0.010 A 
ATOM     27  C   UNL     1     -48.408  36.031  27.137  1.00  0.00     0.034 A 
ATOM     28  C   UNL     1     -46.064  36.456  27.260  1.00  0.00    -0.028 A 
ATOM     29  N   UNL     1     -48.690  37.056  27.968  1.00  0.00    -0.262 NA
ATOM     30  H   UNL     1     -49.276  35.474  26.791  1.00  0.00     0.084 H 
ATOM     31  C   UNL     1     -46.315  37.533  28.124  1.00  0.00     0.066 A 
ATOM     32  H   UNL     1     -45.058  36.185  26.960  1.00  0.00     0.065 H 
ATOM     33  C   UNL     1     -47.645  37.784  28.437  1.00  0.00     0.051 A 
ATOM     34  H   UNL     1     -47.966  38.578  29.101  1.00  0.00     0.086 H 
BRANCH  31  35
ATOM     35  N   UNL     1     -45.246  38.326  28.655  1.00  0.00    -0.300 N 
ATOM     36  C   UNL     1     -44.614  38.100  29.872  1.00  0.00     0.012 A 
ATOM     37  C   UNL     1     -44.636  39.448  28.084  1.00  0.00     0.148 A 
ATOM     38  C   UNL     1     -43.639  39.050  30.073  1.00  0.00    -0.033 A 
ATOM     39  H   UNL     1     -44.904  37.292  30.525  1.00  0.00     0.082 H 
ATOM     40  C   UNL     1     -43.644  39.906  28.949  1.00  0.00     0.041 A 
ATOM     41  N   UNL     1     -44.931  40.009  26.894  1.00  0.00    -0.218 NA
ATOM     42  H   UNL     1     -42.994  39.117  30.940  1.00  0.00     0.065 H 
ATOM     43  C   UNL     1     -42.908  41.035  28.557  1.00  0.00     0.050 A 
ATOM     44  C   UNL     1     -44.171  41.076  26.612  1.00  0.00     0.118 A 
ATOM     45  N   UNL     1     -43.195  41.612  27.362  1.00  0.00    -0.241 NA
ATOM     46  H   UNL     1     -44.368  41.566  25.664  1.00  0.00     0.106 H 
BRANCH  43  47
ATOM     47  C   UNL     1     -41.812  41.646  29.375  1.00  0.00    -0.021 C 
ATOM     48  H   UNL     1     -40.921  41.794  28.760  1.00  0.00     0.030 H 
ATOM     49  H   UNL     1     -42.136  42.613  29.773  1.00  0.00     0.030 H 
ATOM     50  H   UNL     1     -41.545  40.999  30.216  1.00  0.00     0.030 H 
ENDBRANCH  43  47
ENDBRANCH  31  35
ENDBRANCH   1  26
TORSDOF 7
ENDMDL
MODEL 5
REMARK VINA RESULT:      -9.4      3.026     11.077
REMARK SMILES CNc1ccc2ccc(OCc3cncc(-n4ccc5c(C)ncnc54)c3)cc2n1
REMARK SMILES IDX 11 1 10 4 9 5 3 6 4 7 30 8 5 9 29 11 6 12 28 14 7 15 8 17
REMARK SMILES IDX 2 20 1 22 12 26 13 27 27 28 14 29 16 31 15 33 17 35 18 36
REMARK SMILES IDX 26 37 19 38 20 40 25 41 21 43 24 44 23 45 22 47
REMARK H PARENT 11 2 11 3 4 10 5 13 28 16 7 18 8 19 2 21 1 23 1 24 1 25 13 30
REMARK H PARENT 27 32 15 34 18 39 19 42 24 46 22 48 22 49 22 50
REMARK Flexibility Score: inf
ROOT
ATOM      1  C   UNL     1     -47.349  33.625  25.802  1.00  0.00     0.115 C 
ATOM      2  H   UNL     1     -47.589  33.623  24.731  1.00  0.00     0.076 H 
ATOM      3  H   UNL     1     -46.259  33.522  25.871  1.00  0.00     0.076 H 
ENDROOT
BRANCH   1   4
ATOM      4  O   UNL     1     -47.905  32.479  26.453  1.00  0.00    -0.489 OA
BRANCH   4   5
ATOM      5  C   UNL     1     -48.500  31.520  25.679  1.00  0.00     0.122 A 
ATOM      6  C   UNL     1     -49.236  26.822  25.349  1.00  0.00     0.126 A 
ATOM      7  C   UNL     1     -49.976  26.975  24.181  1.00  0.00    -0.019 A 
ATOM      8  N   UNL     1     -48.694  27.881  25.985  1.00  0.00    -0.231 NA
ATOM      9  C   UNL     1     -50.182  28.250  23.665  1.00  0.00    -0.049 A 
ATOM     10  H   UNL     1     -50.380  26.110  23.670  1.00  0.00     0.066 H 
ATOM     11  C   UNL     1     -48.889  29.118  25.491  1.00  0.00     0.076 A 
ATOM     12  C   UNL     1     -49.634  29.355  24.322  1.00  0.00     0.001 A 
ATOM     13  H   UNL     1     -50.760  28.372  22.754  1.00  0.00     0.063 H 
ATOM     14  C   UNL     1     -48.340  30.210  26.148  1.00  0.00     0.007 A 
ATOM     15  C   UNL     1     -49.811  30.665  23.848  1.00  0.00    -0.049 A 
ATOM     16  H   UNL     1     -47.766  30.035  27.056  1.00  0.00     0.069 H 
ATOM     17  C   UNL     1     -49.247  31.745  24.528  1.00  0.00    -0.019 A 
ATOM     18  H   UNL     1     -50.397  30.851  22.951  1.00  0.00     0.063 H 
ATOM     19  H   UNL     1     -49.427  32.742  24.141  1.00  0.00     0.066 H 
BRANCH   6  20
ATOM     20  N   UNL     1     -49.028  25.515  25.827  1.00  0.00    -0.373 N 
ATOM     21  H   UNL     1     -49.694  25.330  26.571  1.00  0.00     0.161 HD
BRANCH  20  22
ATOM     22  C   UNL     1     -47.662  25.248  26.249  1.00  0.00     0.005 C 
ATOM     23  H   UNL     1     -47.602  24.357  26.884  1.00  0.00     0.045 H 
ATOM     24  H   UNL     1     -47.228  26.106  26.773  1.00  0.00     0.045 H 
ATOM     25  H   UNL     1     -47.048  25.063  25.362  1.00  0.00     0.045 H 
ENDBRANCH  20  22
ENDBRANCH   6  20
ENDBRANCH   4   5
ENDBRANCH   1   4
BRANCH   1  26
ATOM     26  C   UNL     1     -47.721  34.927  26.463  1.00  0.00     0.010 A 
ATOM     27  C   UNL     1     -48.974  35.129  27.022  1.00  0.00     0.034 A 
ATOM     28  C   UNL     1     -46.782  35.964  26.585  1.00  0.00    -0.028 A 
ATOM     29  N   UNL     1     -49.338  36.268  27.649  1.00  0.00    -0.262 NA
ATOM     30  H   UNL     1     -49.746  34.364  26.983  1.00  0.00     0.084 H 
ATOM     31  C   UNL     1     -47.123  37.165  27.226  1.00  0.00     0.066 A 
ATOM     32  H   UNL     1     -45.799  35.802  26.158  1.00  0.00     0.065 H 
ATOM     33  C   UNL     1     -48.413  37.257  27.734  1.00  0.00     0.051 A 
ATOM     34  H   UNL     1     -48.791  38.126  28.259  1.00  0.00     0.086 H 
BRANCH  31  35
ATOM     35  N   UNL     1     -46.179  38.236  27.350  1.00  0.00    -0.300 N 
ATOM     36  C   UNL     1     -46.000  39.255  26.421  1.00  0.00     0.012 A 
ATOM     37  C   UNL     1     -45.274  38.474  28.391  1.00  0.00     0.148 A 
ATOM     38  C   UNL     1     -45.012  40.108  26.853  1.00  0.00    -0.033 A 
ATOM     39  H   UNL     1     -46.573  39.302  25.509  1.00  0.00     0.082 H 
ATOM     40  C   UNL     1     -44.547  39.625  28.096  1.00  0.00     0.041 A 
ATOM     41  N   UNL     1     -45.118  37.735  29.508  1.00  0.00    -0.218 NA
ATOM     42  H   UNL     1     -44.664  40.987  26.325  1.00  0.00     0.065 H 
ATOM     43  C   UNL     1     -43.578  40.039  29.024  1.00  0.00     0.050 A 
ATOM     44  C   UNL     1     -44.173  38.215  30.328  1.00  0.00     0.118 A 
ATOM     45  N   UNL     1     -43.407  39.304  30.152  1.00  0.00    -0.241 NA
ATOM     46  H   UNL     1     -44.005  37.657  31.244  1.00  0.00     0.106 H 
BRANCH  43  47
ATOM     47  C   UNL     1     -42.717  41.252  28.851  1.00  0.00    -0.021 C 
ATOM     48  H   UNL     1     -41.668  40.959  28.758  1.00  0.00     0.030 H 
ATOM     49  H   UNL     1     -43.016  41.798  27.950  1.00  0.00     0.030 H 
ATOM     50  H   UNL     1     -42.812  41.925  29.708  1.00  0.00     0.030 H 
ENDBRANCH  43  47
ENDBRANCH  31  35
ENDBRANCH   1  26
TORSDOF 7
ENDMDL
MODEL 6
REMARK VINA RESULT:      -9.3      1.558      9.987
REMARK SMILES CNc1ccc2ccc(OCc3cncc(-n4ccc5c(C)ncnc54)c3)cc2n1
REMARK SMILES IDX 11 1 10 4 9 5 3 6 4 7 30 8 5 9 29 11 6 12 28 14 7 15 8 17
REMARK SMILES IDX 2 20 1 22 12 26 13 27 27 28 14 29 16 31 15 33 17 35 18 36
REMARK SMILES IDX 26 37 19 38 20 40 25 41 21 43 24 44 23 45 22 47
REMARK H PARENT 11 2 11 3 4 10 5 13 28 16 7 18 8 19 2 21 1 23 1 24 1 25 13 30
REMARK H PARENT 27 32 15 34 18 39 19 42 24 46 22 48 22 49 22 50
REMARK Flexibility Score: inf
ROOT
ATOM      1  C   UNL     1     -46.160  36.611  28.432  1.00  0.00     0.115 C 
ATOM      2  H   UNL     1     -45.541  35.705  28.403  1.00  0.00     0.076 H 
ATOM      3  H   UNL     1     -46.817  36.504  29.304  1.00  0.00     0.076 H 
ENDROOT
BRANCH   1   4
ATOM      4  O   UNL     1     -47.015  36.682  27.288  1.00  0.00    -0.489 OA
BRANCH   4   5
ATOM      5  C   UNL     1     -47.534  35.517  26.793  1.00  0.00     0.122 A 
ATOM      6  C   UNL     1     -46.450  31.681  24.181  1.00  0.00     0.126 A 
ATOM      7  C   UNL     1     -47.726  31.153  24.345  1.00  0.00    -0.019 A 
ATOM      8  N   UNL     1     -46.100  32.865  24.723  1.00  0.00    -0.231 NA
ATOM      9  C   UNL     1     -48.661  31.850  25.103  1.00  0.00    -0.049 A 
ATOM     10  H   UNL     1     -47.996  30.213  23.878  1.00  0.00     0.066 H 
ATOM     11  C   UNL     1     -47.000  33.545  25.458  1.00  0.00     0.076 A 
ATOM     12  C   UNL     1     -48.306  33.072  25.679  1.00  0.00     0.001 A 
ATOM     13  H   UNL     1     -49.658  31.439  25.233  1.00  0.00     0.063 H 
ATOM     14  C   UNL     1     -46.641  34.759  26.027  1.00  0.00     0.007 A 
ATOM     15  C   UNL     1     -49.208  33.817  26.456  1.00  0.00    -0.049 A 
ATOM     16  H   UNL     1     -45.631  35.130  25.864  1.00  0.00     0.069 H 
ATOM     17  C   UNL     1     -48.820  35.036  27.014  1.00  0.00    -0.019 A 
ATOM     18  H   UNL     1     -50.215  33.448  26.637  1.00  0.00     0.063 H 
ATOM     19  H   UNL     1     -49.540  35.569  27.626  1.00  0.00     0.066 H 
BRANCH   6  20
ATOM     20  N   UNL     1     -45.539  30.960  23.386  1.00  0.00    -0.373 N 
ATOM     21  H   UNL     1     -44.734  31.550  23.196  1.00  0.00     0.161 HD
BRANCH  20  22
ATOM     22  C   UNL     1     -46.113  30.422  22.163  1.00  0.00     0.005 C 
ATOM     23  H   UNL     1     -47.039  29.870  22.360  1.00  0.00     0.045 H 
ATOM     24  H   UNL     1     -45.402  29.777  21.635  1.00  0.00     0.045 H 
ATOM     25  H   UNL     1     -46.359  31.251  21.493  1.00  0.00     0.045 H 
ENDBRANCH  20  22
ENDBRANCH   6  20
ENDBRANCH   4   5
ENDBRANCH   1   4
BRANCH   1  26
ATOM     26  C   UNL     1     -45.335  37.854  28.640  1.00  0.00     0.010 A 
ATOM     27  C   UNL     1     -44.541  38.024  29.764  1.00  0.00     0.034 A 
ATOM     28  C   UNL     1     -45.299  38.863  27.663  1.00  0.00    -0.028 A 
ATOM     29  N   UNL     1     -43.765  39.107  29.975  1.00  0.00    -0.262 NA
ATOM     30  H   UNL     1     -44.504  37.277  30.553  1.00  0.00     0.084 H 
ATOM     31  C   UNL     1     -44.507  40.007  27.846  1.00  0.00     0.066 A 
ATOM     32  H   UNL     1     -45.910  38.725  26.778  1.00  0.00     0.065 H 
ATOM     33  C   UNL     1     -43.766  40.072  29.020  1.00  0.00     0.051 A 
ATOM     34  H   UNL     1     -43.110  40.896  29.271  1.00  0.00     0.086 H 
BRANCH  31  35
ATOM     35  N   UNL     1     -44.466  41.049  26.863  1.00  0.00    -0.300 N 
ATOM     36  C   UNL     1     -45.570  41.542  26.176  1.00  0.00     0.012 A 
ATOM     37  C   UNL     1     -43.353  41.762  26.405  1.00  0.00     0.148 A 
ATOM     38  C   UNL     1     -45.172  42.531  25.307  1.00  0.00    -0.033 A 
ATOM     39  H   UNL     1     -46.563  41.152  26.336  1.00  0.00     0.082 H 
ATOM     40  C   UNL     1     -43.773  42.679  25.445  1.00  0.00     0.041 A 
ATOM     41  N   UNL     1     -42.077  41.616  26.816  1.00  0.00    -0.218 NA
ATOM     42  H   UNL     1     -45.823  43.086  24.644  1.00  0.00     0.065 H 
ATOM     43  C   UNL     1     -42.798  43.500  24.856  1.00  0.00     0.050 A 
ATOM     44  C   UNL     1     -41.227  42.446  26.196  1.00  0.00     0.118 A 
ATOM     45  N   UNL     1     -41.509  43.362  25.256  1.00  0.00    -0.241 NA
ATOM     46  H   UNL     1     -40.184  42.369  26.489  1.00  0.00     0.106 H 
BRANCH  43  47
ATOM     47  C   UNL     1     -43.092  44.530  23.810  1.00  0.00    -0.021 C 
ATOM     48  H   UNL     1     -42.754  44.181  22.831  1.00  0.00     0.030 H 
ATOM     49  H   UNL     1     -44.169  44.724  23.766  1.00  0.00     0.030 H 
ATOM     50  H   UNL     1     -42.582  45.472  24.034  1.00  0.00     0.030 H 
ENDBRANCH  43  47
ENDBRANCH  31  35
ENDBRANCH   1  26
TORSDOF 7
ENDMDL
MODEL 7
REMARK VINA RESULT:      -9.0      1.815      2.616
REMARK SMILES CNc1ccc2ccc(OCc3cncc(-n4ccc5c(C)ncnc54)c3)cc2n1
REMARK SMILES IDX 11 1 10 4 9 5 3 6 4 7 30 8 5 9 29 11 6 12 28 14 7 15 8 17
REMARK SMILES IDX 2 20 1 22 12 26 13 27 27 28 14 29 16 31 15 33 17 35 18 36
REMARK SMILES IDX 26 37 19 38 20 40 25 41 21 43 24 44 23 45 22 47
REMARK H PARENT 11 2 11 3 4 10 5 13 28 16 7 18 8 19 2 21 1 23 1 24 1 25 13 30
REMARK H PARENT 27 32 15 34 18 39 19 42 24 46 22 48 22 49 22 50
REMARK Flexibility Score: inf
ROOT
ATOM      1  C   UNL     1     -46.461  38.259  26.667  1.00  0.00     0.115 C 
ATOM      2  H   UNL     1     -45.957  38.491  25.720  1.00  0.00     0.076 H 
ATOM      3  H   UNL     1     -47.521  38.495  26.514  1.00  0.00     0.076 H 
ENDROOT
BRANCH   1   4
ATOM      4  O   UNL     1     -46.002  39.119  27.714  1.00  0.00    -0.489 OA
BRANCH   4   5
ATOM      5  C   UNL     1     -45.000  40.007  27.431  1.00  0.00     0.122 A 
ATOM      6  C   UNL     1     -43.491  43.117  24.150  1.00  0.00     0.126 A 
ATOM      7  C   UNL     1     -42.382  43.456  24.917  1.00  0.00    -0.019 A 
ATOM      8  N   UNL     1     -44.384  42.196  24.568  1.00  0.00    -0.231 NA
ATOM      9  C   UNL     1     -42.195  42.848  26.154  1.00  0.00    -0.049 A 
ATOM     10  H   UNL     1     -41.661  44.178  24.551  1.00  0.00     0.066 H 
ATOM     11  C   UNL     1     -44.210  41.604  25.764  1.00  0.00     0.076 A 
ATOM     12  C   UNL     1     -43.120  41.901  26.602  1.00  0.00     0.001 A 
ATOM     13  H   UNL     1     -41.329  43.112  26.755  1.00  0.00     0.063 H 
ATOM     14  C   UNL     1     -45.132  40.663  26.202  1.00  0.00     0.007 A 
ATOM     15  C   UNL     1     -42.983  41.258  27.843  1.00  0.00    -0.049 A 
ATOM     16  H   UNL     1     -45.980  40.431  25.561  1.00  0.00     0.069 H 
ATOM     17  C   UNL     1     -43.924  40.315  28.257  1.00  0.00    -0.019 A 
ATOM     18  H   UNL     1     -42.147  41.495  28.496  1.00  0.00     0.063 H 
ATOM     19  H   UNL     1     -43.794  39.859  29.232  1.00  0.00     0.066 H 
BRANCH   6  20
ATOM     20  N   UNL     1     -43.633  43.734  22.893  1.00  0.00    -0.373 N 
ATOM     21  H   UNL     1     -42.865  44.386  22.761  1.00  0.00     0.161 HD
BRANCH  20  22
ATOM     22  C   UNL     1     -44.923  44.373  22.688  1.00  0.00     0.005 C 
ATOM     23  H   UNL     1     -45.139  45.109  23.471  1.00  0.00     0.045 H 
ATOM     24  H   UNL     1     -45.733  43.636  22.638  1.00  0.00     0.045 H 
ATOM     25  H   UNL     1     -44.907  44.903  21.731  1.00  0.00     0.045 H 
ENDBRANCH  20  22
ENDBRANCH   6  20
ENDBRANCH   4   5
ENDBRANCH   1   4
BRANCH   1  26
ATOM     26  C   UNL     1     -46.370  36.795  27.013  1.00  0.00     0.010 A 
ATOM     27  C   UNL     1     -45.560  36.337  28.041  1.00  0.00     0.034 A 
ATOM     28  C   UNL     1     -47.155  35.848  26.335  1.00  0.00    -0.028 A 
ATOM     29  N   UNL     1     -45.472  35.040  28.402  1.00  0.00    -0.262 NA
ATOM     30  H   UNL     1     -44.939  37.014  28.621  1.00  0.00     0.084 H 
ATOM     31  C   UNL     1     -47.090  34.489  26.678  1.00  0.00     0.066 A 
ATOM     32  H   UNL     1     -47.798  36.207  25.539  1.00  0.00     0.065 H 
ATOM     33  C   UNL     1     -46.231  34.148  27.716  1.00  0.00     0.051 A 
ATOM     34  H   UNL     1     -46.101  33.136  28.080  1.00  0.00     0.086 H 
BRANCH  31  35
ATOM     35  N   UNL     1     -47.878  33.509  25.991  1.00  0.00    -0.300 N 
ATOM     36  C   UNL     1     -49.244  33.317  26.167  1.00  0.00     0.012 A 
ATOM     37  C   UNL     1     -47.458  32.577  25.036  1.00  0.00     0.148 A 
ATOM     38  C   UNL     1     -49.677  32.294  25.356  1.00  0.00    -0.033 A 
ATOM     39  H   UNL     1     -49.818  33.907  26.864  1.00  0.00     0.082 H 
ATOM     40  C   UNL     1     -48.557  31.820  24.637  1.00  0.00     0.041 A 
ATOM     41  N   UNL     1     -46.207  32.422  24.556  1.00  0.00    -0.218 NA
ATOM     42  H   UNL     1     -50.694  31.929  25.292  1.00  0.00     0.065 H 
ATOM     43  C   UNL     1     -48.345  30.819  23.675  1.00  0.00     0.050 A 
ATOM     44  C   UNL     1     -46.112  31.446  23.643  1.00  0.00     0.118 A 
ATOM     45  N   UNL     1     -47.091  30.649  23.184  1.00  0.00    -0.241 NA
ATOM     46  H   UNL     1     -45.124  31.277  23.224  1.00  0.00     0.106 H 
BRANCH  43  47
ATOM     47  C   UNL     1     -49.422  29.925  23.146  1.00  0.00    -0.021 C 
ATOM     48  H   UNL     1     -49.891  29.374  23.966  1.00  0.00     0.030 H 
ATOM     49  H   UNL     1     -50.186  30.519  22.633  1.00  0.00     0.030 H 
ATOM     50  H   UNL     1     -49.016  29.200  22.434  1.00  0.00     0.030 H 
ENDBRANCH  43  47
ENDBRANCH  31  35
ENDBRANCH   1  26
TORSDOF 7
ENDMDL
