MODEL 1
REMARK VINA RESULT:      -9.9      0.000      0.000
REMARK SMILES CNc1ccc2ccc(OCc3cncc(-n4ccc5c(N)ncnc54)n3)cc2n1
REMARK SMILES IDX 11 1 10 4 9 5 3 6 4 7 30 8 5 9 29 11 6 12 28 14 7 15 8 17
REMARK SMILES IDX 2 20 1 22 12 26 13 27 27 28 14 29 16 31 15 32 17 34 18 35
REMARK SMILES IDX 26 36 19 37 20 39 25 40 21 42 24 43 23 44 22 46
REMARK H PARENT 11 2 11 3 4 10 5 13 28 16 7 18 8 19 2 21 1 23 1 24 1 25 13 30
REMARK H PARENT 15 33 18 38 19 41 24 45 22 47 22 48
REMARK Flexibility Score: inf
ROOT
ATOM      1  C   UNL     1     -46.011  34.674  27.560  1.00  0.00     0.132 C 
ATOM      2  H   UNL     1     -45.124  34.593  26.920  1.00  0.00     0.078 H 
ATOM      3  H   UNL     1     -46.063  33.815  28.240  1.00  0.00     0.078 H 
ENDROOT
BRANCH   1   4
ATOM      4  O   UNL     1     -47.188  34.740  26.751  1.00  0.00    -0.487 OA
BRANCH   4   5
ATOM      5  C   UNL     1     -47.461  33.657  25.961  1.00  0.00     0.122 A 
ATOM      6  C   UNL     1     -46.413  30.308  22.744  1.00  0.00     0.126 A 
ATOM      7  C   UNL     1     -47.693  29.770  22.817  1.00  0.00    -0.019 A 
ATOM      8  N   UNL     1     -46.056  31.382  23.479  1.00  0.00    -0.231 NA
ATOM      9  C   UNL     1     -48.625  30.337  23.681  1.00  0.00    -0.049 A 
ATOM     10  H   UNL     1     -47.970  28.925  22.197  1.00  0.00     0.066 H 
ATOM     11  C   UNL     1     -46.951  31.938  24.315  1.00  0.00     0.076 A 
ATOM     12  C   UNL     1     -48.261  31.442  24.453  1.00  0.00     0.001 A 
ATOM     13  H   UNL     1     -49.625  29.918  23.738  1.00  0.00     0.063 H 
ATOM     14  C   UNL     1     -46.575  33.041  25.072  1.00  0.00     0.007 A 
ATOM     15  C   UNL     1     -49.159  32.053  25.340  1.00  0.00    -0.049 A 
ATOM     16  H   UNL     1     -45.560  33.402  24.938  1.00  0.00     0.069 H 
ATOM     17  C   UNL     1     -48.755  33.156  26.089  1.00  0.00    -0.019 A 
ATOM     18  H   UNL     1     -50.174  31.679  25.451  1.00  0.00     0.063 H 
ATOM     19  H   UNL     1     -49.455  33.630  26.774  1.00  0.00     0.066 H 
BRANCH   6  20
ATOM     20  N   UNL     1     -45.506  29.726  21.840  1.00  0.00    -0.373 N 
ATOM     21  H   UNL     1     -46.022  29.359  21.046  1.00  0.00     0.161 HD
BRANCH  20  22
ATOM     22  C   UNL     1     -44.636  28.722  22.429  1.00  0.00     0.005 C 
ATOM     23  H   UNL     1     -45.235  27.842  22.689  1.00  0.00     0.045 H 
ATOM     24  H   UNL     1     -44.165  29.085  23.350  1.00  0.00     0.045 H 
ATOM     25  H   UNL     1     -43.864  28.393  21.725  1.00  0.00     0.045 H 
ENDBRANCH  20  22
ENDBRANCH   6  20
ENDBRANCH   4   5
ENDBRANCH   1   4
BRANCH   1  26
ATOM     26  C   UNL     1     -45.894  35.921  28.400  1.00  0.00     0.099 A 
ATOM     27  C   UNL     1     -46.208  35.914  29.751  1.00  0.00     0.052 A 
ATOM     28  N   UNL     1     -45.411  37.043  27.803  1.00  0.00    -0.228 NA
ATOM     29  N   UNL     1     -46.075  37.005  30.538  1.00  0.00    -0.259 NA
ATOM     30  H   UNL     1     -46.580  35.022  30.246  1.00  0.00     0.086 H 
ATOM     31  C   UNL     1     -45.275  38.156  28.567  1.00  0.00     0.157 A 
ATOM     32  C   UNL     1     -45.609  38.120  29.917  1.00  0.00     0.070 A 
ATOM     33  H   UNL     1     -45.522  38.971  30.579  1.00  0.00     0.088 H 
BRANCH  31  34
ATOM     34  N   UNL     1     -44.781  39.360  27.968  1.00  0.00    -0.284 N 
ATOM     35  C   UNL     1     -45.230  39.936  26.787  1.00  0.00     0.013 A 
ATOM     36  C   UNL     1     -43.759  40.171  28.465  1.00  0.00     0.151 A 
ATOM     37  C   UNL     1     -44.511  41.083  26.537  1.00  0.00    -0.031 A 
ATOM     38  H   UNL     1     -46.021  39.496  26.198  1.00  0.00     0.082 H 
ATOM     39  C   UNL     1     -43.582  41.242  27.594  1.00  0.00     0.062 A 
ATOM     40  N   UNL     1     -43.048  39.976  29.594  1.00  0.00    -0.218 NA
ATOM     41  H   UNL     1     -44.636  41.734  25.683  1.00  0.00     0.065 H 
ATOM     42  C   UNL     1     -42.589  42.178  27.920  1.00  0.00     0.136 A 
ATOM     43  C   UNL     1     -42.129  40.927  29.800  1.00  0.00     0.120 A 
ATOM     44  N   UNL     1     -41.867  42.005  29.040  1.00  0.00    -0.219 NA
ATOM     45  H   UNL     1     -41.520  40.815  30.692  1.00  0.00     0.106 H 
BRANCH  42  46
ATOM     46  N   UNL     1     -42.312  43.300  27.153  1.00  0.00    -0.383 N 
ATOM     47  H   UNL     1     -42.658  43.267  26.206  1.00  0.00     0.158 HD
ATOM     48  H   UNL     1     -42.522  44.144  27.676  1.00  0.00     0.158 HD
ENDBRANCH  42  46
ENDBRANCH  31  34
ENDBRANCH   1  26
TORSDOF 7
ENDMDL
MODEL 2
REMARK VINA RESULT:      -9.8      1.423      2.523
REMARK SMILES CNc1ccc2ccc(OCc3cncc(-n4ccc5c(N)ncnc54)n3)cc2n1
REMARK SMILES IDX 11 1 10 4 9 5 3 6 4 7 30 8 5 9 29 11 6 12 28 14 7 15 8 17
REMARK SMILES IDX 2 20 1 22 12 26 13 27 27 28 14 29 16 31 15 32 17 34 18 35
REMARK SMILES IDX 26 36 19 37 20 39 25 40 21 42 24 43 23 44 22 46
REMARK H PARENT 11 2 11 3 4 10 5 13 28 16 7 18 8 19 2 21 1 23 1 24 1 25 13 30
REMARK H PARENT 15 33 18 38 19 41 24 45 22 47 22 48
REMARK Flexibility Score: inf
ROOT
ATOM      1  C   UNL     1     -47.285  37.427  28.283  1.00  0.00     0.132 C 
ATOM      2  H   UNL     1     -47.710  36.568  28.816  1.00  0.00     0.078 H 
ATOM      3  H   UNL     1     -48.016  38.244  28.242  1.00  0.00     0.078 H 
ENDROOT
BRANCH   1   4
ATOM      4  O   UNL     1     -46.903  37.036  26.962  1.00  0.00    -0.487 OA
BRANCH   4   5
ATOM      5  C   UNL     1     -47.268  35.782  26.554  1.00  0.00     0.122 A 
ATOM      6  C   UNL     1     -46.595  31.604  24.373  1.00  0.00     0.126 A 
ATOM      7  C   UNL     1     -47.865  31.162  24.725  1.00  0.00    -0.019 A 
ATOM      8  N   UNL     1     -46.152  32.830  24.722  1.00  0.00    -0.231 NA
ATOM      9  C   UNL     1     -48.695  31.992  25.472  1.00  0.00    -0.049 A 
ATOM     10  H   UNL     1     -48.214  30.185  24.409  1.00  0.00     0.066 H 
ATOM     11  C   UNL     1     -46.949  33.640  25.442  1.00  0.00     0.076 A 
ATOM     12  C   UNL     1     -48.242  33.258  25.847  1.00  0.00     0.001 A 
ATOM     13  H   UNL     1     -49.688  31.648  25.746  1.00  0.00     0.063 H 
ATOM     14  C   UNL     1     -46.486  34.900  25.802  1.00  0.00     0.007 A 
ATOM     15  C   UNL     1     -49.036  34.136  26.599  1.00  0.00    -0.049 A 
ATOM     16  H   UNL     1     -45.487  35.166  25.470  1.00  0.00     0.069 H 
ATOM     17  C   UNL     1     -48.546  35.392  26.949  1.00  0.00    -0.019 A 
ATOM     18  H   UNL     1     -50.038  33.851  26.913  1.00  0.00     0.063 H 
ATOM     19  H   UNL     1     -49.165  36.071  27.530  1.00  0.00     0.066 H 
BRANCH   6  20
ATOM     20  N   UNL     1     -45.794  30.749  23.594  1.00  0.00    -0.373 N 
ATOM     21  H   UNL     1     -45.218  31.311  22.975  1.00  0.00     0.161 HD
BRANCH  20  22
ATOM     22  C   UNL     1     -46.536  29.733  22.867  1.00  0.00     0.005 C 
ATOM     23  H   UNL     1     -45.865  29.248  22.150  1.00  0.00     0.045 H 
ATOM     24  H   UNL     1     -47.368  30.167  22.300  1.00  0.00     0.045 H 
ATOM     25  H   UNL     1     -46.914  28.952  23.537  1.00  0.00     0.045 H 
ENDBRANCH  20  22
ENDBRANCH   6  20
ENDBRANCH   4   5
ENDBRANCH   1   4
BRANCH   1  26
ATOM     26  C   UNL     1     -46.079  37.923  29.041  1.00  0.00     0.099 A 
ATOM     27  C   UNL     1     -45.696  37.347  30.243  1.00  0.00     0.052 A 
ATOM     28  N   UNL     1     -45.342  38.916  28.477  1.00  0.00    -0.228 NA
ATOM     29  N   UNL     1     -44.597  37.743  30.926  1.00  0.00    -0.259 NA
ATOM     30  H   UNL     1     -46.265  36.543  30.699  1.00  0.00     0.086 H 
ATOM     31  C   UNL     1     -44.237  39.339  29.144  1.00  0.00     0.157 A 
ATOM     32  C   UNL     1     -43.885  38.749  30.353  1.00  0.00     0.070 A 
ATOM     33  H   UNL     1     -43.019  39.039  30.932  1.00  0.00     0.088 H 
BRANCH  31  34
ATOM     34  N   UNL     1     -43.444  40.392  28.586  1.00  0.00    -0.284 N 
ATOM     35  C   UNL     1     -42.283  40.925  29.131  1.00  0.00     0.013 A 
ATOM     36  C   UNL     1     -43.694  41.072  27.392  1.00  0.00     0.151 A 
ATOM     37  C   UNL     1     -41.807  41.920  28.306  1.00  0.00    -0.031 A 
ATOM     38  H   UNL     1     -41.872  40.572  30.066  1.00  0.00     0.082 H 
ATOM     39  C   UNL     1     -42.690  42.017  27.204  1.00  0.00     0.062 A 
ATOM     40  N   UNL     1     -44.723  40.869  26.546  1.00  0.00    -0.218 NA
ATOM     41  H   UNL     1     -40.923  42.518  28.482  1.00  0.00     0.065 H 
ATOM     42  C   UNL     1     -42.765  42.812  26.050  1.00  0.00     0.136 A 
ATOM     43  C   UNL     1     -44.694  41.685  25.486  1.00  0.00     0.120 A 
ATOM     44  N   UNL     1     -43.781  42.628  25.191  1.00  0.00    -0.219 NA
ATOM     45  H   UNL     1     -45.505  41.570  24.774  1.00  0.00     0.106 H 
BRANCH  42  46
ATOM     46  N   UNL     1     -41.828  43.783  25.726  1.00  0.00    -0.383 N 
ATOM     47  H   UNL     1     -41.863  44.616  26.294  1.00  0.00     0.158 HD
ATOM     48  H   UNL     1     -40.913  43.362  25.604  1.00  0.00     0.158 HD
ENDBRANCH  42  46
ENDBRANCH  31  34
ENDBRANCH   1  26
TORSDOF 7
ENDMDL
MODEL 3
REMARK VINA RESULT:      -9.6      1.617      2.498
REMARK SMILES CNc1ccc2ccc(OCc3cncc(-n4ccc5c(N)ncnc54)n3)cc2n1
REMARK SMILES IDX 11 1 10 4 9 5 3 6 4 7 30 8 5 9 29 11 6 12 28 14 7 15 8 17
REMARK SMILES IDX 2 20 1 22 12 26 13 27 27 28 14 29 16 31 15 32 17 34 18 35
REMARK SMILES IDX 26 36 19 37 20 39 25 40 21 42 24 43 23 44 22 46
REMARK H PARENT 11 2 11 3 4 10 5 13 28 16 7 18 8 19 2 21 1 23 1 24 1 25 13 30
REMARK H PARENT 15 33 18 38 19 41 24 45 22 47 22 48
REMARK Flexibility Score: inf
ROOT
ATOM      1  C   UNL     1     -47.787  36.505  27.035  1.00  0.00     0.132 C 
ATOM      2  H   UNL     1     -48.595  37.238  26.924  1.00  0.00     0.078 H 
ATOM      3  H   UNL     1     -47.190  36.461  26.116  1.00  0.00     0.078 H 
ENDROOT
BRANCH   1   4
ATOM      4  O   UNL     1     -48.338  35.219  27.331  1.00  0.00    -0.487 OA
BRANCH   4   5
ATOM      5  C   UNL     1     -48.012  34.192  26.488  1.00  0.00     0.122 A 
ATOM      6  C   UNL     1     -48.817  30.119  24.160  1.00  0.00     0.126 A 
ATOM      7  C   UNL     1     -47.557  30.150  23.573  1.00  0.00    -0.019 A 
ATOM      8  N   UNL     1     -49.222  31.083  25.013  1.00  0.00    -0.231 NA
ATOM      9  C   UNL     1     -46.699  31.209  23.852  1.00  0.00    -0.049 A 
ATOM     10  H   UNL     1     -47.238  29.351  22.913  1.00  0.00     0.066 H 
ATOM     11  C   UNL     1     -48.398  32.108  25.291  1.00  0.00     0.076 A 
ATOM     12  C   UNL     1     -47.113  32.217  24.725  1.00  0.00     0.001 A 
ATOM     13  H   UNL     1     -45.714  31.234  23.394  1.00  0.00     0.063 H 
ATOM     14  C   UNL     1     -48.823  33.100  26.166  1.00  0.00     0.007 A 
ATOM     15  C   UNL     1     -46.290  33.307  25.042  1.00  0.00    -0.049 A 
ATOM     16  H   UNL     1     -49.816  32.985  26.590  1.00  0.00     0.069 H 
ATOM     17  C   UNL     1     -46.742  34.288  25.921  1.00  0.00    -0.019 A 
ATOM     18  H   UNL     1     -45.295  33.397  24.613  1.00  0.00     0.063 H 
ATOM     19  H   UNL     1     -46.100  35.131  26.167  1.00  0.00     0.066 H 
BRANCH   6  20
ATOM     20  N   UNL     1     -49.647  29.019  23.876  1.00  0.00    -0.373 N 
ATOM     21  H   UNL     1     -50.147  28.758  24.720  1.00  0.00     0.161 HD
BRANCH  20  22
ATOM     22  C   UNL     1     -48.956  27.885  23.285  1.00  0.00     0.005 C 
ATOM     23  H   UNL     1     -47.979  28.218  22.917  1.00  0.00     0.045 H 
ATOM     24  H   UNL     1     -49.508  27.475  22.431  1.00  0.00     0.045 H 
ATOM     25  H   UNL     1     -48.774  27.094  24.021  1.00  0.00     0.045 H 
ENDBRANCH  20  22
ENDBRANCH   6  20
ENDBRANCH   4   5
ENDBRANCH   1   4
BRANCH   1  26
ATOM     26  C   UNL     1     -46.879  36.945  28.155  1.00  0.00     0.099 A 
ATOM     27  C   UNL     1     -46.859  36.280  29.372  1.00  0.00     0.052 A 
ATOM     28  N   UNL     1     -46.033  37.982  27.913  1.00  0.00    -0.228 NA
ATOM     29  N   UNL     1     -46.027  36.626  30.381  1.00  0.00    -0.259 NA
ATOM     30  H   UNL     1     -47.517  35.441  29.575  1.00  0.00     0.086 H 
ATOM     31  C   UNL     1     -45.192  38.357  28.911  1.00  0.00     0.157 A 
ATOM     32  C   UNL     1     -45.204  37.676  30.124  1.00  0.00     0.070 A 
ATOM     33  H   UNL     1     -44.559  37.924  30.957  1.00  0.00     0.088 H 
BRANCH  31  34
ATOM     34  N   UNL     1     -44.296  39.453  28.696  1.00  0.00    -0.284 N 
ATOM     35  C   UNL     1     -43.256  39.841  29.530  1.00  0.00     0.013 A 
ATOM     36  C   UNL     1     -44.307  40.328  27.608  1.00  0.00     0.151 A 
ATOM     37  C   UNL     1     -42.622  40.937  28.988  1.00  0.00    -0.031 A 
ATOM     38  H   UNL     1     -43.035  39.324  30.453  1.00  0.00     0.082 H 
ATOM     39  C   UNL     1     -43.277  41.249  27.773  1.00  0.00     0.062 A 
ATOM     40  N   UNL     1     -45.158  40.309  26.563  1.00  0.00    -0.218 NA
ATOM     41  H   UNL     1     -41.782  41.461  29.424  1.00  0.00     0.065 H 
ATOM     42  C   UNL     1     -43.122  42.224  26.776  1.00  0.00     0.136 A 
ATOM     43  C   UNL     1     -44.919  41.285  25.679  1.00  0.00     0.120 A 
ATOM     44  N   UNL     1     -43.958  42.225  25.724  1.00  0.00    -0.219 NA
ATOM     45  H   UNL     1     -45.580  41.322  24.820  1.00  0.00     0.106 H 
BRANCH  42  46
ATOM     46  N   UNL     1     -42.132  43.196  26.800  1.00  0.00    -0.383 N 
ATOM     47  H   UNL     1     -42.390  44.079  26.387  1.00  0.00     0.158 HD
ATOM     48  H   UNL     1     -41.705  43.240  27.720  1.00  0.00     0.158 HD
ENDBRANCH  42  46
ENDBRANCH  31  34
ENDBRANCH   1  26
TORSDOF 7
ENDMDL
MODEL 4
REMARK VINA RESULT:      -9.4      2.041     10.215
REMARK SMILES CNc1ccc2ccc(OCc3cncc(-n4ccc5c(N)ncnc54)n3)cc2n1
REMARK SMILES IDX 11 1 10 4 9 5 3 6 4 7 30 8 5 9 29 11 6 12 28 14 7 15 8 17
REMARK SMILES IDX 2 20 1 22 12 26 13 27 27 28 14 29 16 31 15 32 17 34 18 35
REMARK SMILES IDX 26 36 19 37 20 39 25 40 21 42 24 43 23 44 22 46
REMARK H PARENT 11 2 11 3 4 10 5 13 28 16 7 18 8 19 2 21 1 23 1 24 1 25 13 30
REMARK H PARENT 15 33 18 38 19 41 24 45 22 47 22 48
REMARK Flexibility Score: inf
ROOT
ATOM      1  C   UNL     1     -47.082  36.463  26.596  1.00  0.00     0.132 C 
ATOM      2  H   UNL     1     -46.351  36.839  25.870  1.00  0.00     0.078 H 
ATOM      3  H   UNL     1     -48.100  36.692  26.259  1.00  0.00     0.078 H 
ENDROOT
BRANCH   1   4
ATOM      4  O   UNL     1     -46.839  37.051  27.877  1.00  0.00    -0.487 OA
BRANCH   4   5
ATOM      5  C   UNL     1     -45.921  38.063  27.933  1.00  0.00     0.122 A 
ATOM      6  C   UNL     1     -43.655  41.909  26.277  1.00  0.00     0.126 A 
ATOM      7  C   UNL     1     -42.851  41.981  27.409  1.00  0.00    -0.019 A 
ATOM      8  N   UNL     1     -44.581  40.938  26.129  1.00  0.00    -0.231 NA
ATOM      9  C   UNL     1     -43.015  41.045  28.425  1.00  0.00    -0.049 A 
ATOM     10  H   UNL     1     -42.093  42.751  27.495  1.00  0.00     0.066 H 
ATOM     11  C   UNL     1     -44.745  40.028  27.106  1.00  0.00     0.076 A 
ATOM     12  C   UNL     1     -43.978  40.043  28.286  1.00  0.00     0.001 A 
ATOM     13  H   UNL     1     -42.387  41.101  29.309  1.00  0.00     0.063 H 
ATOM     14  C   UNL     1     -45.703  39.033  26.950  1.00  0.00     0.007 A 
ATOM     15  C   UNL     1     -44.186  39.074  29.278  1.00  0.00    -0.049 A 
ATOM     16  H   UNL     1     -46.273  39.046  26.026  1.00  0.00     0.069 H 
ATOM     17  C   UNL     1     -45.156  38.090  29.097  1.00  0.00    -0.019 A 
ATOM     18  H   UNL     1     -43.596  39.077  30.192  1.00  0.00     0.063 H 
ATOM     19  H   UNL     1     -45.312  37.338  29.867  1.00  0.00     0.066 H 
BRANCH   6  20
ATOM     20  N   UNL     1     -43.442  42.856  25.258  1.00  0.00    -0.373 N 
ATOM     21  H   UNL     1     -43.537  42.396  24.357  1.00  0.00     0.161 HD
BRANCH  20  22
ATOM     22  C   UNL     1     -42.186  43.578  25.367  1.00  0.00     0.005 C 
ATOM     23  H   UNL     1     -41.371  42.857  25.486  1.00  0.00     0.045 H 
ATOM     24  H   UNL     1     -42.174  44.238  26.243  1.00  0.00     0.045 H 
ATOM     25  H   UNL     1     -41.976  44.161  24.463  1.00  0.00     0.045 H 
ENDBRANCH  20  22
ENDBRANCH   6  20
ENDBRANCH   4   5
ENDBRANCH   1   4
BRANCH   1  26
ATOM     26  C   UNL     1     -46.952  34.963  26.687  1.00  0.00     0.099 A 
ATOM     27  C   UNL     1     -46.304  34.358  27.753  1.00  0.00     0.052 A 
ATOM     28  N   UNL     1     -47.545  34.217  25.717  1.00  0.00    -0.228 NA
ATOM     29  N   UNL     1     -46.207  33.015  27.882  1.00  0.00    -0.259 NA
ATOM     30  H   UNL     1     -45.839  34.939  28.543  1.00  0.00     0.086 H 
ATOM     31  C   UNL     1     -47.456  32.866  25.816  1.00  0.00     0.157 A 
ATOM     32  C   UNL     1     -46.790  32.289  26.892  1.00  0.00     0.070 A 
ATOM     33  H   UNL     1     -46.685  31.221  27.030  1.00  0.00     0.088 H 
BRANCH  31  34
ATOM     34  N   UNL     1     -48.058  32.049  24.806  1.00  0.00    -0.284 N 
ATOM     35  C   UNL     1     -49.384  31.638  24.762  1.00  0.00     0.013 A 
ATOM     36  C   UNL     1     -47.420  31.519  23.683  1.00  0.00     0.151 A 
ATOM     37  C   UNL     1     -49.585  30.865  23.641  1.00  0.00    -0.031 A 
ATOM     38  H   UNL     1     -50.097  31.913  25.527  1.00  0.00     0.082 H 
ATOM     39  C   UNL     1     -48.350  30.787  22.951  1.00  0.00     0.062 A 
ATOM     40  N   UNL     1     -46.126  31.673  23.340  1.00  0.00    -0.218 NA
ATOM     41  H   UNL     1     -50.517  30.400  23.353  1.00  0.00     0.065 H 
ATOM     42  C   UNL     1     -47.900  30.167  21.777  1.00  0.00     0.136 A 
ATOM     43  C   UNL     1     -45.809  31.036  22.206  1.00  0.00     0.120 A 
ATOM     44  N   UNL     1     -46.613  30.307  21.413  1.00  0.00    -0.219 NA
ATOM     45  H   UNL     1     -44.775  31.120  21.887  1.00  0.00     0.106 H 
BRANCH  42  46
ATOM     46  N   UNL     1     -48.717  29.419  20.941  1.00  0.00    -0.383 N 
ATOM     47  H   UNL     1     -49.706  29.595  21.043  1.00  0.00     0.158 HD
ATOM     48  H   UNL     1     -48.355  29.431  19.993  1.00  0.00     0.158 HD
ENDBRANCH  42  46
ENDBRANCH  31  34
ENDBRANCH   1  26
TORSDOF 7
ENDMDL
MODEL 5
REMARK VINA RESULT:      -9.4      2.479      4.571
REMARK SMILES CNc1ccc2ccc(OCc3cncc(-n4ccc5c(N)ncnc54)n3)cc2n1
REMARK SMILES IDX 11 1 10 4 9 5 3 6 4 7 30 8 5 9 29 11 6 12 28 14 7 15 8 17
REMARK SMILES IDX 2 20 1 22 12 26 13 27 27 28 14 29 16 31 15 32 17 34 18 35
REMARK SMILES IDX 26 36 19 37 20 39 25 40 21 42 24 43 23 44 22 46
REMARK H PARENT 11 2 11 3 4 10 5 13 28 16 7 18 8 19 2 21 1 23 1 24 1 25 13 30
REMARK H PARENT 15 33 18 38 19 41 24 45 22 47 22 48
REMARK Flexibility Score: inf
ROOT
ATOM      1  C   UNL     1     -44.742  38.466  29.144  1.00  0.00     0.132 C 
ATOM      2  H   UNL     1     -44.169  37.581  28.844  1.00  0.00     0.078 H 
ATOM      3  H   UNL     1     -45.080  38.362  30.182  1.00  0.00     0.078 H 
ENDROOT
BRANCH   1   4
ATOM      4  O   UNL     1     -45.863  38.635  28.271  1.00  0.00    -0.487 OA
BRANCH   4   5
ATOM      5  C   UNL     1     -46.465  37.499  27.804  1.00  0.00     0.122 A 
ATOM      6  C   UNL     1     -46.532  33.185  25.793  1.00  0.00     0.126 A 
ATOM      7  C   UNL     1     -47.915  33.104  25.902  1.00  0.00    -0.019 A 
ATOM      8  N   UNL     1     -45.853  34.272  26.217  1.00  0.00    -0.231 NA
ATOM      9  C   UNL     1     -48.619  34.156  26.479  1.00  0.00    -0.049 A 
ATOM     10  H   UNL     1     -48.445  32.235  25.528  1.00  0.00     0.066 H 
ATOM     11  C   UNL     1     -46.525  35.295  26.774  1.00  0.00     0.076 A 
ATOM     12  C   UNL     1     -47.924  35.280  26.931  1.00  0.00     0.001 A 
ATOM     13  H   UNL     1     -49.700  34.093  26.564  1.00  0.00     0.063 H 
ATOM     14  C   UNL     1     -45.820  36.409  27.213  1.00  0.00     0.007 A 
ATOM     15  C   UNL     1     -48.582  36.369  27.520  1.00  0.00    -0.049 A 
ATOM     16  H   UNL     1     -44.744  36.391  27.073  1.00  0.00     0.069 H 
ATOM     17  C   UNL     1     -47.850  37.472  27.954  1.00  0.00    -0.019 A 
ATOM     18  H   UNL     1     -49.662  36.368  27.642  1.00  0.00     0.063 H 
ATOM     19  H   UNL     1     -48.363  38.317  28.408  1.00  0.00     0.066 H 
BRANCH   6  20
ATOM     20  N   UNL     1     -45.856  32.114  25.178  1.00  0.00    -0.373 N 
ATOM     21  H   UNL     1     -44.885  32.375  25.039  1.00  0.00     0.161 HD
BRANCH  20  22
ATOM     22  C   UNL     1     -46.473  31.646  23.949  1.00  0.00     0.005 C 
ATOM     23  H   UNL     1     -45.696  31.238  23.294  1.00  0.00     0.045 H 
ATOM     24  H   UNL     1     -46.966  32.463  23.407  1.00  0.00     0.045 H 
ATOM     25  H   UNL     1     -47.194  30.843  24.139  1.00  0.00     0.045 H 
ENDBRANCH  20  22
ENDBRANCH   6  20
ENDBRANCH   4   5
ENDBRANCH   1   4
BRANCH   1  26
ATOM     26  C   UNL     1     -43.846  39.676  29.069  1.00  0.00     0.099 A 
ATOM     27  C   UNL     1     -42.867  39.909  30.024  1.00  0.00     0.052 A 
ATOM     28  N   UNL     1     -43.987  40.503  28.000  1.00  0.00    -0.228 NA
ATOM     29  N   UNL     1     -42.021  40.963  29.962  1.00  0.00    -0.259 NA
ATOM     30  H   UNL     1     -42.731  39.250  30.875  1.00  0.00     0.086 H 
ATOM     31  C   UNL     1     -43.157  41.575  27.916  1.00  0.00     0.157 A 
ATOM     32  C   UNL     1     -42.193  41.787  28.895  1.00  0.00     0.070 A 
ATOM     33  H   UNL     1     -41.501  42.619  28.885  1.00  0.00     0.088 H 
BRANCH  31  34
ATOM     34  N   UNL     1     -43.286  42.474  26.809  1.00  0.00    -0.284 N 
ATOM     35  C   UNL     1     -42.249  42.986  26.039  1.00  0.00     0.013 A 
ATOM     36  C   UNL     1     -44.477  42.999  26.305  1.00  0.00     0.151 A 
ATOM     37  C   UNL     1     -42.767  43.816  25.071  1.00  0.00    -0.031 A 
ATOM     38  H   UNL     1     -41.215  42.736  26.229  1.00  0.00     0.082 H 
ATOM     39  C   UNL     1     -44.174  43.828  25.229  1.00  0.00     0.062 A 
ATOM     40  N   UNL     1     -45.723  42.761  26.761  1.00  0.00    -0.218 NA
ATOM     41  H   UNL     1     -42.194  44.362  24.333  1.00  0.00     0.065 H 
ATOM     42  C   UNL     1     -45.247  44.458  24.581  1.00  0.00     0.136 A 
ATOM     43  C   UNL     1     -46.664  43.417  26.071  1.00  0.00     0.120 A 
ATOM     44  N   UNL     1     -46.499  44.236  25.017  1.00  0.00    -0.219 NA
ATOM     45  H   UNL     1     -47.687  43.269  26.402  1.00  0.00     0.106 H 
BRANCH  42  46
ATOM     46  N   UNL     1     -45.097  45.298  23.487  1.00  0.00    -0.383 N 
ATOM     47  H   UNL     1     -45.870  45.297  22.838  1.00  0.00     0.158 HD
ATOM     48  H   UNL     1     -44.765  46.209  23.786  1.00  0.00     0.158 HD
ENDBRANCH  42  46
ENDBRANCH  31  34
ENDBRANCH   1  26
TORSDOF 7
ENDMDL
MODEL 6
REMARK VINA RESULT:      -9.4      2.059      2.601
REMARK SMILES CNc1ccc2ccc(OCc3cncc(-n4ccc5c(N)ncnc54)n3)cc2n1
REMARK SMILES IDX 11 1 10 4 9 5 3 6 4 7 30 8 5 9 29 11 6 12 28 14 7 15 8 17
REMARK SMILES IDX 2 20 1 22 12 26 13 27 27 28 14 29 16 31 15 32 17 34 18 35
REMARK SMILES IDX 26 36 19 37 20 39 25 40 21 42 24 43 23 44 22 46
REMARK H PARENT 11 2 11 3 4 10 5 13 28 16 7 18 8 19 2 21 1 23 1 24 1 25 13 30
REMARK H PARENT 15 33 18 38 19 41 24 45 22 47 22 48
REMARK Flexibility Score: inf
ROOT
ATOM      1  C   UNL     1     -46.647  34.634  26.639  1.00  0.00     0.132 C 
ATOM      2  H   UNL     1     -46.121  34.688  25.678  1.00  0.00     0.078 H 
ATOM      3  H   UNL     1     -45.979  34.233  27.411  1.00  0.00     0.078 H 
ENDROOT
BRANCH   1   4
ATOM      4  O   UNL     1     -47.808  33.809  26.509  1.00  0.00    -0.487 OA
BRANCH   4   5
ATOM      5  C   UNL     1     -47.684  32.674  25.754  1.00  0.00     0.122 A 
ATOM      6  C   UNL     1     -48.834  28.252  24.418  1.00  0.00     0.126 A 
ATOM      7  C   UNL     1     -47.846  28.240  23.440  1.00  0.00    -0.019 A 
ATOM      8  N   UNL     1     -49.023  29.323  25.217  1.00  0.00    -0.231 NA
ATOM      9  C   UNL     1     -47.044  29.363  23.265  1.00  0.00    -0.049 A 
ATOM     10  H   UNL     1     -47.690  27.359  22.828  1.00  0.00     0.066 H 
ATOM     11  C   UNL     1     -48.251  30.412  25.056  1.00  0.00     0.076 A 
ATOM     12  C   UNL     1     -47.239  30.480  24.079  1.00  0.00     0.001 A 
ATOM     13  H   UNL     1     -46.271  29.354  22.502  1.00  0.00     0.063 H 
ATOM     14  C   UNL     1     -48.453  31.514  25.879  1.00  0.00     0.007 A 
ATOM     15  C   UNL     1     -46.460  31.638  23.947  1.00  0.00    -0.049 A 
ATOM     16  H   UNL     1     -49.237  31.428  26.625  1.00  0.00     0.069 H 
ATOM     17  C   UNL     1     -46.686  32.729  24.783  1.00  0.00    -0.019 A 
ATOM     18  H   UNL     1     -45.674  31.698  23.198  1.00  0.00     0.063 H 
ATOM     19  H   UNL     1     -46.078  33.625  24.680  1.00  0.00     0.066 H 
BRANCH   6  20
ATOM     20  N   UNL     1     -49.608  27.089  24.585  1.00  0.00    -0.373 N 
ATOM     21  H   UNL     1     -50.351  27.086  23.893  1.00  0.00     0.161 HD
BRANCH  20  22
ATOM     22  C   UNL     1     -50.123  26.903  25.932  1.00  0.00     0.005 C 
ATOM     23  H   UNL     1     -49.848  25.902  26.281  1.00  0.00     0.045 H 
ATOM     24  H   UNL     1     -51.217  26.975  25.960  1.00  0.00     0.045 H 
ATOM     25  H   UNL     1     -49.688  27.623  26.633  1.00  0.00     0.045 H 
ENDBRANCH  20  22
ENDBRANCH   6  20
ENDBRANCH   4   5
ENDBRANCH   1   4
BRANCH   1  26
ATOM     26  C   UNL     1     -47.050  36.026  27.054  1.00  0.00     0.099 A 
ATOM     27  C   UNL     1     -48.330  36.300  27.514  1.00  0.00     0.052 A 
ATOM     28  N   UNL     1     -46.099  36.997  27.020  1.00  0.00    -0.228 NA
ATOM     29  N   UNL     1     -48.709  37.530  27.931  1.00  0.00    -0.259 NA
ATOM     30  H   UNL     1     -49.096  35.533  27.562  1.00  0.00     0.086 H 
ATOM     31  C   UNL     1     -46.454  38.243  27.425  1.00  0.00     0.157 A 
ATOM     32  C   UNL     1     -47.748  38.489  27.871  1.00  0.00     0.070 A 
ATOM     33  H   UNL     1     -48.093  39.457  28.208  1.00  0.00     0.088 H 
BRANCH  31  34
ATOM     34  N   UNL     1     -45.481  39.293  27.391  1.00  0.00    -0.284 N 
ATOM     35  C   UNL     1     -45.352  40.264  26.406  1.00  0.00     0.013 A 
ATOM     36  C   UNL     1     -44.487  39.530  28.342  1.00  0.00     0.151 A 
ATOM     37  C   UNL     1     -44.302  41.097  26.721  1.00  0.00    -0.031 A 
ATOM     38  H   UNL     1     -46.005  40.301  25.546  1.00  0.00     0.082 H 
ATOM     39  C   UNL     1     -43.751  40.643  27.944  1.00  0.00     0.062 A 
ATOM     40  N   UNL     1     -44.254  38.820  29.464  1.00  0.00    -0.218 NA
ATOM     41  H   UNL     1     -43.962  41.937  26.132  1.00  0.00     0.065 H 
ATOM     42  C   UNL     1     -42.694  41.044  28.775  1.00  0.00     0.136 A 
ATOM     43  C   UNL     1     -43.222  39.291  30.173  1.00  0.00     0.120 A 
ATOM     44  N   UNL     1     -42.444  40.352  29.899  1.00  0.00    -0.219 NA
ATOM     45  H   UNL     1     -42.985  38.750  31.085  1.00  0.00     0.106 H 
BRANCH  42  46
ATOM     46  N   UNL     1     -41.887  42.142  28.512  1.00  0.00    -0.383 N 
ATOM     47  H   UNL     1     -41.650  42.275  27.540  1.00  0.00     0.158 HD
ATOM     48  H   UNL     1     -42.234  42.959  29.004  1.00  0.00     0.158 HD
ENDBRANCH  42  46
ENDBRANCH  31  34
ENDBRANCH   1  26
TORSDOF 7
ENDMDL
MODEL 7
REMARK VINA RESULT:      -9.3      1.902      3.209
REMARK SMILES CNc1ccc2ccc(OCc3cncc(-n4ccc5c(N)ncnc54)n3)cc2n1
REMARK SMILES IDX 11 1 10 4 9 5 3 6 4 7 30 8 5 9 29 11 6 12 28 14 7 15 8 17
REMARK SMILES IDX 2 20 1 22 12 26 13 27 27 28 14 29 16 31 15 32 17 34 18 35
REMARK SMILES IDX 26 36 19 37 20 39 25 40 21 42 24 43 23 44 22 46
REMARK H PARENT 11 2 11 3 4 10 5 13 28 16 7 18 8 19 2 21 1 23 1 24 1 25 13 30
REMARK H PARENT 15 33 18 38 19 41 24 45 22 47 22 48
REMARK Flexibility Score: inf
ROOT
ATOM      1  C   UNL     1     -45.428  37.178  28.806  1.00  0.00     0.132 C 
ATOM      2  H   UNL     1     -44.761  36.391  28.435  1.00  0.00     0.078 H 
ATOM      3  H   UNL     1     -45.755  36.944  29.826  1.00  0.00     0.078 H 
ENDROOT
BRANCH   1   4
ATOM      4  O   UNL     1     -46.558  37.304  27.938  1.00  0.00    -0.487 OA
BRANCH   4   5
ATOM      5  C   UNL     1     -47.010  36.162  27.336  1.00  0.00     0.122 A 
ATOM      6  C   UNL     1     -46.540  32.169  24.787  1.00  0.00     0.126 A 
ATOM      7  C   UNL     1     -47.895  31.879  24.902  1.00  0.00    -0.019 A 
ATOM      8  N   UNL     1     -46.006  33.279  25.338  1.00  0.00    -0.231 NA
ATOM      9  C   UNL     1     -48.719  32.740  25.620  1.00  0.00    -0.049 A 
ATOM     10  H   UNL     1     -48.310  30.998  24.427  1.00  0.00     0.066 H 
ATOM     11  C   UNL     1     -46.796  34.118  26.031  1.00  0.00     0.076 A 
ATOM     12  C   UNL     1     -48.174  33.886  26.204  1.00  0.00     0.001 A 
ATOM     13  H   UNL     1     -49.778  32.515  25.710  1.00  0.00     0.063 H 
ATOM     14  C   UNL     1     -46.239  35.257  26.601  1.00  0.00     0.007 A 
ATOM     15  C   UNL     1     -48.958  34.788  26.937  1.00  0.00    -0.049 A 
ATOM     16  H   UNL     1     -45.176  35.410  26.446  1.00  0.00     0.069 H 
ATOM     17  C   UNL     1     -48.373  35.920  27.499  1.00  0.00    -0.019 A 
ATOM     18  H   UNL     1     -50.023  34.618  27.072  1.00  0.00     0.063 H 
ATOM     19  H   UNL     1     -48.984  36.619  28.065  1.00  0.00     0.066 H 
BRANCH   6  20
ATOM     20  N   UNL     1     -45.742  31.290  24.031  1.00  0.00    -0.373 N 
ATOM     21  H   UNL     1     -44.795  31.654  23.996  1.00  0.00     0.161 HD
BRANCH  20  22
ATOM     22  C   UNL     1     -46.261  31.004  22.704  1.00  0.00     0.005 C 
ATOM     23  H   UNL     1     -46.246  31.925  22.111  1.00  0.00     0.045 H 
ATOM     24  H   UNL     1     -47.299  30.653  22.743  1.00  0.00     0.045 H 
ATOM     25  H   UNL     1     -45.642  30.269  22.178  1.00  0.00     0.045 H 
ENDBRANCH  20  22
ENDBRANCH   6  20
ENDBRANCH   4   5
ENDBRANCH   1   4
BRANCH   1  26
ATOM     26  C   UNL     1     -44.668  38.480  28.852  1.00  0.00     0.099 A 
ATOM     27  C   UNL     1     -43.778  38.760  29.878  1.00  0.00     0.052 A 
ATOM     28  N   UNL     1     -44.837  39.348  27.819  1.00  0.00    -0.228 NA
ATOM     29  N   UNL     1     -43.052  39.901  29.925  1.00  0.00    -0.259 NA
ATOM     30  H   UNL     1     -43.620  38.071  30.701  1.00  0.00     0.086 H 
ATOM     31  C   UNL     1     -44.128  40.505  27.844  1.00  0.00     0.157 A 
ATOM     32  C   UNL     1     -43.251  40.762  28.893  1.00  0.00     0.070 A 
ATOM     33  H   UNL     1     -42.657  41.663  28.971  1.00  0.00     0.088 H 
BRANCH  31  34
ATOM     34  N   UNL     1     -44.291  41.449  26.780  1.00  0.00    -0.284 N 
ATOM     35  C   UNL     1     -45.487  41.802  26.168  1.00  0.00     0.013 A 
ATOM     36  C   UNL     1     -43.276  42.185  26.165  1.00  0.00     0.151 A 
ATOM     37  C   UNL     1     -45.239  42.737  25.188  1.00  0.00    -0.031 A 
ATOM     38  H   UNL     1     -46.432  41.367  26.460  1.00  0.00     0.082 H 
ATOM     39  C   UNL     1     -43.845  42.987  25.181  1.00  0.00     0.062 A 
ATOM     40  N   UNL     1     -41.959  42.145  26.453  1.00  0.00    -0.218 NA
ATOM     41  H   UNL     1     -45.980  43.187  24.542  1.00  0.00     0.065 H 
ATOM     42  C   UNL     1     -42.981  43.808  24.442  1.00  0.00     0.136 A 
ATOM     43  C   UNL     1     -41.233  42.964  25.683  1.00  0.00     0.120 A 
ATOM     44  N   UNL     1     -41.665  43.787  24.711  1.00  0.00    -0.219 NA
ATOM     45  H   UNL     1     -40.163  42.966  25.867  1.00  0.00     0.106 H 
BRANCH  42  46
ATOM     46  N   UNL     1     -43.410  44.669  23.442  1.00  0.00    -0.383 N 
ATOM     47  H   UNL     1     -43.283  44.328  22.500  1.00  0.00     0.158 HD
ATOM     48  H   UNL     1     -44.330  45.036  23.664  1.00  0.00     0.158 HD
ENDBRANCH  42  46
ENDBRANCH  31  34
ENDBRANCH   1  26
TORSDOF 7
ENDMDL
