MODEL 1
REMARK VINA RESULT:     -10.1      0.000      0.000
REMARK SMILES Cc1cn([C@@H]2O[C@H](COc3ccc4ccc(NCC5CC5)nc4c3)[C@@H](O)[C@H]2O)c2ncnc(N)c12
REMARK SMILES IDX 9 1 8 2 7 5 5 6 6 7 27 8 25 10 4 14 2 15 3 16 35 17 29 19
REMARK SMILES IDX 33 20 30 21 32 22 31 23 1 25 34 29 28 32 26 34 10 36 11 37
REMARK SMILES IDX 24 38 12 39 23 41 13 43 22 45 14 46 16 47 15 48 17 51 18 53
REMARK SMILES IDX 19 56 20 57 21 58
REMARK H PARENT 8 3 8 4 5 9 27 11 7 12 25 13 3 18 31 24 1 26 1 27 1 28 34 30
REMARK H PARENT 34 31 28 33 26 35 11 40 24 42 12 44 14 49 15 50 17 52 18 54
REMARK H PARENT 18 55 19 59 20 60 20 61 21 62 21 63
REMARK Flexibility Score: inf
ROOT
ATOM      1  O   UNL     1     -46.669  34.125  25.374  1.00  0.00    -0.491 OA
ENDROOT
BRANCH   1   2
ATOM      2  C   UNL     1     -46.153  34.232  26.701  1.00  0.00     0.117 C 
ATOM      3  H   UNL     1     -45.944  33.208  27.037  1.00  0.00     0.073 H 
ATOM      4  H   UNL     1     -45.186  34.740  26.774  1.00  0.00     0.073 H 
BRANCH   2   5
ATOM      5  C   UNL     1     -47.154  34.859  27.681  1.00  0.00     0.123 C 
ATOM      6  C   UNL     1     -47.155  36.975  28.686  1.00  0.00     0.164 C 
ATOM      7  O   UNL     1     -46.420  35.748  28.551  1.00  0.00    -0.345 OA
ATOM      8  C   UNL     1     -48.491  36.835  27.954  1.00  0.00     0.128 C 
ATOM      9  H   UNL     1     -47.342  37.105  29.759  1.00  0.00     0.088 H 
ATOM     10  C   UNL     1     -48.269  35.662  27.011  1.00  0.00     0.114 C 
ATOM     11  H   UNL     1     -48.827  37.738  27.434  1.00  0.00     0.068 H 
ATOM     12  H   UNL     1     -47.588  34.065  28.300  1.00  0.00     0.067 H 
ATOM     13  H   UNL     1     -47.971  36.014  26.023  1.00  0.00     0.066 H 
BRANCH   6  14
ATOM     14  N   UNL     1     -46.298  38.080  28.286  1.00  0.00    -0.303 N 
ATOM     15  C   UNL     1     -45.516  39.800  27.073  1.00  0.00    -0.020 A 
ATOM     16  C   UNL     1     -46.505  38.837  27.153  1.00  0.00     0.012 A 
ATOM     17  C   UNL     1     -44.678  39.625  28.221  1.00  0.00     0.064 A 
ATOM     18  H   UNL     1     -47.343  38.637  26.496  1.00  0.00     0.082 H 
ATOM     19  C   UNL     1     -45.187  38.548  28.940  1.00  0.00     0.147 A 
ATOM     20  C   UNL     1     -43.531  40.243  28.750  1.00  0.00     0.136 A 
ATOM     21  N   UNL     1     -44.679  38.046  30.077  1.00  0.00    -0.218 NA
ATOM     22  N   UNL     1     -42.996  39.770  29.890  1.00  0.00    -0.219 NA
ATOM     23  C   UNL     1     -43.583  38.713  30.481  1.00  0.00     0.120 A 
ATOM     24  H   UNL     1     -43.115  38.360  31.395  1.00  0.00     0.106 H 
BRANCH  15  25
ATOM     25  C   UNL     1     -45.364  40.813  25.997  1.00  0.00    -0.037 C 
ATOM     26  H   UNL     1     -45.466  41.829  26.392  1.00  0.00     0.028 H 
ATOM     27  H   UNL     1     -44.377  40.731  25.531  1.00  0.00     0.028 H 
ATOM     28  H   UNL     1     -46.128  40.675  25.227  1.00  0.00     0.028 H 
ENDBRANCH  15  25
BRANCH  20  29
ATOM     29  N   UNL     1     -42.905  41.345  28.179  1.00  0.00    -0.383 N 
ATOM     30  H   UNL     1     -43.517  41.920  27.619  1.00  0.00     0.158 HD
ATOM     31  H   UNL     1     -42.373  41.836  28.890  1.00  0.00     0.158 HD
ENDBRANCH  20  29
ENDBRANCH   6  14
BRANCH   8  32
ATOM     32  O   UNL     1     -49.546  36.470  28.879  1.00  0.00    -0.386 OA
ATOM     33  H   UNL     1     -50.095  37.264  29.015  1.00  0.00     0.211 HD
ENDBRANCH   8  32
BRANCH  10  34
ATOM     34  O   UNL     1     -49.471  34.901  26.856  1.00  0.00    -0.387 OA
ATOM     35  H   UNL     1     -49.359  34.125  27.443  1.00  0.00     0.211 HD
ENDBRANCH  10  34
ENDBRANCH   2   5
ENDBRANCH   1   2
BRANCH   1  36
ATOM     36  C   UNL     1     -46.881  32.861  24.897  1.00  0.00     0.121 A 
ATOM     37  C   UNL     1     -46.170  32.525  23.749  1.00  0.00    -0.019 A 
ATOM     38  C   UNL     1     -47.761  31.934  25.458  1.00  0.00     0.007 A 
ATOM     39  C   UNL     1     -46.298  31.253  23.197  1.00  0.00    -0.049 A 
ATOM     40  H   UNL     1     -45.490  33.248  23.302  1.00  0.00     0.066 H 
ATOM     41  C   UNL     1     -47.890  30.652  24.942  1.00  0.00     0.076 A 
ATOM     42  H   UNL     1     -48.374  32.189  26.315  1.00  0.00     0.069 H 
ATOM     43  C   UNL     1     -47.147  30.310  23.796  1.00  0.00     0.001 A 
ATOM     44  H   UNL     1     -45.719  30.999  22.312  1.00  0.00     0.063 H 
ATOM     45  N   UNL     1     -48.707  29.779  25.560  1.00  0.00    -0.231 NA
ATOM     46  C   UNL     1     -47.285  29.015  23.296  1.00  0.00    -0.049 A 
ATOM     47  C   UNL     1     -48.835  28.531  25.067  1.00  0.00     0.126 A 
ATOM     48  C   UNL     1     -48.132  28.118  23.940  1.00  0.00    -0.019 A 
ATOM     49  H   UNL     1     -46.731  28.691  22.419  1.00  0.00     0.063 H 
ATOM     50  H   UNL     1     -48.227  27.101  23.575  1.00  0.00     0.066 H 
BRANCH  47  51
ATOM     51  N   UNL     1     -49.648  27.587  25.717  1.00  0.00    -0.370 N 
ATOM     52  H   UNL     1     -49.781  27.878  26.679  1.00  0.00     0.162 HD
BRANCH  51  53
ATOM     53  C   UNL     1     -49.166  26.215  25.632  1.00  0.00     0.019 C 
ATOM     54  H   UNL     1     -50.010  25.514  25.664  1.00  0.00     0.049 H 
ATOM     55  H   UNL     1     -48.620  26.054  24.694  1.00  0.00     0.049 H 
BRANCH  53  56
ATOM     56  C   UNL     1     -48.247  25.863  26.773  1.00  0.00    -0.024 C 
ATOM     57  C   UNL     1     -46.745  25.998  26.690  1.00  0.00    -0.048 C 
ATOM     58  C   UNL     1     -47.371  24.631  26.775  1.00  0.00    -0.048 C 
ATOM     59  H   UNL     1     -48.712  26.128  27.717  1.00  0.00     0.032 H 
ATOM     60  H   UNL     1     -46.224  26.378  27.562  1.00  0.00     0.027 H 
ATOM     61  H   UNL     1     -46.299  26.303  25.749  1.00  0.00     0.027 H 
ATOM     62  H   UNL     1     -47.269  24.087  27.707  1.00  0.00     0.027 H 
ATOM     63  H   UNL     1     -47.333  23.999  25.897  1.00  0.00     0.027 H 
ENDBRANCH  53  56
ENDBRANCH  51  53
ENDBRANCH  47  51
ENDBRANCH   1  36
TORSDOF 11
ENDMDL
MODEL 2
REMARK VINA RESULT:      -9.3      2.466      3.663
REMARK SMILES Cc1cn([C@@H]2O[C@H](COc3ccc4ccc(NCC5CC5)nc4c3)[C@@H](O)[C@H]2O)c2ncnc(N)c12
REMARK SMILES IDX 9 1 8 2 7 5 5 6 6 7 27 8 25 10 4 14 2 15 3 16 35 17 29 19
REMARK SMILES IDX 33 20 30 21 32 22 31 23 1 25 34 29 28 32 26 34 10 36 11 37
REMARK SMILES IDX 24 38 12 39 23 41 13 43 22 45 14 46 16 47 15 48 17 51 18 53
REMARK SMILES IDX 19 56 20 57 21 58
REMARK H PARENT 8 3 8 4 5 9 27 11 7 12 25 13 3 18 31 24 1 26 1 27 1 28 34 30
REMARK H PARENT 34 31 28 33 26 35 11 40 24 42 12 44 14 49 15 50 17 52 18 54
REMARK H PARENT 18 55 19 59 20 60 20 61 21 62 21 63
REMARK Flexibility Score: inf
ROOT
ATOM      1  O   UNL     1     -45.902  34.654  26.195  1.00  0.00    -0.491 OA
ENDROOT
BRANCH   1   2
ATOM      2  C   UNL     1     -46.418  35.917  26.617  1.00  0.00     0.117 C 
ATOM      3  H   UNL     1     -45.895  36.680  26.026  1.00  0.00     0.073 H 
ATOM      4  H   UNL     1     -47.475  36.077  26.386  1.00  0.00     0.073 H 
BRANCH   2   5
ATOM      5  C   UNL     1     -46.153  36.202  28.102  1.00  0.00     0.123 C 
ATOM      6  C   UNL     1     -44.960  37.945  29.113  1.00  0.00     0.164 C 
ATOM      7  O   UNL     1     -44.861  36.837  28.204  1.00  0.00    -0.345 OA
ATOM      8  C   UNL     1     -46.365  37.966  29.718  1.00  0.00     0.128 C 
ATOM      9  H   UNL     1     -44.226  37.759  29.907  1.00  0.00     0.088 H 
ATOM     10  C   UNL     1     -47.187  37.116  28.760  1.00  0.00     0.114 C 
ATOM     11  H   UNL     1     -46.787  38.965  29.866  1.00  0.00     0.068 H 
ATOM     12  H   UNL     1     -46.104  35.248  28.641  1.00  0.00     0.067 H 
ATOM     13  H   UNL     1     -47.690  37.745  28.024  1.00  0.00     0.066 H 
BRANCH   6  14
ATOM     14  N   UNL     1     -44.521  39.152  28.427  1.00  0.00    -0.303 N 
ATOM     15  C   UNL     1     -44.441  40.780  26.885  1.00  0.00    -0.020 A 
ATOM     16  C   UNL     1     -45.090  39.619  27.262  1.00  0.00     0.012 A 
ATOM     17  C   UNL     1     -43.440  41.034  27.878  1.00  0.00     0.064 A 
ATOM     18  H   UNL     1     -45.915  39.094  26.797  1.00  0.00     0.082 H 
ATOM     19  C   UNL     1     -43.514  40.002  28.808  1.00  0.00     0.147 A 
ATOM     20  C   UNL     1     -42.460  42.015  28.109  1.00  0.00     0.136 A 
ATOM     21  N   UNL     1     -42.733  39.857  29.889  1.00  0.00    -0.218 NA
ATOM     22  N   UNL     1     -41.662  41.905  29.187  1.00  0.00    -0.219 NA
ATOM     23  C   UNL     1     -41.833  40.849  30.003  1.00  0.00     0.120 A 
ATOM     24  H   UNL     1     -41.163  40.796  30.856  1.00  0.00     0.106 H 
BRANCH  15  25
ATOM     25  C   UNL     1     -44.736  41.596  25.679  1.00  0.00    -0.037 C 
ATOM     26  H   UNL     1     -43.854  42.159  25.355  1.00  0.00     0.028 H 
ATOM     27  H   UNL     1     -45.046  40.952  24.849  1.00  0.00     0.028 H 
ATOM     28  H   UNL     1     -45.535  42.313  25.884  1.00  0.00     0.028 H 
ENDBRANCH  15  25
BRANCH  20  29
ATOM     29  N   UNL     1     -42.263  43.128  27.300  1.00  0.00    -0.383 N 
ATOM     30  H   UNL     1     -42.869  43.161  26.493  1.00  0.00     0.158 HD
ATOM     31  H   UNL     1     -42.251  43.965  27.874  1.00  0.00     0.158 HD
ENDBRANCH  20  29
ENDBRANCH   6  14
BRANCH   8  32
ATOM     32  O   UNL     1     -46.374  37.313  31.012  1.00  0.00    -0.386 OA
ATOM     33  H   UNL     1     -47.276  37.402  31.371  1.00  0.00     0.211 HD
ENDBRANCH   8  32
BRANCH  10  34
ATOM     34  O   UNL     1     -48.193  36.384  29.466  1.00  0.00    -0.387 OA
ATOM     35  H   UNL     1     -48.234  35.513  29.019  1.00  0.00     0.211 HD
ENDBRANCH  10  34
ENDBRANCH   2   5
ENDBRANCH   1   2
BRANCH   1  36
ATOM     36  C   UNL     1     -46.816  33.721  25.792  1.00  0.00     0.121 A 
ATOM     37  C   UNL     1     -48.084  33.840  26.354  1.00  0.00    -0.019 A 
ATOM     38  C   UNL     1     -46.552  32.675  24.906  1.00  0.00     0.007 A 
ATOM     39  C   UNL     1     -49.094  32.953  25.992  1.00  0.00    -0.049 A 
ATOM     40  H   UNL     1     -48.292  34.648  27.053  1.00  0.00     0.066 H 
ATOM     41  C   UNL     1     -47.547  31.790  24.510  1.00  0.00     0.076 A 
ATOM     42  H   UNL     1     -45.559  32.519  24.501  1.00  0.00     0.069 H 
ATOM     43  C   UNL     1     -48.834  31.934  25.062  1.00  0.00     0.001 A 
ATOM     44  H   UNL     1     -50.085  33.073  26.423  1.00  0.00     0.063 H 
ATOM     45  N   UNL     1     -47.251  30.839  23.606  1.00  0.00    -0.231 NA
ATOM     46  C   UNL     1     -49.822  31.040  24.647  1.00  0.00    -0.049 A 
ATOM     47  C   UNL     1     -48.212  29.979  23.213  1.00  0.00     0.126 A 
ATOM     48  C   UNL     1     -49.508  30.058  23.711  1.00  0.00    -0.019 A 
ATOM     49  H   UNL     1     -50.835  31.108  25.032  1.00  0.00     0.063 H 
ATOM     50  H   UNL     1     -50.274  29.375  23.363  1.00  0.00     0.066 H 
BRANCH  47  51
ATOM     51  N   UNL     1     -47.942  29.003  22.239  1.00  0.00    -0.370 N 
ATOM     52  H   UNL     1     -46.954  29.032  22.013  1.00  0.00     0.162 HD
BRANCH  51  53
ATOM     53  C   UNL     1     -48.770  29.097  21.044  1.00  0.00     0.019 C 
ATOM     54  H   UNL     1     -48.209  28.751  20.167  1.00  0.00     0.049 H 
ATOM     55  H   UNL     1     -49.667  28.474  21.146  1.00  0.00     0.049 H 
BRANCH  53  56
ATOM     56  C   UNL     1     -49.211  30.510  20.766  1.00  0.00    -0.024 C 
ATOM     57  C   UNL     1     -49.879  30.924  19.476  1.00  0.00    -0.048 C 
ATOM     58  C   UNL     1     -48.494  31.421  19.797  1.00  0.00    -0.048 C 
ATOM     59  H   UNL     1     -49.581  30.967  21.679  1.00  0.00     0.032 H 
ATOM     60  H   UNL     1     -50.702  31.626  19.537  1.00  0.00     0.027 H 
ATOM     61  H   UNL     1     -49.992  30.188  18.686  1.00  0.00     0.027 H 
ATOM     62  H   UNL     1     -48.385  32.464  20.074  1.00  0.00     0.027 H 
ATOM     63  H   UNL     1     -47.667  31.038  19.212  1.00  0.00     0.027 H 
ENDBRANCH  53  56
ENDBRANCH  51  53
ENDBRANCH  47  51
ENDBRANCH   1  36
TORSDOF 11
ENDMDL
MODEL 3
REMARK VINA RESULT:      -9.3      1.420      2.194
REMARK SMILES Cc1cn([C@@H]2O[C@H](COc3ccc4ccc(NCC5CC5)nc4c3)[C@@H](O)[C@H]2O)c2ncnc(N)c12
REMARK SMILES IDX 9 1 8 2 7 5 5 6 6 7 27 8 25 10 4 14 2 15 3 16 35 17 29 19
REMARK SMILES IDX 33 20 30 21 32 22 31 23 1 25 34 29 28 32 26 34 10 36 11 37
REMARK SMILES IDX 24 38 12 39 23 41 13 43 22 45 14 46 16 47 15 48 17 51 18 53
REMARK SMILES IDX 19 56 20 57 21 58
REMARK H PARENT 8 3 8 4 5 9 27 11 7 12 25 13 3 18 31 24 1 26 1 27 1 28 34 30
REMARK H PARENT 34 31 28 33 26 35 11 40 24 42 12 44 14 49 15 50 17 52 18 54
REMARK H PARENT 18 55 19 59 20 60 20 61 21 62 21 63
REMARK Flexibility Score: inf
ROOT
ATOM      1  O   UNL     1     -46.692  34.302  25.421  1.00  0.00    -0.491 OA
ENDROOT
BRANCH   1   2
ATOM      2  C   UNL     1     -46.198  34.445  26.754  1.00  0.00     0.117 C 
ATOM      3  H   UNL     1     -45.961  33.433  27.108  1.00  0.00     0.073 H 
ATOM      4  H   UNL     1     -45.249  34.985  26.832  1.00  0.00     0.073 H 
BRANCH   2   5
ATOM      5  C   UNL     1     -47.231  35.055  27.710  1.00  0.00     0.123 C 
ATOM      6  C   UNL     1     -47.482  37.264  28.449  1.00  0.00     0.164 C 
ATOM      7  O   UNL     1     -46.590  36.138  28.418  1.00  0.00    -0.345 OA
ATOM      8  C   UNL     1     -48.818  36.855  27.823  1.00  0.00     0.128 C 
ATOM      9  H   UNL     1     -47.637  37.505  29.508  1.00  0.00     0.088 H 
ATOM     10  C   UNL     1     -48.477  35.609  27.018  1.00  0.00     0.114 C 
ATOM     11  H   UNL     1     -49.298  37.630  27.220  1.00  0.00     0.068 H 
ATOM     12  H   UNL     1     -47.522  34.296  28.447  1.00  0.00     0.067 H 
ATOM     13  H   UNL     1     -48.275  35.868  25.978  1.00  0.00     0.066 H 
BRANCH   6  14
ATOM     14  N   UNL     1     -46.806  38.412  27.864  1.00  0.00    -0.303 N 
ATOM     15  C   UNL     1     -45.139  39.690  27.074  1.00  0.00    -0.020 A 
ATOM     16  C   UNL     1     -45.448  38.466  27.639  1.00  0.00     0.012 A 
ATOM     17  C   UNL     1     -46.373  40.404  26.938  1.00  0.00     0.064 A 
ATOM     18  H   UNL     1     -44.808  37.628  27.891  1.00  0.00     0.082 H 
ATOM     19  C   UNL     1     -47.377  39.587  27.446  1.00  0.00     0.147 A 
ATOM     20  C   UNL     1     -46.775  41.660  26.451  1.00  0.00     0.136 A 
ATOM     21  N   UNL     1     -48.682  39.893  27.521  1.00  0.00    -0.218 NA
ATOM     22  N   UNL     1     -48.076  42.000  26.506  1.00  0.00    -0.219 NA
ATOM     23  C   UNL     1     -48.945  41.118  27.032  1.00  0.00     0.120 A 
ATOM     24  H   UNL     1     -49.983  41.436  27.063  1.00  0.00     0.106 H 
BRANCH  15  25
ATOM     25  C   UNL     1     -43.783  40.158  26.688  1.00  0.00    -0.037 C 
ATOM     26  H   UNL     1     -43.829  40.852  25.841  1.00  0.00     0.028 H 
ATOM     27  H   UNL     1     -43.306  40.680  27.524  1.00  0.00     0.028 H 
ATOM     28  H   UNL     1     -43.151  39.314  26.395  1.00  0.00     0.028 H 
ENDBRANCH  15  25
BRANCH  20  29
ATOM     29  N   UNL     1     -45.912  42.591  25.887  1.00  0.00    -0.383 N 
ATOM     30  H   UNL     1     -45.158  42.182  25.353  1.00  0.00     0.158 HD
ATOM     31  H   UNL     1     -46.451  43.304  25.407  1.00  0.00     0.158 HD
ENDBRANCH  20  29
ENDBRANCH   6  14
BRANCH   8  32
ATOM     32  O   UNL     1     -49.768  36.475  28.850  1.00  0.00    -0.386 OA
ATOM     33  H   UNL     1     -50.630  36.854  28.596  1.00  0.00     0.211 HD
ENDBRANCH   8  32
BRANCH  10  34
ATOM     34  O   UNL     1     -49.566  34.682  27.032  1.00  0.00    -0.387 OA
ATOM     35  H   UNL     1     -49.202  33.866  27.433  1.00  0.00     0.211 HD
ENDBRANCH  10  34
ENDBRANCH   2   5
ENDBRANCH   1   2
BRANCH   1  36
ATOM     36  C   UNL     1     -46.860  33.025  24.963  1.00  0.00     0.121 A 
ATOM     37  C   UNL     1     -46.097  32.680  23.851  1.00  0.00    -0.019 A 
ATOM     38  C   UNL     1     -47.744  32.091  25.507  1.00  0.00     0.007 A 
ATOM     39  C   UNL     1     -46.178  31.395  23.321  1.00  0.00    -0.049 A 
ATOM     40  H   UNL     1     -45.414  33.407  23.417  1.00  0.00     0.066 H 
ATOM     41  C   UNL     1     -47.828  30.797  25.013  1.00  0.00     0.076 A 
ATOM     42  H   UNL     1     -48.397  32.350  26.333  1.00  0.00     0.069 H 
ATOM     43  C   UNL     1     -47.033  30.447  23.904  1.00  0.00     0.001 A 
ATOM     44  H   UNL     1     -45.559  31.135  22.465  1.00  0.00     0.063 H 
ATOM     45  N   UNL     1     -48.652  29.920  25.615  1.00  0.00    -0.231 NA
ATOM     46  C   UNL     1     -47.125  29.140  23.426  1.00  0.00    -0.049 A 
ATOM     47  C   UNL     1     -48.736  28.660  25.144  1.00  0.00     0.126 A 
ATOM     48  C   UNL     1     -47.980  28.239  24.054  1.00  0.00    -0.019 A 
ATOM     49  H   UNL     1     -46.530  28.810  22.579  1.00  0.00     0.063 H 
ATOM     50  H   UNL     1     -48.041  27.214  23.707  1.00  0.00     0.066 H 
BRANCH  47  51
ATOM     51  N   UNL     1     -49.556  27.713  25.779  1.00  0.00    -0.370 N 
ATOM     52  H   UNL     1     -49.665  27.976  26.752  1.00  0.00     0.162 HD
BRANCH  51  53
ATOM     53  C   UNL     1     -49.104  26.334  25.643  1.00  0.00     0.019 C 
ATOM     54  H   UNL     1     -49.965  25.654  25.628  1.00  0.00     0.049 H 
ATOM     55  H   UNL     1     -48.544  26.202  24.709  1.00  0.00     0.049 H 
BRANCH  53  56
ATOM     56  C   UNL     1     -48.217  25.911  26.784  1.00  0.00    -0.024 C 
ATOM     57  C   UNL     1     -46.710  26.015  26.735  1.00  0.00    -0.048 C 
ATOM     58  C   UNL     1     -47.369  24.660  26.747  1.00  0.00    -0.048 C 
ATOM     59  H   UNL     1     -48.695  26.145  27.730  1.00  0.00     0.032 H 
ATOM     60  H   UNL     1     -46.199  26.343  27.633  1.00  0.00     0.027 H 
ATOM     61  H   UNL     1     -46.239  26.350  25.818  1.00  0.00     0.027 H 
ATOM     62  H   UNL     1     -47.298  24.073  27.656  1.00  0.00     0.027 H 
ATOM     63  H   UNL     1     -47.327  24.067  25.843  1.00  0.00     0.027 H 
ENDBRANCH  53  56
ENDBRANCH  51  53
ENDBRANCH  47  51
ENDBRANCH   1  36
TORSDOF 11
ENDMDL
MODEL 4
REMARK VINA RESULT:      -9.1      2.011     10.994
REMARK SMILES Cc1cn([C@@H]2O[C@H](COc3ccc4ccc(NCC5CC5)nc4c3)[C@@H](O)[C@H]2O)c2ncnc(N)c12
REMARK SMILES IDX 9 1 8 2 7 5 5 6 6 7 27 8 25 10 4 14 2 15 3 16 35 17 29 19
REMARK SMILES IDX 33 20 30 21 32 22 31 23 1 25 34 29 28 32 26 34 10 36 11 37
REMARK SMILES IDX 24 38 12 39 23 41 13 43 22 45 14 46 16 47 15 48 17 51 18 53
REMARK SMILES IDX 19 56 20 57 21 58
REMARK H PARENT 8 3 8 4 5 9 27 11 7 12 25 13 3 18 31 24 1 26 1 27 1 28 34 30
REMARK H PARENT 34 31 28 33 26 35 11 40 24 42 12 44 14 49 15 50 17 52 18 54
REMARK H PARENT 18 55 19 59 20 60 20 61 21 62 21 63
REMARK Flexibility Score: inf
ROOT
ATOM      1  O   UNL     1     -46.680  32.986  26.573  1.00  0.00    -0.491 OA
ENDROOT
BRANCH   1   2
ATOM      2  C   UNL     1     -47.846  32.210  26.297  1.00  0.00     0.117 C 
ATOM      3  H   UNL     1     -47.666  31.215  26.725  1.00  0.00     0.073 H 
ATOM      4  H   UNL     1     -48.754  32.558  26.801  1.00  0.00     0.073 H 
BRANCH   2   5
ATOM      5  C   UNL     1     -48.109  32.041  24.795  1.00  0.00     0.123 C 
ATOM      6  C   UNL     1     -47.644  30.235  23.377  1.00  0.00     0.164 C 
ATOM      7  O   UNL     1     -47.059  31.209  24.256  1.00  0.00    -0.345 OA
ATOM      8  C   UNL     1     -49.143  30.518  23.253  1.00  0.00     0.128 C 
ATOM      9  H   UNL     1     -47.167  30.375  22.400  1.00  0.00     0.088 H 
ATOM     10  C   UNL     1     -49.451  31.390  24.461  1.00  0.00     0.114 C 
ATOM     11  H   UNL     1     -49.776  29.627  23.202  1.00  0.00     0.068 H 
ATOM     12  H   UNL     1     -48.042  33.024  24.312  1.00  0.00     0.067 H 
ATOM     13  H   UNL     1     -49.819  30.783  25.289  1.00  0.00     0.066 H 
BRANCH   6  14
ATOM     14  N   UNL     1     -47.261  28.906  23.831  1.00  0.00    -0.303 N 
ATOM     15  C   UNL     1     -46.080  27.006  24.005  1.00  0.00    -0.020 A 
ATOM     16  C   UNL     1     -46.152  28.232  23.369  1.00  0.00     0.012 A 
ATOM     17  C   UNL     1     -47.192  26.943  24.905  1.00  0.00     0.064 A 
ATOM     18  H   UNL     1     -45.497  28.678  22.630  1.00  0.00     0.082 H 
ATOM     19  C   UNL     1     -47.903  28.130  24.762  1.00  0.00     0.147 A 
ATOM     20  C   UNL     1     -47.702  26.017  25.832  1.00  0.00     0.136 A 
ATOM     21  N   UNL     1     -49.027  28.461  25.416  1.00  0.00    -0.218 NA
ATOM     22  N   UNL     1     -48.825  26.317  26.510  1.00  0.00    -0.219 NA
ATOM     23  C   UNL     1     -49.421  27.499  26.268  1.00  0.00     0.120 A 
ATOM     24  H   UNL     1     -50.328  27.696  26.832  1.00  0.00     0.106 H 
BRANCH  15  25
ATOM     25  C   UNL     1     -45.043  25.965  23.785  1.00  0.00    -0.037 C 
ATOM     26  H   UNL     1     -44.978  25.687  22.728  1.00  0.00     0.028 H 
ATOM     27  H   UNL     1     -44.060  26.333  24.097  1.00  0.00     0.028 H 
ATOM     28  H   UNL     1     -45.275  25.062  24.356  1.00  0.00     0.028 H 
ENDBRANCH  15  25
BRANCH  20  29
ATOM     29  N   UNL     1     -47.108  24.795  26.121  1.00  0.00    -0.383 N 
ATOM     30  H   UNL     1     -47.092  24.151  25.343  1.00  0.00     0.158 HD
ATOM     31  H   UNL     1     -46.215  24.953  26.577  1.00  0.00     0.158 HD
ENDBRANCH  20  29
ENDBRANCH   6  14
BRANCH   8  32
ATOM     32  O   UNL     1     -49.419  31.295  22.060  1.00  0.00    -0.386 OA
ATOM     33  H   UNL     1     -49.950  32.064  22.337  1.00  0.00     0.211 HD
ENDBRANCH   8  32
BRANCH  10  34
ATOM     34  O   UNL     1     -50.461  32.353  24.147  1.00  0.00    -0.387 OA
ATOM     35  H   UNL     1     -50.130  33.199  24.515  1.00  0.00     0.211 HD
ENDBRANCH  10  34
ENDBRANCH   2   5
ENDBRANCH   1   2
BRANCH   1  36
ATOM     36  C   UNL     1     -46.879  34.295  26.914  1.00  0.00     0.121 A 
ATOM     37  C   UNL     1     -48.195  34.742  26.835  1.00  0.00    -0.019 A 
ATOM     38  C   UNL     1     -45.871  35.184  27.291  1.00  0.00     0.007 A 
ATOM     39  C   UNL     1     -48.508  36.053  27.184  1.00  0.00    -0.049 A 
ATOM     40  H   UNL     1     -48.983  34.056  26.532  1.00  0.00     0.066 H 
ATOM     41  C   UNL     1     -46.158  36.490  27.666  1.00  0.00     0.076 A 
ATOM     42  H   UNL     1     -44.830  34.882  27.300  1.00  0.00     0.069 H 
ATOM     43  C   UNL     1     -47.495  36.927  27.610  1.00  0.00     0.001 A 
ATOM     44  H   UNL     1     -49.544  36.381  27.139  1.00  0.00     0.063 H 
ATOM     45  N   UNL     1     -45.155  37.285  28.080  1.00  0.00    -0.231 NA
ATOM     46  C   UNL     1     -47.765  38.241  27.997  1.00  0.00    -0.049 A 
ATOM     47  C   UNL     1     -45.426  38.553  28.449  1.00  0.00     0.126 A 
ATOM     48  C   UNL     1     -46.722  39.057  28.424  1.00  0.00    -0.019 A 
ATOM     49  H   UNL     1     -48.779  38.631  27.983  1.00  0.00     0.063 H 
ATOM     50  H   UNL     1     -46.924  40.071  28.751  1.00  0.00     0.066 H 
BRANCH  47  51
ATOM     51  N   UNL     1     -44.404  39.391  28.926  1.00  0.00    -0.370 N 
ATOM     52  H   UNL     1     -44.676  39.753  29.834  1.00  0.00     0.162 HD
BRANCH  51  53
ATOM     53  C   UNL     1     -44.025  40.461  28.013  1.00  0.00     0.019 C 
ATOM     54  H   UNL     1     -44.088  40.112  26.974  1.00  0.00     0.049 H 
ATOM     55  H   UNL     1     -44.696  41.322  28.127  1.00  0.00     0.049 H 
BRANCH  53  56
ATOM     56  C   UNL     1     -42.614  40.934  28.244  1.00  0.00    -0.024 C 
ATOM     57  C   UNL     1     -42.009  41.071  29.622  1.00  0.00    -0.048 C 
ATOM     58  C   UNL     1     -42.284  42.302  28.797  1.00  0.00    -0.048 C 
ATOM     59  H   UNL     1     -41.966  40.559  27.458  1.00  0.00     0.032 H 
ATOM     60  H   UNL     1     -40.978  40.762  29.752  1.00  0.00     0.027 H 
ATOM     61  H   UNL     1     -42.634  40.882  30.488  1.00  0.00     0.027 H 
ATOM     62  H   UNL     1     -41.434  42.824  28.373  1.00  0.00     0.027 H 
ATOM     63  H   UNL     1     -43.083  42.959  29.115  1.00  0.00     0.027 H 
ENDBRANCH  53  56
ENDBRANCH  51  53
ENDBRANCH  47  51
ENDBRANCH   1  36
TORSDOF 11
ENDMDL
MODEL 5
REMARK VINA RESULT:      -8.9      2.791     10.490
REMARK SMILES Cc1cn([C@@H]2O[C@H](COc3ccc4ccc(NCC5CC5)nc4c3)[C@@H](O)[C@H]2O)c2ncnc(N)c12
REMARK SMILES IDX 9 1 8 2 7 5 5 6 6 7 27 8 25 10 4 14 2 15 3 16 35 17 29 19
REMARK SMILES IDX 33 20 30 21 32 22 31 23 1 25 34 29 28 32 26 34 10 36 11 37
REMARK SMILES IDX 24 38 12 39 23 41 13 43 22 45 14 46 16 47 15 48 17 51 18 53
REMARK SMILES IDX 19 56 20 57 21 58
REMARK H PARENT 8 3 8 4 5 9 27 11 7 12 25 13 3 18 31 24 1 26 1 27 1 28 34 30
REMARK H PARENT 34 31 28 33 26 35 11 40 24 42 12 44 14 49 15 50 17 52 18 54
REMARK H PARENT 18 55 19 59 20 60 20 61 21 62 21 63
REMARK Flexibility Score: inf
ROOT
ATOM      1  O   UNL     1     -47.092  31.084  24.275  1.00  0.00    -0.491 OA
ENDROOT
BRANCH   1   2
ATOM      2  C   UNL     1     -46.657  31.290  22.930  1.00  0.00     0.117 C 
ATOM      3  H   UNL     1     -46.725  32.370  22.744  1.00  0.00     0.073 H 
ATOM      4  H   UNL     1     -45.603  31.053  22.752  1.00  0.00     0.073 H 
BRANCH   2   5
ATOM      5  C   UNL     1     -47.541  30.573  21.901  1.00  0.00     0.123 C 
ATOM      6  C   UNL     1     -48.698  28.543  22.062  1.00  0.00     0.164 C 
ATOM      7  O   UNL     1     -47.397  29.152  22.113  1.00  0.00    -0.345 OA
ATOM      8  C   UNL     1     -49.730  29.609  21.688  1.00  0.00     0.128 C 
ATOM      9  H   UNL     1     -48.653  27.788  21.267  1.00  0.00     0.088 H 
ATOM     10  C   UNL     1     -49.026  30.922  21.997  1.00  0.00     0.114 C 
ATOM     11  H   UNL     1     -50.693  29.515  22.199  1.00  0.00     0.068 H 
ATOM     12  H   UNL     1     -47.169  30.803  20.895  1.00  0.00     0.067 H 
ATOM     13  H   UNL     1     -49.291  31.274  22.995  1.00  0.00     0.066 H 
BRANCH   6  14
ATOM     14  N   UNL     1     -48.922  27.816  23.302  1.00  0.00    -0.303 N 
ATOM     15  C   UNL     1     -50.026  26.875  25.016  1.00  0.00    -0.020 A 
ATOM     16  C   UNL     1     -50.170  27.596  23.844  1.00  0.00     0.012 A 
ATOM     17  C   UNL     1     -48.623  26.637  25.182  1.00  0.00     0.064 A 
ATOM     18  H   UNL     1     -51.063  27.962  23.351  1.00  0.00     0.082 H 
ATOM     19  C   UNL     1     -47.974  27.241  24.110  1.00  0.00     0.147 A 
ATOM     20  C   UNL     1     -47.805  25.984  26.121  1.00  0.00     0.136 A 
ATOM     21  N   UNL     1     -46.649  27.265  23.901  1.00  0.00    -0.218 NA
ATOM     22  N   UNL     1     -46.471  25.983  25.941  1.00  0.00    -0.219 NA
ATOM     23  C   UNL     1     -45.971  26.616  24.864  1.00  0.00     0.120 A 
ATOM     24  H   UNL     1     -44.890  26.596  24.762  1.00  0.00     0.106 H 
BRANCH  15  25
ATOM     25  C   UNL     1     -51.123  26.440  25.917  1.00  0.00    -0.037 C 
ATOM     26  H   UNL     1     -52.040  27.008  25.728  1.00  0.00     0.028 H 
ATOM     27  H   UNL     1     -51.347  25.380  25.763  1.00  0.00     0.028 H 
ATOM     28  H   UNL     1     -50.846  26.591  26.964  1.00  0.00     0.028 H 
ENDBRANCH  15  25
BRANCH  20  29
ATOM     29  N   UNL     1     -48.283  25.308  27.236  1.00  0.00    -0.383 N 
ATOM     30  H   UNL     1     -48.736  25.903  27.915  1.00  0.00     0.158 HD
ATOM     31  H   UNL     1     -48.819  24.499  26.937  1.00  0.00     0.158 HD
ENDBRANCH  20  29
ENDBRANCH   6  14
BRANCH   8  32
ATOM     32  O   UNL     1     -50.007  29.576  20.265  1.00  0.00    -0.386 OA
ATOM     33  H   UNL     1     -50.969  29.453  20.165  1.00  0.00     0.211 HD
ENDBRANCH   8  32
BRANCH  10  34
ATOM     34  O   UNL     1     -49.410  31.936  21.063  1.00  0.00    -0.387 OA
ATOM     35  H   UNL     1     -50.072  32.480  21.536  1.00  0.00     0.211 HD
ENDBRANCH  10  34
ENDBRANCH   2   5
ENDBRANCH   1   2
BRANCH   1  36
ATOM     36  C   UNL     1     -47.497  32.192  24.966  1.00  0.00     0.121 A 
ATOM     37  C   UNL     1     -48.768  32.118  25.529  1.00  0.00    -0.019 A 
ATOM     38  C   UNL     1     -46.749  33.362  25.107  1.00  0.00     0.007 A 
ATOM     39  C   UNL     1     -49.264  33.185  26.272  1.00  0.00    -0.049 A 
ATOM     40  H   UNL     1     -49.359  31.212  25.413  1.00  0.00     0.066 H 
ATOM     41  C   UNL     1     -47.209  34.432  25.862  1.00  0.00     0.076 A 
ATOM     42  H   UNL     1     -45.783  33.473  24.627  1.00  0.00     0.069 H 
ATOM     43  C   UNL     1     -48.485  34.339  26.451  1.00  0.00     0.001 A 
ATOM     44  H   UNL     1     -50.250  33.104  26.725  1.00  0.00     0.063 H 
ATOM     45  N   UNL     1     -46.420  35.510  26.015  1.00  0.00    -0.231 NA
ATOM     46  C   UNL     1     -48.928  35.422  27.212  1.00  0.00    -0.049 A 
ATOM     47  C   UNL     1     -46.859  36.552  26.751  1.00  0.00     0.126 A 
ATOM     48  C   UNL     1     -48.106  36.534  27.366  1.00  0.00    -0.019 A 
ATOM     49  H   UNL     1     -49.900  35.404  27.698  1.00  0.00     0.063 H 
ATOM     50  H   UNL     1     -48.430  37.369  27.976  1.00  0.00     0.066 H 
BRANCH  47  51
ATOM     51  N   UNL     1     -46.038  37.672  26.962  1.00  0.00    -0.370 N 
ATOM     52  H   UNL     1     -45.084  37.428  26.721  1.00  0.00     0.162 HD
BRANCH  51  53
ATOM     53  C   UNL     1     -46.125  38.241  28.301  1.00  0.00     0.019 C 
ATOM     54  H   UNL     1     -45.804  39.290  28.288  1.00  0.00     0.049 H 
ATOM     55  H   UNL     1     -47.157  38.200  28.671  1.00  0.00     0.049 H 
BRANCH  53  56
ATOM     56  C   UNL     1     -45.247  37.514  29.286  1.00  0.00    -0.024 C 
ATOM     57  C   UNL     1     -45.584  37.394  30.754  1.00  0.00    -0.048 C 
ATOM     58  C   UNL     1     -44.406  38.227  30.321  1.00  0.00    -0.048 C 
ATOM     59  H   UNL     1     -44.800  36.646  28.812  1.00  0.00     0.032 H 
ATOM     60  H   UNL     1     -45.389  36.445  31.240  1.00  0.00     0.027 H 
ATOM     61  H   UNL     1     -46.464  37.904  31.132  1.00  0.00     0.027 H 
ATOM     62  H   UNL     1     -43.413  37.837  30.517  1.00  0.00     0.027 H 
ATOM     63  H   UNL     1     -44.478  39.302  30.422  1.00  0.00     0.027 H 
ENDBRANCH  53  56
ENDBRANCH  51  53
ENDBRANCH  47  51
ENDBRANCH   1  36
TORSDOF 11
ENDMDL
MODEL 6
REMARK VINA RESULT:      -8.7      2.489     11.135
REMARK SMILES Cc1cn([C@@H]2O[C@H](COc3ccc4ccc(NCC5CC5)nc4c3)[C@@H](O)[C@H]2O)c2ncnc(N)c12
REMARK SMILES IDX 9 1 8 2 7 5 5 6 6 7 27 8 25 10 4 14 2 15 3 16 35 17 29 19
REMARK SMILES IDX 33 20 30 21 32 22 31 23 1 25 34 29 28 32 26 34 10 36 11 37
REMARK SMILES IDX 24 38 12 39 23 41 13 43 22 45 14 46 16 47 15 48 17 51 18 53
REMARK SMILES IDX 19 56 20 57 21 58
REMARK H PARENT 8 3 8 4 5 9 27 11 7 12 25 13 3 18 31 24 1 26 1 27 1 28 34 30
REMARK H PARENT 34 31 28 33 26 35 11 40 24 42 12 44 14 49 15 50 17 52 18 54
REMARK H PARENT 18 55 19 59 20 60 20 61 21 62 21 63
REMARK Flexibility Score: inf
ROOT
ATOM      1  O   UNL     1     -46.650  32.832  24.601  1.00  0.00    -0.491 OA
ENDROOT
BRANCH   1   2
ATOM      2  C   UNL     1     -47.648  31.811  24.587  1.00  0.00     0.117 C 
ATOM      3  H   UNL     1     -47.451  31.171  25.456  1.00  0.00     0.073 H 
ATOM      4  H   UNL     1     -48.670  32.171  24.746  1.00  0.00     0.073 H 
BRANCH   2   5
ATOM      5  C   UNL     1     -47.588  30.936  23.328  1.00  0.00     0.123 C 
ATOM      6  C   UNL     1     -47.913  28.630  23.078  1.00  0.00     0.164 C 
ATOM      7  O   UNL     1     -47.109  29.632  23.721  1.00  0.00    -0.345 OA
ATOM      8  C   UNL     1     -48.898  29.318  22.130  1.00  0.00     0.128 C 
ATOM      9  H   UNL     1     -47.222  28.009  22.494  1.00  0.00     0.088 H 
ATOM     10  C   UNL     1     -48.933  30.757  22.623  1.00  0.00     0.114 C 
ATOM     11  H   UNL     1     -49.890  28.860  22.088  1.00  0.00     0.068 H 
ATOM     12  H   UNL     1     -46.859  31.368  22.632  1.00  0.00     0.067 H 
ATOM     13  H   UNL     1     -49.768  30.907  23.308  1.00  0.00     0.066 H 
BRANCH   6  14
ATOM     14  N   UNL     1     -48.479  27.760  24.097  1.00  0.00    -0.303 N 
ATOM     15  C   UNL     1     -48.568  26.306  25.805  1.00  0.00    -0.020 A 
ATOM     16  C   UNL     1     -47.721  27.011  24.971  1.00  0.00     0.012 A 
ATOM     17  C   UNL     1     -49.904  26.657  25.426  1.00  0.00     0.064 A 
ATOM     18  H   UNL     1     -46.638  27.044  24.936  1.00  0.00     0.082 H 
ATOM     19  C   UNL     1     -49.808  27.549  24.362  1.00  0.00     0.147 A 
ATOM     20  C   UNL     1     -51.203  26.323  25.846  1.00  0.00     0.136 A 
ATOM     21  N   UNL     1     -50.836  28.105  23.703  1.00  0.00    -0.218 NA
ATOM     22  N   UNL     1     -52.259  26.865  25.211  1.00  0.00    -0.219 NA
ATOM     23  C   UNL     1     -52.026  27.708  24.189  1.00  0.00     0.120 A 
ATOM     24  H   UNL     1     -52.906  28.116  23.700  1.00  0.00     0.106 H 
BRANCH  15  25
ATOM     25  C   UNL     1     -48.158  25.368  26.881  1.00  0.00    -0.037 C 
ATOM     26  H   UNL     1     -47.912  25.906  27.803  1.00  0.00     0.028 H 
ATOM     27  H   UNL     1     -48.967  24.667  27.107  1.00  0.00     0.028 H 
ATOM     28  H   UNL     1     -47.274  24.798  26.580  1.00  0.00     0.028 H 
ENDBRANCH  15  25
BRANCH  20  29
ATOM     29  N   UNL     1     -51.486  25.470  26.906  1.00  0.00    -0.383 N 
ATOM     30  H   UNL     1     -52.300  24.890  26.761  1.00  0.00     0.158 HD
ATOM     31  H   UNL     1     -50.641  24.979  27.179  1.00  0.00     0.158 HD
ENDBRANCH  20  29
ENDBRANCH   6  14
BRANCH   8  32
ATOM     32  O   UNL     1     -48.383  29.323  20.774  1.00  0.00    -0.386 OA
ATOM     33  H   UNL     1     -47.412  29.383  20.837  1.00  0.00     0.211 HD
ENDBRANCH   8  32
BRANCH  10  34
ATOM     34  O   UNL     1     -49.101  31.664  21.529  1.00  0.00    -0.387 OA
ATOM     35  H   UNL     1     -50.066  31.825  21.477  1.00  0.00     0.211 HD
ENDBRANCH  10  34
ENDBRANCH   2   5
ENDBRANCH   1   2
BRANCH   1  36
ATOM     36  C   UNL     1     -46.616  33.642  25.702  1.00  0.00     0.121 A 
ATOM     37  C   UNL     1     -46.053  33.081  26.844  1.00  0.00    -0.019 A 
ATOM     38  C   UNL     1     -47.124  34.942  25.752  1.00  0.00     0.007 A 
ATOM     39  C   UNL     1     -45.950  33.832  28.012  1.00  0.00    -0.049 A 
ATOM     40  H   UNL     1     -45.664  32.065  26.813  1.00  0.00     0.066 H 
ATOM     41  C   UNL     1     -47.014  35.720  26.897  1.00  0.00     0.076 A 
ATOM     42  H   UNL     1     -47.624  35.383  24.898  1.00  0.00     0.069 H 
ATOM     43  C   UNL     1     -46.418  35.155  28.040  1.00  0.00     0.001 A 
ATOM     44  H   UNL     1     -45.487  33.386  28.890  1.00  0.00     0.063 H 
ATOM     45  N   UNL     1     -47.465  36.987  26.870  1.00  0.00    -0.231 NA
ATOM     46  C   UNL     1     -46.310  35.955  29.179  1.00  0.00    -0.049 A 
ATOM     47  C   UNL     1     -47.358  37.751  27.975  1.00  0.00     0.126 A 
ATOM     48  C   UNL     1     -46.779  37.264  29.143  1.00  0.00    -0.019 A 
ATOM     49  H   UNL     1     -45.852  35.575  30.088  1.00  0.00     0.063 H 
ATOM     50  H   UNL     1     -46.677  37.903  30.013  1.00  0.00     0.066 H 
BRANCH  47  51
ATOM     51  N   UNL     1     -47.782  39.090  27.962  1.00  0.00    -0.370 N 
ATOM     52  H   UNL     1     -48.423  39.222  27.187  1.00  0.00     0.162 HD
BRANCH  51  53
ATOM     53  C   UNL     1     -46.701  40.067  27.937  1.00  0.00     0.019 C 
ATOM     54  H   UNL     1     -47.100  41.067  27.726  1.00  0.00     0.049 H 
ATOM     55  H   UNL     1     -46.187  40.097  28.905  1.00  0.00     0.049 H 
BRANCH  53  56
ATOM     56  C   UNL     1     -45.679  39.757  26.874  1.00  0.00    -0.024 C 
ATOM     57  C   UNL     1     -44.191  39.881  27.106  1.00  0.00    -0.048 C 
ATOM     58  C   UNL     1     -44.885  40.827  26.160  1.00  0.00    -0.048 C 
ATOM     59  H   UNL     1     -46.014  38.919  26.273  1.00  0.00     0.032 H 
ATOM     60  H   UNL     1     -43.551  39.115  26.684  1.00  0.00     0.027 H 
ATOM     61  H   UNL     1     -43.840  40.269  28.056  1.00  0.00     0.027 H 
ATOM     62  H   UNL     1     -44.708  40.697  25.098  1.00  0.00     0.027 H 
ATOM     63  H   UNL     1     -44.988  41.862  26.460  1.00  0.00     0.027 H 
ENDBRANCH  53  56
ENDBRANCH  51  53
ENDBRANCH  47  51
ENDBRANCH   1  36
TORSDOF 11
ENDMDL
MODEL 7
REMARK VINA RESULT:      -8.7      2.700      3.804
REMARK SMILES Cc1cn([C@@H]2O[C@H](COc3ccc4ccc(NCC5CC5)nc4c3)[C@@H](O)[C@H]2O)c2ncnc(N)c12
REMARK SMILES IDX 9 1 8 2 7 5 5 6 6 7 27 8 25 10 4 14 2 15 3 16 35 17 29 19
REMARK SMILES IDX 33 20 30 21 32 22 31 23 1 25 34 29 28 32 26 34 10 36 11 37
REMARK SMILES IDX 24 38 12 39 23 41 13 43 22 45 14 46 16 47 15 48 17 51 18 53
REMARK SMILES IDX 19 56 20 57 21 58
REMARK H PARENT 8 3 8 4 5 9 27 11 7 12 25 13 3 18 31 24 1 26 1 27 1 28 34 30
REMARK H PARENT 34 31 28 33 26 35 11 40 24 42 12 44 14 49 15 50 17 52 18 54
REMARK H PARENT 18 55 19 59 20 60 20 61 21 62 21 63
REMARK Flexibility Score: inf
ROOT
ATOM      1  O   UNL     1     -47.545  34.441  27.199  1.00  0.00    -0.491 OA
ENDROOT
BRANCH   1   2
ATOM      2  C   UNL     1     -47.657  35.747  26.632  1.00  0.00     0.117 C 
ATOM      3  H   UNL     1     -47.530  35.627  25.548  1.00  0.00     0.073 H 
ATOM      4  H   UNL     1     -48.645  36.206  26.737  1.00  0.00     0.073 H 
BRANCH   2   5
ATOM      5  C   UNL     1     -46.572  36.709  27.134  1.00  0.00     0.123 C 
ATOM      6  C   UNL     1     -46.664  39.019  27.511  1.00  0.00     0.164 C 
ATOM      7  O   UNL     1     -46.803  37.993  26.515  1.00  0.00    -0.345 OA
ATOM      8  C   UNL     1     -46.211  38.377  28.824  1.00  0.00     0.128 C 
ATOM      9  H   UNL     1     -45.880  39.696  27.150  1.00  0.00     0.088 H 
ATOM     10  C   UNL     1     -46.560  36.906  28.650  1.00  0.00     0.114 C 
ATOM     11  H   UNL     1     -46.653  38.813  29.725  1.00  0.00     0.068 H 
ATOM     12  H   UNL     1     -45.594  36.345  26.799  1.00  0.00     0.067 H 
ATOM     13  H   UNL     1     -47.534  36.688  29.090  1.00  0.00     0.066 H 
BRANCH   6  14
ATOM     14  N   UNL     1     -47.891  39.801  27.551  1.00  0.00    -0.303 N 
ATOM     15  C   UNL     1     -50.033  40.330  27.963  1.00  0.00    -0.020 A 
ATOM     16  C   UNL     1     -49.075  39.340  28.082  1.00  0.00     0.012 A 
ATOM     17  C   UNL     1     -49.391  41.450  27.341  1.00  0.00     0.064 A 
ATOM     18  H   UNL     1     -49.143  38.347  28.510  1.00  0.00     0.082 H 
ATOM     19  C   UNL     1     -48.073  41.082  27.093  1.00  0.00     0.147 A 
ATOM     20  C   UNL     1     -49.764  42.745  26.942  1.00  0.00     0.136 A 
ATOM     21  N   UNL     1     -47.138  41.843  26.503  1.00  0.00    -0.218 NA
ATOM     22  N   UNL     1     -48.852  43.539  26.351  1.00  0.00    -0.219 NA
ATOM     23  C   UNL     1     -47.611  43.054  26.162  1.00  0.00     0.120 A 
ATOM     24  H   UNL     1     -46.909  43.725  25.675  1.00  0.00     0.106 H 
BRANCH  15  25
ATOM     25  C   UNL     1     -51.449  40.236  28.399  1.00  0.00    -0.037 C 
ATOM     26  H   UNL     1     -52.073  39.775  27.626  1.00  0.00     0.028 H 
ATOM     27  H   UNL     1     -51.531  39.625  29.304  1.00  0.00     0.028 H 
ATOM     28  H   UNL     1     -51.856  41.229  28.609  1.00  0.00     0.028 H 
ENDBRANCH  15  25
BRANCH  20  29
ATOM     29  N   UNL     1     -51.029  43.288  27.134  1.00  0.00    -0.383 N 
ATOM     30  H   UNL     1     -51.153  43.732  28.033  1.00  0.00     0.158 HD
ATOM     31  H   UNL     1     -51.281  43.851  26.329  1.00  0.00     0.158 HD
ENDBRANCH  20  29
ENDBRANCH   6  14
BRANCH   8  32
ATOM     32  O   UNL     1     -44.772  38.479  28.974  1.00  0.00    -0.386 OA
ATOM     33  H   UNL     1     -44.603  39.162  29.648  1.00  0.00     0.211 HD
ENDBRANCH   8  32
BRANCH  10  34
ATOM     34  O   UNL     1     -45.595  36.074  29.300  1.00  0.00    -0.387 OA
ATOM     35  H   UNL     1     -45.509  36.443  30.204  1.00  0.00     0.211 HD
ENDBRANCH  10  34
ENDBRANCH   2   5
ENDBRANCH   1   2
BRANCH   1  36
ATOM     36  C   UNL     1     -47.481  33.394  26.321  1.00  0.00     0.121 A 
ATOM     37  C   UNL     1     -46.562  33.534  25.285  1.00  0.00    -0.019 A 
ATOM     38  C   UNL     1     -48.277  32.249  26.385  1.00  0.00     0.007 A 
ATOM     39  C   UNL     1     -46.403  32.514  24.351  1.00  0.00    -0.049 A 
ATOM     40  H   UNL     1     -45.946  34.429  25.225  1.00  0.00     0.066 H 
ATOM     41  C   UNL     1     -48.124  31.207  25.481  1.00  0.00     0.076 A 
ATOM     42  H   UNL     1     -49.044  32.140  27.143  1.00  0.00     0.069 H 
ATOM     43  C   UNL     1     -47.173  31.344  24.451  1.00  0.00     0.001 A 
ATOM     44  H   UNL     1     -45.666  32.629  23.560  1.00  0.00     0.063 H 
ATOM     45  N   UNL     1     -48.876  30.101  25.626  1.00  0.00    -0.231 NA
ATOM     46  C   UNL     1     -47.028  30.283  23.556  1.00  0.00    -0.049 A 
ATOM     47  C   UNL     1     -48.729  29.083  24.755  1.00  0.00     0.126 A 
ATOM     48  C   UNL     1     -47.810  29.142  23.713  1.00  0.00    -0.019 A 
ATOM     49  H   UNL     1     -46.305  30.329  22.747  1.00  0.00     0.063 H 
ATOM     50  H   UNL     1     -47.687  28.302  23.039  1.00  0.00     0.066 H 
BRANCH  47  51
ATOM     51  N   UNL     1     -49.471  27.899  24.909  1.00  0.00    -0.370 N 
ATOM     52  H   UNL     1     -50.457  28.133  24.939  1.00  0.00     0.162 HD
BRANCH  51  53
ATOM     53  C   UNL     1     -49.078  27.084  26.051  1.00  0.00     0.019 C 
ATOM     54  H   UNL     1     -48.537  27.696  26.785  1.00  0.00     0.049 H 
ATOM     55  H   UNL     1     -49.961  26.658  26.542  1.00  0.00     0.049 H 
BRANCH  53  56
ATOM     56  C   UNL     1     -48.169  25.950  25.655  1.00  0.00    -0.024 C 
ATOM     57  C   UNL     1     -47.537  25.015  26.660  1.00  0.00    -0.048 C 
ATOM     58  C   UNL     1     -46.675  25.975  25.881  1.00  0.00    -0.048 C 
ATOM     59  H   UNL     1     -48.512  25.510  24.724  1.00  0.00     0.032 H 
ATOM     60  H   UNL     1     -47.488  23.962  26.406  1.00  0.00     0.027 H 
ATOM     61  H   UNL     1     -47.691  25.202  27.717  1.00  0.00     0.027 H 
ATOM     62  H   UNL     1     -46.042  25.564  25.102  1.00  0.00     0.027 H 
ATOM     63  H   UNL     1     -46.227  26.803  26.414  1.00  0.00     0.027 H 
ENDBRANCH  53  56
ENDBRANCH  51  53
ENDBRANCH  47  51
ENDBRANCH   1  36
TORSDOF 11
ENDMDL
