MODEL 1
REMARK VINA RESULT:     -10.3      0.000      0.000
REMARK SMILES CCc1cc(NC)c2ccc(OCc3cncc(-n4cc(-c5ccn(C)n5)c5c(N)ncnc54)c3)cc2n1
REMARK SMILES IDX 13 1 12 4 11 5 3 6 4 7 38 8 5 9 37 11 8 12 36 13 9 14 10 16
REMARK SMILES IDX 2 19 1 22 6 26 7 28 14 32 15 33 35 34 16 35 18 37 17 39
REMARK SMILES IDX 19 41 20 42 34 43 21 44 28 46 33 47 29 48 32 49 31 50 22 52
REMARK SMILES IDX 23 53 27 54 24 55 25 57 26 59 30 63
REMARK H PARENT 13 2 13 3 4 10 36 15 9 17 10 18 2 20 2 21 1 23 1 24 1 25 6 27
REMARK H PARENT 7 29 7 30 7 31 15 36 35 38 17 40 20 45 32 51 23 56 24 58 26 60
REMARK H PARENT 26 61 26 62 30 64 30 65
REMARK Flexibility Score: inf
ROOT
ATOM      1  C   UNL     1     -47.791  35.362  26.597  1.00  0.00     0.115 C 
ATOM      2  H   UNL     1     -47.272  35.404  25.631  1.00  0.00     0.076 H 
ATOM      3  H   UNL     1     -48.799  35.783  26.498  1.00  0.00     0.076 H 
ENDROOT
BRANCH   1   4
ATOM      4  O   UNL     1     -47.883  34.015  27.062  1.00  0.00    -0.489 OA
BRANCH   4   5
ATOM      5  C   UNL     1     -47.672  33.023  26.146  1.00  0.00     0.122 A 
ATOM      6  C   UNL     1     -48.520  28.790  24.178  1.00  0.00     0.043 A 
ATOM      7  C   UNL     1     -47.528  28.943  23.217  1.00  0.00    -0.017 A 
ATOM      8  N   UNL     1     -48.813  29.750  25.080  1.00  0.00    -0.253 NA
ATOM      9  C   UNL     1     -46.801  30.134  23.151  1.00  0.00     0.045 A 
ATOM     10  H   UNL     1     -47.348  28.130  22.524  1.00  0.00     0.066 H 
ATOM     11  C   UNL     1     -48.088  30.876  25.076  1.00  0.00     0.076 A 
ATOM     12  C   UNL     1     -47.052  31.122  24.146  1.00  0.00     0.024 A 
ATOM     13  C   UNL     1     -48.382  31.827  26.047  1.00  0.00     0.007 A 
ATOM     14  C   UNL     1     -46.327  32.330  24.266  1.00  0.00    -0.047 A 
ATOM     15  H   UNL     1     -49.190  31.590  26.731  1.00  0.00     0.069 H 
ATOM     16  C   UNL     1     -46.637  33.268  25.251  1.00  0.00    -0.019 A 
ATOM     17  H   UNL     1     -45.495  32.548  23.602  1.00  0.00     0.063 H 
ATOM     18  H   UNL     1     -46.063  34.188  25.323  1.00  0.00     0.066 H 
BRANCH   6  19
ATOM     19  C   UNL     1     -49.344  27.530  24.233  1.00  0.00    -0.013 C 
ATOM     20  H   UNL     1     -49.311  27.035  23.256  1.00  0.00     0.033 H 
ATOM     21  H   UNL     1     -50.395  27.779  24.421  1.00  0.00     0.033 H 
BRANCH  19  22
ATOM     22  C   UNL     1     -48.833  26.575  25.301  1.00  0.00    -0.060 C 
ATOM     23  H   UNL     1     -49.329  25.601  25.234  1.00  0.00     0.023 H 
ATOM     24  H   UNL     1     -47.756  26.415  25.182  1.00  0.00     0.023 H 
ATOM     25  H   UNL     1     -49.008  26.973  26.305  1.00  0.00     0.023 H 
ENDBRANCH  19  22
ENDBRANCH   6  19
BRANCH   9  26
ATOM     26  N   UNL     1     -45.765  30.322  22.212  1.00  0.00    -0.388 N 
ATOM     27  H   UNL     1     -44.879  30.502  22.679  1.00  0.00     0.160 HD
BRANCH  26  28
ATOM     28  C   UNL     1     -45.960  31.202  21.073  1.00  0.00     0.003 C 
ATOM     29  H   UNL     1     -45.763  30.683  20.129  1.00  0.00     0.045 H 
ATOM     30  H   UNL     1     -47.001  31.541  21.056  1.00  0.00     0.045 H 
ATOM     31  H   UNL     1     -45.331  32.096  21.146  1.00  0.00     0.045 H 
ENDBRANCH  26  28
ENDBRANCH   9  26
ENDBRANCH   4   5
ENDBRANCH   1   4
BRANCH   1  32
ATOM     32  C   UNL     1     -46.996  36.170  27.588  1.00  0.00     0.010 A 
ATOM     33  C   UNL     1     -46.897  35.768  28.912  1.00  0.00     0.034 A 
ATOM     34  C   UNL     1     -46.379  37.380  27.232  1.00  0.00    -0.028 A 
ATOM     35  N   UNL     1     -46.234  36.461  29.860  1.00  0.00    -0.262 NA
ATOM     36  H   UNL     1     -47.360  34.850  29.266  1.00  0.00     0.084 H 
ATOM     37  C   UNL     1     -45.675  38.132  28.185  1.00  0.00     0.066 A 
ATOM     38  H   UNL     1     -46.476  37.702  26.200  1.00  0.00     0.065 H 
ATOM     39  C   UNL     1     -45.637  37.621  29.477  1.00  0.00     0.051 A 
ATOM     40  H   UNL     1     -45.116  38.101  30.296  1.00  0.00     0.086 H 
BRANCH  37  41
ATOM     41  N   UNL     1     -45.029  39.361  27.830  1.00  0.00    -0.299 N 
ATOM     42  C   UNL     1     -45.362  40.144  26.738  1.00  0.00     0.021 A 
ATOM     43  C   UNL     1     -43.972  40.003  28.482  1.00  0.00     0.150 A 
ATOM     44  C   UNL     1     -44.559  41.263  26.707  1.00  0.00     0.033 A 
ATOM     45  H   UNL     1     -46.146  39.871  26.048  1.00  0.00     0.083 H 
ATOM     46  C   UNL     1     -43.641  41.167  27.784  1.00  0.00     0.071 A 
ATOM     47  N   UNL     1     -43.356  39.582  29.606  1.00  0.00    -0.218 NA
ATOM     48  C   UNL     1     -42.550  41.907  28.272  1.00  0.00     0.137 A 
ATOM     49  C   UNL     1     -42.360  40.385  29.993  1.00  0.00     0.120 A 
ATOM     50  N   UNL     1     -41.924  41.501  29.390  1.00  0.00    -0.219 NA
ATOM     51  H   UNL     1     -41.837  40.098  30.900  1.00  0.00     0.106 H 
BRANCH  44  52
ATOM     52  C   UNL     1     -44.656  42.332  25.719  1.00  0.00     0.095 A 
ATOM     53  C   UNL     1     -45.803  43.115  25.469  1.00  0.00    -0.016 A 
ATOM     54  N   UNL     1     -43.652  42.637  24.889  1.00  0.00    -0.173 NA
ATOM     55  C   UNL     1     -45.439  43.955  24.442  1.00  0.00     0.025 A 
ATOM     56  H   UNL     1     -46.764  43.069  25.962  1.00  0.00     0.066 H 
ATOM     57  N   UNL     1     -44.151  43.629  24.132  1.00  0.00    -0.275 N 
ATOM     58  H   UNL     1     -45.982  44.727  23.915  1.00  0.00     0.084 H 
BRANCH  57  59
ATOM     59  C   UNL     1     -43.328  44.223  23.106  1.00  0.00     0.030 C 
ATOM     60  H   UNL     1     -42.503  43.540  22.889  1.00  0.00     0.048 H 
ATOM     61  H   UNL     1     -42.939  45.180  23.460  1.00  0.00     0.048 H 
ATOM     62  H   UNL     1     -43.945  44.377  22.216  1.00  0.00     0.048 H 
ENDBRANCH  57  59
ENDBRANCH  44  52
BRANCH  48  63
ATOM     63  N   UNL     1     -42.021  43.036  27.659  1.00  0.00    -0.383 N 
ATOM     64  H   UNL     1     -41.575  43.678  28.303  1.00  0.00     0.158 HD
ATOM     65  H   UNL     1     -42.722  43.452  27.054  1.00  0.00     0.158 HD
ENDBRANCH  48  63
ENDBRANCH  37  41
ENDBRANCH   1  32
TORSDOF 11
ENDMDL
MODEL 2
REMARK VINA RESULT:     -10.2      1.782      2.404
REMARK SMILES CCc1cc(NC)c2ccc(OCc3cncc(-n4cc(-c5ccn(C)n5)c5c(N)ncnc54)c3)cc2n1
REMARK SMILES IDX 13 1 12 4 11 5 3 6 4 7 38 8 5 9 37 11 8 12 36 13 9 14 10 16
REMARK SMILES IDX 2 19 1 22 6 26 7 28 14 32 15 33 35 34 16 35 18 37 17 39
REMARK SMILES IDX 19 41 20 42 34 43 21 44 28 46 33 47 29 48 32 49 31 50 22 52
REMARK SMILES IDX 23 53 27 54 24 55 25 57 26 59 30 63
REMARK H PARENT 13 2 13 3 4 10 36 15 9 17 10 18 2 20 2 21 1 23 1 24 1 25 6 27
REMARK H PARENT 7 29 7 30 7 31 15 36 35 38 17 40 20 45 32 51 23 56 24 58 26 60
REMARK H PARENT 26 61 26 62 30 64 30 65
REMARK Flexibility Score: inf
ROOT
ATOM      1  C   UNL     1     -47.249  33.864  25.798  1.00  0.00     0.115 C 
ATOM      2  H   UNL     1     -46.157  33.819  25.704  1.00  0.00     0.076 H 
ATOM      3  H   UNL     1     -47.710  33.874  24.803  1.00  0.00     0.076 H 
ENDROOT
BRANCH   1   4
ATOM      4  O   UNL     1     -47.737  32.742  26.534  1.00  0.00    -0.489 OA
BRANCH   4   5
ATOM      5  C   UNL     1     -48.221  31.686  25.815  1.00  0.00     0.122 A 
ATOM      6  C   UNL     1     -49.277  27.108  25.152  1.00  0.00     0.043 A 
ATOM      7  C   UNL     1     -49.764  27.319  23.867  1.00  0.00    -0.017 A 
ATOM      8  N   UNL     1     -48.830  28.113  25.934  1.00  0.00    -0.253 NA
ATOM      9  C   UNL     1     -49.817  28.614  23.346  1.00  0.00     0.045 A 
ATOM     10  H   UNL     1     -50.107  26.464  23.296  1.00  0.00     0.066 H 
ATOM     11  C   UNL     1     -48.814  29.356  25.434  1.00  0.00     0.076 A 
ATOM     12  C   UNL     1     -49.278  29.669  24.136  1.00  0.00     0.024 A 
ATOM     13  C   UNL     1     -48.305  30.363  26.247  1.00  0.00     0.007 A 
ATOM     14  C   UNL     1     -49.172  31.011  23.701  1.00  0.00    -0.047 A 
ATOM     15  H   UNL     1     -47.969  30.067  27.235  1.00  0.00     0.069 H 
ATOM     16  C   UNL     1     -48.653  32.005  24.533  1.00  0.00    -0.019 A 
ATOM     17  H   UNL     1     -49.476  31.297  22.698  1.00  0.00     0.063 H 
ATOM     18  H   UNL     1     -48.582  33.028  24.174  1.00  0.00     0.066 H 
BRANCH   6  19
ATOM     19  C   UNL     1     -49.256  25.724  25.744  1.00  0.00    -0.013 C 
ATOM     20  H   UNL     1     -49.578  25.002  24.985  1.00  0.00     0.033 H 
ATOM     21  H   UNL     1     -49.981  25.657  26.564  1.00  0.00     0.033 H 
BRANCH  19  22
ATOM     22  C   UNL     1     -47.868  25.350  26.241  1.00  0.00    -0.060 C 
ATOM     23  H   UNL     1     -47.685  25.742  27.247  1.00  0.00     0.023 H 
ATOM     24  H   UNL     1     -47.759  24.261  26.278  1.00  0.00     0.023 H 
ATOM     25  H   UNL     1     -47.091  25.747  25.579  1.00  0.00     0.023 H 
ENDBRANCH  19  22
ENDBRANCH   6  19
BRANCH   9  26
ATOM     26  N   UNL     1     -50.275  28.871  22.038  1.00  0.00    -0.388 N 
ATOM     27  H   UNL     1     -51.237  28.563  21.922  1.00  0.00     0.160 HD
BRANCH  26  28
ATOM     28  C   UNL     1     -49.456  28.517  20.892  1.00  0.00     0.003 C 
ATOM     29  H   UNL     1     -49.462  29.309  20.135  1.00  0.00     0.045 H 
ATOM     30  H   UNL     1     -48.421  28.378  21.221  1.00  0.00     0.045 H 
ATOM     31  H   UNL     1     -49.782  27.572  20.444  1.00  0.00     0.045 H 
ENDBRANCH  26  28
ENDBRANCH   9  26
ENDBRANCH   4   5
ENDBRANCH   1   4
BRANCH   1  32
ATOM     32  C   UNL     1     -47.602  35.128  26.536  1.00  0.00     0.010 A 
ATOM     33  C   UNL     1     -48.862  35.295  27.091  1.00  0.00     0.034 A 
ATOM     34  C   UNL     1     -46.702  36.199  26.642  1.00  0.00    -0.028 A 
ATOM     35  N   UNL     1     -49.257  36.413  27.733  1.00  0.00    -0.262 NA
ATOM     36  H   UNL     1     -49.617  34.515  27.038  1.00  0.00     0.084 H 
ATOM     37  C   UNL     1     -47.069  37.380  27.305  1.00  0.00     0.066 A 
ATOM     38  H   UNL     1     -45.723  36.073  26.189  1.00  0.00     0.065 H 
ATOM     39  C   UNL     1     -48.356  37.426  27.828  1.00  0.00     0.051 A 
ATOM     40  H   UNL     1     -48.752  38.275  28.371  1.00  0.00     0.086 H 
BRANCH  37  41
ATOM     41  N   UNL     1     -46.153  38.476  27.431  1.00  0.00    -0.299 N 
ATOM     42  C   UNL     1     -46.050  39.528  26.538  1.00  0.00     0.021 A 
ATOM     43  C   UNL     1     -45.211  38.704  28.438  1.00  0.00     0.150 A 
ATOM     44  C   UNL     1     -45.089  40.414  26.973  1.00  0.00     0.033 A 
ATOM     45  H   UNL     1     -46.660  39.595  25.650  1.00  0.00     0.083 H 
ATOM     46  C   UNL     1     -44.516  39.883  28.157  1.00  0.00     0.071 A 
ATOM     47  N   UNL     1     -44.993  37.924  29.517  1.00  0.00    -0.218 NA
ATOM     48  C   UNL     1     -43.481  40.232  29.043  1.00  0.00     0.137 A 
ATOM     49  C   UNL     1     -44.012  38.377  30.304  1.00  0.00     0.120 A 
ATOM     50  N   UNL     1     -43.250  39.465  30.122  1.00  0.00    -0.219 NA
ATOM     51  H   UNL     1     -43.801  37.790  31.193  1.00  0.00     0.106 H 
BRANCH  44  52
ATOM     52  C   UNL     1     -44.740  41.662  26.303  1.00  0.00     0.095 A 
ATOM     53  C   UNL     1     -44.235  41.774  24.990  1.00  0.00    -0.016 A 
ATOM     54  N   UNL     1     -44.811  42.850  26.914  1.00  0.00    -0.173 NA
ATOM     55  C   UNL     1     -44.020  43.120  24.809  1.00  0.00     0.025 A 
ATOM     56  H   UNL     1     -44.045  40.983  24.277  1.00  0.00     0.066 H 
ATOM     57  N   UNL     1     -44.377  43.717  25.983  1.00  0.00    -0.275 N 
ATOM     58  H   UNL     1     -43.643  43.684  23.967  1.00  0.00     0.084 H 
BRANCH  57  59
ATOM     59  C   UNL     1     -44.320  45.125  26.294  1.00  0.00     0.030 C 
ATOM     60  H   UNL     1     -43.721  45.252  27.199  1.00  0.00     0.048 H 
ATOM     61  H   UNL     1     -45.331  45.503  26.459  1.00  0.00     0.048 H 
ATOM     62  H   UNL     1     -43.860  45.645  25.450  1.00  0.00     0.048 H 
ENDBRANCH  57  59
ENDBRANCH  44  52
BRANCH  48  63
ATOM     63  N   UNL     1     -42.626  41.314  28.874  1.00  0.00    -0.383 N 
ATOM     64  H   UNL     1     -42.726  41.777  27.979  1.00  0.00     0.158 HD
ATOM     65  H   UNL     1     -41.679  41.037  29.110  1.00  0.00     0.158 HD
ENDBRANCH  48  63
ENDBRANCH  37  41
ENDBRANCH   1  32
TORSDOF 11
ENDMDL
MODEL 3
REMARK VINA RESULT:     -10.0      1.655      2.608
REMARK SMILES CCc1cc(NC)c2ccc(OCc3cncc(-n4cc(-c5ccn(C)n5)c5c(N)ncnc54)c3)cc2n1
REMARK SMILES IDX 13 1 12 4 11 5 3 6 4 7 38 8 5 9 37 11 8 12 36 13 9 14 10 16
REMARK SMILES IDX 2 19 1 22 6 26 7 28 14 32 15 33 35 34 16 35 18 37 17 39
REMARK SMILES IDX 19 41 20 42 34 43 21 44 28 46 33 47 29 48 32 49 31 50 22 52
REMARK SMILES IDX 23 53 27 54 24 55 25 57 26 59 30 63
REMARK H PARENT 13 2 13 3 4 10 36 15 9 17 10 18 2 20 2 21 1 23 1 24 1 25 6 27
REMARK H PARENT 7 29 7 30 7 31 15 36 35 38 17 40 20 45 32 51 23 56 24 58 26 60
REMARK H PARENT 26 61 26 62 30 64 30 65
REMARK Flexibility Score: inf
ROOT
ATOM      1  C   UNL     1     -48.331  35.352  26.889  1.00  0.00     0.115 C 
ATOM      2  H   UNL     1     -48.305  35.457  25.798  1.00  0.00     0.076 H 
ATOM      3  H   UNL     1     -49.340  35.572  27.261  1.00  0.00     0.076 H 
ENDROOT
BRANCH   1   4
ATOM      4  O   UNL     1     -47.961  34.029  27.278  1.00  0.00    -0.489 OA
BRANCH   4   5
ATOM      5  C   UNL     1     -47.677  33.141  26.279  1.00  0.00     0.122 A 
ATOM      6  C   UNL     1     -48.261  29.083  23.892  1.00  0.00     0.043 A 
ATOM      7  C   UNL     1     -47.253  29.375  22.980  1.00  0.00    -0.017 A 
ATOM      8  N   UNL     1     -48.624  29.935  24.872  1.00  0.00    -0.253 NA
ATOM      9  C   UNL     1     -46.585  30.599  23.050  1.00  0.00     0.045 A 
ATOM     10  H   UNL     1     -47.015  28.642  22.219  1.00  0.00     0.066 H 
ATOM     11  C   UNL     1     -47.957  31.090  24.997  1.00  0.00     0.076 A 
ATOM     12  C   UNL     1     -46.911  31.473  24.127  1.00  0.00     0.024 A 
ATOM     13  C   UNL     1     -48.323  31.928  26.045  1.00  0.00     0.007 A 
ATOM     14  C   UNL     1     -46.251  32.697  24.383  1.00  0.00    -0.047 A 
ATOM     15  H   UNL     1     -49.136  31.588  26.678  1.00  0.00     0.069 H 
ATOM     16  C   UNL     1     -46.633  33.520  25.444  1.00  0.00    -0.019 A 
ATOM     17  H   UNL     1     -45.414  33.018  23.769  1.00  0.00     0.063 H 
ATOM     18  H   UNL     1     -46.108  34.455  25.620  1.00  0.00     0.066 H 
BRANCH   6  19
ATOM     19  C   UNL     1     -49.022  27.786  23.801  1.00  0.00    -0.013 C 
ATOM     20  H   UNL     1     -48.747  27.271  22.873  1.00  0.00     0.033 H 
ATOM     21  H   UNL     1     -50.098  27.987  23.740  1.00  0.00     0.033 H 
BRANCH  19  22
ATOM     22  C   UNL     1     -48.725  26.881  24.987  1.00  0.00    -0.060 C 
ATOM     23  H   UNL     1     -48.487  27.464  25.884  1.00  0.00     0.023 H 
ATOM     24  H   UNL     1     -49.595  26.254  25.212  1.00  0.00     0.023 H 
ATOM     25  H   UNL     1     -47.876  26.222  24.780  1.00  0.00     0.023 H 
ENDBRANCH  19  22
ENDBRANCH   6  19
BRANCH   9  26
ATOM     26  N   UNL     1     -45.537  30.927  22.165  1.00  0.00    -0.388 N 
ATOM     27  H   UNL     1     -44.788  31.413  22.653  1.00  0.00     0.160 HD
BRANCH  26  28
ATOM     28  C   UNL     1     -45.826  31.537  20.880  1.00  0.00     0.003 C 
ATOM     29  H   UNL     1     -46.272  32.530  21.000  1.00  0.00     0.045 H 
ATOM     30  H   UNL     1     -44.892  31.657  20.322  1.00  0.00     0.045 H 
ATOM     31  H   UNL     1     -46.484  30.904  20.275  1.00  0.00     0.045 H 
ENDBRANCH  26  28
ENDBRANCH   9  26
ENDBRANCH   4   5
ENDBRANCH   1   4
BRANCH   1  32
ATOM     32  C   UNL     1     -47.348  36.330  27.476  1.00  0.00     0.010 A 
ATOM     33  C   UNL     1     -46.648  36.022  28.633  1.00  0.00     0.034 A 
ATOM     34  C   UNL     1     -47.144  37.601  26.916  1.00  0.00    -0.028 A 
ATOM     35  N   UNL     1     -45.781  36.863  29.232  1.00  0.00    -0.262 NA
ATOM     36  H   UNL     1     -46.763  35.062  29.132  1.00  0.00     0.084 H 
ATOM     37  C   UNL     1     -46.248  38.506  27.504  1.00  0.00     0.066 A 
ATOM     38  H   UNL     1     -47.709  37.846  26.022  1.00  0.00     0.065 H 
ATOM     39  C   UNL     1     -45.598  38.080  28.656  1.00  0.00     0.051 A 
ATOM     40  H   UNL     1     -44.875  38.681  29.193  1.00  0.00     0.086 H 
BRANCH  37  41
ATOM     41  N   UNL     1     -46.021  39.802  26.933  1.00  0.00    -0.299 N 
ATOM     42  C   UNL     1     -44.793  40.276  26.509  1.00  0.00     0.021 A 
ATOM     43  C   UNL     1     -46.953  40.817  26.695  1.00  0.00     0.150 A 
ATOM     44  C   UNL     1     -44.938  41.546  25.994  1.00  0.00     0.033 A 
ATOM     45  H   UNL     1     -43.888  39.693  26.591  1.00  0.00     0.083 H 
ATOM     46  C   UNL     1     -46.298  41.920  26.144  1.00  0.00     0.071 A 
ATOM     47  N   UNL     1     -48.276  40.759  26.949  1.00  0.00    -0.218 NA
ATOM     48  C   UNL     1     -47.081  43.062  25.897  1.00  0.00     0.137 A 
ATOM     49  C   UNL     1     -48.921  41.889  26.640  1.00  0.00     0.120 A 
ATOM     50  N   UNL     1     -48.401  43.022  26.147  1.00  0.00    -0.219 NA
ATOM     51  H   UNL     1     -49.992  41.893  26.816  1.00  0.00     0.106 H 
BRANCH  44  52
ATOM     52  C   UNL     1     -43.859  42.339  25.414  1.00  0.00     0.095 A 
ATOM     53  C   UNL     1     -42.704  42.774  26.097  1.00  0.00    -0.016 A 
ATOM     54  N   UNL     1     -43.898  42.795  24.156  1.00  0.00    -0.173 NA
ATOM     55  C   UNL     1     -42.004  43.512  25.171  1.00  0.00     0.025 A 
ATOM     56  H   UNL     1     -42.423  42.584  27.124  1.00  0.00     0.066 H 
ATOM     57  N   UNL     1     -42.757  43.495  24.033  1.00  0.00    -0.275 N 
ATOM     58  H   UNL     1     -41.063  44.041  25.232  1.00  0.00     0.084 H 
BRANCH  57  59
ATOM     59  C   UNL     1     -42.452  44.141  22.780  1.00  0.00     0.030 C 
ATOM     60  H   UNL     1     -41.761  44.965  22.977  1.00  0.00     0.048 H 
ATOM     61  H   UNL     1     -43.373  44.524  22.334  1.00  0.00     0.048 H 
ATOM     62  H   UNL     1     -41.993  43.404  22.115  1.00  0.00     0.048 H 
ENDBRANCH  57  59
ENDBRANCH  44  52
BRANCH  48  63
ATOM     63  N   UNL     1     -46.588  44.278  25.441  1.00  0.00    -0.383 N 
ATOM     64  H   UNL     1     -46.169  44.227  24.519  1.00  0.00     0.158 HD
ATOM     65  H   UNL     1     -46.001  44.695  26.156  1.00  0.00     0.158 HD
ENDBRANCH  48  63
ENDBRANCH  37  41
ENDBRANCH   1  32
TORSDOF 11
ENDMDL
MODEL 4
REMARK VINA RESULT:      -9.9      2.008     12.375
REMARK SMILES CCc1cc(NC)c2ccc(OCc3cncc(-n4cc(-c5ccn(C)n5)c5c(N)ncnc54)c3)cc2n1
REMARK SMILES IDX 13 1 12 4 11 5 3 6 4 7 38 8 5 9 37 11 8 12 36 13 9 14 10 16
REMARK SMILES IDX 2 19 1 22 6 26 7 28 14 32 15 33 35 34 16 35 18 37 17 39
REMARK SMILES IDX 19 41 20 42 34 43 21 44 28 46 33 47 29 48 32 49 31 50 22 52
REMARK SMILES IDX 23 53 27 54 24 55 25 57 26 59 30 63
REMARK H PARENT 13 2 13 3 4 10 36 15 9 17 10 18 2 20 2 21 1 23 1 24 1 25 6 27
REMARK H PARENT 7 29 7 30 7 31 15 36 35 38 17 40 20 45 32 51 23 56 24 58 26 60
REMARK H PARENT 26 61 26 62 30 64 30 65
REMARK Flexibility Score: inf
ROOT
ATOM      1  C   UNL     1     -46.164  35.073  26.813  1.00  0.00     0.115 C 
ATOM      2  H   UNL     1     -45.834  35.553  25.883  1.00  0.00     0.076 H 
ATOM      3  H   UNL     1     -45.415  34.341  27.141  1.00  0.00     0.076 H 
ENDROOT
BRANCH   1   4
ATOM      4  O   UNL     1     -46.358  36.044  27.841  1.00  0.00    -0.489 OA
BRANCH   4   5
ATOM      5  C   UNL     1     -45.979  37.328  27.567  1.00  0.00     0.122 A 
ATOM      6  C   UNL     1     -43.314  41.206  28.175  1.00  0.00     0.043 A 
ATOM      7  C   UNL     1     -43.995  41.930  27.204  1.00  0.00    -0.017 A 
ATOM      8  N   UNL     1     -43.605  39.920  28.461  1.00  0.00    -0.253 NA
ATOM      9  C   UNL     1     -45.016  41.322  26.470  1.00  0.00     0.045 A 
ATOM     10  H   UNL     1     -43.707  42.959  27.028  1.00  0.00     0.066 H 
ATOM     11  C   UNL     1     -44.620  39.333  27.814  1.00  0.00     0.076 A 
ATOM     12  C   UNL     1     -45.379  39.989  26.818  1.00  0.00     0.024 A 
ATOM     13  C   UNL     1     -44.927  38.022  28.162  1.00  0.00     0.007 A 
ATOM     14  C   UNL     1     -46.456  39.282  26.232  1.00  0.00    -0.047 A 
ATOM     15  H   UNL     1     -44.308  37.566  28.928  1.00  0.00     0.069 H 
ATOM     16  C   UNL     1     -46.747  37.968  26.602  1.00  0.00    -0.019 A 
ATOM     17  H   UNL     1     -47.095  39.754  25.492  1.00  0.00     0.063 H 
ATOM     18  H   UNL     1     -47.581  37.447  26.137  1.00  0.00     0.066 H 
BRANCH   6  19
ATOM     19  C   UNL     1     -42.181  41.834  28.943  1.00  0.00    -0.013 C 
ATOM     20  H   UNL     1     -42.536  42.754  29.422  1.00  0.00     0.033 H 
ATOM     21  H   UNL     1     -41.381  42.130  28.254  1.00  0.00     0.033 H 
BRANCH  19  22
ATOM     22  C   UNL     1     -41.635  40.891  30.004  1.00  0.00    -0.060 C 
ATOM     23  H   UNL     1     -41.552  41.389  30.976  1.00  0.00     0.023 H 
ATOM     24  H   UNL     1     -42.298  40.028  30.122  1.00  0.00     0.023 H 
ATOM     25  H   UNL     1     -40.641  40.520  29.732  1.00  0.00     0.023 H 
ENDBRANCH  19  22
ENDBRANCH   6  19
BRANCH   9  26
ATOM     26  N   UNL     1     -45.754  42.026  25.497  1.00  0.00    -0.388 N 
ATOM     27  H   UNL     1     -45.980  41.426  24.707  1.00  0.00     0.160 HD
BRANCH  26  28
ATOM     28  C   UNL     1     -45.325  43.345  25.064  1.00  0.00     0.003 C 
ATOM     29  H   UNL     1     -46.153  44.062  25.089  1.00  0.00     0.045 H 
ATOM     30  H   UNL     1     -44.548  43.708  25.743  1.00  0.00     0.045 H 
ATOM     31  H   UNL     1     -44.888  43.313  24.061  1.00  0.00     0.045 H 
ENDBRANCH  26  28
ENDBRANCH   9  26
ENDBRANCH   4   5
ENDBRANCH   1   4
BRANCH   1  32
ATOM     32  C   UNL     1     -47.471  34.377  26.541  1.00  0.00     0.010 A 
ATOM     33  C   UNL     1     -48.675  34.974  26.884  1.00  0.00     0.034 A 
ATOM     34  C   UNL     1     -47.523  33.088  25.988  1.00  0.00    -0.028 A 
ATOM     35  N   UNL     1     -49.879  34.394  26.703  1.00  0.00    -0.262 NA
ATOM     36  H   UNL     1     -48.715  35.965  27.329  1.00  0.00     0.084 H 
ATOM     37  C   UNL     1     -48.754  32.448  25.778  1.00  0.00     0.066 A 
ATOM     38  H   UNL     1     -46.578  32.616  25.739  1.00  0.00     0.065 H 
ATOM     39  C   UNL     1     -49.893  33.150  26.154  1.00  0.00     0.051 A 
ATOM     40  H   UNL     1     -50.899  32.770  26.030  1.00  0.00     0.086 H 
BRANCH  37  41
ATOM     41  N   UNL     1     -48.819  31.137  25.202  1.00  0.00    -0.299 N 
ATOM     42  C   UNL     1     -48.742  29.954  25.915  1.00  0.00     0.021 A 
ATOM     43  C   UNL     1     -48.970  30.790  23.856  1.00  0.00     0.150 A 
ATOM     44  C   UNL     1     -48.862  28.885  25.055  1.00  0.00     0.033 A 
ATOM     45  H   UNL     1     -48.610  29.932  26.987  1.00  0.00     0.083 H 
ATOM     46  C   UNL     1     -48.964  29.399  23.737  1.00  0.00     0.071 A 
ATOM     47  N   UNL     1     -49.100  31.647  22.822  1.00  0.00    -0.218 NA
ATOM     48  C   UNL     1     -49.044  28.875  22.435  1.00  0.00     0.137 A 
ATOM     49  C   UNL     1     -49.204  31.033  21.639  1.00  0.00     0.120 A 
ATOM     50  N   UNL     1     -49.173  29.715  21.393  1.00  0.00    -0.219 NA
ATOM     51  H   UNL     1     -49.321  31.677  20.773  1.00  0.00     0.106 H 
BRANCH  44  52
ATOM     52  C   UNL     1     -48.868  27.483  25.462  1.00  0.00     0.095 A 
ATOM     53  C   UNL     1     -49.999  26.639  25.474  1.00  0.00    -0.016 A 
ATOM     54  N   UNL     1     -47.779  26.868  25.936  1.00  0.00    -0.173 NA
ATOM     55  C   UNL     1     -49.536  25.438  25.962  1.00  0.00     0.025 A 
ATOM     56  H   UNL     1     -51.011  26.872  25.176  1.00  0.00     0.066 H 
ATOM     57  N   UNL     1     -48.210  25.627  26.223  1.00  0.00    -0.275 N 
ATOM     58  H   UNL     1     -50.032  24.496  26.148  1.00  0.00     0.084 H 
BRANCH  57  59
ATOM     59  C   UNL     1     -47.285  24.661  26.764  1.00  0.00     0.030 C 
ATOM     60  H   UNL     1     -46.947  24.016  25.949  1.00  0.00     0.048 H 
ATOM     61  H   UNL     1     -47.787  24.065  27.529  1.00  0.00     0.048 H 
ATOM     62  H   UNL     1     -46.442  25.200  27.204  1.00  0.00     0.048 H 
ENDBRANCH  57  59
ENDBRANCH  44  52
BRANCH  48  63
ATOM     63  N   UNL     1     -48.961  27.525  22.117  1.00  0.00    -0.383 N 
ATOM     64  H   UNL     1     -48.644  27.348  21.171  1.00  0.00     0.158 HD
ATOM     65  H   UNL     1     -49.827  27.063  22.373  1.00  0.00     0.158 HD
ENDBRANCH  48  63
ENDBRANCH  37  41
ENDBRANCH   1  32
TORSDOF 11
ENDMDL
MODEL 5
REMARK VINA RESULT:      -9.8      1.348      2.196
REMARK SMILES CCc1cc(NC)c2ccc(OCc3cncc(-n4cc(-c5ccn(C)n5)c5c(N)ncnc54)c3)cc2n1
REMARK SMILES IDX 13 1 12 4 11 5 3 6 4 7 38 8 5 9 37 11 8 12 36 13 9 14 10 16
REMARK SMILES IDX 2 19 1 22 6 26 7 28 14 32 15 33 35 34 16 35 18 37 17 39
REMARK SMILES IDX 19 41 20 42 34 43 21 44 28 46 33 47 29 48 32 49 31 50 22 52
REMARK SMILES IDX 23 53 27 54 24 55 25 57 26 59 30 63
REMARK H PARENT 13 2 13 3 4 10 36 15 9 17 10 18 2 20 2 21 1 23 1 24 1 25 6 27
REMARK H PARENT 7 29 7 30 7 31 15 36 35 38 17 40 20 45 32 51 23 56 24 58 26 60
REMARK H PARENT 26 61 26 62 30 64 30 65
REMARK Flexibility Score: inf
ROOT
ATOM      1  C   UNL     1     -47.870  35.503  26.849  1.00  0.00     0.115 C 
ATOM      2  H   UNL     1     -47.619  35.697  25.799  1.00  0.00     0.076 H 
ATOM      3  H   UNL     1     -48.912  35.785  27.042  1.00  0.00     0.076 H 
ENDROOT
BRANCH   1   4
ATOM      4  O   UNL     1     -47.686  34.123  27.165  1.00  0.00    -0.489 OA
BRANCH   4   5
ATOM      5  C   UNL     1     -47.882  33.220  26.158  1.00  0.00     0.122 A 
ATOM      6  C   UNL     1     -46.444  30.400  22.625  1.00  0.00     0.043 A 
ATOM      7  C   UNL     1     -47.732  29.965  22.333  1.00  0.00    -0.017 A 
ATOM      8  N   UNL     1     -46.175  31.251  23.636  1.00  0.00    -0.253 NA
ATOM      9  C   UNL     1     -48.806  30.401  23.112  1.00  0.00     0.045 A 
ATOM     10  H   UNL     1     -47.873  29.281  21.506  1.00  0.00     0.066 H 
ATOM     11  C   UNL     1     -47.196  31.731  24.358  1.00  0.00     0.076 A 
ATOM     12  C   UNL     1     -48.540  31.358  24.133  1.00  0.00     0.024 A 
ATOM     13  C   UNL     1     -46.892  32.643  25.364  1.00  0.00     0.007 A 
ATOM     14  C   UNL     1     -49.539  31.963  24.932  1.00  0.00    -0.047 A 
ATOM     15  H   UNL     1     -45.844  32.888  25.497  1.00  0.00     0.069 H 
ATOM     16  C   UNL     1     -49.210  32.879  25.933  1.00  0.00    -0.019 A 
ATOM     17  H   UNL     1     -50.590  31.742  24.773  1.00  0.00     0.063 H 
ATOM     18  H   UNL     1     -49.997  33.331  26.533  1.00  0.00     0.066 H 
BRANCH   6  19
ATOM     19  C   UNL     1     -45.269  29.903  21.823  1.00  0.00    -0.013 C 
ATOM     20  H   UNL     1     -44.526  30.704  21.739  1.00  0.00     0.033 H 
ATOM     21  H   UNL     1     -45.588  29.665  20.801  1.00  0.00     0.033 H 
BRANCH  19  22
ATOM     22  C   UNL     1     -44.628  28.684  22.469  1.00  0.00    -0.060 C 
ATOM     23  H   UNL     1     -43.938  28.185  21.779  1.00  0.00     0.023 H 
ATOM     24  H   UNL     1     -44.062  28.981  23.357  1.00  0.00     0.023 H 
ATOM     25  H   UNL     1     -45.384  27.954  22.775  1.00  0.00     0.023 H 
ENDBRANCH  19  22
ENDBRANCH   6  19
BRANCH   9  26
ATOM     26  N   UNL     1     -50.132  30.011  22.835  1.00  0.00    -0.388 N 
ATOM     27  H   UNL     1     -50.240  29.003  22.917  1.00  0.00     0.160 HD
BRANCH  26  28
ATOM     28  C   UNL     1     -50.821  30.531  21.666  1.00  0.00     0.003 C 
ATOM     29  H   UNL     1     -50.177  31.205  21.090  1.00  0.00     0.045 H 
ATOM     30  H   UNL     1     -51.098  29.696  21.014  1.00  0.00     0.045 H 
ATOM     31  H   UNL     1     -51.746  31.046  21.944  1.00  0.00     0.045 H 
ENDBRANCH  26  28
ENDBRANCH   9  26
ENDBRANCH   4   5
ENDBRANCH   1   4
BRANCH   1  32
ATOM     32  C   UNL     1     -46.952  36.331  27.708  1.00  0.00     0.010 A 
ATOM     33  C   UNL     1     -46.667  35.950  29.012  1.00  0.00     0.034 A 
ATOM     34  C   UNL     1     -46.398  37.537  27.252  1.00  0.00    -0.028 A 
ATOM     35  N   UNL     1     -45.884  36.662  29.848  1.00  0.00    -0.262 NA
ATOM     36  H   UNL     1     -47.070  35.035  29.440  1.00  0.00     0.084 H 
ATOM     37  C   UNL     1     -45.574  38.308  28.087  1.00  0.00     0.066 A 
ATOM     38  H   UNL     1     -46.639  37.843  26.239  1.00  0.00     0.065 H 
ATOM     39  C   UNL     1     -45.354  37.818  29.369  1.00  0.00     0.051 A 
ATOM     40  H   UNL     1     -44.728  38.313  30.100  1.00  0.00     0.086 H 
BRANCH  37  41
ATOM     41  N   UNL     1     -44.992  39.534  27.627  1.00  0.00    -0.299 N 
ATOM     42  C   UNL     1     -45.395  40.228  26.500  1.00  0.00     0.021 A 
ATOM     43  C   UNL     1     -43.940  40.259  28.196  1.00  0.00     0.150 A 
ATOM     44  C   UNL     1     -44.641  41.373  26.364  1.00  0.00     0.033 A 
ATOM     45  H   UNL     1     -46.191  39.879  25.859  1.00  0.00     0.083 H 
ATOM     46  C   UNL     1     -43.683  41.385  27.410  1.00  0.00     0.071 A 
ATOM     47  N   UNL     1     -43.269  39.939  29.320  1.00  0.00    -0.218 NA
ATOM     48  C   UNL     1     -42.606  42.199  27.806  1.00  0.00     0.137 A 
ATOM     49  C   UNL     1     -42.294  40.805  29.616  1.00  0.00     0.120 A 
ATOM     50  N   UNL     1     -41.926  41.893  28.925  1.00  0.00    -0.219 NA
ATOM     51  H   UNL     1     -41.727  40.599  30.519  1.00  0.00     0.106 H 
BRANCH  44  52
ATOM     52  C   UNL     1     -44.816  42.369  25.312  1.00  0.00     0.095 A 
ATOM     53  C   UNL     1     -44.005  42.500  24.166  1.00  0.00    -0.016 A 
ATOM     54  N   UNL     1     -45.756  43.319  25.371  1.00  0.00    -0.173 NA
ATOM     55  C   UNL     1     -44.520  43.584  23.492  1.00  0.00     0.025 A 
ATOM     56  H   UNL     1     -43.157  41.896  23.873  1.00  0.00     0.066 H 
ATOM     57  N   UNL     1     -45.559  44.036  24.252  1.00  0.00    -0.275 N 
ATOM     58  H   UNL     1     -44.232  44.062  22.567  1.00  0.00     0.084 H 
BRANCH  57  59
ATOM     59  C   UNL     1     -46.412  45.166  23.973  1.00  0.00     0.030 C 
ATOM     60  H   UNL     1     -46.925  44.984  23.026  1.00  0.00     0.048 H 
ATOM     61  H   UNL     1     -45.804  46.071  23.900  1.00  0.00     0.048 H 
ATOM     62  H   UNL     1     -47.132  45.264  24.789  1.00  0.00     0.048 H 
ENDBRANCH  57  59
ENDBRANCH  44  52
BRANCH  48  63
ATOM     63  N   UNL     1     -42.146  43.303  27.100  1.00  0.00    -0.383 N 
ATOM     64  H   UNL     1     -41.747  43.073  26.198  1.00  0.00     0.158 HD
ATOM     65  H   UNL     1     -41.552  43.865  27.701  1.00  0.00     0.158 HD
ENDBRANCH  48  63
ENDBRANCH  37  41
ENDBRANCH   1  32
TORSDOF 11
ENDMDL
MODEL 6
REMARK VINA RESULT:      -9.6      1.716     12.019
REMARK SMILES CCc1cc(NC)c2ccc(OCc3cncc(-n4cc(-c5ccn(C)n5)c5c(N)ncnc54)c3)cc2n1
REMARK SMILES IDX 13 1 12 4 11 5 3 6 4 7 38 8 5 9 37 11 8 12 36 13 9 14 10 16
REMARK SMILES IDX 2 19 1 22 6 26 7 28 14 32 15 33 35 34 16 35 18 37 17 39
REMARK SMILES IDX 19 41 20 42 34 43 21 44 28 46 33 47 29 48 32 49 31 50 22 52
REMARK SMILES IDX 23 53 27 54 24 55 25 57 26 59 30 63
REMARK H PARENT 13 2 13 3 4 10 36 15 9 17 10 18 2 20 2 21 1 23 1 24 1 25 6 27
REMARK H PARENT 7 29 7 30 7 31 15 36 35 38 17 40 20 45 32 51 23 56 24 58 26 60
REMARK H PARENT 26 61 26 62 30 64 30 65
REMARK Flexibility Score: inf
ROOT
ATOM      1  C   UNL     1     -47.193  36.548  26.354  1.00  0.00     0.115 C 
ATOM      2  H   UNL     1     -48.221  36.645  25.984  1.00  0.00     0.076 H 
ATOM      3  H   UNL     1     -46.485  36.856  25.574  1.00  0.00     0.076 H 
ENDROOT
BRANCH   1   4
ATOM      4  O   UNL     1     -46.998  37.355  27.516  1.00  0.00    -0.489 OA
BRANCH   4   5
ATOM      5  C   UNL     1     -46.334  38.538  27.351  1.00  0.00     0.122 A 
ATOM      6  C   UNL     1     -42.848  41.628  28.247  1.00  0.00     0.043 A 
ATOM      7  C   UNL     1     -43.345  42.577  27.361  1.00  0.00    -0.017 A 
ATOM      8  N   UNL     1     -43.426  40.422  28.421  1.00  0.00    -0.253 NA
ATOM      9  C   UNL     1     -44.480  42.290  26.599  1.00  0.00     0.045 A 
ATOM     10  H   UNL     1     -42.828  43.525  27.273  1.00  0.00     0.066 H 
ATOM     11  C   UNL     1     -44.550  40.147  27.747  1.00  0.00     0.076 A 
ATOM     12  C   UNL     1     -45.139  41.049  26.832  1.00  0.00     0.024 A 
ATOM     13  C   UNL     1     -45.149  38.914  27.982  1.00  0.00     0.007 A 
ATOM     14  C   UNL     1     -46.351  40.665  26.210  1.00  0.00    -0.047 A 
ATOM     15  H   UNL     1     -44.651  38.259  28.689  1.00  0.00     0.069 H 
ATOM     16  C   UNL     1     -46.936  39.424  26.465  1.00  0.00    -0.019 A 
ATOM     17  H   UNL     1     -46.865  41.338  25.530  1.00  0.00     0.063 H 
ATOM     18  H   UNL     1     -47.867  39.154  25.975  1.00  0.00     0.066 H 
BRANCH   6  19
ATOM     19  C   UNL     1     -41.599  41.905  29.042  1.00  0.00    -0.013 C 
ATOM     20  H   UNL     1     -41.641  42.928  29.434  1.00  0.00     0.033 H 
ATOM     21  H   UNL     1     -40.720  41.859  28.388  1.00  0.00     0.033 H 
BRANCH  19  22
ATOM     22  C   UNL     1     -41.444  40.928  30.197  1.00  0.00    -0.060 C 
ATOM     23  H   UNL     1     -42.342  40.905  30.823  1.00  0.00     0.023 H 
ATOM     24  H   UNL     1     -41.272  39.916  29.816  1.00  0.00     0.023 H 
ATOM     25  H   UNL     1     -40.596  41.199  30.835  1.00  0.00     0.023 H 
ENDBRANCH  19  22
ENDBRANCH   6  19
BRANCH   9  26
ATOM     26  N   UNL     1     -45.037  43.232  25.711  1.00  0.00    -0.388 N 
ATOM     27  H   UNL     1     -46.053  43.240  25.779  1.00  0.00     0.160 HD
BRANCH  26  28
ATOM     28  C   UNL     1     -44.592  43.291  24.329  1.00  0.00     0.003 C 
ATOM     29  H   UNL     1     -45.434  43.210  23.634  1.00  0.00     0.045 H 
ATOM     30  H   UNL     1     -44.103  44.254  24.152  1.00  0.00     0.045 H 
ATOM     31  H   UNL     1     -43.854  42.510  24.114  1.00  0.00     0.045 H 
ENDBRANCH  26  28
ENDBRANCH   9  26
ENDBRANCH   4   5
ENDBRANCH   1   4
BRANCH   1  32
ATOM     32  C   UNL     1     -46.960  35.105  26.712  1.00  0.00     0.010 A 
ATOM     33  C   UNL     1     -46.244  34.765  27.851  1.00  0.00     0.034 A 
ATOM     34  C   UNL     1     -47.401  34.057  25.890  1.00  0.00    -0.028 A 
ATOM     35  N   UNL     1     -45.966  33.496  28.212  1.00  0.00    -0.262 NA
ATOM     36  H   UNL     1     -45.858  35.522  28.530  1.00  0.00     0.084 H 
ATOM     37  C   UNL     1     -47.139  32.721  26.229  1.00  0.00     0.066 A 
ATOM     38  H   UNL     1     -47.943  34.327  24.989  1.00  0.00     0.065 H 
ATOM     39  C   UNL     1     -46.420  32.505  27.399  1.00  0.00     0.051 A 
ATOM     40  H   UNL     1     -46.167  31.522  27.774  1.00  0.00     0.086 H 
BRANCH  37  41
ATOM     41  N   UNL     1     -47.596  31.642  25.404  1.00  0.00    -0.299 N 
ATOM     42  C   UNL     1     -48.559  30.719  25.769  1.00  0.00     0.021 A 
ATOM     43  C   UNL     1     -47.184  31.309  24.109  1.00  0.00     0.150 A 
ATOM     44  C   UNL     1     -48.774  29.836  24.733  1.00  0.00     0.033 A 
ATOM     45  H   UNL     1     -49.040  30.737  26.735  1.00  0.00     0.083 H 
ATOM     46  C   UNL     1     -47.877  30.172  23.687  1.00  0.00     0.071 A 
ATOM     47  N   UNL     1     -46.267  31.966  23.371  1.00  0.00    -0.218 NA
ATOM     48  C   UNL     1     -47.537  29.659  22.422  1.00  0.00     0.137 A 
ATOM     49  C   UNL     1     -46.056  31.408  22.175  1.00  0.00     0.120 A 
ATOM     50  N   UNL     1     -46.624  30.302  21.674  1.00  0.00    -0.219 NA
ATOM     51  H   UNL     1     -45.332  31.904  21.535  1.00  0.00     0.106 H 
BRANCH  44  52
ATOM     52  C   UNL     1     -49.751  28.753  24.749  1.00  0.00     0.095 A 
ATOM     53  C   UNL     1     -50.877  28.654  23.904  1.00  0.00    -0.016 A 
ATOM     54  N   UNL     1     -49.702  27.753  25.636  1.00  0.00    -0.173 NA
ATOM     55  C   UNL     1     -51.517  27.504  24.305  1.00  0.00     0.025 A 
ATOM     56  H   UNL     1     -51.186  29.330  23.119  1.00  0.00     0.066 H 
ATOM     57  N   UNL     1     -50.779  27.006  25.338  1.00  0.00    -0.275 N 
ATOM     58  H   UNL     1     -52.418  27.020  23.954  1.00  0.00     0.084 H 
BRANCH  57  59
ATOM     59  C   UNL     1     -51.051  25.814  26.105  1.00  0.00     0.030 C 
ATOM     60  H   UNL     1     -50.124  25.241  26.190  1.00  0.00     0.048 H 
ATOM     61  H   UNL     1     -51.813  25.219  25.596  1.00  0.00     0.048 H 
ATOM     62  H   UNL     1     -51.411  26.115  27.093  1.00  0.00     0.048 H 
ENDBRANCH  57  59
ENDBRANCH  44  52
BRANCH  48  63
ATOM     63  N   UNL     1     -48.052  28.489  21.878  1.00  0.00    -0.383 N 
ATOM     64  H   UNL     1     -48.945  28.215  22.270  1.00  0.00     0.158 HD
ATOM     65  H   UNL     1     -47.338  27.768  21.890  1.00  0.00     0.158 HD
ENDBRANCH  48  63
ENDBRANCH  37  41
ENDBRANCH   1  32
TORSDOF 11
ENDMDL
MODEL 7
REMARK VINA RESULT:      -9.5      2.127     12.427
REMARK SMILES CCc1cc(NC)c2ccc(OCc3cncc(-n4cc(-c5ccn(C)n5)c5c(N)ncnc54)c3)cc2n1
REMARK SMILES IDX 13 1 12 4 11 5 3 6 4 7 38 8 5 9 37 11 8 12 36 13 9 14 10 16
REMARK SMILES IDX 2 19 1 22 6 26 7 28 14 32 15 33 35 34 16 35 18 37 17 39
REMARK SMILES IDX 19 41 20 42 34 43 21 44 28 46 33 47 29 48 32 49 31 50 22 52
REMARK SMILES IDX 23 53 27 54 24 55 25 57 26 59 30 63
REMARK H PARENT 13 2 13 3 4 10 36 15 9 17 10 18 2 20 2 21 1 23 1 24 1 25 6 27
REMARK H PARENT 7 29 7 30 7 31 15 36 35 38 17 40 20 45 32 51 23 56 24 58 26 60
REMARK H PARENT 26 61 26 62 30 64 30 65
REMARK Flexibility Score: inf
ROOT
ATOM      1  C   UNL     1     -48.229  35.464  27.583  1.00  0.00     0.115 C 
ATOM      2  H   UNL     1     -47.557  35.443  28.451  1.00  0.00     0.076 H 
ATOM      3  H   UNL     1     -49.250  35.212  27.895  1.00  0.00     0.076 H 
ENDROOT
BRANCH   1   4
ATOM      4  O   UNL     1     -48.225  36.755  26.974  1.00  0.00    -0.489 OA
BRANCH   4   5
ATOM      5  C   UNL     1     -47.190  37.591  27.289  1.00  0.00     0.122 A 
ATOM      6  C   UNL     1     -44.235  41.210  26.467  1.00  0.00     0.043 A 
ATOM      7  C   UNL     1     -43.545  41.029  27.660  1.00  0.00    -0.017 A 
ATOM      8  N   UNL     1     -45.295  40.452  26.117  1.00  0.00    -0.253 NA
ATOM      9  C   UNL     1     -43.955  40.041  28.558  1.00  0.00     0.045 A 
ATOM     10  H   UNL     1     -42.703  41.675  27.875  1.00  0.00     0.066 H 
ATOM     11  C   UNL     1     -45.670  39.458  26.934  1.00  0.00     0.076 A 
ATOM     12  C   UNL     1     -45.027  39.189  28.163  1.00  0.00     0.024 A 
ATOM     13  C   UNL     1     -46.736  38.665  26.525  1.00  0.00     0.007 A 
ATOM     14  C   UNL     1     -45.483  38.085  28.922  1.00  0.00    -0.047 A 
ATOM     15  H   UNL     1     -47.196  38.921  25.577  1.00  0.00     0.069 H 
ATOM     16  C   UNL     1     -46.553  37.301  28.489  1.00  0.00    -0.019 A 
ATOM     17  H   UNL     1     -44.997  37.811  29.854  1.00  0.00     0.063 H 
ATOM     18  H   UNL     1     -46.884  36.458  29.090  1.00  0.00     0.066 H 
BRANCH   6  19
ATOM     19  C   UNL     1     -43.833  42.301  25.509  1.00  0.00    -0.013 C 
ATOM     20  H   UNL     1     -44.641  43.039  25.445  1.00  0.00     0.033 H 
ATOM     21  H   UNL     1     -43.710  41.887  24.501  1.00  0.00     0.033 H 
BRANCH  19  22
ATOM     22  C   UNL     1     -42.552  42.990  25.952  1.00  0.00    -0.060 C 
ATOM     23  H   UNL     1     -42.739  44.030  26.242  1.00  0.00     0.023 H 
ATOM     24  H   UNL     1     -42.121  42.470  26.815  1.00  0.00     0.023 H 
ATOM     25  H   UNL     1     -41.806  42.993  25.151  1.00  0.00     0.023 H 
ENDBRANCH  19  22
ENDBRANCH   6  19
BRANCH   9  26
ATOM     26  N   UNL     1     -43.269  39.802  29.766  1.00  0.00    -0.388 N 
ATOM     27  H   UNL     1     -43.896  39.881  30.563  1.00  0.00     0.160 HD
BRANCH  26  28
ATOM     28  C   UNL     1     -41.991  40.444  30.022  1.00  0.00     0.003 C 
ATOM     29  H   UNL     1     -42.062  41.532  29.915  1.00  0.00     0.045 H 
ATOM     30  H   UNL     1     -41.683  40.229  31.050  1.00  0.00     0.045 H 
ATOM     31  H   UNL     1     -41.209  40.054  29.363  1.00  0.00     0.045 H 
ENDBRANCH  26  28
ENDBRANCH   9  26
ENDBRANCH   4   5
ENDBRANCH   1   4
BRANCH   1  32
ATOM     32  C   UNL     1     -47.736  34.449  26.587  1.00  0.00     0.010 A 
ATOM     33  C   UNL     1     -46.590  34.686  25.842  1.00  0.00     0.034 A 
ATOM     34  C   UNL     1     -48.439  33.261  26.331  1.00  0.00    -0.028 A 
ATOM     35  N   UNL     1     -46.113  33.839  24.908  1.00  0.00    -0.262 NA
ATOM     36  H   UNL     1     -46.000  35.590  25.974  1.00  0.00     0.084 H 
ATOM     37  C   UNL     1     -47.976  32.348  25.371  1.00  0.00     0.066 A 
ATOM     38  H   UNL     1     -49.346  33.088  26.901  1.00  0.00     0.065 H 
ATOM     39  C   UNL     1     -46.811  32.692  24.695  1.00  0.00     0.051 A 
ATOM     40  H   UNL     1     -46.348  32.066  23.943  1.00  0.00     0.086 H 
BRANCH  37  41
ATOM     41  N   UNL     1     -48.678  31.126  25.111  1.00  0.00    -0.299 N 
ATOM     42  C   UNL     1     -48.341  29.892  25.638  1.00  0.00     0.021 A 
ATOM     43  C   UNL     1     -49.804  30.929  24.305  1.00  0.00     0.150 A 
ATOM     44  C   UNL     1     -49.236  28.940  25.201  1.00  0.00     0.033 A 
ATOM     45  H   UNL     1     -47.493  29.754  26.292  1.00  0.00     0.083 H 
ATOM     46  C   UNL     1     -50.146  29.575  24.319  1.00  0.00     0.071 A 
ATOM     47  N   UNL     1     -50.466  31.880  23.616  1.00  0.00    -0.218 NA
ATOM     48  C   UNL     1     -51.227  29.188  23.506  1.00  0.00     0.137 A 
ATOM     49  C   UNL     1     -51.495  31.399  22.910  1.00  0.00     0.120 A 
ATOM     50  N   UNL     1     -51.897  30.124  22.811  1.00  0.00    -0.219 NA
ATOM     51  H   UNL     1     -52.069  32.126  22.344  1.00  0.00     0.106 H 
BRANCH  44  52
ATOM     52  C   UNL     1     -49.214  27.533  25.590  1.00  0.00     0.095 A 
ATOM     53  C   UNL     1     -50.350  26.741  25.862  1.00  0.00    -0.016 A 
ATOM     54  N   UNL     1     -48.075  26.861  25.792  1.00  0.00    -0.173 NA
ATOM     55  C   UNL     1     -49.844  25.513  26.220  1.00  0.00     0.025 A 
ATOM     56  H   UNL     1     -51.392  27.026  25.811  1.00  0.00     0.066 H 
ATOM     57  N   UNL     1     -48.487  25.636  26.164  1.00  0.00    -0.275 N 
ATOM     58  H   UNL     1     -50.327  24.591  26.513  1.00  0.00     0.084 H 
BRANCH  57  59
ATOM     59  C   UNL     1     -47.508  24.620  26.467  1.00  0.00     0.030 C 
ATOM     60  H   UNL     1     -47.727  23.740  25.856  1.00  0.00     0.048 H 
ATOM     61  H   UNL     1     -47.566  24.363  27.527  1.00  0.00     0.048 H 
ATOM     62  H   UNL     1     -46.517  25.016  26.232  1.00  0.00     0.048 H 
ENDBRANCH  57  59
ENDBRANCH  44  52
BRANCH  48  63
ATOM     63  N   UNL     1     -51.651  27.878  23.322  1.00  0.00    -0.383 N 
ATOM     64  H   UNL     1     -51.445  27.508  22.402  1.00  0.00     0.158 HD
ATOM     65  H   UNL     1     -52.620  27.792  23.612  1.00  0.00     0.158 HD
ENDBRANCH  48  63
ENDBRANCH  37  41
ENDBRANCH   1  32
TORSDOF 11
ENDMDL
