MODEL 1
REMARK VINA RESULT:     -10.6      0.000      0.000
REMARK SMILES Cn1ccc(-c2cn([C@@H]3O[C@H](COc4ccc5ccc(N6CC(O)C6)nc5c4)[C@@H](O)[C@@H]3F)c3ncnc(N)c23)n1
REMARK SMILES IDX 12 1 11 4 9 5 10 6 31 7 29 9 32 10 8 14 6 15 7 16 39 17
REMARK SMILES IDX 33 19 37 20 34 21 36 22 35 23 5 25 2 26 3 27 40 28 4 29 1 32
REMARK SMILES IDX 38 36 30 39 13 41 14 42 15 43 28 44 16 45 27 47 17 49 26 51
REMARK SMILES IDX 18 52 20 53 19 54 21 57 22 58 25 59 23 60 24 66
REMARK H PARENT 12 2 12 3 9 8 31 11 11 12 29 13 7 18 35 24 3 30 4 31 1 33 1 34
REMARK H PARENT 1 35 38 37 38 38 30 40 15 46 28 48 16 50 18 55 19 56 22 61
REMARK H PARENT 22 62 25 63 25 64 23 65 24 67
REMARK Flexibility Score: inf
ROOT
ATOM      1  C   UNL     1     -46.162  34.310  26.260  1.00  0.00     0.117 C 
ATOM      2  H   UNL     1     -45.416  34.945  25.768  1.00  0.00     0.073 H 
ATOM      3  H   UNL     1     -45.646  33.382  26.530  1.00  0.00     0.073 H 
ENDROOT
BRANCH   1   4
ATOM      4  C   UNL     1     -46.745  34.946  27.524  1.00  0.00     0.123 C 
ATOM      5  C   UNL     1     -46.439  36.862  28.812  1.00  0.00     0.169 C 
ATOM      6  O   UNL     1     -45.752  35.751  28.196  1.00  0.00    -0.345 OA
ATOM      7  C   UNL     1     -47.912  36.780  28.426  1.00  0.00     0.173 C 
ATOM      8  H   UNL     1     -46.341  36.729  29.896  1.00  0.00     0.088 H 
ATOM      9  C   UNL     1     -47.912  35.874  27.216  1.00  0.00     0.119 C 
ATOM     10  F   UNL     1     -48.468  37.976  28.126  1.00  0.00    -0.239 F 
ATOM     11  H   UNL     1     -48.501  36.339  29.239  1.00  0.00     0.074 H 
ATOM     12  H   UNL     1     -47.051  34.167  28.232  1.00  0.00     0.067 H 
ATOM     13  H   UNL     1     -47.764  36.442  26.293  1.00  0.00     0.066 H 
BRANCH   5  14
ATOM     14  N   UNL     1     -45.754  38.099  28.475  1.00  0.00    -0.302 N 
ATOM     15  C   UNL     1     -45.270  40.003  27.418  1.00  0.00     0.033 A 
ATOM     16  C   UNL     1     -46.116  38.912  27.428  1.00  0.00     0.019 A 
ATOM     17  C   UNL     1     -44.319  39.827  28.465  1.00  0.00     0.071 A 
ATOM     18  H   UNL     1     -46.953  38.673  26.783  1.00  0.00     0.083 H 
ATOM     19  C   UNL     1     -44.670  38.647  29.119  1.00  0.00     0.148 A 
ATOM     20  C   UNL     1     -43.184  40.494  28.958  1.00  0.00     0.137 A 
ATOM     21  N   UNL     1     -44.049  38.118  30.188  1.00  0.00    -0.218 NA
ATOM     22  N   UNL     1     -42.545  39.998  30.035  1.00  0.00    -0.219 NA
ATOM     23  C   UNL     1     -43.012  38.866  30.587  1.00  0.00     0.120 A 
ATOM     24  H   UNL     1     -42.473  38.510  31.460  1.00  0.00     0.106 H 
BRANCH  15  25
ATOM     25  C   UNL     1     -45.357  41.121  26.483  1.00  0.00     0.095 A 
ATOM     26  N   UNL     1     -45.998  42.917  25.576  1.00  0.00    -0.275 N 
ATOM     27  C   UNL     1     -44.911  42.535  24.845  1.00  0.00     0.025 A 
ATOM     28  N   UNL     1     -46.288  42.077  26.586  1.00  0.00    -0.173 NA
ATOM     29  C   UNL     1     -44.462  41.370  25.422  1.00  0.00    -0.016 A 
ATOM     30  H   UNL     1     -44.548  43.112  24.007  1.00  0.00     0.084 H 
ATOM     31  H   UNL     1     -43.602  40.786  25.123  1.00  0.00     0.066 H 
BRANCH  26  32
ATOM     32  C   UNL     1     -46.812  44.090  25.373  1.00  0.00     0.030 C 
ATOM     33  H   UNL     1     -46.641  44.797  26.187  1.00  0.00     0.048 H 
ATOM     34  H   UNL     1     -47.862  43.783  25.360  1.00  0.00     0.048 H 
ATOM     35  H   UNL     1     -46.531  44.543  24.420  1.00  0.00     0.048 H 
ENDBRANCH  26  32
ENDBRANCH  15  25
BRANCH  20  36
ATOM     36  N   UNL     1     -42.624  41.633  28.388  1.00  0.00    -0.383 N 
ATOM     37  H   UNL     1     -42.477  41.477  27.397  1.00  0.00     0.158 HD
ATOM     38  H   UNL     1     -43.119  42.485  28.621  1.00  0.00     0.158 HD
ENDBRANCH  20  36
ENDBRANCH   5  14
BRANCH   9  39
ATOM     39  O   UNL     1     -49.133  35.152  27.083  1.00  0.00    -0.387 OA
ATOM     40  H   UNL     1     -49.857  35.803  27.145  1.00  0.00     0.211 HD
ENDBRANCH   9  39
ENDBRANCH   1   4
BRANCH   1  41
ATOM     41  O   UNL     1     -47.198  33.923  25.348  1.00  0.00    -0.491 OA
BRANCH  41  42
ATOM     42  C   UNL     1     -47.210  32.643  24.872  1.00  0.00     0.121 A 
ATOM     43  C   UNL     1     -46.242  32.382  23.904  1.00  0.00    -0.019 A 
ATOM     44  C   UNL     1     -48.069  31.615  25.269  1.00  0.00     0.007 A 
ATOM     45  C   UNL     1     -46.137  31.114  23.335  1.00  0.00    -0.049 A 
ATOM     46  H   UNL     1     -45.565  33.173  23.592  1.00  0.00     0.066 H 
ATOM     47  C   UNL     1     -47.987  30.340  24.719  1.00  0.00     0.076 A 
ATOM     48  H   UNL     1     -48.830  31.769  26.028  1.00  0.00     0.069 H 
ATOM     49  C   UNL     1     -47.008  30.092  23.740  1.00  0.00     0.001 A 
ATOM     50  H   UNL     1     -45.376  30.932  22.581  1.00  0.00     0.063 H 
ATOM     51  N   UNL     1     -48.839  29.389  25.139  1.00  0.00    -0.231 NA
ATOM     52  C   UNL     1     -46.937  28.807  23.199  1.00  0.00    -0.049 A 
ATOM     53  C   UNL     1     -48.771  28.149  24.604  1.00  0.00     0.129 A 
ATOM     54  C   UNL     1     -47.824  27.829  23.637  1.00  0.00    -0.019 A 
ATOM     55  H   UNL     1     -46.196  28.558  22.444  1.00  0.00     0.063 H 
ATOM     56  H   UNL     1     -47.764  26.826  23.229  1.00  0.00     0.066 H 
BRANCH  53  57
ATOM     57  N   UNL     1     -49.665  27.167  25.068  1.00  0.00    -0.351 N 
ATOM     58  C   UNL     1     -49.715  26.702  26.427  1.00  0.00     0.047 C 
ATOM     59  C   UNL     1     -51.093  27.186  24.955  1.00  0.00     0.047 C 
ATOM     60  C   UNL     1     -51.120  26.160  26.106  1.00  0.00     0.089 C 
ATOM     61  H   UNL     1     -49.685  27.511  27.164  1.00  0.00     0.052 H 
ATOM     62  H   UNL     1     -48.955  25.948  26.651  1.00  0.00     0.052 H 
ATOM     63  H   UNL     1     -51.455  26.821  23.990  1.00  0.00     0.052 H 
ATOM     64  H   UNL     1     -51.533  28.161  25.188  1.00  0.00     0.052 H 
ATOM     65  H   UNL     1     -51.104  25.119  25.756  1.00  0.00     0.064 H 
BRANCH  60  66
ATOM     66  O   UNL     1     -52.140  26.332  27.115  1.00  0.00    -0.389 OA
ATOM     67  H   UNL     1     -52.516  27.211  26.942  1.00  0.00     0.211 HD
ENDBRANCH  60  66
ENDBRANCH  53  57
ENDBRANCH  41  42
ENDBRANCH   1  41
TORSDOF 10
ENDMDL
MODEL 2
REMARK VINA RESULT:      -9.9      2.286      3.504
REMARK SMILES Cn1ccc(-c2cn([C@@H]3O[C@H](COc4ccc5ccc(N6CC(O)C6)nc5c4)[C@@H](O)[C@@H]3F)c3ncnc(N)c23)n1
REMARK SMILES IDX 12 1 11 4 9 5 10 6 31 7 29 9 32 10 8 14 6 15 7 16 39 17
REMARK SMILES IDX 33 19 37 20 34 21 36 22 35 23 5 25 2 26 3 27 40 28 4 29 1 32
REMARK SMILES IDX 38 36 30 39 13 41 14 42 15 43 28 44 16 45 27 47 17 49 26 51
REMARK SMILES IDX 18 52 20 53 19 54 21 57 22 58 25 59 23 60 24 66
REMARK H PARENT 12 2 12 3 9 8 31 11 11 12 29 13 7 18 35 24 3 30 4 31 1 33 1 34
REMARK H PARENT 1 35 38 37 38 38 30 40 15 46 28 48 16 50 18 55 19 56 22 61
REMARK H PARENT 22 62 25 63 25 64 23 65 24 67
REMARK Flexibility Score: inf
ROOT
ATOM      1  C   UNL     1     -47.604  35.476  28.274  1.00  0.00     0.117 C 
ATOM      2  H   UNL     1     -47.585  34.488  28.750  1.00  0.00     0.073 H 
ATOM      3  H   UNL     1     -48.351  36.065  28.817  1.00  0.00     0.073 H 
ENDROOT
BRANCH   1   4
ATOM      4  C   UNL     1     -46.254  36.194  28.338  1.00  0.00     0.123 C 
ATOM      5  C   UNL     1     -45.329  38.229  27.683  1.00  0.00     0.169 C 
ATOM      6  O   UNL     1     -46.104  37.100  27.223  1.00  0.00    -0.345 OA
ATOM      7  C   UNL     1     -45.067  38.047  29.173  1.00  0.00     0.173 C 
ATOM      8  H   UNL     1     -44.376  38.196  27.141  1.00  0.00     0.088 H 
ATOM      9  C   UNL     1     -46.111  37.038  29.597  1.00  0.00     0.119 C 
ATOM     10  F   UNL     1     -45.184  39.186  29.894  1.00  0.00    -0.239 F 
ATOM     11  H   UNL     1     -44.058  37.654  29.344  1.00  0.00     0.074 H 
ATOM     12  H   UNL     1     -45.436  35.468  28.267  1.00  0.00     0.067 H 
ATOM     13  H   UNL     1     -47.045  37.528  29.883  1.00  0.00     0.066 H 
BRANCH   5  14
ATOM     14  N   UNL     1     -45.996  39.461  27.292  1.00  0.00    -0.302 N 
ATOM     15  C   UNL     1     -47.628  40.948  26.977  1.00  0.00     0.033 A 
ATOM     16  C   UNL     1     -47.348  39.670  27.417  1.00  0.00     0.019 A 
ATOM     17  C   UNL     1     -46.410  41.526  26.514  1.00  0.00     0.071 A 
ATOM     18  H   UNL     1     -48.007  38.914  27.826  1.00  0.00     0.083 H 
ATOM     19  C   UNL     1     -45.412  40.582  26.753  1.00  0.00     0.148 A 
ATOM     20  C   UNL     1     -45.997  42.723  25.902  1.00  0.00     0.137 A 
ATOM     21  N   UNL     1     -44.102  40.729  26.490  1.00  0.00    -0.218 NA
ATOM     22  N   UNL     1     -44.690  42.908  25.635  1.00  0.00    -0.219 NA
ATOM     23  C   UNL     1     -43.830  41.925  25.949  1.00  0.00     0.120 A 
ATOM     24  H   UNL     1     -42.786  42.122  25.727  1.00  0.00     0.106 H 
BRANCH  15  25
ATOM     25  C   UNL     1     -48.950  41.568  26.991  1.00  0.00     0.095 A 
ATOM     26  N   UNL     1     -50.685  42.581  26.341  1.00  0.00    -0.275 N 
ATOM     27  C   UNL     1     -50.970  42.203  27.621  1.00  0.00     0.025 A 
ATOM     28  N   UNL     1     -49.463  42.199  25.928  1.00  0.00    -0.173 NA
ATOM     29  C   UNL     1     -49.859  41.527  28.069  1.00  0.00    -0.016 A 
ATOM     30  H   UNL     1     -51.916  42.428  28.091  1.00  0.00     0.084 H 
ATOM     31  H   UNL     1     -49.727  41.062  29.037  1.00  0.00     0.066 H 
BRANCH  26  32
ATOM     32  C   UNL     1     -51.543  43.307  25.438  1.00  0.00     0.030 C 
ATOM     33  H   UNL     1     -51.378  44.379  25.563  1.00  0.00     0.048 H 
ATOM     34  H   UNL     1     -52.581  43.059  25.675  1.00  0.00     0.048 H 
ATOM     35  H   UNL     1     -51.299  43.008  24.416  1.00  0.00     0.048 H 
ENDBRANCH  26  32
ENDBRANCH  15  25
BRANCH  20  36
ATOM     36  N   UNL     1     -46.851  43.744  25.501  1.00  0.00    -0.383 N 
ATOM     37  H   UNL     1     -46.834  44.489  26.189  1.00  0.00     0.158 HD
ATOM     38  H   UNL     1     -46.704  44.040  24.544  1.00  0.00     0.158 HD
ENDBRANCH  20  36
ENDBRANCH   5  14
BRANCH   9  39
ATOM     39  O   UNL     1     -45.683  36.253  30.706  1.00  0.00    -0.387 OA
ATOM     40  H   UNL     1     -44.819  36.607  30.989  1.00  0.00     0.211 HD
ENDBRANCH   9  39
ENDBRANCH   1   4
BRANCH   1  41
ATOM     41  O   UNL     1     -48.085  35.394  26.926  1.00  0.00    -0.491 OA
BRANCH  41  42
ATOM     42  C   UNL     1     -47.849  34.254  26.211  1.00  0.00     0.121 A 
ATOM     43  C   UNL     1     -46.645  34.256  25.509  1.00  0.00    -0.019 A 
ATOM     44  C   UNL     1     -48.675  33.129  26.142  1.00  0.00     0.007 A 
ATOM     45  C   UNL     1     -46.274  33.153  24.742  1.00  0.00    -0.049 A 
ATOM     46  H   UNL     1     -45.992  35.124  25.561  1.00  0.00     0.066 H 
ATOM     47  C   UNL     1     -48.330  32.015  25.385  1.00  0.00     0.076 A 
ATOM     48  H   UNL     1     -49.616  33.078  26.682  1.00  0.00     0.069 H 
ATOM     49  C   UNL     1     -47.114  32.033  24.677  1.00  0.00     0.001 A 
ATOM     50  H   UNL     1     -45.332  33.176  24.201  1.00  0.00     0.063 H 
ATOM     51  N   UNL     1     -49.163  30.959  25.354  1.00  0.00    -0.231 NA
ATOM     52  C   UNL     1     -46.781  30.905  23.924  1.00  0.00    -0.049 A 
ATOM     53  C   UNL     1     -48.839  29.875  24.614  1.00  0.00     0.129 A 
ATOM     54  C   UNL     1     -47.650  29.819  23.895  1.00  0.00    -0.019 A 
ATOM     55  H   UNL     1     -45.852  30.862  23.362  1.00  0.00     0.063 H 
ATOM     56  H   UNL     1     -47.390  28.936  23.321  1.00  0.00     0.066 H 
BRANCH  53  57
ATOM     57  N   UNL     1     -49.721  28.778  24.607  1.00  0.00    -0.351 N 
ATOM     58  C   UNL     1     -50.871  28.677  23.751  1.00  0.00     0.047 C 
ATOM     59  C   UNL     1     -49.374  27.402  24.413  1.00  0.00     0.047 C 
ATOM     60  C   UNL     1     -50.852  27.164  24.040  1.00  0.00     0.089 C 
ATOM     61  H   UNL     1     -50.665  28.955  22.712  1.00  0.00     0.052 H 
ATOM     62  H   UNL     1     -51.738  29.222  24.132  1.00  0.00     0.052 H 
ATOM     63  H   UNL     1     -49.034  26.909  25.327  1.00  0.00     0.052 H 
ATOM     64  H   UNL     1     -48.656  27.246  23.600  1.00  0.00     0.052 H 
ATOM     65  H   UNL     1     -51.475  26.889  24.901  1.00  0.00     0.064 H 
BRANCH  60  66
ATOM     66  O   UNL     1     -51.113  26.278  22.929  1.00  0.00    -0.389 OA
ATOM     67  H   UNL     1     -51.763  25.639  23.267  1.00  0.00     0.211 HD
ENDBRANCH  60  66
ENDBRANCH  53  57
ENDBRANCH  41  42
ENDBRANCH   1  41
TORSDOF 10
ENDMDL
MODEL 3
REMARK VINA RESULT:      -9.6      1.811      2.922
REMARK SMILES Cn1ccc(-c2cn([C@@H]3O[C@H](COc4ccc5ccc(N6CC(O)C6)nc5c4)[C@@H](O)[C@@H]3F)c3ncnc(N)c23)n1
REMARK SMILES IDX 12 1 11 4 9 5 10 6 31 7 29 9 32 10 8 14 6 15 7 16 39 17
REMARK SMILES IDX 33 19 37 20 34 21 36 22 35 23 5 25 2 26 3 27 40 28 4 29 1 32
REMARK SMILES IDX 38 36 30 39 13 41 14 42 15 43 28 44 16 45 27 47 17 49 26 51
REMARK SMILES IDX 18 52 20 53 19 54 21 57 22 58 25 59 23 60 24 66
REMARK H PARENT 12 2 12 3 9 8 31 11 11 12 29 13 7 18 35 24 3 30 4 31 1 33 1 34
REMARK H PARENT 1 35 38 37 38 38 30 40 15 46 28 48 16 50 18 55 19 56 22 61
REMARK H PARENT 22 62 25 63 25 64 23 65 24 67
REMARK Flexibility Score: inf
ROOT
ATOM      1  C   UNL     1     -47.412  35.124  27.963  1.00  0.00     0.117 C 
ATOM      2  H   UNL     1     -47.630  34.146  28.407  1.00  0.00     0.073 H 
ATOM      3  H   UNL     1     -48.216  35.795  28.285  1.00  0.00     0.073 H 
ENDROOT
BRANCH   1   4
ATOM      4  C   UNL     1     -46.067  35.697  28.416  1.00  0.00     0.123 C 
ATOM      5  C   UNL     1     -44.802  37.628  28.107  1.00  0.00     0.169 C 
ATOM      6  O   UNL     1     -45.529  36.589  27.415  1.00  0.00    -0.345 OA
ATOM      7  C   UNL     1     -44.977  37.410  29.605  1.00  0.00     0.173 C 
ATOM      8  H   UNL     1     -43.746  37.500  27.843  1.00  0.00     0.088 H 
ATOM      9  C   UNL     1     -46.191  36.514  29.695  1.00  0.00     0.119 C 
ATOM     10  F   UNL     1     -45.174  38.551  30.307  1.00  0.00    -0.239 F 
ATOM     11  H   UNL     1     -44.097  36.913  30.029  1.00  0.00     0.074 H 
ATOM     12  H   UNL     1     -45.337  34.890  28.544  1.00  0.00     0.067 H 
ATOM     13  H   UNL     1     -47.115  37.096  29.733  1.00  0.00     0.066 H 
BRANCH   5  14
ATOM     14  N   UNL     1     -45.212  38.925  27.593  1.00  0.00    -0.302 N 
ATOM     15  C   UNL     1     -45.070  40.949  26.666  1.00  0.00     0.033 A 
ATOM     16  C   UNL     1     -44.339  39.854  27.079  1.00  0.00     0.019 A 
ATOM     17  C   UNL     1     -46.438  40.707  26.987  1.00  0.00     0.071 A 
ATOM     18  H   UNL     1     -43.274  39.665  27.023  1.00  0.00     0.083 H 
ATOM     19  C   UNL     1     -46.491  39.426  27.536  1.00  0.00     0.148 A 
ATOM     20  C   UNL     1     -47.660  41.398  26.908  1.00  0.00     0.137 A 
ATOM     21  N   UNL     1     -47.598  38.788  27.955  1.00  0.00    -0.218 NA
ATOM     22  N   UNL     1     -48.790  40.784  27.309  1.00  0.00    -0.219 NA
ATOM     23  C   UNL     1     -48.699  39.533  27.788  1.00  0.00     0.120 A 
ATOM     24  H   UNL     1     -49.636  39.073  28.088  1.00  0.00     0.106 H 
BRANCH  15  25
ATOM     25  C   UNL     1     -44.512  42.134  26.021  1.00  0.00     0.095 A 
ATOM     26  N   UNL     1     -43.894  43.483  24.519  1.00  0.00    -0.275 N 
ATOM     27  C   UNL     1     -43.668  44.148  25.687  1.00  0.00     0.025 A 
ATOM     28  N   UNL     1     -44.416  42.255  24.692  1.00  0.00    -0.173 NA
ATOM     29  C   UNL     1     -44.074  43.297  26.689  1.00  0.00    -0.016 A 
ATOM     30  H   UNL     1     -43.261  45.148  25.712  1.00  0.00     0.084 H 
ATOM     31  H   UNL     1     -44.063  43.492  27.753  1.00  0.00     0.066 H 
BRANCH  26  32
ATOM     32  C   UNL     1     -43.644  43.964  23.182  1.00  0.00     0.030 C 
ATOM     33  H   UNL     1     -42.585  43.840  22.943  1.00  0.00     0.048 H 
ATOM     34  H   UNL     1     -43.914  45.023  23.141  1.00  0.00     0.048 H 
ATOM     35  H   UNL     1     -44.254  43.383  22.487  1.00  0.00     0.048 H 
ENDBRANCH  26  32
ENDBRANCH  15  25
BRANCH  20  36
ATOM     36  N   UNL     1     -47.800  42.713  26.478  1.00  0.00    -0.383 N 
ATOM     37  H   UNL     1     -47.681  43.341  27.265  1.00  0.00     0.158 HD
ATOM     38  H   UNL     1     -47.239  42.933  25.664  1.00  0.00     0.158 HD
ENDBRANCH  20  36
ENDBRANCH   5  14
BRANCH   9  39
ATOM     39  O   UNL     1     -46.162  35.680  30.851  1.00  0.00    -0.387 OA
ATOM     40  H   UNL     1     -46.253  36.266  31.625  1.00  0.00     0.211 HD
ENDBRANCH   9  39
ENDBRANCH   1   4
BRANCH   1  41
ATOM     41  O   UNL     1     -47.502  35.078  26.533  1.00  0.00    -0.491 OA
BRANCH  41  42
ATOM     42  C   UNL     1     -47.436  33.865  25.908  1.00  0.00     0.121 A 
ATOM     43  C   UNL     1     -46.441  33.773  24.936  1.00  0.00    -0.019 A 
ATOM     44  C   UNL     1     -48.242  32.753  26.163  1.00  0.00     0.007 A 
ATOM     45  C   UNL     1     -46.258  32.590  24.224  1.00  0.00    -0.049 A 
ATOM     46  H   UNL     1     -45.805  34.632  24.734  1.00  0.00     0.066 H 
ATOM     47  C   UNL     1     -48.082  31.559  25.468  1.00  0.00     0.076 A 
ATOM     48  H   UNL     1     -49.021  32.774  26.919  1.00  0.00     0.069 H 
ATOM     49  C   UNL     1     -47.076  31.482  24.487  1.00  0.00     0.001 A 
ATOM     50  H   UNL     1     -45.477  32.540  23.470  1.00  0.00     0.063 H 
ATOM     51  N   UNL     1     -48.885  30.520  25.755  1.00  0.00    -0.231 NA
ATOM     52  C   UNL     1     -46.926  30.276  23.799  1.00  0.00    -0.049 A 
ATOM     53  C   UNL     1     -48.741  29.358  25.079  1.00  0.00     0.129 A 
ATOM     54  C   UNL     1     -47.764  29.207  24.100  1.00  0.00    -0.019 A 
ATOM     55  H   UNL     1     -46.162  30.159  23.035  1.00  0.00     0.063 H 
ATOM     56  H   UNL     1     -47.643  28.264  23.578  1.00  0.00     0.066 H 
BRANCH  53  57
ATOM     57  N   UNL     1     -49.586  28.281  25.405  1.00  0.00    -0.351 N 
ATOM     58  C   UNL     1     -50.060  27.314  24.452  1.00  0.00     0.047 C 
ATOM     59  C   UNL     1     -49.350  27.279  26.402  1.00  0.00     0.047 C 
ATOM     60  C   UNL     1     -50.380  26.407  25.654  1.00  0.00     0.089 C 
ATOM     61  H   UNL     1     -49.276  26.942  23.784  1.00  0.00     0.052 H 
ATOM     62  H   UNL     1     -50.922  27.664  23.879  1.00  0.00     0.052 H 
ATOM     63  H   UNL     1     -49.642  27.594  27.407  1.00  0.00     0.052 H 
ATOM     64  H   UNL     1     -48.324  26.897  26.398  1.00  0.00     0.052 H 
ATOM     65  H   UNL     1     -51.405  26.538  26.024  1.00  0.00     0.064 H 
BRANCH  60  66
ATOM     66  O   UNL     1     -50.073  25.001  25.520  1.00  0.00    -0.389 OA
ATOM     67  H   UNL     1     -49.208  24.892  25.948  1.00  0.00     0.211 HD
ENDBRANCH  60  66
ENDBRANCH  53  57
ENDBRANCH  41  42
ENDBRANCH   1  41
TORSDOF 10
ENDMDL
MODEL 4
REMARK VINA RESULT:      -9.1      3.899      7.675
REMARK SMILES Cn1ccc(-c2cn([C@@H]3O[C@H](COc4ccc5ccc(N6CC(O)C6)nc5c4)[C@@H](O)[C@@H]3F)c3ncnc(N)c23)n1
REMARK SMILES IDX 12 1 11 4 9 5 10 6 31 7 29 9 32 10 8 14 6 15 7 16 39 17
REMARK SMILES IDX 33 19 37 20 34 21 36 22 35 23 5 25 2 26 3 27 40 28 4 29 1 32
REMARK SMILES IDX 38 36 30 39 13 41 14 42 15 43 28 44 16 45 27 47 17 49 26 51
REMARK SMILES IDX 18 52 20 53 19 54 21 57 22 58 25 59 23 60 24 66
REMARK H PARENT 12 2 12 3 9 8 31 11 11 12 29 13 7 18 35 24 3 30 4 31 1 33 1 34
REMARK H PARENT 1 35 38 37 38 38 30 40 15 46 28 48 16 50 18 55 19 56 22 61
REMARK H PARENT 22 62 25 63 25 64 23 65 24 67
REMARK Flexibility Score: inf
ROOT
ATOM      1  C   UNL     1     -43.734  40.209  27.357  1.00  0.00     0.117 C 
ATOM      2  H   UNL     1     -43.696  39.289  26.762  1.00  0.00     0.073 H 
ATOM      3  H   UNL     1     -43.009  40.082  28.168  1.00  0.00     0.073 H 
ENDROOT
BRANCH   1   4
ATOM      4  C   UNL     1     -43.370  41.457  26.548  1.00  0.00     0.123 C 
ATOM      5  C   UNL     1     -44.453  43.130  25.343  1.00  0.00     0.169 C 
ATOM      6  O   UNL     1     -44.350  41.700  25.515  1.00  0.00    -0.345 OA
ATOM      7  C   UNL     1     -43.557  43.797  26.381  1.00  0.00     0.173 C 
ATOM      8  H   UNL     1     -44.072  43.353  24.339  1.00  0.00     0.088 H 
ATOM      9  C   UNL     1     -43.337  42.711  27.410  1.00  0.00     0.119 C 
ATOM     10  F   UNL     1     -44.104  44.894  26.954  1.00  0.00    -0.239 F 
ATOM     11  H   UNL     1     -42.605  44.102  25.932  1.00  0.00     0.074 H 
ATOM     12  H   UNL     1     -42.409  41.312  26.044  1.00  0.00     0.067 H 
ATOM     13  H   UNL     1     -44.122  42.719  28.171  1.00  0.00     0.066 H 
BRANCH   5  14
ATOM     14  N   UNL     1     -45.854  43.517  25.359  1.00  0.00    -0.302 N 
ATOM     15  C   UNL     1     -48.022  43.511  25.886  1.00  0.00     0.033 A 
ATOM     16  C   UNL     1     -46.819  42.863  26.086  1.00  0.00     0.019 A 
ATOM     17  C   UNL     1     -47.797  44.571  24.960  1.00  0.00     0.071 A 
ATOM     18  H   UNL     1     -46.584  42.006  26.705  1.00  0.00     0.083 H 
ATOM     19  C   UNL     1     -46.432  44.561  24.677  1.00  0.00     0.148 A 
ATOM     20  C   UNL     1     -48.561  45.545  24.294  1.00  0.00     0.137 A 
ATOM     21  N   UNL     1     -45.785  45.415  23.864  1.00  0.00    -0.218 NA
ATOM     22  N   UNL     1     -47.943  46.423  23.480  1.00  0.00    -0.219 NA
ATOM     23  C   UNL     1     -46.613  46.319  23.324  1.00  0.00     0.120 A 
ATOM     24  H   UNL     1     -46.156  47.055  22.669  1.00  0.00     0.106 H 
BRANCH  15  25
ATOM     25  C   UNL     1     -49.284  43.148  26.523  1.00  0.00     0.095 A 
ATOM     26  N   UNL     1     -51.008  42.050  27.051  1.00  0.00    -0.275 N 
ATOM     27  C   UNL     1     -51.048  43.152  27.854  1.00  0.00     0.025 A 
ATOM     28  N   UNL     1     -49.939  42.017  26.235  1.00  0.00    -0.173 NA
ATOM     29  C   UNL     1     -49.926  43.884  27.542  1.00  0.00    -0.016 A 
ATOM     30  H   UNL     1     -51.840  43.315  28.570  1.00  0.00     0.084 H 
ATOM     31  H   UNL     1     -49.611  44.816  27.993  1.00  0.00     0.066 H 
BRANCH  26  32
ATOM     32  C   UNL     1     -51.962  40.968  27.013  1.00  0.00     0.030 C 
ATOM     33  H   UNL     1     -51.815  40.386  26.101  1.00  0.00     0.048 H 
ATOM     34  H   UNL     1     -52.968  41.394  27.027  1.00  0.00     0.048 H 
ATOM     35  H   UNL     1     -51.799  40.336  27.889  1.00  0.00     0.048 H 
ENDBRANCH  26  32
ENDBRANCH  15  25
BRANCH  20  36
ATOM     36  N   UNL     1     -49.945  45.658  24.372  1.00  0.00    -0.383 N 
ATOM     37  H   UNL     1     -50.359  45.364  23.495  1.00  0.00     0.158 HD
ATOM     38  H   UNL     1     -50.338  45.225  25.199  1.00  0.00     0.158 HD
ENDBRANCH  20  36
ENDBRANCH   5  14
BRANCH   9  39
ATOM     39  O   UNL     1     -42.089  42.851  28.083  1.00  0.00    -0.387 OA
ATOM     40  H   UNL     1     -41.522  42.113  27.786  1.00  0.00     0.211 HD
ENDBRANCH   9  39
ENDBRANCH   1   4
BRANCH   1  41
ATOM     41  O   UNL     1     -45.007  40.360  28.000  1.00  0.00    -0.491 OA
BRANCH  41  42
ATOM     42  C   UNL     1     -45.938  39.371  27.856  1.00  0.00     0.121 A 
ATOM     43  C   UNL     1     -47.225  39.734  28.250  1.00  0.00    -0.019 A 
ATOM     44  C   UNL     1     -45.717  38.086  27.355  1.00  0.00     0.007 A 
ATOM     45  C   UNL     1     -48.275  38.823  28.152  1.00  0.00    -0.049 A 
ATOM     46  H   UNL     1     -47.408  40.733  28.636  1.00  0.00     0.066 H 
ATOM     47  C   UNL     1     -46.746  37.157  27.245  1.00  0.00     0.076 A 
ATOM     48  H   UNL     1     -44.734  37.763  27.024  1.00  0.00     0.069 H 
ATOM     49  C   UNL     1     -48.039  37.535  27.651  1.00  0.00     0.001 A 
ATOM     50  H   UNL     1     -49.270  39.126  28.466  1.00  0.00     0.063 H 
ATOM     51  N   UNL     1     -46.476  35.934  26.755  1.00  0.00    -0.231 NA
ATOM     52  C   UNL     1     -49.062  36.592  27.533  1.00  0.00    -0.049 A 
ATOM     53  C   UNL     1     -47.470  35.022  26.653  1.00  0.00     0.129 A 
ATOM     54  C   UNL     1     -48.774  35.328  27.028  1.00  0.00    -0.019 A 
ATOM     55  H   UNL     1     -50.081  36.832  27.826  1.00  0.00     0.063 H 
ATOM     56  H   UNL     1     -49.568  34.596  26.922  1.00  0.00     0.066 H 
BRANCH  53  57
ATOM     57  N   UNL     1     -47.166  33.754  26.127  1.00  0.00    -0.351 N 
ATOM     58  C   UNL     1     -48.153  32.821  25.656  1.00  0.00     0.047 C 
ATOM     59  C   UNL     1     -46.283  33.468  25.035  1.00  0.00     0.047 C 
ATOM     60  C   UNL     1     -47.011  32.115  24.903  1.00  0.00     0.089 C 
ATOM     61  H   UNL     1     -48.917  33.280  25.019  1.00  0.00     0.052 H 
ATOM     62  H   UNL     1     -48.618  32.246  26.461  1.00  0.00     0.052 H 
ATOM     63  H   UNL     1     -45.233  33.411  25.332  1.00  0.00     0.052 H 
ATOM     64  H   UNL     1     -46.408  34.150  24.187  1.00  0.00     0.052 H 
ATOM     65  H   UNL     1     -46.544  31.315  25.494  1.00  0.00     0.064 H 
BRANCH  60  66
ATOM     66  O   UNL     1     -47.292  31.648  23.565  1.00  0.00    -0.389 OA
ATOM     67  H   UNL     1     -46.753  32.212  22.986  1.00  0.00     0.211 HD
ENDBRANCH  60  66
ENDBRANCH  53  57
ENDBRANCH  41  42
ENDBRANCH   1  41
TORSDOF 10
ENDMDL
MODEL 5
REMARK VINA RESULT:      -9.1      2.670     12.051
REMARK SMILES Cn1ccc(-c2cn([C@@H]3O[C@H](COc4ccc5ccc(N6CC(O)C6)nc5c4)[C@@H](O)[C@@H]3F)c3ncnc(N)c23)n1
REMARK SMILES IDX 12 1 11 4 9 5 10 6 31 7 29 9 32 10 8 14 6 15 7 16 39 17
REMARK SMILES IDX 33 19 37 20 34 21 36 22 35 23 5 25 2 26 3 27 40 28 4 29 1 32
REMARK SMILES IDX 38 36 30 39 13 41 14 42 15 43 28 44 16 45 27 47 17 49 26 51
REMARK SMILES IDX 18 52 20 53 19 54 21 57 22 58 25 59 23 60 24 66
REMARK H PARENT 12 2 12 3 9 8 31 11 11 12 29 13 7 18 35 24 3 30 4 31 1 33 1 34
REMARK H PARENT 1 35 38 37 38 38 30 40 15 46 28 48 16 50 18 55 19 56 22 61
REMARK H PARENT 22 62 25 63 25 64 23 65 24 67
REMARK Flexibility Score: inf
ROOT
ATOM      1  C   UNL     1     -47.039  33.908  26.895  1.00  0.00     0.117 C 
ATOM      2  H   UNL     1     -46.900  33.013  27.513  1.00  0.00     0.073 H 
ATOM      3  H   UNL     1     -46.037  34.232  26.594  1.00  0.00     0.073 H 
ENDROOT
BRANCH   1   4
ATOM      4  C   UNL     1     -47.878  33.642  25.642  1.00  0.00     0.123 C 
ATOM      5  C   UNL     1     -48.141  31.970  24.043  1.00  0.00     0.169 C 
ATOM      6  O   UNL     1     -47.164  32.789  24.721  1.00  0.00    -0.345 OA
ATOM      7  C   UNL     1     -49.510  32.274  24.641  1.00  0.00     0.173 C 
ATOM      8  H   UNL     1     -48.130  32.276  22.990  1.00  0.00     0.088 H 
ATOM      9  C   UNL     1     -49.182  32.927  25.965  1.00  0.00     0.119 C 
ATOM     10  F   UNL     1     -50.284  31.180  24.827  1.00  0.00    -0.239 F 
ATOM     11  H   UNL     1     -50.068  32.965  23.998  1.00  0.00     0.074 H 
ATOM     12  H   UNL     1     -48.075  34.582  25.114  1.00  0.00     0.067 H 
ATOM     13  H   UNL     1     -49.069  32.183  26.758  1.00  0.00     0.066 H 
BRANCH   5  14
ATOM     14  N   UNL     1     -47.716  30.580  24.085  1.00  0.00    -0.302 N 
ATOM     15  C   UNL     1     -47.670  28.421  24.643  1.00  0.00     0.033 A 
ATOM     16  C   UNL     1     -48.307  29.624  24.874  1.00  0.00     0.019 A 
ATOM     17  C   UNL     1     -46.613  28.659  23.717  1.00  0.00     0.071 A 
ATOM     18  H   UNL     1     -49.144  29.856  25.521  1.00  0.00     0.083 H 
ATOM     19  C   UNL     1     -46.691  30.007  23.370  1.00  0.00     0.148 A 
ATOM     20  C   UNL     1     -45.572  27.925  23.120  1.00  0.00     0.137 A 
ATOM     21  N   UNL     1     -45.894  30.649  22.498  1.00  0.00    -0.218 NA
ATOM     22  N   UNL     1     -44.762  28.534  22.233  1.00  0.00    -0.219 NA
ATOM     23  C   UNL     1     -44.972  29.834  21.967  1.00  0.00     0.120 A 
ATOM     24  H   UNL     1     -44.304  30.280  21.237  1.00  0.00     0.106 H 
BRANCH  15  25
ATOM     25  C   UNL     1     -48.035  27.149  25.259  1.00  0.00     0.095 A 
ATOM     26  N   UNL     1     -47.884  25.335  26.329  1.00  0.00    -0.275 N 
ATOM     27  C   UNL     1     -49.208  25.440  26.022  1.00  0.00     0.025 A 
ATOM     28  N   UNL     1     -47.145  26.367  25.884  1.00  0.00    -0.173 NA
ATOM     29  C   UNL     1     -49.341  26.623  25.332  1.00  0.00    -0.016 A 
ATOM     30  H   UNL     1     -49.930  24.694  26.321  1.00  0.00     0.084 H 
ATOM     31  H   UNL     1     -50.257  27.049  24.944  1.00  0.00     0.066 H 
BRANCH  26  32
ATOM     32  C   UNL     1     -47.244  24.271  27.064  1.00  0.00     0.030 C 
ATOM     33  H   UNL     1     -46.179  24.491  27.169  1.00  0.00     0.048 H 
ATOM     34  H   UNL     1     -47.380  23.339  26.510  1.00  0.00     0.048 H 
ATOM     35  H   UNL     1     -47.710  24.205  28.050  1.00  0.00     0.048 H 
ENDBRANCH  26  32
ENDBRANCH  15  25
BRANCH  20  36
ATOM     36  N   UNL     1     -45.273  26.597  23.406  1.00  0.00    -0.383 N 
ATOM     37  H   UNL     1     -45.651  26.001  22.679  1.00  0.00     0.158 HD
ATOM     38  H   UNL     1     -44.296  26.442  23.625  1.00  0.00     0.158 HD
ENDBRANCH  20  36
ENDBRANCH   5  14
BRANCH   9  39
ATOM     39  O   UNL     1     -50.192  33.843  26.379  1.00  0.00    -0.387 OA
ATOM     40  H   UNL     1     -50.126  33.919  27.350  1.00  0.00     0.211 HD
ENDBRANCH   9  39
ENDBRANCH   1   4
BRANCH   1  41
ATOM     41  O   UNL     1     -47.580  34.991  27.662  1.00  0.00    -0.491 OA
BRANCH  41  42
ATOM     42  C   UNL     1     -46.763  36.035  27.993  1.00  0.00     0.121 A 
ATOM     43  C   UNL     1     -46.068  35.862  29.189  1.00  0.00    -0.019 A 
ATOM     44  C   UNL     1     -46.566  37.204  27.254  1.00  0.00     0.007 A 
ATOM     45  C   UNL     1     -45.194  36.847  29.645  1.00  0.00    -0.049 A 
ATOM     46  H   UNL     1     -46.210  34.953  29.768  1.00  0.00     0.066 H 
ATOM     47  C   UNL     1     -45.700  38.203  27.684  1.00  0.00     0.076 A 
ATOM     48  H   UNL     1     -47.076  37.376  26.311  1.00  0.00     0.069 H 
ATOM     49  C   UNL     1     -45.009  38.018  28.896  1.00  0.00     0.001 A 
ATOM     50  H   UNL     1     -44.663  36.694  30.580  1.00  0.00     0.063 H 
ATOM     51  N   UNL     1     -45.549  39.309  26.934  1.00  0.00    -0.231 NA
ATOM     52  C   UNL     1     -44.141  39.030  29.314  1.00  0.00    -0.049 A 
ATOM     53  C   UNL     1     -44.715  40.289  27.349  1.00  0.00     0.129 A 
ATOM     54  C   UNL     1     -43.992  40.171  28.532  1.00  0.00    -0.019 A 
ATOM     55  H   UNL     1     -43.577  38.937  30.238  1.00  0.00     0.063 H 
ATOM     56  H   UNL     1     -43.310  40.954  28.846  1.00  0.00     0.066 H 
BRANCH  53  57
ATOM     57  N   UNL     1     -44.564  41.430  26.540  1.00  0.00    -0.351 N 
ATOM     58  C   UNL     1     -43.447  41.652  25.662  1.00  0.00     0.047 C 
ATOM     59  C   UNL     1     -45.501  41.929  25.579  1.00  0.00     0.047 C 
ATOM     60  C   UNL     1     -44.323  42.695  24.944  1.00  0.00     0.089 C 
ATOM     61  H   UNL     1     -43.184  40.773  25.064  1.00  0.00     0.052 H 
ATOM     62  H   UNL     1     -42.567  42.045  26.179  1.00  0.00     0.052 H 
ATOM     63  H   UNL     1     -46.284  42.551  26.021  1.00  0.00     0.052 H 
ATOM     64  H   UNL     1     -45.940  41.144  24.953  1.00  0.00     0.052 H 
ATOM     65  H   UNL     1     -44.197  43.707  25.351  1.00  0.00     0.064 H 
BRANCH  60  66
ATOM     66  O   UNL     1     -44.261  42.725  23.501  1.00  0.00    -0.389 OA
ATOM     67  H   UNL     1     -43.360  43.026  23.295  1.00  0.00     0.211 HD
ENDBRANCH  60  66
ENDBRANCH  53  57
ENDBRANCH  41  42
ENDBRANCH   1  41
TORSDOF 10
ENDMDL
MODEL 6
REMARK VINA RESULT:      -8.9      2.223      2.888
REMARK SMILES Cn1ccc(-c2cn([C@@H]3O[C@H](COc4ccc5ccc(N6CC(O)C6)nc5c4)[C@@H](O)[C@@H]3F)c3ncnc(N)c23)n1
REMARK SMILES IDX 12 1 11 4 9 5 10 6 31 7 29 9 32 10 8 14 6 15 7 16 39 17
REMARK SMILES IDX 33 19 37 20 34 21 36 22 35 23 5 25 2 26 3 27 40 28 4 29 1 32
REMARK SMILES IDX 38 36 30 39 13 41 14 42 15 43 28 44 16 45 27 47 17 49 26 51
REMARK SMILES IDX 18 52 20 53 19 54 21 57 22 58 25 59 23 60 24 66
REMARK H PARENT 12 2 12 3 9 8 31 11 11 12 29 13 7 18 35 24 3 30 4 31 1 33 1 34
REMARK H PARENT 1 35 38 37 38 38 30 40 15 46 28 48 16 50 18 55 19 56 22 61
REMARK H PARENT 22 62 25 63 25 64 23 65 24 67
REMARK Flexibility Score: inf
ROOT
ATOM      1  C   UNL     1     -46.880  36.160  26.320  1.00  0.00     0.117 C 
ATOM      2  H   UNL     1     -47.959  36.051  26.160  1.00  0.00     0.073 H 
ATOM      3  H   UNL     1     -46.532  36.896  25.587  1.00  0.00     0.073 H 
ENDROOT
BRANCH   1   4
ATOM      4  C   UNL     1     -46.534  36.651  27.728  1.00  0.00     0.123 C 
ATOM      5  C   UNL     1     -45.267  38.331  28.725  1.00  0.00     0.169 C 
ATOM      6  O   UNL     1     -45.229  37.270  27.746  1.00  0.00    -0.345 OA
ATOM      7  C   UNL     1     -46.688  38.422  29.270  1.00  0.00     0.173 C 
ATOM      8  H   UNL     1     -44.587  38.035  29.534  1.00  0.00     0.088 H 
ATOM      9  C   UNL     1     -47.514  37.703  28.228  1.00  0.00     0.119 C 
ATOM     10  F   UNL     1     -47.131  39.689  29.439  1.00  0.00    -0.239 F 
ATOM     11  H   UNL     1     -46.763  37.916  30.240  1.00  0.00     0.074 H 
ATOM     12  H   UNL     1     -46.491  35.804  28.423  1.00  0.00     0.067 H 
ATOM     13  H   UNL     1     -47.838  38.384  27.437  1.00  0.00     0.066 H 
BRANCH   5  14
ATOM     14  N   UNL     1     -44.723  39.546  28.140  1.00  0.00    -0.302 N 
ATOM     15  C   UNL     1     -44.489  41.278  26.754  1.00  0.00     0.033 A 
ATOM     16  C   UNL     1     -45.226  40.139  27.007  1.00  0.00     0.019 A 
ATOM     17  C   UNL     1     -43.461  41.360  27.739  1.00  0.00     0.071 A 
ATOM     18  H   UNL     1     -46.076  39.727  26.476  1.00  0.00     0.083 H 
ATOM     19  C   UNL     1     -43.657  40.281  28.600  1.00  0.00     0.148 A 
ATOM     20  C   UNL     1     -42.365  42.191  28.027  1.00  0.00     0.137 A 
ATOM     21  N   UNL     1     -42.923  39.992  29.689  1.00  0.00    -0.218 NA
ATOM     22  N   UNL     1     -41.615  41.938  29.117  1.00  0.00    -0.219 NA
ATOM     23  C   UNL     1     -41.938  40.880  29.880  1.00  0.00     0.120 A 
ATOM     24  H   UNL     1     -41.314  40.721  30.754  1.00  0.00     0.106 H 
BRANCH  15  25
ATOM     25  C   UNL     1     -44.740  42.212  25.661  1.00  0.00     0.095 A 
ATOM     26  N   UNL     1     -45.563  43.808  24.550  1.00  0.00    -0.275 N 
ATOM     27  C   UNL     1     -44.564  43.323  23.759  1.00  0.00     0.025 A 
ATOM     28  N   UNL     1     -45.688  43.155  25.719  1.00  0.00    -0.173 NA
ATOM     29  C   UNL     1     -43.997  42.286  24.463  1.00  0.00    -0.016 A 
ATOM     30  H   UNL     1     -44.334  43.749  22.794  1.00  0.00     0.084 H 
ATOM     31  H   UNL     1     -43.159  41.674  24.158  1.00  0.00     0.066 H 
BRANCH  26  32
ATOM     32  C   UNL     1     -46.444  44.912  24.257  1.00  0.00     0.030 C 
ATOM     33  H   UNL     1     -46.760  45.382  25.191  1.00  0.00     0.048 H 
ATOM     34  H   UNL     1     -47.315  44.525  23.720  1.00  0.00     0.048 H 
ATOM     35  H   UNL     1     -45.901  45.632  23.642  1.00  0.00     0.048 H 
ENDBRANCH  26  32
ENDBRANCH  15  25
BRANCH  20  36
ATOM     36  N   UNL     1     -41.951  43.260  27.238  1.00  0.00    -0.383 N 
ATOM     37  H   UNL     1     -41.579  43.993  27.831  1.00  0.00     0.158 HD
ATOM     38  H   UNL     1     -41.354  42.984  26.468  1.00  0.00     0.158 HD
ENDBRANCH  20  36
ENDBRANCH   5  14
BRANCH   9  39
ATOM     39  O   UNL     1     -48.682  37.105  28.784  1.00  0.00    -0.387 OA
ATOM     40  H   UNL     1     -49.439  37.410  28.249  1.00  0.00     0.211 HD
ENDBRANCH   9  39
ENDBRANCH   1   4
BRANCH   1  41
ATOM     41  O   UNL     1     -46.183  34.947  26.007  1.00  0.00    -0.491 OA
BRANCH  41  42
ATOM     42  C   UNL     1     -46.909  33.825  25.725  1.00  0.00     0.121 A 
ATOM     43  C   UNL     1     -48.264  33.926  26.035  1.00  0.00    -0.019 A 
ATOM     44  C   UNL     1     -46.426  32.640  25.163  1.00  0.00     0.007 A 
ATOM     45  C   UNL     1     -49.125  32.857  25.793  1.00  0.00    -0.049 A 
ATOM     46  H   UNL     1     -48.651  34.846  26.467  1.00  0.00     0.066 H 
ATOM     47  C   UNL     1     -47.261  31.558  24.911  1.00  0.00     0.076 A 
ATOM     48  H   UNL     1     -45.381  32.521  24.895  1.00  0.00     0.069 H 
ATOM     49  C   UNL     1     -48.626  31.672  25.233  1.00  0.00     0.001 A 
ATOM     50  H   UNL     1     -50.177  32.956  26.043  1.00  0.00     0.063 H 
ATOM     51  N   UNL     1     -46.743  30.442  24.368  1.00  0.00    -0.231 NA
ATOM     52  C   UNL     1     -49.453  30.577  24.971  1.00  0.00    -0.049 A 
ATOM     53  C   UNL     1     -47.547  29.381  24.127  1.00  0.00     0.129 A 
ATOM     54  C   UNL     1     -48.908  29.425  24.412  1.00  0.00    -0.019 A 
ATOM     55  H   UNL     1     -50.515  30.612  25.195  1.00  0.00     0.063 H 
ATOM     56  H   UNL     1     -49.548  28.576  24.196  1.00  0.00     0.066 H 
BRANCH  53  57
ATOM     57  N   UNL     1     -46.984  28.229  23.548  1.00  0.00    -0.351 N 
ATOM     58  C   UNL     1     -45.701  28.200  22.900  1.00  0.00     0.047 C 
ATOM     59  C   UNL     1     -46.761  26.969  24.191  1.00  0.00     0.047 C 
ATOM     60  C   UNL     1     -45.738  26.670  23.076  1.00  0.00     0.089 C 
ATOM     61  H   UNL     1     -44.917  28.714  23.466  1.00  0.00     0.052 H 
ATOM     62  H   UNL     1     -45.733  28.560  21.869  1.00  0.00     0.052 H 
ATOM     63  H   UNL     1     -47.645  26.327  24.203  1.00  0.00     0.052 H 
ATOM     64  H   UNL     1     -46.339  27.065  25.198  1.00  0.00     0.052 H 
ATOM     65  H   UNL     1     -46.180  26.154  22.213  1.00  0.00     0.064 H 
BRANCH  60  66
ATOM     66  O   UNL     1     -44.508  26.022  23.469  1.00  0.00    -0.389 OA
ATOM     67  H   UNL     1     -44.125  25.689  22.641  1.00  0.00     0.211 HD
ENDBRANCH  60  66
ENDBRANCH  53  57
ENDBRANCH  41  42
ENDBRANCH   1  41
TORSDOF 10
ENDMDL
MODEL 7
REMARK VINA RESULT:      -8.9      2.995     11.704
REMARK SMILES Cn1ccc(-c2cn([C@@H]3O[C@H](COc4ccc5ccc(N6CC(O)C6)nc5c4)[C@@H](O)[C@@H]3F)c3ncnc(N)c23)n1
REMARK SMILES IDX 12 1 11 4 9 5 10 6 31 7 29 9 32 10 8 14 6 15 7 16 39 17
REMARK SMILES IDX 33 19 37 20 34 21 36 22 35 23 5 25 2 26 3 27 40 28 4 29 1 32
REMARK SMILES IDX 38 36 30 39 13 41 14 42 15 43 28 44 16 45 27 47 17 49 26 51
REMARK SMILES IDX 18 52 20 53 19 54 21 57 22 58 25 59 23 60 24 66
REMARK H PARENT 12 2 12 3 9 8 31 11 11 12 29 13 7 18 35 24 3 30 4 31 1 33 1 34
REMARK H PARENT 1 35 38 37 38 38 30 40 15 46 28 48 16 50 18 55 19 56 22 61
REMARK H PARENT 22 62 25 63 25 64 23 65 24 67
REMARK Flexibility Score: inf
ROOT
ATOM      1  C   UNL     1     -48.984  34.618  26.297  1.00  0.00     0.117 C 
ATOM      2  H   UNL     1     -48.721  35.204  25.408  1.00  0.00     0.073 H 
ATOM      3  H   UNL     1     -49.985  34.212  26.113  1.00  0.00     0.073 H 
ENDROOT
BRANCH   1   4
ATOM      4  C   UNL     1     -48.013  33.464  26.558  1.00  0.00     0.123 C 
ATOM      5  C   UNL     1     -47.823  31.199  26.052  1.00  0.00     0.169 C 
ATOM      6  O   UNL     1     -48.716  32.202  26.583  1.00  0.00    -0.345 OA
ATOM      7  C   UNL     1     -46.544  31.895  25.600  1.00  0.00     0.173 C 
ATOM      8  H   UNL     1     -47.591  30.517  26.879  1.00  0.00     0.088 H 
ATOM      9  C   UNL     1     -46.956  33.344  25.470  1.00  0.00     0.119 C 
ATOM     10  F   UNL     1     -46.052  31.431  24.428  1.00  0.00    -0.239 F 
ATOM     11  H   UNL     1     -45.756  31.783  26.354  1.00  0.00     0.074 H 
ATOM     12  H   UNL     1     -47.542  33.582  27.541  1.00  0.00     0.067 H 
ATOM     13  H   UNL     1     -47.352  33.557  24.474  1.00  0.00     0.066 H 
BRANCH   5  14
ATOM     14  N   UNL     1     -48.521  30.418  25.044  1.00  0.00    -0.302 N 
ATOM     15  C   UNL     1     -49.570  29.917  23.140  1.00  0.00     0.033 A 
ATOM     16  C   UNL     1     -48.986  30.939  23.861  1.00  0.00     0.019 A 
ATOM     17  C   UNL     1     -49.509  28.734  23.933  1.00  0.00     0.071 A 
ATOM     18  H   UNL     1     -48.852  31.984  23.606  1.00  0.00     0.083 H 
ATOM     19  C   UNL     1     -48.824  29.078  25.098  1.00  0.00     0.148 A 
ATOM     20  C   UNL     1     -49.953  27.403  23.846  1.00  0.00     0.137 A 
ATOM     21  N   UNL     1     -48.521  28.251  26.114  1.00  0.00    -0.218 NA
ATOM     22  N   UNL     1     -49.657  26.544  24.841  1.00  0.00    -0.219 NA
ATOM     23  C   UNL     1     -48.960  27.004  25.893  1.00  0.00     0.120 A 
ATOM     24  H   UNL     1     -48.734  26.274  26.664  1.00  0.00     0.106 H 
BRANCH  15  25
ATOM     25  C   UNL     1     -50.144  30.056  21.805  1.00  0.00     0.095 A 
ATOM     26  N   UNL     1     -51.366  30.727  20.219  1.00  0.00    -0.275 N 
ATOM     27  C   UNL     1     -50.478  29.876  19.628  1.00  0.00     0.025 A 
ATOM     28  N   UNL     1     -51.180  30.862  21.545  1.00  0.00    -0.173 NA
ATOM     29  C   UNL     1     -49.657  29.430  20.638  1.00  0.00    -0.016 A 
ATOM     30  H   UNL     1     -50.493  29.673  18.568  1.00  0.00     0.084 H 
ATOM     31  H   UNL     1     -48.818  28.754  20.543  1.00  0.00     0.066 H 
BRANCH  26  32
ATOM     32  C   UNL     1     -52.424  31.464  19.573  1.00  0.00     0.030 C 
ATOM     33  H   UNL     1     -52.694  32.326  20.187  1.00  0.00     0.048 H 
ATOM     34  H   UNL     1     -53.286  30.802  19.459  1.00  0.00     0.048 H 
ATOM     35  H   UNL     1     -52.064  31.800  18.598  1.00  0.00     0.048 H 
ENDBRANCH  26  32
ENDBRANCH  15  25
BRANCH  20  36
ATOM     36  N   UNL     1     -50.728  26.892  22.811  1.00  0.00    -0.383 N 
ATOM     37  H   UNL     1     -50.501  27.374  21.948  1.00  0.00     0.158 HD
ATOM     38  H   UNL     1     -50.712  25.881  22.756  1.00  0.00     0.158 HD
ENDBRANCH  20  36
ENDBRANCH   5  14
BRANCH   9  39
ATOM     39  O   UNL     1     -45.868  34.236  25.698  1.00  0.00    -0.387 OA
ATOM     40  H   UNL     1     -45.096  33.868  25.229  1.00  0.00     0.211 HD
ENDBRANCH   9  39
ENDBRANCH   1   4
BRANCH   1  41
ATOM     41  O   UNL     1     -49.116  35.457  27.451  1.00  0.00    -0.491 OA
BRANCH  41  42
ATOM     42  C   UNL     1     -48.064  36.252  27.811  1.00  0.00     0.121 A 
ATOM     43  C   UNL     1     -47.421  35.855  28.983  1.00  0.00    -0.019 A 
ATOM     44  C   UNL     1     -47.593  37.372  27.123  1.00  0.00     0.007 A 
ATOM     45  C   UNL     1     -46.327  36.571  29.464  1.00  0.00    -0.049 A 
ATOM     46  H   UNL     1     -47.776  34.980  29.523  1.00  0.00     0.066 H 
ATOM     47  C   UNL     1     -46.503  38.106  27.580  1.00  0.00     0.076 A 
ATOM     48  H   UNL     1     -48.054  37.710  26.201  1.00  0.00     0.069 H 
ATOM     49  C   UNL     1     -45.867  37.697  28.766  1.00  0.00     0.001 A 
ATOM     50  H   UNL     1     -45.841  36.246  30.380  1.00  0.00     0.063 H 
ATOM     51  N   UNL     1     -46.092  39.176  26.877  1.00  0.00    -0.231 NA
ATOM     52  C   UNL     1     -44.773  38.443  29.210  1.00  0.00    -0.049 A 
ATOM     53  C   UNL     1     -45.038  39.899  27.318  1.00  0.00     0.129 A 
ATOM     54  C   UNL     1     -44.355  39.550  28.479  1.00  0.00    -0.019 A 
ATOM     55  H   UNL     1     -44.240  38.168  30.117  1.00  0.00     0.063 H 
ATOM     56  H   UNL     1     -43.499  40.125  28.813  1.00  0.00     0.066 H 
BRANCH  53  57
ATOM     57  N   UNL     1     -44.619  41.007  26.560  1.00  0.00    -0.351 N 
ATOM     58  C   UNL     1     -45.504  41.831  25.782  1.00  0.00     0.047 C 
ATOM     59  C   UNL     1     -43.878  42.139  27.033  1.00  0.00     0.047 C 
ATOM     60  C   UNL     1     -44.391  42.895  25.791  1.00  0.00     0.089 C 
ATOM     61  H   UNL     1     -46.419  42.110  26.316  1.00  0.00     0.052 H 
ATOM     62  H   UNL     1     -45.743  41.401  24.806  1.00  0.00     0.052 H 
ATOM     63  H   UNL     1     -42.799  41.965  27.066  1.00  0.00     0.052 H 
ATOM     64  H   UNL     1     -44.238  42.521  27.994  1.00  0.00     0.052 H 
ATOM     65  H   UNL     1     -43.718  42.812  24.927  1.00  0.00     0.064 H 
BRANCH  60  66
ATOM     66  O   UNL     1     -44.794  44.270  25.980  1.00  0.00    -0.389 OA
ATOM     67  H   UNL     1     -44.035  44.796  25.678  1.00  0.00     0.211 HD
ENDBRANCH  60  66
ENDBRANCH  53  57
ENDBRANCH  41  42
ENDBRANCH   1  41
TORSDOF 10
ENDMDL
