MODEL 1
REMARK VINA RESULT:      -9.6      0.000      0.000
REMARK SMILES CCn1ccc(-c2cn([C@@H]3O[C@H](COc4ccc5ccc(NC)nc5c4)[C@@H](O)[C@@H]3F)c3ncnc(N)c23)n1
REMARK SMILES IDX 10 1 11 2 12 3 27 4 29 5 30 6 9 11 7 12 8 13 37 14 31 16
REMARK SMILES IDX 35 17 32 18 34 19 33 20 6 22 3 23 4 24 38 25 5 26 2 29 1 32
REMARK SMILES IDX 36 36 13 39 14 42 15 43 16 44 26 45 17 46 25 48 18 50 24 52
REMARK SMILES IDX 19 53 21 54 20 55 22 58 23 60 28 64
REMARK H PARENT 10 7 12 8 27 9 29 10 8 15 33 21 4 27 5 28 2 30 2 31 1 33 1 34
REMARK H PARENT 1 35 36 37 36 38 13 40 13 41 16 47 26 49 17 51 19 56 20 57
REMARK H PARENT 22 59 23 61 23 62 23 63 28 65
REMARK Flexibility Score: inf
ROOT
ATOM      1  C   UNL     1     -45.329  38.090  29.034  1.00  0.00     0.169 C 
ATOM      2  O   UNL     1     -45.123  36.986  28.128  1.00  0.00    -0.345 OA
ATOM      3  C   UNL     1     -46.389  36.311  27.969  1.00  0.00     0.123 C 
ATOM      4  C   UNL     1     -47.467  37.337  28.291  1.00  0.00     0.119 C 
ATOM      5  C   UNL     1     -46.809  38.137  29.394  1.00  0.00     0.173 C 
ATOM      6  F   UNL     1     -47.324  39.386  29.448  1.00  0.00    -0.239 F 
ATOM      7  H   UNL     1     -44.744  37.870  29.935  1.00  0.00     0.088 H 
ATOM      8  H   UNL     1     -46.406  35.494  28.700  1.00  0.00     0.067 H 
ATOM      9  H   UNL     1     -47.718  37.967  27.435  1.00  0.00     0.066 H 
ATOM     10  H   UNL     1     -46.985  37.668  30.368  1.00  0.00     0.074 H 
ENDROOT
BRANCH   1  11
ATOM     11  N   UNL     1     -44.770  39.300  28.454  1.00  0.00    -0.302 N 
ATOM     12  C   UNL     1     -44.533  41.053  27.094  1.00  0.00     0.033 A 
ATOM     13  C   UNL     1     -45.296  39.932  27.353  1.00  0.00     0.019 A 
ATOM     14  C   UNL     1     -43.466  41.083  28.038  1.00  0.00     0.071 A 
ATOM     15  H   UNL     1     -46.179  39.558  26.848  1.00  0.00     0.083 H 
ATOM     16  C   UNL     1     -43.662  39.992  28.885  1.00  0.00     0.148 A 
ATOM     17  C   UNL     1     -42.334  41.875  28.299  1.00  0.00     0.137 A 
ATOM     18  N   UNL     1     -42.896  39.658  29.938  1.00  0.00    -0.218 NA
ATOM     19  N   UNL     1     -41.551  41.574  29.353  1.00  0.00    -0.219 NA
ATOM     20  C   UNL     1     -41.877  40.512  30.108  1.00  0.00     0.120 A 
ATOM     21  H   UNL     1     -41.226  40.316  30.955  1.00  0.00     0.106 H 
BRANCH  12  22
ATOM     22  C   UNL     1     -44.797  42.018  26.030  1.00  0.00     0.095 A 
ATOM     23  N   UNL     1     -44.566  43.148  24.260  1.00  0.00    -0.272 N 
ATOM     24  C   UNL     1     -45.796  43.503  24.736  1.00  0.00     0.025 A 
ATOM     25  N   UNL     1     -43.936  42.240  25.029  1.00  0.00    -0.173 NA
ATOM     26  C   UNL     1     -45.982  42.768  25.884  1.00  0.00    -0.016 A 
ATOM     27  H   UNL     1     -46.426  44.215  24.224  1.00  0.00     0.084 H 
ATOM     28  H   UNL     1     -46.855  42.770  26.523  1.00  0.00     0.066 H 
BRANCH  23  29
ATOM     29  C   UNL     1     -43.925  43.644  23.059  1.00  0.00     0.038 C 
ATOM     30  H   UNL     1     -44.354  44.628  22.836  1.00  0.00     0.051 H 
ATOM     31  H   UNL     1     -44.186  42.970  22.236  1.00  0.00     0.051 H 
BRANCH  29  32
ATOM     32  C   UNL     1     -42.417  43.736  23.211  1.00  0.00    -0.045 C 
ATOM     33  H   UNL     1     -42.106  44.753  23.473  1.00  0.00     0.025 H 
ATOM     34  H   UNL     1     -42.059  43.064  24.000  1.00  0.00     0.025 H 
ATOM     35  H   UNL     1     -41.923  43.458  22.275  1.00  0.00     0.025 H 
ENDBRANCH  29  32
ENDBRANCH  23  29
ENDBRANCH  12  22
BRANCH  17  36
ATOM     36  N   UNL     1     -41.919  42.946  27.518  1.00  0.00    -0.383 N 
ATOM     37  H   UNL     1     -42.684  43.517  27.177  1.00  0.00     0.158 HD
ATOM     38  H   UNL     1     -41.275  42.618  26.807  1.00  0.00     0.158 HD
ENDBRANCH  17  36
ENDBRANCH   1  11
BRANCH   3  39
ATOM     39  C   UNL     1     -46.530  35.751  26.551  1.00  0.00     0.117 C 
ATOM     40  H   UNL     1     -46.636  36.533  25.790  1.00  0.00     0.073 H 
ATOM     41  H   UNL     1     -45.624  35.191  26.292  1.00  0.00     0.073 H 
BRANCH  39  42
ATOM     42  O   UNL     1     -47.604  34.805  26.475  1.00  0.00    -0.491 OA
BRANCH  42  43
ATOM     43  C   UNL     1     -47.423  33.664  25.745  1.00  0.00     0.121 A 
ATOM     44  C   UNL     1     -46.232  33.237  25.163  1.00  0.00    -0.019 A 
ATOM     45  C   UNL     1     -48.578  32.890  25.581  1.00  0.00     0.007 A 
ATOM     46  C   UNL     1     -46.205  32.045  24.436  1.00  0.00    -0.049 A 
ATOM     47  H   UNL     1     -45.310  33.802  25.245  1.00  0.00     0.066 H 
ATOM     48  C   UNL     1     -48.581  31.702  24.864  1.00  0.00     0.076 A 
ATOM     49  H   UNL     1     -49.509  33.227  26.032  1.00  0.00     0.069 H 
ATOM     50  C   UNL     1     -47.372  31.277  24.284  1.00  0.00     0.001 A 
ATOM     51  H   UNL     1     -45.269  31.721  23.987  1.00  0.00     0.063 H 
ATOM     52  N   UNL     1     -49.723  31.000  24.743  1.00  0.00    -0.231 NA
ATOM     53  C   UNL     1     -47.379  30.080  23.566  1.00  0.00    -0.049 A 
ATOM     54  C   UNL     1     -49.722  29.850  24.039  1.00  0.00     0.126 A 
ATOM     55  C   UNL     1     -48.563  29.360  23.447  1.00  0.00    -0.019 A 
ATOM     56  H   UNL     1     -46.473  29.698  23.105  1.00  0.00     0.063 H 
ATOM     57  H   UNL     1     -48.576  28.419  22.909  1.00  0.00     0.066 H 
BRANCH  54  58
ATOM     58  N   UNL     1     -50.895  29.083  23.919  1.00  0.00    -0.373 N 
ATOM     59  H   UNL     1     -50.725  28.323  23.267  1.00  0.00     0.161 HD
BRANCH  58  60
ATOM     60  C   UNL     1     -52.073  29.853  23.554  1.00  0.00     0.005 C 
ATOM     61  H   UNL     1     -52.542  29.467  22.641  1.00  0.00     0.045 H 
ATOM     62  H   UNL     1     -52.810  29.778  24.359  1.00  0.00     0.045 H 
ATOM     63  H   UNL     1     -51.837  30.916  23.427  1.00  0.00     0.045 H 
ENDBRANCH  58  60
ENDBRANCH  54  58
ENDBRANCH  42  43
ENDBRANCH  39  42
ENDBRANCH   3  39
BRANCH   4  64
ATOM     64  O   UNL     1     -48.673  36.708  28.726  1.00  0.00    -0.387 OA
ATOM     65  H   UNL     1     -48.769  35.895  28.195  1.00  0.00     0.211 HD
ENDBRANCH   4  64
TORSDOF 11
ENDMDL
MODEL 2
REMARK VINA RESULT:      -9.1      2.205      3.389
REMARK SMILES CCn1ccc(-c2cn([C@@H]3O[C@H](COc4ccc5ccc(NC)nc5c4)[C@@H](O)[C@@H]3F)c3ncnc(N)c23)n1
REMARK SMILES IDX 10 1 11 2 12 3 27 4 29 5 30 6 9 11 7 12 8 13 37 14 31 16
REMARK SMILES IDX 35 17 32 18 34 19 33 20 6 22 3 23 4 24 38 25 5 26 2 29 1 32
REMARK SMILES IDX 36 36 13 39 14 42 15 43 16 44 26 45 17 46 25 48 18 50 24 52
REMARK SMILES IDX 19 53 21 54 20 55 22 58 23 60 28 64
REMARK H PARENT 10 7 12 8 27 9 29 10 8 15 33 21 4 27 5 28 2 30 2 31 1 33 1 34
REMARK H PARENT 1 35 36 37 36 38 13 40 13 41 16 47 26 49 17 51 19 56 20 57
REMARK H PARENT 22 59 23 61 23 62 23 63 28 65
REMARK Flexibility Score: inf
ROOT
ATOM      1  C   UNL     1     -44.595  38.057  27.981  1.00  0.00     0.169 C 
ATOM      2  O   UNL     1     -45.588  37.102  27.551  1.00  0.00    -0.345 OA
ATOM      3  C   UNL     1     -46.115  36.459  28.731  1.00  0.00     0.123 C 
ATOM      4  C   UNL     1     -45.884  37.424  29.886  1.00  0.00     0.119 C 
ATOM      5  C   UNL     1     -44.560  38.048  29.504  1.00  0.00     0.173 C 
ATOM      6  F   UNL     1     -44.434  39.275  30.060  1.00  0.00    -0.239 F 
ATOM      7  H   UNL     1     -43.632  37.702  27.594  1.00  0.00     0.088 H 
ATOM      8  H   UNL     1     -45.533  35.541  28.876  1.00  0.00     0.067 H 
ATOM      9  H   UNL     1     -46.672  38.176  29.969  1.00  0.00     0.066 H 
ATOM     10  H   UNL     1     -43.726  37.437  29.869  1.00  0.00     0.074 H 
ENDROOT
BRANCH   1  11
ATOM     11  N   UNL     1     -44.856  39.341  27.351  1.00  0.00    -0.302 N 
ATOM     12  C   UNL     1     -44.480  41.262  26.281  1.00  0.00     0.033 A 
ATOM     13  C   UNL     1     -43.877  40.138  26.810  1.00  0.00     0.019 A 
ATOM     14  C   UNL     1     -45.876  41.177  26.554  1.00  0.00     0.071 A 
ATOM     15  H   UNL     1     -42.833  39.847  26.819  1.00  0.00     0.083 H 
ATOM     16  C   UNL     1     -46.076  39.955  27.197  1.00  0.00     0.148 A 
ATOM     17  C   UNL     1     -47.020  41.972  26.365  1.00  0.00     0.137 A 
ATOM     18  N   UNL     1     -47.256  39.461  27.610  1.00  0.00    -0.218 NA
ATOM     19  N   UNL     1     -48.220  41.503  26.758  1.00  0.00    -0.219 NA
ATOM     20  C   UNL     1     -48.272  40.290  27.334  1.00  0.00     0.120 A 
ATOM     21  H   UNL     1     -49.261  39.946  27.622  1.00  0.00     0.106 H 
BRANCH  12  22
ATOM     22  C   UNL     1     -43.782  42.333  25.575  1.00  0.00     0.095 A 
ATOM     23  N   UNL     1     -43.326  43.798  24.124  1.00  0.00    -0.272 N 
ATOM     24  C   UNL     1     -42.368  43.956  25.084  1.00  0.00     0.025 A 
ATOM     25  N   UNL     1     -44.204  42.816  24.401  1.00  0.00    -0.173 NA
ATOM     26  C   UNL     1     -42.649  43.023  26.055  1.00  0.00    -0.016 A 
ATOM     27  H   UNL     1     -41.597  44.710  25.009  1.00  0.00     0.084 H 
ATOM     28  H   UNL     1     -42.115  42.867  26.982  1.00  0.00     0.066 H 
BRANCH  23  29
ATOM     29  C   UNL     1     -43.461  44.563  22.901  1.00  0.00     0.038 C 
ATOM     30  H   UNL     1     -42.699  44.206  22.200  1.00  0.00     0.051 H 
ATOM     31  H   UNL     1     -43.239  45.610  23.133  1.00  0.00     0.051 H 
BRANCH  29  32
ATOM     32  C   UNL     1     -44.849  44.437  22.298  1.00  0.00    -0.045 C 
ATOM     33  H   UNL     1     -45.184  45.389  21.872  1.00  0.00     0.025 H 
ATOM     34  H   UNL     1     -44.865  43.690  21.497  1.00  0.00     0.025 H 
ATOM     35  H   UNL     1     -45.570  44.133  23.064  1.00  0.00     0.025 H 
ENDBRANCH  29  32
ENDBRANCH  23  29
ENDBRANCH  12  22
BRANCH  17  36
ATOM     36  N   UNL     1     -47.014  43.255  25.830  1.00  0.00    -0.383 N 
ATOM     37  H   UNL     1     -46.084  43.598  25.615  1.00  0.00     0.158 HD
ATOM     38  H   UNL     1     -47.577  43.867  26.408  1.00  0.00     0.158 HD
ENDBRANCH  17  36
ENDBRANCH   1  11
BRANCH   3  39
ATOM     39  C   UNL     1     -47.596  36.120  28.548  1.00  0.00     0.117 C 
ATOM     40  H   UNL     1     -47.889  35.193  29.057  1.00  0.00     0.073 H 
ATOM     41  H   UNL     1     -48.206  36.917  28.987  1.00  0.00     0.073 H 
BRANCH  39  42
ATOM     42  O   UNL     1     -47.949  36.082  27.160  1.00  0.00    -0.491 OA
BRANCH  42  43
ATOM     43  C   UNL     1     -48.230  34.874  26.587  1.00  0.00     0.121 A 
ATOM     44  C   UNL     1     -49.437  34.184  26.665  1.00  0.00    -0.019 A 
ATOM     45  C   UNL     1     -47.165  34.308  25.876  1.00  0.00     0.007 A 
ATOM     46  C   UNL     1     -49.570  32.948  26.028  1.00  0.00    -0.049 A 
ATOM     47  H   UNL     1     -50.291  34.567  27.211  1.00  0.00     0.066 H 
ATOM     48  C   UNL     1     -47.269  33.081  25.234  1.00  0.00     0.076 A 
ATOM     49  H   UNL     1     -46.220  34.845  25.819  1.00  0.00     0.069 H 
ATOM     50  C   UNL     1     -48.494  32.395  25.314  1.00  0.00     0.001 A 
ATOM     51  H   UNL     1     -50.518  32.419  26.094  1.00  0.00     0.063 H 
ATOM     52  N   UNL     1     -46.210  32.589  24.563  1.00  0.00    -0.231 NA
ATOM     53  C   UNL     1     -48.595  31.163  24.664  1.00  0.00    -0.049 A 
ATOM     54  C   UNL     1     -46.314  31.394  23.948  1.00  0.00     0.126 A 
ATOM     55  C   UNL     1     -47.497  30.662  23.973  1.00  0.00    -0.019 A 
ATOM     56  H   UNL     1     -49.519  30.594  24.684  1.00  0.00     0.063 H 
ATOM     57  H   UNL     1     -47.569  29.717  23.447  1.00  0.00     0.066 H 
BRANCH  54  58
ATOM     58  N   UNL     1     -45.233  30.868  23.217  1.00  0.00    -0.373 N 
ATOM     59  H   UNL     1     -44.683  31.637  22.845  1.00  0.00     0.161 HD
BRANCH  58  60
ATOM     60  C   UNL     1     -45.621  29.929  22.177  1.00  0.00     0.005 C 
ATOM     61  H   UNL     1     -46.482  30.294  21.605  1.00  0.00     0.045 H 
ATOM     62  H   UNL     1     -44.788  29.810  21.478  1.00  0.00     0.045 H 
ATOM     63  H   UNL     1     -45.844  28.939  22.590  1.00  0.00     0.045 H 
ENDBRANCH  58  60
ENDBRANCH  54  58
ENDBRANCH  42  43
ENDBRANCH  39  42
ENDBRANCH   3  39
BRANCH   4  64
ATOM     64  O   UNL     1     -45.817  36.737  31.135  1.00  0.00    -0.387 OA
ATOM     65  H   UNL     1     -44.931  36.916  31.504  1.00  0.00     0.211 HD
ENDBRANCH   4  64
TORSDOF 11
ENDMDL
MODEL 3
REMARK VINA RESULT:      -9.1      1.595      2.034
REMARK SMILES CCn1ccc(-c2cn([C@@H]3O[C@H](COc4ccc5ccc(NC)nc5c4)[C@@H](O)[C@@H]3F)c3ncnc(N)c23)n1
REMARK SMILES IDX 10 1 11 2 12 3 27 4 29 5 30 6 9 11 7 12 8 13 37 14 31 16
REMARK SMILES IDX 35 17 32 18 34 19 33 20 6 22 3 23 4 24 38 25 5 26 2 29 1 32
REMARK SMILES IDX 36 36 13 39 14 42 15 43 16 44 26 45 17 46 25 48 18 50 24 52
REMARK SMILES IDX 19 53 21 54 20 55 22 58 23 60 28 64
REMARK H PARENT 10 7 12 8 27 9 29 10 8 15 33 21 4 27 5 28 2 30 2 31 1 33 1 34
REMARK H PARENT 1 35 36 37 36 38 13 40 13 41 16 47 26 49 17 51 19 56 20 57
REMARK H PARENT 22 59 23 61 23 62 23 63 28 65
REMARK Flexibility Score: inf
ROOT
ATOM      1  C   UNL     1     -46.772  36.695  28.789  1.00  0.00     0.169 C 
ATOM      2  O   UNL     1     -46.068  35.556  28.250  1.00  0.00    -0.345 OA
ATOM      3  C   UNL     1     -47.021  34.768  27.505  1.00  0.00     0.123 C 
ATOM      4  C   UNL     1     -48.138  35.718  27.095  1.00  0.00     0.119 C 
ATOM      5  C   UNL     1     -48.211  36.640  28.293  1.00  0.00     0.173 C 
ATOM      6  F   UNL     1     -48.719  37.842  27.937  1.00  0.00    -0.239 F 
ATOM      7  H   UNL     1     -46.760  36.583  29.880  1.00  0.00     0.088 H 
ATOM      8  H   UNL     1     -47.401  34.002  28.190  1.00  0.00     0.067 H 
ATOM      9  H   UNL     1     -47.908  36.268  26.180  1.00  0.00     0.066 H 
ATOM     10  H   UNL     1     -48.870  36.221  29.062  1.00  0.00     0.074 H 
ENDROOT
BRANCH   1  11
ATOM     11  N   UNL     1     -46.032  37.909  28.482  1.00  0.00    -0.302 N 
ATOM     12  C   UNL     1     -45.444  39.796  27.447  1.00  0.00     0.033 A 
ATOM     13  C   UNL     1     -46.328  38.735  27.425  1.00  0.00     0.019 A 
ATOM     14  C   UNL     1     -44.538  39.586  28.527  1.00  0.00     0.071 A 
ATOM     15  H   UNL     1     -47.149  38.526  26.749  1.00  0.00     0.083 H 
ATOM     16  C   UNL     1     -44.952  38.417  29.165  1.00  0.00     0.148 A 
ATOM     17  C   UNL     1     -43.399  40.214  29.062  1.00  0.00     0.137 A 
ATOM     18  N   UNL     1     -44.389  37.866  30.254  1.00  0.00    -0.218 NA
ATOM     19  N   UNL     1     -42.817  39.693  30.160  1.00  0.00    -0.219 NA
ATOM     20  C   UNL     1     -43.342  38.578  30.693  1.00  0.00     0.120 A 
ATOM     21  H   UNL     1     -42.850  38.203  31.585  1.00  0.00     0.106 H 
BRANCH  12  22
ATOM     22  C   UNL     1     -45.459  40.918  26.513  1.00  0.00     0.095 A 
ATOM     23  N   UNL     1     -44.870  42.240  24.975  1.00  0.00    -0.272 N 
ATOM     24  C   UNL     1     -46.116  42.667  25.336  1.00  0.00     0.025 A 
ATOM     25  N   UNL     1     -44.447  41.172  25.675  1.00  0.00    -0.173 NA
ATOM     26  C   UNL     1     -46.534  41.812  26.330  1.00  0.00    -0.016 A 
ATOM     27  H   UNL     1     -46.595  43.510  24.859  1.00  0.00     0.084 H 
ATOM     28  H   UNL     1     -47.485  41.829  26.844  1.00  0.00     0.066 H 
BRANCH  23  29
ATOM     29  C   UNL     1     -44.019  42.816  23.953  1.00  0.00     0.038 C 
ATOM     30  H   UNL     1     -43.804  42.031  23.219  1.00  0.00     0.051 H 
ATOM     31  H   UNL     1     -43.073  43.100  24.426  1.00  0.00     0.051 H 
BRANCH  29  32
ATOM     32  C   UNL     1     -44.660  44.018  23.284  1.00  0.00    -0.045 C 
ATOM     33  H   UNL     1     -44.213  44.212  22.304  1.00  0.00     0.025 H 
ATOM     34  H   UNL     1     -45.734  43.860  23.135  1.00  0.00     0.025 H 
ATOM     35  H   UNL     1     -44.529  44.912  23.903  1.00  0.00     0.025 H 
ENDBRANCH  29  32
ENDBRANCH  23  29
ENDBRANCH  12  22
BRANCH  17  36
ATOM     36  N   UNL     1     -42.781  41.332  28.517  1.00  0.00    -0.383 N 
ATOM     37  H   UNL     1     -43.209  42.208  28.798  1.00  0.00     0.158 HD
ATOM     38  H   UNL     1     -42.673  41.207  27.517  1.00  0.00     0.158 HD
ENDBRANCH  17  36
ENDBRANCH   1  11
BRANCH   3  39
ATOM     39  C   UNL     1     -46.351  34.108  26.297  1.00  0.00     0.117 C 
ATOM     40  H   UNL     1     -45.584  34.740  25.834  1.00  0.00     0.073 H 
ATOM     41  H   UNL     1     -45.842  33.194  26.621  1.00  0.00     0.073 H 
BRANCH  39  42
ATOM     42  O   UNL     1     -47.325  33.688  25.333  1.00  0.00    -0.491 OA
BRANCH  42  43
ATOM     43  C   UNL     1     -47.230  32.429  24.811  1.00  0.00     0.121 A 
ATOM     44  C   UNL     1     -46.304  31.995  23.866  1.00  0.00    -0.019 A 
ATOM     45  C   UNL     1     -48.188  31.528  25.292  1.00  0.00     0.007 A 
ATOM     46  C   UNL     1     -46.337  30.672  23.420  1.00  0.00    -0.049 A 
ATOM     47  H   UNL     1     -45.549  32.651  23.449  1.00  0.00     0.066 H 
ATOM     48  C   UNL     1     -48.245  30.207  24.866  1.00  0.00     0.076 A 
ATOM     49  H   UNL     1     -48.914  31.869  26.026  1.00  0.00     0.069 H 
ATOM     50  C   UNL     1     -47.302  29.778  23.916  1.00  0.00     0.001 A 
ATOM     51  H   UNL     1     -45.609  30.344  22.683  1.00  0.00     0.063 H 
ATOM     52  N   UNL     1     -49.188  29.388  25.368  1.00  0.00    -0.231 NA
ATOM     53  C   UNL     1     -47.362  28.449  23.494  1.00  0.00    -0.049 A 
ATOM     54  C   UNL     1     -49.244  28.108  24.946  1.00  0.00     0.126 A 
ATOM     55  C   UNL     1     -48.338  27.607  24.017  1.00  0.00    -0.019 A 
ATOM     56  H   UNL     1     -46.653  28.059  22.769  1.00  0.00     0.063 H 
ATOM     57  H   UNL     1     -48.381  26.568  23.712  1.00  0.00     0.066 H 
BRANCH  54  58
ATOM     58  N   UNL     1     -50.202  27.222  25.472  1.00  0.00    -0.373 N 
ATOM     59  H   UNL     1     -50.592  27.626  26.318  1.00  0.00     0.161 HD
BRANCH  58  60
ATOM     60  C   UNL     1     -49.702  25.875  25.698  1.00  0.00     0.005 C 
ATOM     61  H   UNL     1     -50.227  25.140  25.077  1.00  0.00     0.045 H 
ATOM     62  H   UNL     1     -48.642  25.839  25.424  1.00  0.00     0.045 H 
ATOM     63  H   UNL     1     -49.775  25.589  26.753  1.00  0.00     0.045 H 
ENDBRANCH  58  60
ENDBRANCH  54  58
ENDBRANCH  42  43
ENDBRANCH  39  42
ENDBRANCH   3  39
BRANCH   4  64
ATOM     64  O   UNL     1     -49.363  35.019  26.876  1.00  0.00    -0.387 OA
ATOM     65  H   UNL     1     -50.039  35.696  26.682  1.00  0.00     0.211 HD
ENDBRANCH   4  64
TORSDOF 11
ENDMDL
MODEL 4
REMARK VINA RESULT:      -9.0      1.609      2.154
REMARK SMILES CCn1ccc(-c2cn([C@@H]3O[C@H](COc4ccc5ccc(NC)nc5c4)[C@@H](O)[C@@H]3F)c3ncnc(N)c23)n1
REMARK SMILES IDX 10 1 11 2 12 3 27 4 29 5 30 6 9 11 7 12 8 13 37 14 31 16
REMARK SMILES IDX 35 17 32 18 34 19 33 20 6 22 3 23 4 24 38 25 5 26 2 29 1 32
REMARK SMILES IDX 36 36 13 39 14 42 15 43 16 44 26 45 17 46 25 48 18 50 24 52
REMARK SMILES IDX 19 53 21 54 20 55 22 58 23 60 28 64
REMARK H PARENT 10 7 12 8 27 9 29 10 8 15 33 21 4 27 5 28 2 30 2 31 1 33 1 34
REMARK H PARENT 1 35 36 37 36 38 13 40 13 41 16 47 26 49 17 51 19 56 20 57
REMARK H PARENT 22 59 23 61 23 62 23 63 28 65
REMARK Flexibility Score: inf
ROOT
ATOM      1  C   UNL     1     -46.070  38.209  28.850  1.00  0.00     0.169 C 
ATOM      2  O   UNL     1     -45.533  36.935  28.436  1.00  0.00    -0.345 OA
ATOM      3  C   UNL     1     -46.616  36.171  27.862  1.00  0.00     0.123 C 
ATOM      4  C   UNL     1     -47.651  37.182  27.388  1.00  0.00     0.119 C 
ATOM      5  C   UNL     1     -47.539  38.256  28.448  1.00  0.00     0.173 C 
ATOM      6  F   UNL     1     -47.939  39.451  27.958  1.00  0.00    -0.239 F 
ATOM      7  H   UNL     1     -45.993  38.240  29.944  1.00  0.00     0.088 H 
ATOM      8  H   UNL     1     -47.026  35.551  28.667  1.00  0.00     0.067 H 
ATOM      9  H   UNL     1     -47.429  37.577  26.394  1.00  0.00     0.066 H 
ATOM     10  H   UNL     1     -48.182  38.021  29.304  1.00  0.00     0.074 H 
ENDROOT
BRANCH   1  11
ATOM     11  N   UNL     1     -45.229  39.277  28.337  1.00  0.00    -0.302 N 
ATOM     12  C   UNL     1     -44.523  40.939  27.026  1.00  0.00     0.033 A 
ATOM     13  C   UNL     1     -45.517  39.998  27.203  1.00  0.00     0.019 A 
ATOM     14  C   UNL     1     -43.559  40.755  28.059  1.00  0.00     0.071 A 
ATOM     15  H   UNL     1     -46.410  39.809  26.618  1.00  0.00     0.083 H 
ATOM     16  C   UNL     1     -44.046  39.731  28.872  1.00  0.00     0.148 A 
ATOM     17  C   UNL     1     -42.317  41.301  28.428  1.00  0.00     0.137 A 
ATOM     18  N   UNL     1     -43.459  39.253  29.983  1.00  0.00    -0.218 NA
ATOM     19  N   UNL     1     -41.706  40.852  29.542  1.00  0.00    -0.219 NA
ATOM     20  C   UNL     1     -42.307  39.882  30.252  1.00  0.00     0.120 A 
ATOM     21  H   UNL     1     -41.786  39.562  31.149  1.00  0.00     0.106 H 
BRANCH  12  22
ATOM     22  C   UNL     1     -44.490  41.932  25.956  1.00  0.00     0.095 A 
ATOM     23  N   UNL     1     -43.779  43.135  24.373  1.00  0.00    -0.272 N 
ATOM     24  C   UNL     1     -45.111  43.424  24.451  1.00  0.00     0.025 A 
ATOM     25  N   UNL     1     -43.374  42.225  25.277  1.00  0.00    -0.173 NA
ATOM     26  C   UNL     1     -45.607  42.640  25.467  1.00  0.00    -0.016 A 
ATOM     27  H   UNL     1     -45.586  44.130  23.785  1.00  0.00     0.084 H 
ATOM     28  H   UNL     1     -46.634  42.584  25.802  1.00  0.00     0.066 H 
BRANCH  23  29
ATOM     29  C   UNL     1     -42.822  43.701  23.442  1.00  0.00     0.038 C 
ATOM     30  H   UNL     1     -42.329  42.869  22.926  1.00  0.00     0.051 H 
ATOM     31  H   UNL     1     -42.062  44.232  24.025  1.00  0.00     0.051 H 
BRANCH  29  32
ATOM     32  C   UNL     1     -43.479  44.640  22.447  1.00  0.00    -0.045 C 
ATOM     33  H   UNL     1     -42.760  44.988  21.697  1.00  0.00     0.025 H 
ATOM     34  H   UNL     1     -44.299  44.142  21.917  1.00  0.00     0.025 H 
ATOM     35  H   UNL     1     -43.887  45.516  22.962  1.00  0.00     0.025 H 
ENDBRANCH  29  32
ENDBRANCH  23  29
ENDBRANCH  12  22
BRANCH  17  36
ATOM     36  N   UNL     1     -41.626  42.261  27.700  1.00  0.00    -0.383 N 
ATOM     37  H   UNL     1     -40.715  41.950  27.383  1.00  0.00     0.158 HD
ATOM     38  H   UNL     1     -41.630  43.140  28.206  1.00  0.00     0.158 HD
ENDBRANCH  17  36
ENDBRANCH   1  11
BRANCH   3  39
ATOM     39  C   UNL     1     -46.109  35.286  26.721  1.00  0.00     0.117 C 
ATOM     40  H   UNL     1     -46.560  35.533  25.753  1.00  0.00     0.073 H 
ATOM     41  H   UNL     1     -45.029  35.431  26.603  1.00  0.00     0.073 H 
BRANCH  39  42
ATOM     42  O   UNL     1     -46.280  33.897  27.032  1.00  0.00    -0.491 OA
BRANCH  42  43
ATOM     43  C   UNL     1     -46.966  33.107  26.152  1.00  0.00     0.121 A 
ATOM     44  C   UNL     1     -48.232  32.562  26.346  1.00  0.00    -0.019 A 
ATOM     45  C   UNL     1     -46.281  32.836  24.961  1.00  0.00     0.007 A 
ATOM     46  C   UNL     1     -48.803  31.765  25.352  1.00  0.00    -0.049 A 
ATOM     47  H   UNL     1     -48.803  32.728  27.253  1.00  0.00     0.066 H 
ATOM     48  C   UNL     1     -46.823  32.046  23.956  1.00  0.00     0.076 A 
ATOM     49  H   UNL     1     -45.289  33.258  24.812  1.00  0.00     0.069 H 
ATOM     50  C   UNL     1     -48.105  31.505  24.161  1.00  0.00     0.001 A 
ATOM     51  H   UNL     1     -49.793  31.346  25.514  1.00  0.00     0.063 H 
ATOM     52  N   UNL     1     -46.118  31.823  22.832  1.00  0.00    -0.231 NA
ATOM     53  C   UNL     1     -48.647  30.714  23.145  1.00  0.00    -0.049 A 
ATOM     54  C   UNL     1     -46.645  31.049  21.862  1.00  0.00     0.126 A 
ATOM     55  C   UNL     1     -47.913  30.489  21.986  1.00  0.00    -0.019 A 
ATOM     56  H   UNL     1     -49.637  30.278  23.244  1.00  0.00     0.063 H 
ATOM     57  H   UNL     1     -48.331  29.893  21.183  1.00  0.00     0.066 H 
BRANCH  54  58
ATOM     58  N   UNL     1     -45.942  30.820  20.665  1.00  0.00    -0.373 N 
ATOM     59  H   UNL     1     -44.956  30.702  20.882  1.00  0.00     0.161 HD
BRANCH  58  60
ATOM     60  C   UNL     1     -46.152  31.840  19.650  1.00  0.00     0.005 C 
ATOM     61  H   UNL     1     -45.620  32.767  19.891  1.00  0.00     0.045 H 
ATOM     62  H   UNL     1     -45.762  31.475  18.695  1.00  0.00     0.045 H 
ATOM     63  H   UNL     1     -47.218  32.051  19.506  1.00  0.00     0.045 H 
ENDBRANCH  58  60
ENDBRANCH  54  58
ENDBRANCH  42  43
ENDBRANCH  39  42
ENDBRANCH   3  39
BRANCH   4  64
ATOM     64  O   UNL     1     -48.957  36.607  27.337  1.00  0.00    -0.387 OA
ATOM     65  H   UNL     1     -48.874  35.697  27.681  1.00  0.00     0.211 HD
ENDBRANCH   4  64
TORSDOF 11
ENDMDL
MODEL 5
REMARK VINA RESULT:      -8.8      2.998      4.192
REMARK SMILES CCn1ccc(-c2cn([C@@H]3O[C@H](COc4ccc5ccc(NC)nc5c4)[C@@H](O)[C@@H]3F)c3ncnc(N)c23)n1
REMARK SMILES IDX 10 1 11 2 12 3 27 4 29 5 30 6 9 11 7 12 8 13 37 14 31 16
REMARK SMILES IDX 35 17 32 18 34 19 33 20 6 22 3 23 4 24 38 25 5 26 2 29 1 32
REMARK SMILES IDX 36 36 13 39 14 42 15 43 16 44 26 45 17 46 25 48 18 50 24 52
REMARK SMILES IDX 19 53 21 54 20 55 22 58 23 60 28 64
REMARK H PARENT 10 7 12 8 27 9 29 10 8 15 33 21 4 27 5 28 2 30 2 31 1 33 1 34
REMARK H PARENT 1 35 36 37 36 38 13 40 13 41 16 47 26 49 17 51 19 56 20 57
REMARK H PARENT 22 59 23 61 23 62 23 63 28 65
REMARK Flexibility Score: inf
ROOT
ATOM      1  C   UNL     1     -45.680  37.693  27.371  1.00  0.00     0.169 C 
ATOM      2  O   UNL     1     -46.368  36.686  26.599  1.00  0.00    -0.345 OA
ATOM      3  C   UNL     1     -46.675  35.590  27.488  1.00  0.00     0.123 C 
ATOM      4  C   UNL     1     -46.711  36.173  28.894  1.00  0.00     0.119 C 
ATOM      5  C   UNL     1     -45.624  37.222  28.819  1.00  0.00     0.173 C 
ATOM      6  F   UNL     1     -45.843  38.200  29.727  1.00  0.00    -0.239 F 
ATOM      7  H   UNL     1     -44.662  37.754  26.969  1.00  0.00     0.088 H 
ATOM      8  H   UNL     1     -45.855  34.868  27.393  1.00  0.00     0.067 H 
ATOM      9  H   UNL     1     -47.678  36.617  29.140  1.00  0.00     0.066 H 
ATOM     10  H   UNL     1     -44.646  36.780  29.044  1.00  0.00     0.074 H 
ENDROOT
BRANCH   1  11
ATOM     11  N   UNL     1     -46.303  38.986  27.140  1.00  0.00    -0.302 N 
ATOM     12  C   UNL     1     -47.877  40.565  27.048  1.00  0.00     0.033 A 
ATOM     13  C   UNL     1     -47.638  39.237  27.342  1.00  0.00     0.019 A 
ATOM     14  C   UNL     1     -46.653  41.139  26.597  1.00  0.00     0.071 A 
ATOM     15  H   UNL     1     -48.316  38.470  27.697  1.00  0.00     0.083 H 
ATOM     16  C   UNL     1     -45.690  40.134  26.694  1.00  0.00     0.148 A 
ATOM     17  C   UNL     1     -46.209  42.376  26.098  1.00  0.00     0.137 A 
ATOM     18  N   UNL     1     -44.386  40.254  26.394  1.00  0.00    -0.218 NA
ATOM     19  N   UNL     1     -44.906  42.533  25.796  1.00  0.00    -0.219 NA
ATOM     20  C   UNL     1     -44.079  41.489  25.971  1.00  0.00     0.120 A 
ATOM     21  H   UNL     1     -43.036  41.666  25.729  1.00  0.00     0.106 H 
BRANCH  12  22
ATOM     22  C   UNL     1     -49.168  41.233  27.181  1.00  0.00     0.095 A 
ATOM     23  N   UNL     1     -50.905  42.331  26.694  1.00  0.00    -0.272 N 
ATOM     24  C   UNL     1     -51.109  41.921  27.980  1.00  0.00     0.025 A 
ATOM     25  N   UNL     1     -49.730  41.922  26.181  1.00  0.00    -0.173 NA
ATOM     26  C   UNL     1     -49.996  41.187  28.322  1.00  0.00    -0.016 A 
ATOM     27  H   UNL     1     -52.010  42.163  28.526  1.00  0.00     0.084 H 
ATOM     28  H   UNL     1     -49.813  40.683  29.261  1.00  0.00     0.066 H 
BRANCH  23  29
ATOM     29  C   UNL     1     -51.807  43.127  25.885  1.00  0.00     0.038 C 
ATOM     30  H   UNL     1     -51.761  44.158  26.254  1.00  0.00     0.051 H 
ATOM     31  H   UNL     1     -52.824  42.756  26.053  1.00  0.00     0.051 H 
BRANCH  29  32
ATOM     32  C   UNL     1     -51.458  43.065  24.409  1.00  0.00    -0.045 C 
ATOM     33  H   UNL     1     -52.359  42.990  23.791  1.00  0.00     0.025 H 
ATOM     34  H   UNL     1     -50.911  43.961  24.096  1.00  0.00     0.025 H 
ATOM     35  H   UNL     1     -50.829  42.192  24.204  1.00  0.00     0.025 H 
ENDBRANCH  29  32
ENDBRANCH  23  29
ENDBRANCH  12  22
BRANCH  17  36
ATOM     36  N   UNL     1     -47.030  43.467  25.843  1.00  0.00    -0.383 N 
ATOM     37  H   UNL     1     -46.880  43.880  24.929  1.00  0.00     0.158 HD
ATOM     38  H   UNL     1     -46.986  44.115  26.621  1.00  0.00     0.158 HD
ENDBRANCH  17  36
ENDBRANCH   1  11
BRANCH   3  39
ATOM     39  C   UNL     1     -48.002  34.933  27.100  1.00  0.00     0.117 C 
ATOM     40  H   UNL     1     -48.848  35.291  27.698  1.00  0.00     0.073 H 
ATOM     41  H   UNL     1     -48.236  35.178  26.058  1.00  0.00     0.073 H 
BRANCH  39  42
ATOM     42  O   UNL     1     -47.903  33.504  27.148  1.00  0.00    -0.491 OA
BRANCH  42  43
ATOM     43  C   UNL     1     -48.266  32.784  26.044  1.00  0.00     0.121 A 
ATOM     44  C   UNL     1     -49.566  32.542  25.608  1.00  0.00    -0.019 A 
ATOM     45  C   UNL     1     -47.192  32.246  25.324  1.00  0.00     0.007 A 
ATOM     46  C   UNL     1     -49.779  31.777  24.459  1.00  0.00    -0.049 A 
ATOM     47  H   UNL     1     -50.435  32.922  26.132  1.00  0.00     0.066 H 
ATOM     48  C   UNL     1     -47.375  31.482  24.179  1.00  0.00     0.076 A 
ATOM     49  H   UNL     1     -46.177  32.432  25.668  1.00  0.00     0.069 H 
ATOM     50  C   UNL     1     -48.692  31.248  23.744  1.00  0.00     0.001 A 
ATOM     51  H   UNL     1     -50.798  31.596  24.127  1.00  0.00     0.063 H 
ATOM     52  N   UNL     1     -46.303  30.994  23.528  1.00  0.00    -0.231 NA
ATOM     53  C   UNL     1     -48.870  30.482  22.590  1.00  0.00    -0.049 A 
ATOM     54  C   UNL     1     -46.486  30.246  22.421  1.00  0.00     0.126 A 
ATOM     55  C   UNL     1     -47.757  29.981  21.922  1.00  0.00    -0.019 A 
ATOM     56  H   UNL     1     -49.863  30.277  22.202  1.00  0.00     0.063 H 
ATOM     57  H   UNL     1     -47.882  29.402  21.014  1.00  0.00     0.066 H 
BRANCH  54  58
ATOM     58  N   UNL     1     -45.383  29.745  21.704  1.00  0.00    -0.373 N 
ATOM     59  H   UNL     1     -45.709  29.377  20.816  1.00  0.00     0.161 HD
BRANCH  58  60
ATOM     60  C   UNL     1     -44.596  28.766  22.437  1.00  0.00     0.005 C 
ATOM     61  H   UNL     1     -44.718  28.879  23.521  1.00  0.00     0.045 H 
ATOM     62  H   UNL     1     -44.940  27.762  22.170  1.00  0.00     0.045 H 
ATOM     63  H   UNL     1     -43.533  28.826  22.177  1.00  0.00     0.045 H 
ENDBRANCH  58  60
ENDBRANCH  54  58
ENDBRANCH  42  43
ENDBRANCH  39  42
ENDBRANCH   3  39
BRANCH   4  64
ATOM     64  O   UNL     1     -46.435  35.178  29.879  1.00  0.00    -0.387 OA
ATOM     65  H   UNL     1     -45.954  34.461  29.423  1.00  0.00     0.211 HD
ENDBRANCH   4  64
TORSDOF 11
ENDMDL
MODEL 6
REMARK VINA RESULT:      -8.6      2.698      4.736
REMARK SMILES CCn1ccc(-c2cn([C@@H]3O[C@H](COc4ccc5ccc(NC)nc5c4)[C@@H](O)[C@@H]3F)c3ncnc(N)c23)n1
REMARK SMILES IDX 10 1 11 2 12 3 27 4 29 5 30 6 9 11 7 12 8 13 37 14 31 16
REMARK SMILES IDX 35 17 32 18 34 19 33 20 6 22 3 23 4 24 38 25 5 26 2 29 1 32
REMARK SMILES IDX 36 36 13 39 14 42 15 43 16 44 26 45 17 46 25 48 18 50 24 52
REMARK SMILES IDX 19 53 21 54 20 55 22 58 23 60 28 64
REMARK H PARENT 10 7 12 8 27 9 29 10 8 15 33 21 4 27 5 28 2 30 2 31 1 33 1 34
REMARK H PARENT 1 35 36 37 36 38 13 40 13 41 16 47 26 49 17 51 19 56 20 57
REMARK H PARENT 22 59 23 61 23 62 23 63 28 65
REMARK Flexibility Score: inf
ROOT
ATOM      1  C   UNL     1     -44.137  40.460  26.702  1.00  0.00     0.169 C 
ATOM      2  O   UNL     1     -45.070  39.360  26.744  1.00  0.00    -0.345 OA
ATOM      3  C   UNL     1     -44.934  38.721  28.032  1.00  0.00     0.123 C 
ATOM      4  C   UNL     1     -44.365  39.772  28.975  1.00  0.00     0.119 C 
ATOM      5  C   UNL     1     -43.443  40.542  28.056  1.00  0.00     0.173 C 
ATOM      6  F   UNL     1     -43.264  41.804  28.509  1.00  0.00    -0.239 F 
ATOM      7  H   UNL     1     -43.397  40.213  25.930  1.00  0.00     0.088 H 
ATOM      8  H   UNL     1     -44.223  37.897  27.902  1.00  0.00     0.067 H 
ATOM      9  H   UNL     1     -45.137  40.418  29.400  1.00  0.00     0.066 H 
ATOM     10  H   UNL     1     -42.456  40.067  28.014  1.00  0.00     0.074 H 
ENDROOT
BRANCH   1  11
ATOM     11  N   UNL     1     -44.826  41.660  26.259  1.00  0.00    -0.302 N 
ATOM     12  C   UNL     1     -46.479  43.118  25.915  1.00  0.00     0.033 A 
ATOM     13  C   UNL     1     -46.171  41.876  26.432  1.00  0.00     0.019 A 
ATOM     14  C   UNL     1     -45.288  43.666  25.356  1.00  0.00     0.071 A 
ATOM     15  H   UNL     1     -46.808  41.148  26.922  1.00  0.00     0.083 H 
ATOM     16  C   UNL     1     -44.274  42.742  25.614  1.00  0.00     0.148 A 
ATOM     17  C   UNL     1     -44.910  44.818  24.645  1.00  0.00     0.137 A 
ATOM     18  N   UNL     1     -42.979  42.874  25.280  1.00  0.00    -0.218 NA
ATOM     19  N   UNL     1     -43.618  44.986  24.304  1.00  0.00    -0.219 NA
ATOM     20  C   UNL     1     -42.738  44.030  24.646  1.00  0.00     0.120 A 
ATOM     21  H   UNL     1     -41.706  44.214  24.364  1.00  0.00     0.106 H 
BRANCH  12  22
ATOM     22  C   UNL     1     -47.802  43.735  25.948  1.00  0.00     0.095 A 
ATOM     23  N   UNL     1     -49.878  44.018  25.680  1.00  0.00    -0.272 N 
ATOM     24  C   UNL     1     -49.474  45.107  26.398  1.00  0.00     0.025 A 
ATOM     25  N   UNL     1     -48.878  43.163  25.395  1.00  0.00    -0.173 NA
ATOM     26  C   UNL     1     -48.123  44.942  26.602  1.00  0.00    -0.016 A 
ATOM     27  H   UNL     1     -50.163  45.878  26.710  1.00  0.00     0.084 H 
ATOM     28  H   UNL     1     -47.464  45.600  27.154  1.00  0.00     0.066 H 
BRANCH  23  29
ATOM     29  C   UNL     1     -51.225  43.728  25.229  1.00  0.00     0.038 C 
ATOM     30  H   UNL     1     -51.841  44.610  25.436  1.00  0.00     0.051 H 
ATOM     31  H   UNL     1     -51.610  42.900  25.833  1.00  0.00     0.051 H 
BRANCH  29  32
ATOM     32  C   UNL     1     -51.269  43.374  23.753  1.00  0.00    -0.045 C 
ATOM     33  H   UNL     1     -51.122  42.300  23.599  1.00  0.00     0.025 H 
ATOM     34  H   UNL     1     -52.235  43.645  23.312  1.00  0.00     0.025 H 
ATOM     35  H   UNL     1     -50.483  43.909  23.210  1.00  0.00     0.025 H 
ENDBRANCH  29  32
ENDBRANCH  23  29
ENDBRANCH  12  22
BRANCH  17  36
ATOM     36  N   UNL     1     -45.787  45.807  24.216  1.00  0.00    -0.383 N 
ATOM     37  H   UNL     1     -45.401  46.743  24.275  1.00  0.00     0.158 HD
ATOM     38  H   UNL     1     -46.687  45.681  24.665  1.00  0.00     0.158 HD
ENDBRANCH  17  36
ENDBRANCH   1  11
BRANCH   3  39
ATOM     39  C   UNL     1     -46.282  38.181  28.514  1.00  0.00     0.117 C 
ATOM     40  H   UNL     1     -46.192  37.242  29.074  1.00  0.00     0.073 H 
ATOM     41  H   UNL     1     -46.737  38.904  29.200  1.00  0.00     0.073 H 
BRANCH  39  42
ATOM     42  O   UNL     1     -47.204  38.047  27.425  1.00  0.00    -0.491 OA
BRANCH  42  43
ATOM     43  C   UNL     1     -47.711  36.810  27.142  1.00  0.00     0.121 A 
ATOM     44  C   UNL     1     -48.981  36.344  27.472  1.00  0.00    -0.019 A 
ATOM     45  C   UNL     1     -46.826  35.961  26.468  1.00  0.00     0.007 A 
ATOM     46  C   UNL     1     -49.355  35.046  27.120  1.00  0.00    -0.049 A 
ATOM     47  H   UNL     1     -49.703  36.953  28.005  1.00  0.00     0.066 H 
ATOM     48  C   UNL     1     -47.170  34.665  26.106  1.00  0.00     0.076 A 
ATOM     49  H   UNL     1     -45.832  36.324  26.215  1.00  0.00     0.069 H 
ATOM     50  C   UNL     1     -48.457  34.206  26.439  1.00  0.00     0.001 A 
ATOM     51  H   UNL     1     -50.349  34.693  27.381  1.00  0.00     0.063 H 
ATOM     52  N   UNL     1     -46.276  33.897  25.457  1.00  0.00    -0.231 NA
ATOM     53  C   UNL     1     -48.799  32.904  26.070  1.00  0.00    -0.049 A 
ATOM     54  C   UNL     1     -46.613  32.637  25.113  1.00  0.00     0.126 A 
ATOM     55  C   UNL     1     -47.871  32.116  25.398  1.00  0.00    -0.019 A 
ATOM     56  H   UNL     1     -49.782  32.499  26.292  1.00  0.00     0.063 H 
ATOM     57  H   UNL     1     -48.132  31.111  25.089  1.00  0.00     0.066 H 
BRANCH  54  58
ATOM     58  N   UNL     1     -45.708  31.820  24.411  1.00  0.00    -0.373 N 
ATOM     59  H   UNL     1     -44.903  32.378  24.142  1.00  0.00     0.161 HD
BRANCH  58  60
ATOM     60  C   UNL     1     -46.293  31.132  23.271  1.00  0.00     0.005 C 
ATOM     61  H   UNL     1     -45.772  31.379  22.339  1.00  0.00     0.045 H 
ATOM     62  H   UNL     1     -46.201  30.052  23.423  1.00  0.00     0.045 H 
ATOM     63  H   UNL     1     -47.361  31.356  23.169  1.00  0.00     0.045 H 
ENDBRANCH  58  60
ENDBRANCH  54  58
ENDBRANCH  42  43
ENDBRANCH  39  42
ENDBRANCH   3  39
BRANCH   4  64
ATOM     64  O   UNL     1     -43.664  39.172  30.064  1.00  0.00    -0.387 OA
ATOM     65  H   UNL     1     -43.489  38.247  29.806  1.00  0.00     0.211 HD
ENDBRANCH   4  64
TORSDOF 11
ENDMDL
MODEL 7
REMARK VINA RESULT:      -8.5      3.063      4.472
REMARK SMILES CCn1ccc(-c2cn([C@@H]3O[C@H](COc4ccc5ccc(NC)nc5c4)[C@@H](O)[C@@H]3F)c3ncnc(N)c23)n1
REMARK SMILES IDX 10 1 11 2 12 3 27 4 29 5 30 6 9 11 7 12 8 13 37 14 31 16
REMARK SMILES IDX 35 17 32 18 34 19 33 20 6 22 3 23 4 24 38 25 5 26 2 29 1 32
REMARK SMILES IDX 36 36 13 39 14 42 15 43 16 44 26 45 17 46 25 48 18 50 24 52
REMARK SMILES IDX 19 53 21 54 20 55 22 58 23 60 28 64
REMARK H PARENT 10 7 12 8 27 9 29 10 8 15 33 21 4 27 5 28 2 30 2 31 1 33 1 34
REMARK H PARENT 1 35 36 37 36 38 13 40 13 41 16 47 26 49 17 51 19 56 20 57
REMARK H PARENT 22 59 23 61 23 62 23 63 28 65
REMARK Flexibility Score: inf
ROOT
ATOM      1  C   UNL     1     -45.871  37.488  27.419  1.00  0.00     0.169 C 
ATOM      2  O   UNL     1     -46.459  36.532  26.512  1.00  0.00    -0.345 OA
ATOM      3  C   UNL     1     -46.648  35.299  27.239  1.00  0.00     0.123 C 
ATOM      4  C   UNL     1     -46.733  35.677  28.712  1.00  0.00     0.119 C 
ATOM      5  C   UNL     1     -45.758  36.830  28.789  1.00  0.00     0.173 C 
ATOM      6  F   UNL     1     -46.068  37.648  29.821  1.00  0.00    -0.239 F 
ATOM      7  H   UNL     1     -44.866  37.705  27.037  1.00  0.00     0.088 H 
ATOM      8  H   UNL     1     -45.760  34.684  27.052  1.00  0.00     0.067 H 
ATOM      9  H   UNL     1     -47.739  35.984  29.009  1.00  0.00     0.066 H 
ATOM     10  H   UNL     1     -44.739  36.463  28.959  1.00  0.00     0.074 H 
ENDROOT
BRANCH   1  11
ATOM     11  N   UNL     1     -46.622  38.731  27.363  1.00  0.00    -0.302 N 
ATOM     12  C   UNL     1     -48.287  40.186  27.664  1.00  0.00     0.033 A 
ATOM     13  C   UNL     1     -47.892  38.879  27.867  1.00  0.00     0.019 A 
ATOM     14  C   UNL     1     -47.242  40.853  26.961  1.00  0.00     0.071 A 
ATOM     15  H   UNL     1     -48.414  38.060  28.349  1.00  0.00     0.083 H 
ATOM     16  C   UNL     1     -46.212  39.924  26.816  1.00  0.00     0.148 A 
ATOM     17  C   UNL     1     -47.014  42.123  26.402  1.00  0.00     0.137 A 
ATOM     18  N   UNL     1     -45.022  40.145  26.231  1.00  0.00    -0.218 NA
ATOM     19  N   UNL     1     -45.828  42.380  25.817  1.00  0.00    -0.219 NA
ATOM     20  C   UNL     1     -44.910  41.401  25.778  1.00  0.00     0.120 A 
ATOM     21  H   UNL     1     -43.964  41.658  25.311  1.00  0.00     0.106 H 
BRANCH  12  22
ATOM     22  C   UNL     1     -49.559  40.754  28.100  1.00  0.00     0.095 A 
ATOM     23  N   UNL     1     -51.032  41.637  29.329  1.00  0.00    -0.272 N 
ATOM     24  C   UNL     1     -51.608  41.580  28.093  1.00  0.00     0.025 A 
ATOM     25  N   UNL     1     -49.781  41.143  29.361  1.00  0.00    -0.173 NA
ATOM     26  C   UNL     1     -50.663  41.021  27.263  1.00  0.00    -0.016 A 
ATOM     27  H   UNL     1     -52.607  41.946  27.906  1.00  0.00     0.084 H 
ATOM     28  H   UNL     1     -50.756  40.840  26.201  1.00  0.00     0.066 H 
BRANCH  23  29
ATOM     29  C   UNL     1     -51.632  42.160  30.541  1.00  0.00     0.038 C 
ATOM     30  H   UNL     1     -51.267  41.556  31.379  1.00  0.00     0.051 H 
ATOM     31  H   UNL     1     -52.715  42.014  30.469  1.00  0.00     0.051 H 
BRANCH  29  32
ATOM     32  C   UNL     1     -51.307  43.628  30.753  1.00  0.00    -0.045 C 
ATOM     33  H   UNL     1     -50.288  43.758  31.133  1.00  0.00     0.025 H 
ATOM     34  H   UNL     1     -51.387  44.189  29.815  1.00  0.00     0.025 H 
ATOM     35  H   UNL     1     -52.000  44.070  31.476  1.00  0.00     0.025 H 
ENDBRANCH  29  32
ENDBRANCH  23  29
ENDBRANCH  12  22
BRANCH  17  36
ATOM     36  N   UNL     1     -47.949  43.151  26.363  1.00  0.00    -0.383 N 
ATOM     37  H   UNL     1     -48.841  42.901  26.774  1.00  0.00     0.158 HD
ATOM     38  H   UNL     1     -47.997  43.530  25.424  1.00  0.00     0.158 HD
ENDBRANCH  17  36
ENDBRANCH   1  11
BRANCH   3  39
ATOM     39  C   UNL     1     -47.904  34.571  26.755  1.00  0.00     0.117 C 
ATOM     40  H   UNL     1     -48.828  34.987  27.174  1.00  0.00     0.073 H 
ATOM     41  H   UNL     1     -47.986  34.675  25.668  1.00  0.00     0.073 H 
BRANCH  39  42
ATOM     42  O   UNL     1     -47.812  33.162  27.003  1.00  0.00    -0.491 OA
BRANCH  42  43
ATOM     43  C   UNL     1     -47.605  32.323  25.945  1.00  0.00     0.121 A 
ATOM     44  C   UNL     1     -46.689  32.507  24.912  1.00  0.00    -0.019 A 
ATOM     45  C   UNL     1     -48.428  31.190  25.934  1.00  0.00     0.007 A 
ATOM     46  C   UNL     1     -46.597  31.559  23.891  1.00  0.00    -0.049 A 
ATOM     47  H   UNL     1     -46.036  33.370  24.862  1.00  0.00     0.066 H 
ATOM     48  C   UNL     1     -48.359  30.232  24.931  1.00  0.00     0.076 A 
ATOM     49  H   UNL     1     -49.146  31.049  26.738  1.00  0.00     0.069 H 
ATOM     50  C   UNL     1     -47.427  30.425  23.896  1.00  0.00     0.001 A 
ATOM     51  H   UNL     1     -45.878  31.712  23.090  1.00  0.00     0.063 H 
ATOM     52  N   UNL     1     -49.175  29.162  24.977  1.00  0.00    -0.231 NA
ATOM     53  C   UNL     1     -47.360  29.457  22.892  1.00  0.00    -0.049 A 
ATOM     54  C   UNL     1     -49.109  28.238  23.997  1.00  0.00     0.126 A 
ATOM     55  C   UNL     1     -48.205  28.353  22.946  1.00  0.00    -0.019 A 
ATOM     56  H   UNL     1     -46.652  29.547  22.073  1.00  0.00     0.063 H 
ATOM     57  H   UNL     1     -48.148  27.586  22.183  1.00  0.00     0.066 H 
BRANCH  54  58
ATOM     58  N   UNL     1     -49.931  27.097  24.032  1.00  0.00    -0.373 N 
ATOM     59  H   UNL     1     -50.897  27.384  23.904  1.00  0.00     0.161 HD
BRANCH  58  60
ATOM     60  C   UNL     1     -49.765  26.283  25.226  1.00  0.00     0.005 C 
ATOM     61  H   UNL     1     -48.742  25.899  25.314  1.00  0.00     0.045 H 
ATOM     62  H   UNL     1     -49.961  26.902  26.107  1.00  0.00     0.045 H 
ATOM     63  H   UNL     1     -50.476  25.450  25.249  1.00  0.00     0.045 H 
ENDBRANCH  58  60
ENDBRANCH  54  58
ENDBRANCH  42  43
ENDBRANCH  39  42
ENDBRANCH   3  39
BRANCH   4  64
ATOM     64  O   UNL     1     -46.352  34.589  29.553  1.00  0.00    -0.387 OA
ATOM     65  H   UNL     1     -45.477  34.290  29.241  1.00  0.00     0.211 HD
ENDBRANCH   4  64
TORSDOF 11
ENDMDL
