MODEL 1
REMARK VINA RESULT:     -10.1      0.000      0.000
REMARK SMILES CNc1cc(N2CCC[C@@](O)(CNC(=O)c3ccc(CN4CCC(C)(C)CC4)cc3)C2)ncn1
REMARK SMILES IDX 13 1 14 2 15 3 12 5 10 8 6 9 7 10 31 11 8 12 9 17 5 22 3 23
REMARK SMILES IDX 4 24 34 25 33 27 32 28 2 30 1 32 11 36 16 38 17 39 30 40
REMARK SMILES IDX 18 41 29 43 19 45 20 48 21 51 22 52 28 53 23 54 27 57 24 60
REMARK SMILES IDX 25 65 26 69
REMARK H PARENT 13 4 12 6 12 7 7 13 7 14 31 15 31 16 8 18 8 19 9 20 9 21 4 26
REMARK H PARENT 33 29 2 31 1 33 1 34 1 35 11 37 17 42 30 44 18 46 29 47 20 49
REMARK H PARENT 20 50 22 55 22 56 28 58 28 59 23 61 23 62 27 63 27 64 25 66
REMARK H PARENT 25 67 25 68 26 70 26 71 26 72
REMARK Flexibility Score: inf
ROOT
ATOM      1  N   UNL     1     -47.154  35.957  26.509  1.00  0.00    -0.349 N 
ATOM      2  C   UNL     1     -48.150  35.025  26.704  1.00  0.00     0.251 C 
ATOM      3  O   UNL     1     -49.074  35.190  27.492  1.00  0.00    -0.269 OA
ATOM      4  H   UNL     1     -46.346  35.719  25.947  1.00  0.00     0.163 HD
ENDROOT
BRANCH   1   5
ATOM      5  C   UNL     1     -47.152  37.240  27.190  1.00  0.00     0.048 C 
ATOM      6  H   UNL     1     -47.066  38.008  26.411  1.00  0.00     0.052 H 
ATOM      7  H   UNL     1     -48.131  37.393  27.659  1.00  0.00     0.052 H 
BRANCH   5   8
ATOM      8  C   UNL     1     -46.034  37.440  28.239  1.00  0.00     0.099 C 
ATOM      9  N   UNL     1     -44.405  38.979  29.242  1.00  0.00    -0.353 N 
ATOM     10  C   UNL     1     -44.398  38.173  30.469  1.00  0.00     0.019 C 
ATOM     11  C   UNL     1     -45.577  38.914  28.353  1.00  0.00     0.050 C 
ATOM     12  C   UNL     1     -45.794  37.639  30.781  1.00  0.00    -0.033 C 
ATOM     13  H   UNL     1     -44.075  38.766  31.334  1.00  0.00     0.049 H 
ATOM     14  H   UNL     1     -43.695  37.340  30.356  1.00  0.00     0.049 H 
ATOM     15  H   UNL     1     -46.369  39.561  28.744  1.00  0.00     0.052 H 
ATOM     16  H   UNL     1     -45.302  39.251  27.346  1.00  0.00     0.052 H 
ATOM     17  C   UNL     1     -46.418  36.863  29.617  1.00  0.00    -0.019 C 
ATOM     18  H   UNL     1     -46.449  38.484  31.028  1.00  0.00     0.029 H 
ATOM     19  H   UNL     1     -45.762  37.002  31.673  1.00  0.00     0.029 H 
ATOM     20  H   UNL     1     -47.503  36.868  29.768  1.00  0.00     0.030 H 
ATOM     21  H   UNL     1     -46.099  35.814  29.681  1.00  0.00     0.030 H 
BRANCH   9  22
ATOM     22  C   UNL     1     -43.435  39.964  29.132  1.00  0.00     0.134 A 
ATOM     23  C   UNL     1     -42.339  41.753  28.015  1.00  0.00     0.131 A 
ATOM     24  C   UNL     1     -43.360  40.821  28.047  1.00  0.00     0.023 A 
ATOM     25  N   UNL     1     -41.444  41.866  29.000  1.00  0.00    -0.219 NA
ATOM     26  H   UNL     1     -44.094  40.804  27.255  1.00  0.00     0.070 H 
ATOM     27  C   UNL     1     -41.589  41.005  30.011  1.00  0.00     0.120 A 
ATOM     28  N   UNL     1     -42.531  40.059  30.124  1.00  0.00    -0.219 NA
ATOM     29  H   UNL     1     -40.872  41.077  30.822  1.00  0.00     0.106 H 
BRANCH  23  30
ATOM     30  N   UNL     1     -42.197  42.671  26.969  1.00  0.00    -0.373 N 
ATOM     31  H   UNL     1     -42.050  42.094  26.142  1.00  0.00     0.161 HD
BRANCH  30  32
ATOM     32  C   UNL     1     -43.322  43.576  26.801  1.00  0.00     0.005 C 
ATOM     33  H   UNL     1     -42.996  44.447  26.225  1.00  0.00     0.045 H 
ATOM     34  H   UNL     1     -43.694  43.945  27.763  1.00  0.00     0.045 H 
ATOM     35  H   UNL     1     -44.143  43.100  26.252  1.00  0.00     0.045 H 
ENDBRANCH  30  32
ENDBRANCH  23  30
ENDBRANCH   9  22
BRANCH   8  36
ATOM     36  O   UNL     1     -44.900  36.666  27.769  1.00  0.00    -0.386 OA
ATOM     37  H   UNL     1     -44.537  36.222  28.563  1.00  0.00     0.211 HD
ENDBRANCH   8  36
ENDBRANCH   5   8
ENDBRANCH   1   5
BRANCH   2  38
ATOM     38  C   UNL     1     -48.027  33.752  25.944  1.00  0.00     0.039 A 
ATOM     39  C   UNL     1     -46.812  33.335  25.387  1.00  0.00    -0.049 A 
ATOM     40  C   UNL     1     -49.172  32.969  25.770  1.00  0.00    -0.049 A 
ATOM     41  C   UNL     1     -46.744  32.126  24.687  1.00  0.00    -0.057 A 
ATOM     42  H   UNL     1     -45.919  33.948  25.459  1.00  0.00     0.063 H 
ATOM     43  C   UNL     1     -49.098  31.762  25.071  1.00  0.00    -0.057 A 
ATOM     44  H   UNL     1     -50.126  33.295  26.181  1.00  0.00     0.063 H 
ATOM     45  C   UNL     1     -47.881  31.319  24.531  1.00  0.00    -0.034 A 
ATOM     46  H   UNL     1     -45.795  31.821  24.251  1.00  0.00     0.063 H 
ATOM     47  H   UNL     1     -50.000  31.165  24.951  1.00  0.00     0.063 H 
BRANCH  45  48
ATOM     48  C   UNL     1     -47.808  30.004  23.779  1.00  0.00     0.023 C 
ATOM     49  H   UNL     1     -46.774  29.846  23.443  1.00  0.00     0.048 H 
ATOM     50  H   UNL     1     -48.378  30.101  22.845  1.00  0.00     0.048 H 
BRANCH  48  51
ATOM     51  N   UNL     1     -48.273  28.816  24.499  1.00  0.00    -0.299 NA
ATOM     52  C   UNL     1     -47.900  27.531  23.912  1.00  0.00    -0.001 C 
ATOM     53  C   UNL     1     -48.148  28.897  25.954  1.00  0.00    -0.001 C 
ATOM     54  C   UNL     1     -46.954  26.716  24.796  1.00  0.00    -0.035 C 
ATOM     55  H   UNL     1     -47.466  27.643  22.912  1.00  0.00     0.043 H 
ATOM     56  H   UNL     1     -48.821  26.956  23.757  1.00  0.00     0.043 H 
ATOM     57  C   UNL     1     -48.526  27.568  26.611  1.00  0.00    -0.035 C 
ATOM     58  H   UNL     1     -47.131  29.156  26.265  1.00  0.00     0.043 H 
ATOM     59  H   UNL     1     -48.814  29.682  26.332  1.00  0.00     0.043 H 
ATOM     60  C   UNL     1     -47.564  26.428  26.190  1.00  0.00    -0.033 C 
ATOM     61  H   UNL     1     -46.012  27.272  24.899  1.00  0.00     0.029 H 
ATOM     62  H   UNL     1     -46.694  25.779  24.289  1.00  0.00     0.029 H 
ATOM     63  H   UNL     1     -48.533  27.685  27.702  1.00  0.00     0.029 H 
ATOM     64  H   UNL     1     -49.560  27.324  26.331  1.00  0.00     0.029 H 
BRANCH  60  65
ATOM     65  C   UNL     1     -46.422  26.295  27.214  1.00  0.00    -0.060 C 
ATOM     66  H   UNL     1     -45.442  26.374  26.730  1.00  0.00     0.024 H 
ATOM     67  H   UNL     1     -46.463  25.328  27.727  1.00  0.00     0.024 H 
ATOM     68  H   UNL     1     -46.478  27.079  27.976  1.00  0.00     0.024 H 
ENDBRANCH  60  65
BRANCH  60  69
ATOM     69  C   UNL     1     -48.343  25.101  26.165  1.00  0.00    -0.060 C 
ATOM     70  H   UNL     1     -49.018  25.052  25.303  1.00  0.00     0.024 H 
ATOM     71  H   UNL     1     -47.662  24.244  26.102  1.00  0.00     0.024 H 
ATOM     72  H   UNL     1     -48.950  24.976  27.068  1.00  0.00     0.024 H 
ENDBRANCH  60  69
ENDBRANCH  48  51
ENDBRANCH  45  48
ENDBRANCH   2  38
TORSDOF 11
ENDMDL
MODEL 2
REMARK VINA RESULT:     -10.1      1.362      2.115
REMARK SMILES CNc1cc(N2CCC[C@@](O)(CNC(=O)c3ccc(CN4CCC(C)(C)CC4)cc3)C2)ncn1
REMARK SMILES IDX 13 1 14 2 15 3 12 5 10 8 6 9 7 10 31 11 8 12 9 17 5 22 3 23
REMARK SMILES IDX 4 24 34 25 33 27 32 28 2 30 1 32 11 36 16 38 17 39 30 40
REMARK SMILES IDX 18 41 29 43 19 45 20 48 21 51 22 52 28 53 23 54 27 57 24 60
REMARK SMILES IDX 25 65 26 69
REMARK H PARENT 13 4 12 6 12 7 7 13 7 14 31 15 31 16 8 18 8 19 9 20 9 21 4 26
REMARK H PARENT 33 29 2 31 1 33 1 34 1 35 11 37 17 42 30 44 18 46 29 47 20 49
REMARK H PARENT 20 50 22 55 22 56 28 58 28 59 23 61 23 62 27 63 27 64 25 66
REMARK H PARENT 25 67 25 68 26 70 26 71 26 72
REMARK Flexibility Score: inf
ROOT
ATOM      1  N   UNL     1     -47.200  35.612  28.333  1.00  0.00    -0.349 N 
ATOM      2  C   UNL     1     -46.380  34.932  27.459  1.00  0.00     0.251 C 
ATOM      3  O   UNL     1     -45.174  35.139  27.374  1.00  0.00    -0.269 OA
ATOM      4  H   UNL     1     -48.203  35.497  28.273  1.00  0.00     0.163 HD
ENDROOT
BRANCH   1   5
ATOM      5  C   UNL     1     -46.684  36.600  29.266  1.00  0.00     0.048 C 
ATOM      6  H   UNL     1     -47.394  36.642  30.102  1.00  0.00     0.052 H 
ATOM      7  H   UNL     1     -45.742  36.230  29.688  1.00  0.00     0.052 H 
BRANCH   5   8
ATOM      8  C   UNL     1     -46.477  38.019  28.692  1.00  0.00     0.099 C 
ATOM      9  N   UNL     1     -44.874  39.726  27.953  1.00  0.00    -0.353 N 
ATOM     10  C   UNL     1     -45.910  40.334  27.108  1.00  0.00     0.019 C 
ATOM     11  C   UNL     1     -45.002  38.308  28.327  1.00  0.00     0.050 C 
ATOM     12  C   UNL     1     -46.798  39.264  26.476  1.00  0.00    -0.033 C 
ATOM     13  H   UNL     1     -45.466  40.914  26.288  1.00  0.00     0.049 H 
ATOM     14  H   UNL     1     -46.518  41.019  27.709  1.00  0.00     0.049 H 
ATOM     15  H   UNL     1     -44.652  37.679  27.501  1.00  0.00     0.052 H 
ATOM     16  H   UNL     1     -44.397  38.100  29.218  1.00  0.00     0.052 H 
ATOM     17  C   UNL     1     -47.416  38.310  27.503  1.00  0.00    -0.019 C 
ATOM     18  H   UNL     1     -46.197  38.677  25.770  1.00  0.00     0.029 H 
ATOM     19  H   UNL     1     -47.593  39.736  25.887  1.00  0.00     0.029 H 
ATOM     20  H   UNL     1     -47.688  37.392  26.970  1.00  0.00     0.030 H 
ATOM     21  H   UNL     1     -48.354  38.746  27.870  1.00  0.00     0.030 H 
BRANCH   9  22
ATOM     22  C   UNL     1     -43.698  40.442  28.117  1.00  0.00     0.134 A 
ATOM     23  C   UNL     1     -41.953  41.867  27.358  1.00  0.00     0.131 A 
ATOM     24  C   UNL     1     -43.144  41.211  27.107  1.00  0.00     0.023 A 
ATOM     25  N   UNL     1     -41.337  41.800  28.542  1.00  0.00    -0.219 NA
ATOM     26  H   UNL     1     -43.634  41.339  26.153  1.00  0.00     0.070 H 
ATOM     27  C   UNL     1     -41.940  41.043  29.462  1.00  0.00     0.120 A 
ATOM     28  N   UNL     1     -43.081  40.358  29.309  1.00  0.00    -0.219 NA
ATOM     29  H   UNL     1     -41.457  40.973  30.431  1.00  0.00     0.106 H 
BRANCH  23  30
ATOM     30  N   UNL     1     -41.331  42.679  26.404  1.00  0.00    -0.373 N 
ATOM     31  H   UNL     1     -40.765  42.036  25.852  1.00  0.00     0.161 HD
BRANCH  30  32
ATOM     32  C   UNL     1     -42.245  43.444  25.573  1.00  0.00     0.005 C 
ATOM     33  H   UNL     1     -43.226  42.959  25.582  1.00  0.00     0.045 H 
ATOM     34  H   UNL     1     -41.911  43.480  24.530  1.00  0.00     0.045 H 
ATOM     35  H   UNL     1     -42.373  44.465  25.949  1.00  0.00     0.045 H 
ENDBRANCH  30  32
ENDBRANCH  23  30
ENDBRANCH   9  22
BRANCH   8  36
ATOM     36  O   UNL     1     -46.854  38.939  29.749  1.00  0.00    -0.386 OA
ATOM     37  H   UNL     1     -46.856  38.407  30.572  1.00  0.00     0.211 HD
ENDBRANCH   8  36
ENDBRANCH   5   8
ENDBRANCH   1   5
BRANCH   2  38
ATOM     38  C   UNL     1     -47.040  33.949  26.557  1.00  0.00     0.039 A 
ATOM     39  C   UNL     1     -48.429  33.787  26.528  1.00  0.00    -0.049 A 
ATOM     40  C   UNL     1     -46.233  33.155  25.737  1.00  0.00    -0.049 A 
ATOM     41  C   UNL     1     -49.005  32.856  25.657  1.00  0.00    -0.057 A 
ATOM     42  H   UNL     1     -49.077  34.350  27.192  1.00  0.00     0.063 H 
ATOM     43  C   UNL     1     -46.813  32.227  24.868  1.00  0.00    -0.057 A 
ATOM     44  H   UNL     1     -45.150  33.259  25.768  1.00  0.00     0.063 H 
ATOM     45  C   UNL     1     -48.206  32.074  24.809  1.00  0.00    -0.034 A 
ATOM     46  H   UNL     1     -50.086  32.734  25.654  1.00  0.00     0.063 H 
ATOM     47  H   UNL     1     -46.168  31.622  24.234  1.00  0.00     0.063 H 
BRANCH  45  48
ATOM     48  C   UNL     1     -48.828  31.069  23.858  1.00  0.00     0.023 C 
ATOM     49  H   UNL     1     -48.115  30.859  23.050  1.00  0.00     0.048 H 
ATOM     50  H   UNL     1     -49.674  31.547  23.346  1.00  0.00     0.048 H 
BRANCH  48  51
ATOM     51  N   UNL     1     -49.280  29.808  24.450  1.00  0.00    -0.299 NA
ATOM     52  C   UNL     1     -49.553  28.726  23.506  1.00  0.00    -0.001 C 
ATOM     53  C   UNL     1     -48.565  29.412  25.663  1.00  0.00    -0.001 C 
ATOM     54  C   UNL     1     -48.604  27.536  23.662  1.00  0.00    -0.035 C 
ATOM     55  H   UNL     1     -49.544  29.071  22.466  1.00  0.00     0.043 H 
ATOM     56  H   UNL     1     -50.581  28.383  23.680  1.00  0.00     0.043 H 
ATOM     57  C   UNL     1     -49.007  28.024  26.131  1.00  0.00    -0.035 C 
ATOM     58  H   UNL     1     -47.481  29.395  25.513  1.00  0.00     0.043 H 
ATOM     59  H   UNL     1     -48.773  30.138  26.458  1.00  0.00     0.043 H 
ATOM     60  C   UNL     1     -48.659  26.932  25.087  1.00  0.00    -0.033 C 
ATOM     61  H   UNL     1     -47.585  27.873  23.430  1.00  0.00     0.029 H 
ATOM     62  H   UNL     1     -48.845  26.773  22.912  1.00  0.00     0.029 H 
ATOM     63  H   UNL     1     -48.542  27.796  27.098  1.00  0.00     0.029 H 
ATOM     64  H   UNL     1     -50.089  28.048  26.317  1.00  0.00     0.029 H 
BRANCH  60  65
ATOM     65  C   UNL     1     -47.291  26.305  25.414  1.00  0.00    -0.060 C 
ATOM     66  H   UNL     1     -46.525  26.626  24.698  1.00  0.00     0.024 H 
ATOM     67  H   UNL     1     -47.340  25.212  25.381  1.00  0.00     0.024 H 
ATOM     68  H   UNL     1     -46.950  26.594  26.414  1.00  0.00     0.024 H 
ENDBRANCH  60  65
BRANCH  60  69
ATOM     69  C   UNL     1     -49.723  25.821  25.153  1.00  0.00    -0.060 C 
ATOM     70  H   UNL     1     -49.988  25.587  26.191  1.00  0.00     0.024 H 
ATOM     71  H   UNL     1     -50.641  26.121  24.636  1.00  0.00     0.024 H 
ATOM     72  H   UNL     1     -49.365  24.897  24.687  1.00  0.00     0.024 H 
ENDBRANCH  60  69
ENDBRANCH  48  51
ENDBRANCH  45  48
ENDBRANCH   2  38
TORSDOF 11
ENDMDL
MODEL 3
REMARK VINA RESULT:      -9.5      1.861     12.347
REMARK SMILES CNc1cc(N2CCC[C@@](O)(CNC(=O)c3ccc(CN4CCC(C)(C)CC4)cc3)C2)ncn1
REMARK SMILES IDX 13 1 14 2 15 3 12 5 10 8 6 9 7 10 31 11 8 12 9 17 5 22 3 23
REMARK SMILES IDX 4 24 34 25 33 27 32 28 2 30 1 32 11 36 16 38 17 39 30 40
REMARK SMILES IDX 18 41 29 43 19 45 20 48 21 51 22 52 28 53 23 54 27 57 24 60
REMARK SMILES IDX 25 65 26 69
REMARK H PARENT 13 4 12 6 12 7 7 13 7 14 31 15 31 16 8 18 8 19 9 20 9 21 4 26
REMARK H PARENT 33 29 2 31 1 33 1 34 1 35 11 37 17 42 30 44 18 46 29 47 20 49
REMARK H PARENT 20 50 22 55 22 56 28 58 28 59 23 61 23 62 27 63 27 64 25 66
REMARK H PARENT 25 67 25 68 26 70 26 71 26 72
REMARK Flexibility Score: inf
ROOT
ATOM      1  N   UNL     1     -48.108  34.351  26.482  1.00  0.00    -0.349 N 
ATOM      2  C   UNL     1     -48.590  35.466  27.133  1.00  0.00     0.251 C 
ATOM      3  O   UNL     1     -49.780  35.637  27.375  1.00  0.00    -0.269 OA
ATOM      4  H   UNL     1     -47.139  34.319  26.192  1.00  0.00     0.163 HD
ENDROOT
BRANCH   1   5
ATOM      5  C   UNL     1     -48.975  33.259  26.074  1.00  0.00     0.048 C 
ATOM      6  H   UNL     1     -49.612  33.026  26.936  1.00  0.00     0.052 H 
ATOM      7  H   UNL     1     -49.650  33.617  25.288  1.00  0.00     0.052 H 
BRANCH   5   8
ATOM      8  C   UNL     1     -48.257  31.975  25.599  1.00  0.00     0.099 C 
ATOM      9  N   UNL     1     -48.485  29.648  24.850  1.00  0.00    -0.353 N 
ATOM     10  C   UNL     1     -47.191  29.743  24.161  1.00  0.00     0.019 C 
ATOM     11  C   UNL     1     -49.241  30.882  25.118  1.00  0.00     0.050 C 
ATOM     12  C   UNL     1     -47.004  31.123  23.534  1.00  0.00    -0.033 C 
ATOM     13  H   UNL     1     -47.114  29.004  23.353  1.00  0.00     0.049 H 
ATOM     14  H   UNL     1     -46.382  29.542  24.872  1.00  0.00     0.049 H 
ATOM     15  H   UNL     1     -49.780  31.184  24.214  1.00  0.00     0.052 H 
ATOM     16  H   UNL     1     -49.962  30.711  25.926  1.00  0.00     0.052 H 
ATOM     17  C   UNL     1     -47.181  32.269  24.534  1.00  0.00    -0.019 C 
ATOM     18  H   UNL     1     -47.739  31.247  22.728  1.00  0.00     0.029 H 
ATOM     19  H   UNL     1     -46.016  31.191  23.065  1.00  0.00     0.029 H 
ATOM     20  H   UNL     1     -47.419  33.170  23.958  1.00  0.00     0.030 H 
ATOM     21  H   UNL     1     -46.217  32.460  25.025  1.00  0.00     0.030 H 
BRANCH   9  22
ATOM     22  C   UNL     1     -49.047  28.385  24.957  1.00  0.00     0.134 A 
ATOM     23  C   UNL     1     -49.010  26.085  25.557  1.00  0.00     0.131 A 
ATOM     24  C   UNL     1     -48.376  27.313  25.519  1.00  0.00     0.023 A 
ATOM     25  N   UNL     1     -50.250  25.908  25.091  1.00  0.00    -0.219 NA
ATOM     26  H   UNL     1     -47.394  27.421  25.959  1.00  0.00     0.070 H 
ATOM     27  C   UNL     1     -50.829  26.993  24.570  1.00  0.00     0.120 A 
ATOM     28  N   UNL     1     -50.291  28.216  24.474  1.00  0.00    -0.219 NA
ATOM     29  H   UNL     1     -51.835  26.873  24.183  1.00  0.00     0.106 H 
BRANCH  23  30
ATOM     30  N   UNL     1     -48.416  24.953  26.122  1.00  0.00    -0.373 N 
ATOM     31  H   UNL     1     -48.315  24.303  25.344  1.00  0.00     0.161 HD
BRANCH  30  32
ATOM     32  C   UNL     1     -47.147  25.202  26.785  1.00  0.00     0.005 C 
ATOM     33  H   UNL     1     -46.638  24.248  26.950  1.00  0.00     0.045 H 
ATOM     34  H   UNL     1     -47.286  25.670  27.765  1.00  0.00     0.045 H 
ATOM     35  H   UNL     1     -46.490  25.830  26.172  1.00  0.00     0.045 H 
ENDBRANCH  30  32
ENDBRANCH  23  30
ENDBRANCH   9  22
BRANCH   8  36
ATOM     36  O   UNL     1     -47.559  31.454  26.759  1.00  0.00    -0.386 OA
ATOM     37  H   UNL     1     -47.397  32.227  27.339  1.00  0.00     0.211 HD
ENDBRANCH   8  36
ENDBRANCH   5   8
ENDBRANCH   1   5
BRANCH   2  38
ATOM     38  C   UNL     1     -47.592  36.509  27.491  1.00  0.00     0.039 A 
ATOM     39  C   UNL     1     -47.964  37.831  27.761  1.00  0.00    -0.049 A 
ATOM     40  C   UNL     1     -46.242  36.149  27.535  1.00  0.00    -0.049 A 
ATOM     41  C   UNL     1     -46.991  38.775  28.101  1.00  0.00    -0.057 A 
ATOM     42  H   UNL     1     -48.998  38.153  27.682  1.00  0.00     0.063 H 
ATOM     43  C   UNL     1     -45.273  37.096  27.876  1.00  0.00    -0.057 A 
ATOM     44  H   UNL     1     -45.939  35.129  27.306  1.00  0.00     0.063 H 
ATOM     45  C   UNL     1     -45.636  38.417  28.176  1.00  0.00    -0.034 A 
ATOM     46  H   UNL     1     -47.295  39.801  28.298  1.00  0.00     0.063 H 
ATOM     47  H   UNL     1     -44.228  36.793  27.909  1.00  0.00     0.063 H 
BRANCH  45  48
ATOM     48  C   UNL     1     -44.579  39.437  28.552  1.00  0.00     0.023 C 
ATOM     49  H   UNL     1     -43.775  38.927  29.101  1.00  0.00     0.048 H 
ATOM     50  H   UNL     1     -45.005  40.129  29.291  1.00  0.00     0.048 H 
BRANCH  48  51
ATOM     51  N   UNL     1     -44.001  40.212  27.452  1.00  0.00    -0.299 NA
ATOM     52  C   UNL     1     -44.898  40.490  26.332  1.00  0.00    -0.001 C 
ATOM     53  C   UNL     1     -43.160  41.333  27.871  1.00  0.00    -0.001 C 
ATOM     54  C   UNL     1     -45.205  41.979  26.161  1.00  0.00    -0.035 C 
ATOM     55  H   UNL     1     -45.835  39.925  26.401  1.00  0.00     0.043 H 
ATOM     56  H   UNL     1     -44.414  40.122  25.419  1.00  0.00     0.043 H 
ATOM     57  C   UNL     1     -42.715  42.164  26.665  1.00  0.00    -0.035 C 
ATOM     58  H   UNL     1     -43.679  41.995  28.571  1.00  0.00     0.043 H 
ATOM     59  H   UNL     1     -42.272  40.947  28.384  1.00  0.00     0.043 H 
ATOM     60  C   UNL     1     -43.921  42.817  25.944  1.00  0.00    -0.033 C 
ATOM     61  H   UNL     1     -45.741  42.326  27.054  1.00  0.00     0.029 H 
ATOM     62  H   UNL     1     -45.900  42.117  25.323  1.00  0.00     0.029 H 
ATOM     63  H   UNL     1     -41.998  42.928  26.990  1.00  0.00     0.029 H 
ATOM     64  H   UNL     1     -42.162  41.509  25.977  1.00  0.00     0.029 H 
BRANCH  60  65
ATOM     65  C   UNL     1     -44.157  44.237  26.489  1.00  0.00    -0.060 C 
ATOM     66  H   UNL     1     -44.634  44.211  27.476  1.00  0.00     0.024 H 
ATOM     67  H   UNL     1     -44.806  44.813  25.821  1.00  0.00     0.024 H 
ATOM     68  H   UNL     1     -43.214  44.785  26.593  1.00  0.00     0.024 H 
ENDBRANCH  60  65
BRANCH  60  69
ATOM     69  C   UNL     1     -43.605  42.926  24.441  1.00  0.00    -0.060 C 
ATOM     70  H   UNL     1     -43.747  43.952  24.080  1.00  0.00     0.024 H 
ATOM     71  H   UNL     1     -42.567  42.641  24.234  1.00  0.00     0.024 H 
ATOM     72  H   UNL     1     -44.254  42.274  23.847  1.00  0.00     0.024 H 
ENDBRANCH  60  69
ENDBRANCH  48  51
ENDBRANCH  45  48
ENDBRANCH   2  38
TORSDOF 11
ENDMDL
MODEL 4
REMARK VINA RESULT:      -9.4      1.618      2.556
REMARK SMILES CNc1cc(N2CCC[C@@](O)(CNC(=O)c3ccc(CN4CCC(C)(C)CC4)cc3)C2)ncn1
REMARK SMILES IDX 13 1 14 2 15 3 12 5 10 8 6 9 7 10 31 11 8 12 9 17 5 22 3 23
REMARK SMILES IDX 4 24 34 25 33 27 32 28 2 30 1 32 11 36 16 38 17 39 30 40
REMARK SMILES IDX 18 41 29 43 19 45 20 48 21 51 22 52 28 53 23 54 27 57 24 60
REMARK SMILES IDX 25 65 26 69
REMARK H PARENT 13 4 12 6 12 7 7 13 7 14 31 15 31 16 8 18 8 19 9 20 9 21 4 26
REMARK H PARENT 33 29 2 31 1 33 1 34 1 35 11 37 17 42 30 44 18 46 29 47 20 49
REMARK H PARENT 20 50 22 55 22 56 28 58 28 59 23 61 23 62 27 63 27 64 25 66
REMARK H PARENT 25 67 25 68 26 70 26 71 26 72
REMARK Flexibility Score: inf
ROOT
ATOM      1  N   UNL     1     -47.040  35.934  26.430  1.00  0.00    -0.349 N 
ATOM      2  C   UNL     1     -48.005  34.976  26.659  1.00  0.00     0.251 C 
ATOM      3  O   UNL     1     -48.919  35.127  27.462  1.00  0.00    -0.269 OA
ATOM      4  H   UNL     1     -46.237  35.710  25.858  1.00  0.00     0.163 HD
ENDROOT
BRANCH   1   5
ATOM      5  C   UNL     1     -47.064  37.228  27.091  1.00  0.00     0.048 C 
ATOM      6  H   UNL     1     -46.958  37.984  26.304  1.00  0.00     0.052 H 
ATOM      7  H   UNL     1     -48.057  37.384  27.529  1.00  0.00     0.052 H 
BRANCH   5   8
ATOM      8  C   UNL     1     -45.979  37.449  28.170  1.00  0.00     0.099 C 
ATOM      9  N   UNL     1     -44.407  39.019  29.216  1.00  0.00    -0.353 N 
ATOM     10  C   UNL     1     -44.418  38.212  30.443  1.00  0.00     0.019 C 
ATOM     11  C   UNL     1     -45.554  38.931  28.296  1.00  0.00     0.050 C 
ATOM     12  C   UNL     1     -45.811  37.651  30.717  1.00  0.00    -0.033 C 
ATOM     13  H   UNL     1     -44.130  38.811  31.316  1.00  0.00     0.049 H 
ATOM     14  H   UNL     1     -43.696  37.393  30.349  1.00  0.00     0.049 H 
ATOM     15  H   UNL     1     -46.368  39.562  28.666  1.00  0.00     0.052 H 
ATOM     16  H   UNL     1     -45.259  39.274  27.297  1.00  0.00     0.052 H 
ATOM     17  C   UNL     1     -46.389  36.864  29.537  1.00  0.00    -0.019 C 
ATOM     18  H   UNL     1     -46.488  38.483  30.947  1.00  0.00     0.029 H 
ATOM     19  H   UNL     1     -45.790  37.015  31.609  1.00  0.00     0.029 H 
ATOM     20  H   UNL     1     -47.477  36.847  29.659  1.00  0.00     0.030 H 
ATOM     21  H   UNL     1     -46.051  35.822  29.610  1.00  0.00     0.030 H 
BRANCH   9  22
ATOM     22  C   UNL     1     -43.454  40.022  29.132  1.00  0.00     0.134 A 
ATOM     23  C   UNL     1     -42.454  41.925  28.116  1.00  0.00     0.131 A 
ATOM     24  C   UNL     1     -43.463  40.980  28.132  1.00  0.00     0.023 A 
ATOM     25  N   UNL     1     -41.490  41.954  29.041  1.00  0.00    -0.219 NA
ATOM     26  H   UNL     1     -44.253  41.030  27.396  1.00  0.00     0.070 H 
ATOM     27  C   UNL     1     -41.556  40.999  29.972  1.00  0.00     0.120 A 
ATOM     28  N   UNL     1     -42.482  40.034  30.061  1.00  0.00    -0.219 NA
ATOM     29  H   UNL     1     -40.783  41.002  30.732  1.00  0.00     0.106 H 
BRANCH  23  30
ATOM     30  N   UNL     1     -42.394  42.940  27.157  1.00  0.00    -0.373 N 
ATOM     31  H   UNL     1     -42.058  43.755  27.668  1.00  0.00     0.161 HD
BRANCH  30  32
ATOM     32  C   UNL     1     -41.555  42.640  26.009  1.00  0.00     0.005 C 
ATOM     33  H   UNL     1     -41.211  43.578  25.564  1.00  0.00     0.045 H 
ATOM     34  H   UNL     1     -42.105  42.096  25.234  1.00  0.00     0.045 H 
ATOM     35  H   UNL     1     -40.669  42.063  26.299  1.00  0.00     0.045 H 
ENDBRANCH  30  32
ENDBRANCH  23  30
ENDBRANCH   9  22
BRANCH   8  36
ATOM     36  O   UNL     1     -44.818  36.697  27.730  1.00  0.00    -0.386 OA
ATOM     37  H   UNL     1     -45.168  35.844  27.396  1.00  0.00     0.211 HD
ENDBRANCH   8  36
ENDBRANCH   5   8
ENDBRANCH   1   5
BRANCH   2  38
ATOM     38  C   UNL     1     -47.858  33.695  25.917  1.00  0.00     0.039 A 
ATOM     39  C   UNL     1     -46.715  33.400  25.165  1.00  0.00    -0.049 A 
ATOM     40  C   UNL     1     -48.911  32.777  25.963  1.00  0.00    -0.049 A 
ATOM     41  C   UNL     1     -46.619  32.179  24.490  1.00  0.00    -0.057 A 
ATOM     42  H   UNL     1     -45.905  34.116  25.066  1.00  0.00     0.063 H 
ATOM     43  C   UNL     1     -48.810  31.558  25.287  1.00  0.00    -0.057 A 
ATOM     44  H   UNL     1     -49.813  33.006  26.527  1.00  0.00     0.063 H 
ATOM     45  C   UNL     1     -47.659  31.239  24.553  1.00  0.00    -0.034 A 
ATOM     46  H   UNL     1     -45.729  31.969  23.901  1.00  0.00     0.063 H 
ATOM     47  H   UNL     1     -49.639  30.855  25.340  1.00  0.00     0.063 H 
BRANCH  45  48
ATOM     48  C   UNL     1     -47.554  29.910  23.829  1.00  0.00     0.023 C 
ATOM     49  H   UNL     1     -47.062  29.184  24.491  1.00  0.00     0.048 H 
ATOM     50  H   UNL     1     -46.852  30.021  22.991  1.00  0.00     0.048 H 
BRANCH  48  51
ATOM     51  N   UNL     1     -48.807  29.342  23.328  1.00  0.00    -0.299 NA
ATOM     52  C   UNL     1     -49.440  30.068  22.229  1.00  0.00    -0.001 C 
ATOM     53  C   UNL     1     -48.806  27.885  23.195  1.00  0.00    -0.001 C 
ATOM     54  C   UNL     1     -49.486  29.269  20.926  1.00  0.00    -0.035 C 
ATOM     55  H   UNL     1     -48.968  31.041  22.049  1.00  0.00     0.043 H 
ATOM     56  H   UNL     1     -50.467  30.306  22.534  1.00  0.00     0.043 H 
ATOM     57  C   UNL     1     -50.099  27.394  22.539  1.00  0.00    -0.035 C 
ATOM     58  H   UNL     1     -47.961  27.529  22.596  1.00  0.00     0.043 H 
ATOM     59  H   UNL     1     -48.717  27.431  24.188  1.00  0.00     0.043 H 
ATOM     60  C   UNL     1     -50.245  27.929  21.092  1.00  0.00    -0.033 C 
ATOM     61  H   UNL     1     -48.455  29.085  20.596  1.00  0.00     0.029 H 
ATOM     62  H   UNL     1     -49.948  29.877  20.138  1.00  0.00     0.029 H 
ATOM     63  H   UNL     1     -50.124  26.298  22.551  1.00  0.00     0.029 H 
ATOM     64  H   UNL     1     -50.947  27.719  23.157  1.00  0.00     0.029 H 
BRANCH  60  65
ATOM     65  C   UNL     1     -49.673  26.908  20.091  1.00  0.00    -0.060 C 
ATOM     66  H   UNL     1     -50.016  27.114  19.071  1.00  0.00     0.024 H 
ATOM     67  H   UNL     1     -49.983  25.889  20.347  1.00  0.00     0.024 H 
ATOM     68  H   UNL     1     -48.578  26.931  20.082  1.00  0.00     0.024 H 
ENDBRANCH  60  65
BRANCH  60  69
ATOM     69  C   UNL     1     -51.739  28.122  20.778  1.00  0.00    -0.060 C 
ATOM     70  H   UNL     1     -52.237  27.159  20.611  1.00  0.00     0.024 H 
ATOM     71  H   UNL     1     -52.255  28.623  21.605  1.00  0.00     0.024 H 
ATOM     72  H   UNL     1     -51.884  28.729  19.879  1.00  0.00     0.024 H 
ENDBRANCH  60  69
ENDBRANCH  48  51
ENDBRANCH  45  48
ENDBRANCH   2  38
TORSDOF 11
ENDMDL
MODEL 5
REMARK VINA RESULT:      -9.4      2.231      3.310
REMARK SMILES CNc1cc(N2CCC[C@@](O)(CNC(=O)c3ccc(CN4CCC(C)(C)CC4)cc3)C2)ncn1
REMARK SMILES IDX 13 1 14 2 15 3 12 5 10 8 6 9 7 10 31 11 8 12 9 17 5 22 3 23
REMARK SMILES IDX 4 24 34 25 33 27 32 28 2 30 1 32 11 36 16 38 17 39 30 40
REMARK SMILES IDX 18 41 29 43 19 45 20 48 21 51 22 52 28 53 23 54 27 57 24 60
REMARK SMILES IDX 25 65 26 69
REMARK H PARENT 13 4 12 6 12 7 7 13 7 14 31 15 31 16 8 18 8 19 9 20 9 21 4 26
REMARK H PARENT 33 29 2 31 1 33 1 34 1 35 11 37 17 42 30 44 18 46 29 47 20 49
REMARK H PARENT 20 50 22 55 22 56 28 58 28 59 23 61 23 62 27 63 27 64 25 66
REMARK H PARENT 25 67 25 68 26 70 26 71 26 72
REMARK Flexibility Score: inf
ROOT
ATOM      1  N   UNL     1     -46.895  35.656  28.089  1.00  0.00    -0.349 N 
ATOM      2  C   UNL     1     -47.976  35.191  27.372  1.00  0.00     0.251 C 
ATOM      3  O   UNL     1     -49.112  35.631  27.513  1.00  0.00    -0.269 OA
ATOM      4  H   UNL     1     -46.009  35.173  28.030  1.00  0.00     0.163 HD
ENDROOT
BRANCH   1   5
ATOM      5  C   UNL     1     -47.010  36.751  29.038  1.00  0.00     0.048 C 
ATOM      6  H   UNL     1     -48.045  36.740  29.404  1.00  0.00     0.052 H 
ATOM      7  H   UNL     1     -46.380  36.533  29.907  1.00  0.00     0.052 H 
BRANCH   5   8
ATOM      8  C   UNL     1     -46.671  38.154  28.486  1.00  0.00     0.099 C 
ATOM      9  N   UNL     1     -44.911  39.745  27.853  1.00  0.00    -0.353 N 
ATOM     10  C   UNL     1     -45.850  40.427  26.953  1.00  0.00     0.019 C 
ATOM     11  C   UNL     1     -45.160  38.338  28.210  1.00  0.00     0.050 C 
ATOM     12  C   UNL     1     -46.773  39.425  26.264  1.00  0.00    -0.033 C 
ATOM     13  H   UNL     1     -45.320  40.977  26.165  1.00  0.00     0.049 H 
ATOM     14  H   UNL     1     -46.443  41.152  27.523  1.00  0.00     0.049 H 
ATOM     15  H   UNL     1     -44.807  37.689  27.402  1.00  0.00     0.052 H 
ATOM     16  H   UNL     1     -44.624  38.086  29.133  1.00  0.00     0.052 H 
ATOM     17  C   UNL     1     -47.515  38.513  27.246  1.00  0.00    -0.019 C 
ATOM     18  H   UNL     1     -46.175  38.798  25.590  1.00  0.00     0.029 H 
ATOM     19  H   UNL     1     -47.497  39.953  25.633  1.00  0.00     0.029 H 
ATOM     20  H   UNL     1     -47.820  37.618  26.693  1.00  0.00     0.030 H 
ATOM     21  H   UNL     1     -48.440  39.014  27.561  1.00  0.00     0.030 H 
BRANCH   9  22
ATOM     22  C   UNL     1     -43.699  40.376  28.091  1.00  0.00     0.134 A 
ATOM     23  C   UNL     1     -41.819  41.680  27.446  1.00  0.00     0.131 A 
ATOM     24  C   UNL     1     -43.036  41.111  27.122  1.00  0.00     0.023 A 
ATOM     25  N   UNL     1     -41.277  41.563  28.661  1.00  0.00    -0.219 NA
ATOM     26  H   UNL     1     -43.462  41.279  26.143  1.00  0.00     0.070 H 
ATOM     27  C   UNL     1     -41.982  40.843  29.539  1.00  0.00     0.120 A 
ATOM     28  N   UNL     1     -43.158  40.241  29.314  1.00  0.00    -0.219 NA
ATOM     29  H   UNL     1     -41.561  40.733  30.532  1.00  0.00     0.106 H 
BRANCH  23  30
ATOM     30  N   UNL     1     -41.090  42.453  26.537  1.00  0.00    -0.373 N 
ATOM     31  H   UNL     1     -40.464  41.789  26.082  1.00  0.00     0.161 HD
BRANCH  30  32
ATOM     32  C   UNL     1     -41.899  43.179  25.573  1.00  0.00     0.005 C 
ATOM     33  H   UNL     1     -42.897  42.731  25.537  1.00  0.00     0.045 H 
ATOM     34  H   UNL     1     -41.480  43.118  24.563  1.00  0.00     0.045 H 
ATOM     35  H   UNL     1     -42.015  44.231  25.856  1.00  0.00     0.045 H 
ENDBRANCH  30  32
ENDBRANCH  23  30
ENDBRANCH   9  22
BRANCH   8  36
ATOM     36  O   UNL     1     -47.043  39.095  29.526  1.00  0.00    -0.386 OA
ATOM     37  H   UNL     1     -46.797  39.979  29.181  1.00  0.00     0.211 HD
ENDBRANCH   8  36
ENDBRANCH   5   8
ENDBRANCH   1   5
BRANCH   2  38
ATOM     38  C   UNL     1     -47.717  34.063  26.436  1.00  0.00     0.039 A 
ATOM     39  C   UNL     1     -46.613  34.052  25.576  1.00  0.00    -0.049 A 
ATOM     40  C   UNL     1     -48.625  33.001  26.410  1.00  0.00    -0.049 A 
ATOM     41  C   UNL     1     -46.407  32.966  24.720  1.00  0.00    -0.057 A 
ATOM     42  H   UNL     1     -45.921  34.888  25.536  1.00  0.00     0.063 H 
ATOM     43  C   UNL     1     -48.414  31.918  25.553  1.00  0.00    -0.057 A 
ATOM     44  H   UNL     1     -49.499  33.010  27.059  1.00  0.00     0.063 H 
ATOM     45  C   UNL     1     -47.296  31.881  24.706  1.00  0.00    -0.034 A 
ATOM     46  H   UNL     1     -45.549  32.977  24.050  1.00  0.00     0.063 H 
ATOM     47  H   UNL     1     -49.130  31.098  25.551  1.00  0.00     0.063 H 
BRANCH  45  48
ATOM     48  C   UNL     1     -47.070  30.698  23.784  1.00  0.00     0.023 C 
ATOM     49  H   UNL     1     -46.754  29.835  24.386  1.00  0.00     0.048 H 
ATOM     50  H   UNL     1     -46.200  30.910  23.147  1.00  0.00     0.048 H 
BRANCH  48  51
ATOM     51  N   UNL     1     -48.199  30.311  22.934  1.00  0.00    -0.299 NA
ATOM     52  C   UNL     1     -49.201  29.452  23.562  1.00  0.00    -0.001 C 
ATOM     53  C   UNL     1     -48.733  31.388  22.102  1.00  0.00    -0.001 C 
ATOM     54  C   UNL     1     -50.568  30.123  23.701  1.00  0.00    -0.035 C 
ATOM     55  H   UNL     1     -48.872  29.077  24.537  1.00  0.00     0.043 H 
ATOM     56  H   UNL     1     -49.309  28.556  22.937  1.00  0.00     0.043 H 
ATOM     57  C   UNL     1     -49.989  30.932  21.355  1.00  0.00    -0.035 C 
ATOM     58  H   UNL     1     -48.988  32.275  22.692  1.00  0.00     0.043 H 
ATOM     59  H   UNL     1     -47.976  31.691  21.370  1.00  0.00     0.043 H 
ATOM     60  C   UNL     1     -51.137  30.574  22.333  1.00  0.00    -0.033 C 
ATOM     61  H   UNL     1     -50.464  30.985  24.373  1.00  0.00     0.029 H 
ATOM     62  H   UNL     1     -51.265  29.438  24.199  1.00  0.00     0.029 H 
ATOM     63  H   UNL     1     -50.306  31.716  20.656  1.00  0.00     0.029 H 
ATOM     64  H   UNL     1     -49.727  30.065  20.734  1.00  0.00     0.029 H 
BRANCH  60  65
ATOM     65  C   UNL     1     -52.045  31.798  22.552  1.00  0.00    -0.060 C 
ATOM     66  H   UNL     1     -52.844  31.841  21.803  1.00  0.00     0.024 H 
ATOM     67  H   UNL     1     -51.474  32.730  22.484  1.00  0.00     0.024 H 
ATOM     68  H   UNL     1     -52.520  31.769  23.539  1.00  0.00     0.024 H 
ENDBRANCH  60  65
BRANCH  60  69
ATOM     69  C   UNL     1     -51.988  29.451  21.714  1.00  0.00    -0.060 C 
ATOM     70  H   UNL     1     -51.854  29.404  20.627  1.00  0.00     0.024 H 
ATOM     71  H   UNL     1     -51.711  28.473  22.126  1.00  0.00     0.024 H 
ATOM     72  H   UNL     1     -53.055  29.603  21.910  1.00  0.00     0.024 H 
ENDBRANCH  60  69
ENDBRANCH  48  51
ENDBRANCH  45  48
ENDBRANCH   2  38
TORSDOF 11
ENDMDL
MODEL 6
REMARK VINA RESULT:      -9.3      2.212      3.466
REMARK SMILES CNc1cc(N2CCC[C@@](O)(CNC(=O)c3ccc(CN4CCC(C)(C)CC4)cc3)C2)ncn1
REMARK SMILES IDX 13 1 14 2 15 3 12 5 10 8 6 9 7 10 31 11 8 12 9 17 5 22 3 23
REMARK SMILES IDX 4 24 34 25 33 27 32 28 2 30 1 32 11 36 16 38 17 39 30 40
REMARK SMILES IDX 18 41 29 43 19 45 20 48 21 51 22 52 28 53 23 54 27 57 24 60
REMARK SMILES IDX 25 65 26 69
REMARK H PARENT 13 4 12 6 12 7 7 13 7 14 31 15 31 16 8 18 8 19 9 20 9 21 4 26
REMARK H PARENT 33 29 2 31 1 33 1 34 1 35 11 37 17 42 30 44 18 46 29 47 20 49
REMARK H PARENT 20 50 22 55 22 56 28 58 28 59 23 61 23 62 27 63 27 64 25 66
REMARK H PARENT 25 67 25 68 26 70 26 71 26 72
REMARK Flexibility Score: inf
ROOT
ATOM      1  N   UNL     1     -47.325  34.802  27.304  1.00  0.00    -0.349 N 
ATOM      2  C   UNL     1     -48.345  34.160  26.636  1.00  0.00     0.251 C 
ATOM      3  O   UNL     1     -49.527  34.456  26.775  1.00  0.00    -0.269 OA
ATOM      4  H   UNL     1     -46.384  34.436  27.254  1.00  0.00     0.163 HD
ENDROOT
BRANCH   1   5
ATOM      5  C   UNL     1     -47.571  35.925  28.193  1.00  0.00     0.048 C 
ATOM      6  H   UNL     1     -48.214  36.624  27.644  1.00  0.00     0.052 H 
ATOM      7  H   UNL     1     -48.162  35.576  29.048  1.00  0.00     0.052 H 
BRANCH   5   8
ATOM      8  C   UNL     1     -46.312  36.667  28.697  1.00  0.00     0.099 C 
ATOM      9  N   UNL     1     -44.994  38.739  28.665  1.00  0.00    -0.353 N 
ATOM     10  C   UNL     1     -44.403  38.383  29.961  1.00  0.00     0.019 C 
ATOM     11  C   UNL     1     -46.297  38.161  28.293  1.00  0.00     0.050 C 
ATOM     12  C   UNL     1     -45.431  37.708  30.865  1.00  0.00    -0.033 C 
ATOM     13  H   UNL     1     -44.038  39.273  30.490  1.00  0.00     0.049 H 
ATOM     14  H   UNL     1     -43.548  37.716  29.803  1.00  0.00     0.049 H 
ATOM     15  H   UNL     1     -47.099  38.726  28.779  1.00  0.00     0.052 H 
ATOM     16  H   UNL     1     -46.430  38.208  27.206  1.00  0.00     0.052 H 
ATOM     17  C   UNL     1     -46.103  36.494  30.215  1.00  0.00    -0.019 C 
ATOM     18  H   UNL     1     -46.208  38.439  31.125  1.00  0.00     0.029 H 
ATOM     19  H   UNL     1     -44.962  37.408  31.809  1.00  0.00     0.029 H 
ATOM     20  H   UNL     1     -47.051  36.329  30.737  1.00  0.00     0.030 H 
ATOM     21  H   UNL     1     -45.485  35.607  30.405  1.00  0.00     0.030 H 
BRANCH   9  22
ATOM     22  C   UNL     1     -44.430  39.811  27.990  1.00  0.00     0.134 A 
ATOM     23  C   UNL     1     -44.188  41.254  26.117  1.00  0.00     0.131 A 
ATOM     24  C   UNL     1     -44.830  40.188  26.719  1.00  0.00     0.023 A 
ATOM     25  N   UNL     1     -43.217  41.939  26.726  1.00  0.00    -0.219 NA
ATOM     26  H   UNL     1     -45.648  39.700  26.210  1.00  0.00     0.070 H 
ATOM     27  C   UNL     1     -42.894  41.515  27.951  1.00  0.00     0.120 A 
ATOM     28  N   UNL     1     -43.445  40.485  28.609  1.00  0.00    -0.219 NA
ATOM     29  H   UNL     1     -42.107  42.055  28.465  1.00  0.00     0.106 H 
BRANCH  23  30
ATOM     30  N   UNL     1     -44.539  41.716  24.844  1.00  0.00    -0.373 N 
ATOM     31  H   UNL     1     -45.538  41.525  24.770  1.00  0.00     0.161 HD
BRANCH  30  32
ATOM     32  C   UNL     1     -44.239  43.118  24.605  1.00  0.00     0.005 C 
ATOM     33  H   UNL     1     -43.716  43.212  23.649  1.00  0.00     0.045 H 
ATOM     34  H   UNL     1     -43.581  43.529  25.377  1.00  0.00     0.045 H 
ATOM     35  H   UNL     1     -45.153  43.720  24.547  1.00  0.00     0.045 H 
ENDBRANCH  30  32
ENDBRANCH  23  30
ENDBRANCH   9  22
BRANCH   8  36
ATOM     36  O   UNL     1     -45.183  36.027  28.049  1.00  0.00    -0.386 OA
ATOM     37  H   UNL     1     -45.350  35.064  28.118  1.00  0.00     0.211 HD
ENDBRANCH   8  36
ENDBRANCH   5   8
ENDBRANCH   1   5
BRANCH   2  38
ATOM     38  C   UNL     1     -47.953  33.024  25.758  1.00  0.00     0.039 A 
ATOM     39  C   UNL     1     -48.730  31.865  25.652  1.00  0.00    -0.049 A 
ATOM     40  C   UNL     1     -46.757  33.122  25.041  1.00  0.00    -0.049 A 
ATOM     41  C   UNL     1     -48.324  30.827  24.808  1.00  0.00    -0.057 A 
ATOM     42  H   UNL     1     -49.635  31.738  26.238  1.00  0.00     0.063 H 
ATOM     43  C   UNL     1     -46.355  32.082  24.198  1.00  0.00    -0.057 A 
ATOM     44  H   UNL     1     -46.134  34.010  25.133  1.00  0.00     0.063 H 
ATOM     45  C   UNL     1     -47.140  30.928  24.062  1.00  0.00    -0.034 A 
ATOM     46  H   UNL     1     -48.934  29.928  24.744  1.00  0.00     0.063 H 
ATOM     47  H   UNL     1     -45.423  32.181  23.645  1.00  0.00     0.063 H 
BRANCH  45  48
ATOM     48  C   UNL     1     -46.701  29.806  23.139  1.00  0.00     0.023 C 
ATOM     49  H   UNL     1     -46.656  28.872  23.715  1.00  0.00     0.048 H 
ATOM     50  H   UNL     1     -45.658  29.983  22.842  1.00  0.00     0.048 H 
BRANCH  48  51
ATOM     51  N   UNL     1     -47.510  29.599  21.937  1.00  0.00    -0.299 NA
ATOM     52  C   UNL     1     -48.612  28.648  22.070  1.00  0.00    -0.001 C 
ATOM     53  C   UNL     1     -47.825  30.819  21.195  1.00  0.00    -0.001 C 
ATOM     54  C   UNL     1     -49.990  29.296  21.916  1.00  0.00    -0.035 C 
ATOM     55  H   UNL     1     -48.569  28.092  23.013  1.00  0.00     0.043 H 
ATOM     56  H   UNL     1     -48.492  27.887  21.289  1.00  0.00     0.043 H 
ATOM     57  C   UNL     1     -48.783  30.526  20.038  1.00  0.00    -0.035 C 
ATOM     58  H   UNL     1     -48.282  31.581  21.834  1.00  0.00     0.043 H 
ATOM     59  H   UNL     1     -46.900  31.245  20.790  1.00  0.00     0.043 H 
ATOM     60  C   UNL     1     -50.151  30.003  20.547  1.00  0.00    -0.033 C 
ATOM     61  H   UNL     1     -50.127  30.015  22.735  1.00  0.00     0.029 H 
ATOM     62  H   UNL     1     -50.770  28.537  22.050  1.00  0.00     0.029 H 
ATOM     63  H   UNL     1     -48.916  31.430  19.432  1.00  0.00     0.029 H 
ATOM     64  H   UNL     1     -48.311  29.788  19.375  1.00  0.00     0.029 H 
BRANCH  60  65
ATOM     65  C   UNL     1     -51.138  31.174  20.706  1.00  0.00    -0.060 C 
ATOM     66  H   UNL     1     -50.853  31.825  21.541  1.00  0.00     0.024 H 
ATOM     67  H   UNL     1     -52.153  30.810  20.899  1.00  0.00     0.024 H 
ATOM     68  H   UNL     1     -51.171  31.791  19.802  1.00  0.00     0.024 H 
ENDBRANCH  60  65
BRANCH  60  69
ATOM     69  C   UNL     1     -50.730  29.025  19.509  1.00  0.00    -0.060 C 
ATOM     70  H   UNL     1     -50.462  27.989  19.747  1.00  0.00     0.024 H 
ATOM     71  H   UNL     1     -51.824  29.086  19.475  1.00  0.00     0.024 H 
ATOM     72  H   UNL     1     -50.354  29.241  18.503  1.00  0.00     0.024 H 
ENDBRANCH  60  69
ENDBRANCH  48  51
ENDBRANCH  45  48
ENDBRANCH   2  38
TORSDOF 11
ENDMDL
MODEL 7
REMARK VINA RESULT:      -9.2      2.865      5.239
REMARK SMILES CNc1cc(N2CCC[C@@](O)(CNC(=O)c3ccc(CN4CCC(C)(C)CC4)cc3)C2)ncn1
REMARK SMILES IDX 13 1 14 2 15 3 12 5 10 8 6 9 7 10 31 11 8 12 9 17 5 22 3 23
REMARK SMILES IDX 4 24 34 25 33 27 32 28 2 30 1 32 11 36 16 38 17 39 30 40
REMARK SMILES IDX 18 41 29 43 19 45 20 48 21 51 22 52 28 53 23 54 27 57 24 60
REMARK SMILES IDX 25 65 26 69
REMARK H PARENT 13 4 12 6 12 7 7 13 7 14 31 15 31 16 8 18 8 19 9 20 9 21 4 26
REMARK H PARENT 33 29 2 31 1 33 1 34 1 35 11 37 17 42 30 44 18 46 29 47 20 49
REMARK H PARENT 20 50 22 55 22 56 28 58 28 59 23 61 23 62 27 63 27 64 25 66
REMARK H PARENT 25 67 25 68 26 70 26 71 26 72
REMARK Flexibility Score: inf
ROOT
ATOM      1  N   UNL     1     -46.265  39.077  26.960  1.00  0.00    -0.349 N 
ATOM      2  C   UNL     1     -45.991  38.111  27.904  1.00  0.00     0.251 C 
ATOM      3  O   UNL     1     -45.529  38.369  29.010  1.00  0.00    -0.269 OA
ATOM      4  H   UNL     1     -46.521  38.802  26.021  1.00  0.00     0.163 HD
ENDROOT
BRANCH   1   5
ATOM      5  C   UNL     1     -46.074  40.493  27.225  1.00  0.00     0.048 C 
ATOM      6  H   UNL     1     -46.909  41.017  26.744  1.00  0.00     0.052 H 
ATOM      7  H   UNL     1     -46.186  40.670  28.302  1.00  0.00     0.052 H 
BRANCH   5   8
ATOM      8  C   UNL     1     -44.736  41.091  26.735  1.00  0.00     0.099 C 
ATOM      9  N   UNL     1     -43.613  42.929  25.554  1.00  0.00    -0.353 N 
ATOM     10  C   UNL     1     -42.370  42.633  26.277  1.00  0.00     0.019 C 
ATOM     11  C   UNL     1     -44.896  42.513  26.146  1.00  0.00     0.050 C 
ATOM     12  C   UNL     1     -42.658  42.221  27.719  1.00  0.00    -0.033 C 
ATOM     13  H   UNL     1     -41.712  43.511  26.314  1.00  0.00     0.049 H 
ATOM     14  H   UNL     1     -41.827  41.833  25.760  1.00  0.00     0.049 H 
ATOM     15  H   UNL     1     -45.202  43.240  26.905  1.00  0.00     0.052 H 
ATOM     16  H   UNL     1     -45.667  42.460  25.367  1.00  0.00     0.052 H 
ATOM     17  C   UNL     1     -43.647  41.056  27.827  1.00  0.00    -0.019 C 
ATOM     18  H   UNL     1     -43.073  43.083  28.256  1.00  0.00     0.029 H 
ATOM     19  H   UNL     1     -41.724  41.960  28.228  1.00  0.00     0.029 H 
ATOM     20  H   UNL     1     -44.082  41.091  28.832  1.00  0.00     0.030 H 
ATOM     21  H   UNL     1     -43.089  40.113  27.763  1.00  0.00     0.030 H 
BRANCH   9  22
ATOM     22  C   UNL     1     -43.529  43.824  24.500  1.00  0.00     0.134 A 
ATOM     23  C   UNL     1     -42.713  44.553  22.389  1.00  0.00     0.131 A 
ATOM     24  C   UNL     1     -42.754  43.587  23.377  1.00  0.00     0.023 A 
ATOM     25  N   UNL     1     -43.409  45.690  22.474  1.00  0.00    -0.219 NA
ATOM     26  H   UNL     1     -42.218  42.658  23.240  1.00  0.00     0.070 H 
ATOM     27  C   UNL     1     -44.134  45.839  23.585  1.00  0.00     0.120 A 
ATOM     28  N   UNL     1     -44.225  44.971  24.602  1.00  0.00    -0.219 NA
ATOM     29  H   UNL     1     -44.707  46.756  23.676  1.00  0.00     0.106 H 
BRANCH  23  30
ATOM     30  N   UNL     1     -41.973  44.390  21.214  1.00  0.00    -0.373 N 
ATOM     31  H   UNL     1     -42.239  43.467  20.871  1.00  0.00     0.161 HD
BRANCH  30  32
ATOM     32  C   UNL     1     -42.190  45.421  20.214  1.00  0.00     0.005 C 
ATOM     33  H   UNL     1     -41.222  45.828  19.905  1.00  0.00     0.045 H 
ATOM     34  H   UNL     1     -42.780  46.254  20.611  1.00  0.00     0.045 H 
ATOM     35  H   UNL     1     -42.683  45.018  19.322  1.00  0.00     0.045 H 
ENDBRANCH  30  32
ENDBRANCH  23  30
ENDBRANCH   9  22
BRANCH   8  36
ATOM     36  O   UNL     1     -44.277  40.224  25.666  1.00  0.00    -0.386 OA
ATOM     37  H   UNL     1     -44.860  39.437  25.697  1.00  0.00     0.211 HD
ENDBRANCH   8  36
ENDBRANCH   5   8
ENDBRANCH   1   5
BRANCH   2  38
ATOM     38  C   UNL     1     -46.230  36.700  27.499  1.00  0.00     0.039 A 
ATOM     39  C   UNL     1     -46.976  36.370  26.362  1.00  0.00    -0.049 A 
ATOM     40  C   UNL     1     -45.707  35.681  28.301  1.00  0.00    -0.049 A 
ATOM     41  C   UNL     1     -47.168  35.029  26.016  1.00  0.00    -0.057 A 
ATOM     42  H   UNL     1     -47.441  37.138  25.750  1.00  0.00     0.063 H 
ATOM     43  C   UNL     1     -45.900  34.342  27.951  1.00  0.00    -0.057 A 
ATOM     44  H   UNL     1     -45.143  35.926  29.199  1.00  0.00     0.063 H 
ATOM     45  C   UNL     1     -46.622  34.000  26.798  1.00  0.00    -0.034 A 
ATOM     46  H   UNL     1     -47.759  34.789  25.135  1.00  0.00     0.063 H 
ATOM     47  H   UNL     1     -45.480  33.565  28.586  1.00  0.00     0.063 H 
BRANCH  45  48
ATOM     48  C   UNL     1     -46.822  32.544  26.422  1.00  0.00     0.023 C 
ATOM     49  H   UNL     1     -47.449  32.064  27.186  1.00  0.00     0.048 H 
ATOM     50  H   UNL     1     -45.858  32.024  26.506  1.00  0.00     0.048 H 
BRANCH  48  51
ATOM     51  N   UNL     1     -47.387  32.287  25.096  1.00  0.00    -0.299 NA
ATOM     52  C   UNL     1     -46.449  31.794  24.090  1.00  0.00    -0.001 C 
ATOM     53  C   UNL     1     -48.693  31.629  25.107  1.00  0.00    -0.001 C 
ATOM     54  C   UNL     1     -46.761  30.371  23.620  1.00  0.00    -0.035 C 
ATOM     55  H   UNL     1     -45.409  31.850  24.430  1.00  0.00     0.043 H 
ATOM     56  H   UNL     1     -46.500  32.469  23.227  1.00  0.00     0.043 H 
ATOM     57  C   UNL     1     -49.142  31.277  23.686  1.00  0.00    -0.035 C 
ATOM     58  H   UNL     1     -48.684  30.709  25.701  1.00  0.00     0.043 H 
ATOM     59  H   UNL     1     -49.433  32.300  25.557  1.00  0.00     0.043 H 
ATOM     60  C   UNL     1     -48.184  30.256  23.021  1.00  0.00    -0.033 C 
ATOM     61  H   UNL     1     -46.651  29.693  24.477  1.00  0.00     0.029 H 
ATOM     62  H   UNL     1     -46.009  30.053  22.888  1.00  0.00     0.029 H 
ATOM     63  H   UNL     1     -50.167  30.888  23.710  1.00  0.00     0.029 H 
ATOM     64  H   UNL     1     -49.187  32.203  23.097  1.00  0.00     0.029 H 
BRANCH  60  65
ATOM     65  C   UNL     1     -48.702  28.823  23.245  1.00  0.00    -0.060 C 
ATOM     66  H   UNL     1     -48.157  28.101  22.625  1.00  0.00     0.024 H 
ATOM     67  H   UNL     1     -49.764  28.744  22.993  1.00  0.00     0.024 H 
ATOM     68  H   UNL     1     -48.583  28.516  24.290  1.00  0.00     0.024 H 
ENDBRANCH  60  65
BRANCH  60  69
ATOM     69  C   UNL     1     -48.146  30.520  21.505  1.00  0.00    -0.060 C 
ATOM     70  H   UNL     1     -47.169  30.908  21.194  1.00  0.00     0.024 H 
ATOM     71  H   UNL     1     -48.334  29.601  20.939  1.00  0.00     0.024 H 
ATOM     72  H   UNL     1     -48.903  31.254  21.208  1.00  0.00     0.024 H 
ENDBRANCH  60  69
ENDBRANCH  48  51
ENDBRANCH  45  48
ENDBRANCH   2  38
TORSDOF 11
ENDMDL
