MODEL 1
REMARK VINA RESULT:      -9.5      0.000      0.000
REMARK SMILES Cc1cc(NCCN(C)CCCc2ccccc2)c2ccc(OCc3cncc(-n4ccc5c(N)ncnc54)c3)cc2n1
REMARK SMILES IDX 6 1 5 4 4 6 2 7 3 8 43 9 42 11 19 12 41 13 20 14 22 15 21 17
REMARK SMILES IDX 1 20 23 24 24 25 25 28 26 29 40 30 27 31 29 33 28 35 30 37
REMARK SMILES IDX 31 38 39 39 32 40 33 42 38 43 34 45 37 46 36 47 35 49 7 52
REMARK SMILES IDX 8 55 9 56 10 60 11 63 12 66 13 69 14 70 18 71 15 72 17 74
REMARK SMILES IDX 16 76
REMARK H PARENT 6 2 6 3 5 5 3 10 41 16 20 18 21 19 1 21 1 22 1 23 24 26 24 27
REMARK H PARENT 26 32 40 34 28 36 31 41 32 44 37 48 35 50 35 51 7 53 7 54 9 57
REMARK H PARENT 9 58 9 59 10 61 10 62 11 64 11 65 12 67 12 68 14 73 18 75
REMARK H PARENT 15 77 17 78 16 79
REMARK Flexibility Score: inf
ROOT
ATOM      1  C   UNL     1     -50.876  30.227  23.695  1.00  0.00     0.027 C 
ATOM      2  H   UNL     1     -51.632  29.567  24.140  1.00  0.00     0.050 H 
ATOM      3  H   UNL     1     -51.404  31.148  23.426  1.00  0.00     0.050 H 
ENDROOT
BRANCH   1   4
ATOM      4  N   UNL     1     -49.858  30.484  24.720  1.00  0.00    -0.383 N 
ATOM      5  H   UNL     1     -50.241  31.014  25.501  1.00  0.00     0.160 HD
BRANCH   4   6
ATOM      6  C   UNL     1     -48.562  30.927  24.401  1.00  0.00     0.045 A 
ATOM      7  C   UNL     1     -46.414  30.653  23.340  1.00  0.00     0.040 A 
ATOM      8  C   UNL     1     -47.692  30.179  23.604  1.00  0.00    -0.017 A 
ATOM      9  N   UNL     1     -45.949  31.815  23.842  1.00  0.00    -0.253 NA
ATOM     10  H   UNL     1     -47.990  29.235  23.165  1.00  0.00     0.066 H 
ATOM     11  C   UNL     1     -46.745  32.526  24.653  1.00  0.00     0.076 A 
ATOM     12  C   UNL     1     -48.059  32.126  24.984  1.00  0.00     0.024 A 
ATOM     13  C   UNL     1     -46.228  33.702  25.187  1.00  0.00     0.007 A 
ATOM     14  C   UNL     1     -48.791  32.935  25.882  1.00  0.00    -0.047 A 
ATOM     15  C   UNL     1     -46.965  34.507  26.053  1.00  0.00     0.122 A 
ATOM     16  H   UNL     1     -45.210  33.955  24.907  1.00  0.00     0.069 H 
ATOM     17  C   UNL     1     -48.250  34.110  26.406  1.00  0.00    -0.019 A 
ATOM     18  H   UNL     1     -49.790  32.650  26.201  1.00  0.00     0.063 H 
ATOM     19  H   UNL     1     -48.833  34.713  27.098  1.00  0.00     0.066 H 
BRANCH   7  20
ATOM     20  C   UNL     1     -45.485  29.865  22.467  1.00  0.00    -0.022 C 
ATOM     21  H   UNL     1     -44.727  29.351  23.067  1.00  0.00     0.030 H 
ATOM     22  H   UNL     1     -44.971  30.530  21.765  1.00  0.00     0.030 H 
ATOM     23  H   UNL     1     -46.043  29.110  21.905  1.00  0.00     0.030 H 
ENDBRANCH   7  20
BRANCH  15  24
ATOM     24  O   UNL     1     -46.552  35.673  26.633  1.00  0.00    -0.489 OA
BRANCH  24  25
ATOM     25  C   UNL     1     -47.284  36.183  27.752  1.00  0.00     0.115 C 
ATOM     26  H   UNL     1     -46.671  35.985  28.639  1.00  0.00     0.076 H 
ATOM     27  H   UNL     1     -48.216  35.623  27.900  1.00  0.00     0.076 H 
BRANCH  25  28
ATOM     28  C   UNL     1     -47.510  37.671  27.685  1.00  0.00     0.010 A 
ATOM     29  C   UNL     1     -48.716  38.215  28.107  1.00  0.00     0.034 A 
ATOM     30  C   UNL     1     -46.514  38.559  27.254  1.00  0.00    -0.028 A 
ATOM     31  N   UNL     1     -48.986  39.535  28.104  1.00  0.00    -0.262 NA
ATOM     32  H   UNL     1     -49.526  37.589  28.470  1.00  0.00     0.084 H 
ATOM     33  C   UNL     1     -46.752  39.938  27.228  1.00  0.00     0.066 A 
ATOM     34  H   UNL     1     -45.572  38.135  26.922  1.00  0.00     0.065 H 
ATOM     35  C   UNL     1     -48.006  40.362  27.663  1.00  0.00     0.051 A 
ATOM     36  H   UNL     1     -48.297  41.405  27.704  1.00  0.00     0.086 H 
BRANCH  33  37
ATOM     37  N   UNL     1     -45.772  40.879  26.780  1.00  0.00    -0.300 N 
ATOM     38  C   UNL     1     -45.940  41.762  25.718  1.00  0.00     0.012 A 
ATOM     39  C   UNL     1     -44.488  41.098  27.291  1.00  0.00     0.150 A 
ATOM     40  C   UNL     1     -44.798  42.510  25.552  1.00  0.00    -0.031 A 
ATOM     41  H   UNL     1     -46.850  41.789  25.138  1.00  0.00     0.082 H 
ATOM     42  C   UNL     1     -43.874  42.096  26.540  1.00  0.00     0.061 A 
ATOM     43  N   UNL     1     -43.921  40.481  28.348  1.00  0.00    -0.218 NA
ATOM     44  H   UNL     1     -44.649  43.275  24.802  1.00  0.00     0.065 H 
ATOM     45  C   UNL     1     -42.568  42.464  26.898  1.00  0.00     0.136 A 
ATOM     46  C   UNL     1     -42.677  40.915  28.598  1.00  0.00     0.120 A 
ATOM     47  N   UNL     1     -41.978  41.851  27.937  1.00  0.00    -0.219 NA
ATOM     48  H   UNL     1     -42.172  40.451  29.439  1.00  0.00     0.106 H 
BRANCH  45  49
ATOM     49  N   UNL     1     -41.831  43.428  26.227  1.00  0.00    -0.383 N 
ATOM     50  H   UNL     1     -42.435  44.172  25.899  1.00  0.00     0.158 HD
ATOM     51  H   UNL     1     -40.981  43.715  26.693  1.00  0.00     0.158 HD
ENDBRANCH  45  49
ENDBRANCH  33  37
ENDBRANCH  25  28
ENDBRANCH  24  25
ENDBRANCH  15  24
ENDBRANCH   4   6
ENDBRANCH   1   4
BRANCH   1  52
ATOM     52  C   UNL     1     -50.268  29.503  22.474  1.00  0.00     0.015 C 
ATOM     53  H   UNL     1     -50.599  29.979  21.543  1.00  0.00     0.045 H 
ATOM     54  H   UNL     1     -49.181  29.657  22.525  1.00  0.00     0.045 H 
BRANCH  52  55
ATOM     55  N   UNL     1     -50.550  28.056  22.452  1.00  0.00    -0.305 NA
BRANCH  55  56
ATOM     56  C   UNL     1     -50.069  27.416  21.227  1.00  0.00    -0.013 C 
ATOM     57  H   UNL     1     -49.088  27.812  20.941  1.00  0.00     0.039 H 
ATOM     58  H   UNL     1     -49.927  26.342  21.377  1.00  0.00     0.039 H 
ATOM     59  H   UNL     1     -50.755  27.553  20.384  1.00  0.00     0.039 H 
ENDBRANCH  55  56
BRANCH  55  60
ATOM     60  C   UNL     1     -50.051  27.369  23.658  1.00  0.00    -0.002 C 
ATOM     61  H   UNL     1     -49.264  26.667  23.352  1.00  0.00     0.043 H 
ATOM     62  H   UNL     1     -49.540  28.112  24.283  1.00  0.00     0.043 H 
BRANCH  60  63
ATOM     63  C   UNL     1     -51.095  26.615  24.499  1.00  0.00    -0.036 C 
ATOM     64  H   UNL     1     -52.095  27.028  24.327  1.00  0.00     0.028 H 
ATOM     65  H   UNL     1     -51.127  25.564  24.190  1.00  0.00     0.028 H 
BRANCH  63  66
ATOM     66  C   UNL     1     -50.773  26.643  25.999  1.00  0.00    -0.027 C 
ATOM     67  H   UNL     1     -51.431  25.946  26.533  1.00  0.00     0.032 H 
ATOM     68  H   UNL     1     -51.008  27.639  26.397  1.00  0.00     0.032 H 
BRANCH  66  69
ATOM     69  C   UNL     1     -49.328  26.343  26.317  1.00  0.00    -0.048 A 
ATOM     70  C   UNL     1     -48.483  27.348  26.806  1.00  0.00    -0.059 A 
ATOM     71  C   UNL     1     -48.813  25.052  26.135  1.00  0.00    -0.059 A 
ATOM     72  C   UNL     1     -47.150  27.066  27.109  1.00  0.00    -0.062 A 
ATOM     73  H   UNL     1     -48.858  28.359  26.958  1.00  0.00     0.063 H 
ATOM     74  C   UNL     1     -47.480  24.773  26.437  1.00  0.00    -0.062 A 
ATOM     75  H   UNL     1     -49.448  24.257  25.752  1.00  0.00     0.063 H 
ATOM     76  C   UNL     1     -46.648  25.780  26.925  1.00  0.00    -0.062 A 
ATOM     77  H   UNL     1     -46.502  27.852  27.489  1.00  0.00     0.062 H 
ATOM     78  H   UNL     1     -47.088  23.769  26.291  1.00  0.00     0.062 H 
ATOM     79  H   UNL     1     -45.611  25.561  27.161  1.00  0.00     0.062 H 
ENDBRANCH  66  69
ENDBRANCH  63  66
ENDBRANCH  60  63
ENDBRANCH  55  60
ENDBRANCH  52  55
ENDBRANCH   1  52
TORSDOF 15
ENDMDL
MODEL 2
REMARK VINA RESULT:      -9.4      1.806      3.331
REMARK SMILES Cc1cc(NCCN(C)CCCc2ccccc2)c2ccc(OCc3cncc(-n4ccc5c(N)ncnc54)c3)cc2n1
REMARK SMILES IDX 6 1 5 4 4 6 2 7 3 8 43 9 42 11 19 12 41 13 20 14 22 15 21 17
REMARK SMILES IDX 1 20 23 24 24 25 25 28 26 29 40 30 27 31 29 33 28 35 30 37
REMARK SMILES IDX 31 38 39 39 32 40 33 42 38 43 34 45 37 46 36 47 35 49 7 52
REMARK SMILES IDX 8 55 9 56 10 60 11 63 12 66 13 69 14 70 18 71 15 72 17 74
REMARK SMILES IDX 16 76
REMARK H PARENT 6 2 6 3 5 5 3 10 41 16 20 18 21 19 1 21 1 22 1 23 24 26 24 27
REMARK H PARENT 26 32 40 34 28 36 31 41 32 44 37 48 35 50 35 51 7 53 7 54 9 57
REMARK H PARENT 9 58 9 59 10 61 10 62 11 64 11 65 12 67 12 68 14 73 18 75
REMARK H PARENT 15 77 17 78 16 79
REMARK Flexibility Score: inf
ROOT
ATOM      1  C   UNL     1     -46.120  29.880  22.652  1.00  0.00     0.027 C 
ATOM      2  H   UNL     1     -45.705  29.435  21.738  1.00  0.00     0.050 H 
ATOM      3  H   UNL     1     -45.278  30.363  23.159  1.00  0.00     0.050 H 
ENDROOT
BRANCH   1   4
ATOM      4  N   UNL     1     -47.126  30.866  22.244  1.00  0.00    -0.383 N 
ATOM      5  H   UNL     1     -46.693  31.702  21.857  1.00  0.00     0.160 HD
BRANCH   4   6
ATOM      6  C   UNL     1     -48.226  31.201  23.054  1.00  0.00     0.045 A 
ATOM      7  C   UNL     1     -50.588  31.245  23.532  1.00  0.00     0.040 A 
ATOM      8  C   UNL     1     -49.538  30.868  22.708  1.00  0.00    -0.017 A 
ATOM      9  N   UNL     1     -50.409  31.950  24.667  1.00  0.00    -0.253 NA
ATOM     10  H   UNL     1     -49.765  30.304  21.811  1.00  0.00     0.066 H 
ATOM     11  C   UNL     1     -49.166  32.329  24.996  1.00  0.00     0.076 A 
ATOM     12  C   UNL     1     -48.032  31.997  24.220  1.00  0.00     0.024 A 
ATOM     13  C   UNL     1     -49.012  33.087  26.151  1.00  0.00     0.007 A 
ATOM     14  C   UNL     1     -46.775  32.486  24.642  1.00  0.00    -0.047 A 
ATOM     15  C   UNL     1     -47.766  33.545  26.574  1.00  0.00     0.122 A 
ATOM     16  H   UNL     1     -49.917  33.320  26.702  1.00  0.00     0.069 H 
ATOM     17  C   UNL     1     -46.646  33.247  25.805  1.00  0.00    -0.019 A 
ATOM     18  H   UNL     1     -45.879  32.295  24.059  1.00  0.00     0.063 H 
ATOM     19  H   UNL     1     -45.668  33.613  26.106  1.00  0.00     0.066 H 
BRANCH   7  20
ATOM     20  C   UNL     1     -51.996  30.870  23.176  1.00  0.00    -0.022 C 
ATOM     21  H   UNL     1     -52.715  31.417  23.795  1.00  0.00     0.030 H 
ATOM     22  H   UNL     1     -52.154  29.799  23.336  1.00  0.00     0.030 H 
ATOM     23  H   UNL     1     -52.197  31.111  22.128  1.00  0.00     0.030 H 
ENDBRANCH   7  20
BRANCH  15  24
ATOM     24  O   UNL     1     -47.506  34.296  27.685  1.00  0.00    -0.489 OA
BRANCH  24  25
ATOM     25  C   UNL     1     -46.145  34.550  28.043  1.00  0.00     0.115 C 
ATOM     26  H   UNL     1     -45.575  34.563  27.106  1.00  0.00     0.076 H 
ATOM     27  H   UNL     1     -45.733  33.722  28.634  1.00  0.00     0.076 H 
BRANCH  25  28
ATOM     28  C   UNL     1     -45.946  35.888  28.707  1.00  0.00     0.010 A 
ATOM     29  C   UNL     1     -46.228  36.047  30.058  1.00  0.00     0.034 A 
ATOM     30  C   UNL     1     -45.426  36.994  28.020  1.00  0.00    -0.028 A 
ATOM     31  N   UNL     1     -46.051  37.200  30.732  1.00  0.00    -0.262 NA
ATOM     32  H   UNL     1     -46.616  35.228  30.658  1.00  0.00     0.084 H 
ATOM     33  C   UNL     1     -45.232  38.214  28.677  1.00  0.00     0.066 A 
ATOM     34  H   UNL     1     -45.207  36.871  26.964  1.00  0.00     0.065 H 
ATOM     35  C   UNL     1     -45.565  38.253  30.029  1.00  0.00     0.051 A 
ATOM     36  H   UNL     1     -45.441  39.137  30.644  1.00  0.00     0.086 H 
BRANCH  33  37
ATOM     37  N   UNL     1     -44.721  39.373  28.011  1.00  0.00    -0.300 N 
ATOM     38  C   UNL     1     -45.186  39.865  26.797  1.00  0.00     0.012 A 
ATOM     39  C   UNL     1     -43.685  40.218  28.422  1.00  0.00     0.150 A 
ATOM     40  C   UNL     1     -44.463  40.980  26.441  1.00  0.00    -0.031 A 
ATOM     41  H   UNL     1     -45.985  39.383  26.254  1.00  0.00     0.082 H 
ATOM     42  C   UNL     1     -43.511  41.210  27.461  1.00  0.00     0.061 A 
ATOM     43  N   UNL     1     -42.972  40.130  29.564  1.00  0.00    -0.218 NA
ATOM     44  H   UNL     1     -44.610  41.567  25.544  1.00  0.00     0.065 H 
ATOM     45  C   UNL     1     -42.509  42.165  27.691  1.00  0.00     0.136 A 
ATOM     46  C   UNL     1     -42.048  41.095  29.678  1.00  0.00     0.120 A 
ATOM     47  N   UNL     1     -41.776  42.087  28.815  1.00  0.00    -0.219 NA
ATOM     48  H   UNL     1     -41.444  41.072  30.579  1.00  0.00     0.106 H 
BRANCH  45  49
ATOM     49  N   UNL     1     -42.214  43.195  26.811  1.00  0.00    -0.383 N 
ATOM     50  H   UNL     1     -42.796  44.003  27.003  1.00  0.00     0.158 HD
ATOM     51  H   UNL     1     -41.228  43.376  26.682  1.00  0.00     0.158 HD
ENDBRANCH  45  49
ENDBRANCH  33  37
ENDBRANCH  25  28
ENDBRANCH  24  25
ENDBRANCH  15  24
ENDBRANCH   4   6
ENDBRANCH   1   4
BRANCH   1  52
ATOM     52  C   UNL     1     -46.756  28.748  23.488  1.00  0.00     0.015 C 
ATOM     53  H   UNL     1     -46.887  29.068  24.529  1.00  0.00     0.045 H 
ATOM     54  H   UNL     1     -47.767  28.589  23.089  1.00  0.00     0.045 H 
BRANCH  52  55
ATOM     55  N   UNL     1     -46.006  27.479  23.422  1.00  0.00    -0.305 NA
BRANCH  55  56
ATOM     56  C   UNL     1     -44.588  27.689  23.131  1.00  0.00    -0.013 C 
ATOM     57  H   UNL     1     -44.266  27.061  22.293  1.00  0.00     0.039 H 
ATOM     58  H   UNL     1     -44.401  28.722  22.822  1.00  0.00     0.039 H 
ATOM     59  H   UNL     1     -43.946  27.472  23.992  1.00  0.00     0.039 H 
ENDBRANCH  55  56
BRANCH  55  60
ATOM     60  C   UNL     1     -46.199  26.651  24.627  1.00  0.00    -0.002 C 
ATOM     61  H   UNL     1     -46.365  25.614  24.307  1.00  0.00     0.043 H 
ATOM     62  H   UNL     1     -45.251  26.629  25.177  1.00  0.00     0.043 H 
BRANCH  60  63
ATOM     63  C   UNL     1     -47.337  27.072  25.573  1.00  0.00    -0.036 C 
ATOM     64  H   UNL     1     -46.934  27.379  26.543  1.00  0.00     0.028 H 
ATOM     65  H   UNL     1     -47.861  27.940  25.155  1.00  0.00     0.028 H 
BRANCH  63  66
ATOM     66  C   UNL     1     -48.377  25.961  25.770  1.00  0.00    -0.027 C 
ATOM     67  H   UNL     1     -48.368  25.627  26.816  1.00  0.00     0.032 H 
ATOM     68  H   UNL     1     -48.084  25.086  25.176  1.00  0.00     0.032 H 
BRANCH  66  69
ATOM     69  C   UNL     1     -49.775  26.355  25.361  1.00  0.00    -0.048 A 
ATOM     70  C   UNL     1     -50.873  26.032  26.171  1.00  0.00    -0.059 A 
ATOM     71  C   UNL     1     -49.996  27.056  24.167  1.00  0.00    -0.059 A 
ATOM     72  C   UNL     1     -52.164  26.406  25.795  1.00  0.00    -0.062 A 
ATOM     73  H   UNL     1     -50.729  25.489  27.103  1.00  0.00     0.063 H 
ATOM     74  C   UNL     1     -51.287  27.428  23.793  1.00  0.00    -0.062 A 
ATOM     75  H   UNL     1     -49.161  27.314  23.520  1.00  0.00     0.063 H 
ATOM     76  C   UNL     1     -52.371  27.104  24.607  1.00  0.00    -0.062 A 
ATOM     77  H   UNL     1     -53.008  26.152  26.430  1.00  0.00     0.062 H 
ATOM     78  H   UNL     1     -51.449  27.971  22.865  1.00  0.00     0.062 H 
ATOM     79  H   UNL     1     -53.377  27.394  24.315  1.00  0.00     0.062 H 
ENDBRANCH  66  69
ENDBRANCH  63  66
ENDBRANCH  60  63
ENDBRANCH  55  60
ENDBRANCH  52  55
ENDBRANCH   1  52
TORSDOF 15
ENDMDL
MODEL 3
REMARK VINA RESULT:      -9.2      3.008     12.716
REMARK SMILES Cc1cc(NCCN(C)CCCc2ccccc2)c2ccc(OCc3cncc(-n4ccc5c(N)ncnc54)c3)cc2n1
REMARK SMILES IDX 6 1 5 4 4 6 2 7 3 8 43 9 42 11 19 12 41 13 20 14 22 15 21 17
REMARK SMILES IDX 1 20 23 24 24 25 25 28 26 29 40 30 27 31 29 33 28 35 30 37
REMARK SMILES IDX 31 38 39 39 32 40 33 42 38 43 34 45 37 46 36 47 35 49 7 52
REMARK SMILES IDX 8 55 9 56 10 60 11 63 12 66 13 69 14 70 18 71 15 72 17 74
REMARK SMILES IDX 16 76
REMARK H PARENT 6 2 6 3 5 5 3 10 41 16 20 18 21 19 1 21 1 22 1 23 24 26 24 27
REMARK H PARENT 26 32 40 34 28 36 31 41 32 44 37 48 35 50 35 51 7 53 7 54 9 57
REMARK H PARENT 9 58 9 59 10 61 10 62 11 64 11 65 12 67 12 68 14 73 18 75
REMARK H PARENT 15 77 17 78 16 79
REMARK Flexibility Score: inf
ROOT
ATOM      1  C   UNL     1     -46.025  43.204  26.080  1.00  0.00     0.027 C 
ATOM      2  H   UNL     1     -45.731  42.831  27.070  1.00  0.00     0.050 H 
ATOM      3  H   UNL     1     -45.656  42.466  25.360  1.00  0.00     0.050 H 
ENDROOT
BRANCH   1   4
ATOM      4  N   UNL     1     -47.490  43.278  26.055  1.00  0.00    -0.383 N 
ATOM      5  H   UNL     1     -47.813  44.241  25.978  1.00  0.00     0.160 HD
BRANCH   4   6
ATOM      6  C   UNL     1     -48.297  42.547  26.945  1.00  0.00     0.045 A 
ATOM      7  C   UNL     1     -50.014  42.392  28.631  1.00  0.00     0.040 A 
ATOM      8  C   UNL     1     -49.261  43.158  27.752  1.00  0.00    -0.017 A 
ATOM      9  N   UNL     1     -49.848  41.060  28.765  1.00  0.00    -0.253 NA
ATOM     10  H   UNL     1     -49.453  44.223  27.704  1.00  0.00     0.066 H 
ATOM     11  C   UNL     1     -48.894  40.458  28.041  1.00  0.00     0.076 A 
ATOM     12  C   UNL     1     -48.073  41.152  27.124  1.00  0.00     0.024 A 
ATOM     13  C   UNL     1     -48.717  39.091  28.226  1.00  0.00     0.007 A 
ATOM     14  C   UNL     1     -47.072  40.419  26.446  1.00  0.00    -0.047 A 
ATOM     15  C   UNL     1     -47.744  38.372  27.536  1.00  0.00     0.122 A 
ATOM     16  H   UNL     1     -49.369  38.612  28.950  1.00  0.00     0.069 H 
ATOM     17  C   UNL     1     -46.914  39.048  26.649  1.00  0.00    -0.019 A 
ATOM     18  H   UNL     1     -46.388  40.913  25.761  1.00  0.00     0.063 H 
ATOM     19  H   UNL     1     -46.134  38.509  26.117  1.00  0.00     0.066 H 
BRANCH   7  20
ATOM     20  C   UNL     1     -51.064  43.039  29.483  1.00  0.00    -0.022 C 
ATOM     21  H   UNL     1     -51.839  43.503  28.863  1.00  0.00     0.030 H 
ATOM     22  H   UNL     1     -50.617  43.818  30.109  1.00  0.00     0.030 H 
ATOM     23  H   UNL     1     -51.544  42.293  30.123  1.00  0.00     0.030 H 
ENDBRANCH   7  20
BRANCH  15  24
ATOM     24  O   UNL     1     -47.486  37.034  27.646  1.00  0.00    -0.489 OA
BRANCH  24  25
ATOM     25  C   UNL     1     -46.674  36.405  26.651  1.00  0.00     0.115 C 
ATOM     26  H   UNL     1     -45.642  36.713  26.853  1.00  0.00     0.076 H 
ATOM     27  H   UNL     1     -46.912  36.788  25.650  1.00  0.00     0.076 H 
BRANCH  25  28
ATOM     28  C   UNL     1     -46.715  34.900  26.716  1.00  0.00     0.010 A 
ATOM     29  C   UNL     1     -46.190  34.234  27.816  1.00  0.00     0.034 A 
ATOM     30  C   UNL     1     -47.321  34.124  25.718  1.00  0.00    -0.028 A 
ATOM     31  N   UNL     1     -46.211  32.895  27.964  1.00  0.00    -0.262 NA
ATOM     32  H   UNL     1     -45.722  34.772  28.637  1.00  0.00     0.084 H 
ATOM     33  C   UNL     1     -47.360  32.730  25.826  1.00  0.00     0.066 A 
ATOM     34  H   UNL     1     -47.729  34.643  24.857  1.00  0.00     0.065 H 
ATOM     35  C   UNL     1     -46.788  32.176  26.969  1.00  0.00     0.051 A 
ATOM     36  H   UNL     1     -46.776  31.111  27.169  1.00  0.00     0.086 H 
BRANCH  33  37
ATOM     37  N   UNL     1     -47.952  31.897  24.823  1.00  0.00    -0.300 N 
ATOM     38  C   UNL     1     -49.245  31.388  24.870  1.00  0.00     0.012 A 
ATOM     39  C   UNL     1     -47.376  31.437  23.634  1.00  0.00     0.150 A 
ATOM     40  C   UNL     1     -49.481  30.619  23.754  1.00  0.00    -0.031 A 
ATOM     41  H   UNL     1     -49.906  31.586  25.700  1.00  0.00     0.082 H 
ATOM     42  C   UNL     1     -48.305  30.642  22.968  1.00  0.00     0.061 A 
ATOM     43  N   UNL     1     -46.142  31.717  23.169  1.00  0.00    -0.218 NA
ATOM     44  H   UNL     1     -50.403  30.101  23.529  1.00  0.00     0.065 H 
ATOM     45  C   UNL     1     -47.916  30.080  21.743  1.00  0.00     0.136 A 
ATOM     46  C   UNL     1     -45.881  31.130  21.993  1.00  0.00     0.120 A 
ATOM     47  N   UNL     1     -46.684  30.333  21.269  1.00  0.00    -0.219 NA
ATOM     48  H   UNL     1     -44.899  31.321  21.572  1.00  0.00     0.106 H 
BRANCH  45  49
ATOM     49  N   UNL     1     -48.730  29.255  20.983  1.00  0.00    -0.383 N 
ATOM     50  H   UNL     1     -48.217  28.881  20.193  1.00  0.00     0.158 HD
ATOM     51  H   UNL     1     -49.279  28.592  21.513  1.00  0.00     0.158 HD
ENDBRANCH  45  49
ENDBRANCH  33  37
ENDBRANCH  25  28
ENDBRANCH  24  25
ENDBRANCH  15  24
ENDBRANCH   4   6
ENDBRANCH   1   4
BRANCH   1  52
ATOM     52  C   UNL     1     -45.393  44.600  25.888  1.00  0.00     0.015 C 
ATOM     53  H   UNL     1     -46.157  45.382  25.978  1.00  0.00     0.045 H 
ATOM     54  H   UNL     1     -44.701  44.752  26.729  1.00  0.00     0.045 H 
BRANCH  52  55
ATOM     55  N   UNL     1     -44.651  44.737  24.621  1.00  0.00    -0.305 NA
BRANCH  55  56
ATOM     56  C   UNL     1     -44.348  46.133  24.305  1.00  0.00    -0.013 C 
ATOM     57  H   UNL     1     -44.577  46.352  23.256  1.00  0.00     0.039 H 
ATOM     58  H   UNL     1     -44.969  46.811  24.897  1.00  0.00     0.039 H 
ATOM     59  H   UNL     1     -43.298  46.387  24.488  1.00  0.00     0.039 H 
ENDBRANCH  55  56
BRANCH  55  60
ATOM     60  C   UNL     1     -43.440  43.894  24.588  1.00  0.00    -0.002 C 
ATOM     61  H   UNL     1     -43.744  42.868  24.343  1.00  0.00     0.043 H 
ATOM     62  H   UNL     1     -42.827  44.218  23.738  1.00  0.00     0.043 H 
BRANCH  60  63
ATOM     63  C   UNL     1     -42.585  43.872  25.866  1.00  0.00    -0.036 C 
ATOM     64  H   UNL     1     -41.886  44.715  25.872  1.00  0.00     0.028 H 
ATOM     65  H   UNL     1     -43.232  43.986  26.743  1.00  0.00     0.028 H 
BRANCH  63  66
ATOM     66  C   UNL     1     -41.814  42.557  26.033  1.00  0.00    -0.027 C 
ATOM     67  H   UNL     1     -40.736  42.761  26.077  1.00  0.00     0.032 H 
ATOM     68  H   UNL     1     -41.961  41.938  25.138  1.00  0.00     0.032 H 
BRANCH  66  69
ATOM     69  C   UNL     1     -42.240  41.748  27.234  1.00  0.00    -0.048 A 
ATOM     70  C   UNL     1     -43.412  40.980  27.196  1.00  0.00    -0.059 A 
ATOM     71  C   UNL     1     -41.466  41.749  28.403  1.00  0.00    -0.059 A 
ATOM     72  C   UNL     1     -43.799  40.226  28.305  1.00  0.00    -0.062 A 
ATOM     73  H   UNL     1     -44.030  40.961  26.301  1.00  0.00     0.063 H 
ATOM     74  C   UNL     1     -41.856  40.995  29.511  1.00  0.00    -0.062 A 
ATOM     75  H   UNL     1     -40.556  42.341  28.458  1.00  0.00     0.063 H 
ATOM     76  C   UNL     1     -43.022  40.233  29.461  1.00  0.00    -0.062 A 
ATOM     77  H   UNL     1     -44.709  39.632  28.266  1.00  0.00     0.062 H 
ATOM     78  H   UNL     1     -41.251  41.002  30.413  1.00  0.00     0.062 H 
ATOM     79  H   UNL     1     -43.325  39.645  30.324  1.00  0.00     0.062 H 
ENDBRANCH  66  69
ENDBRANCH  63  66
ENDBRANCH  60  63
ENDBRANCH  55  60
ENDBRANCH  52  55
ENDBRANCH   1  52
TORSDOF 15
ENDMDL
MODEL 4
REMARK VINA RESULT:      -8.3      1.623      2.105
REMARK SMILES Cc1cc(NCCN(C)CCCc2ccccc2)c2ccc(OCc3cncc(-n4ccc5c(N)ncnc54)c3)cc2n1
REMARK SMILES IDX 6 1 5 4 4 6 2 7 3 8 43 9 42 11 19 12 41 13 20 14 22 15 21 17
REMARK SMILES IDX 1 20 23 24 24 25 25 28 26 29 40 30 27 31 29 33 28 35 30 37
REMARK SMILES IDX 31 38 39 39 32 40 33 42 38 43 34 45 37 46 36 47 35 49 7 52
REMARK SMILES IDX 8 55 9 56 10 60 11 63 12 66 13 69 14 70 18 71 15 72 17 74
REMARK SMILES IDX 16 76
REMARK H PARENT 6 2 6 3 5 5 3 10 41 16 20 18 21 19 1 21 1 22 1 23 24 26 24 27
REMARK H PARENT 26 32 40 34 28 36 31 41 32 44 37 48 35 50 35 51 7 53 7 54 9 57
REMARK H PARENT 9 58 9 59 10 61 10 62 11 64 11 65 12 67 12 68 14 73 18 75
REMARK H PARENT 15 77 17 78 16 79
REMARK Flexibility Score: inf
ROOT
ATOM      1  C   UNL     1     -49.933  30.281  21.357  1.00  0.00     0.027 C 
ATOM      2  H   UNL     1     -50.243  30.748  20.414  1.00  0.00     0.050 H 
ATOM      3  H   UNL     1     -49.207  29.508  21.084  1.00  0.00     0.050 H 
ENDROOT
BRANCH   1   4
ATOM      4  N   UNL     1     -49.309  31.322  22.180  1.00  0.00    -0.383 N 
ATOM      5  H   UNL     1     -49.506  32.253  21.817  1.00  0.00     0.160 HD
BRANCH   4   6
ATOM      6  C   UNL     1     -47.979  31.231  22.630  1.00  0.00     0.045 A 
ATOM      7  C   UNL     1     -45.753  30.311  22.536  1.00  0.00     0.040 A 
ATOM      8  C   UNL     1     -47.046  30.378  22.036  1.00  0.00    -0.017 A 
ATOM      9  N   UNL     1     -45.345  31.026  23.604  1.00  0.00    -0.253 NA
ATOM     10  H   UNL     1     -47.296  29.770  21.175  1.00  0.00     0.066 H 
ATOM     11  C   UNL     1     -46.235  31.812  24.225  1.00  0.00     0.076 A 
ATOM     12  C   UNL     1     -47.574  31.945  23.794  1.00  0.00     0.024 A 
ATOM     13  C   UNL     1     -45.800  32.510  25.346  1.00  0.00     0.007 A 
ATOM     14  C   UNL     1     -48.435  32.772  24.553  1.00  0.00    -0.047 A 
ATOM     15  C   UNL     1     -46.647  33.342  26.074  1.00  0.00     0.122 A 
ATOM     16  H   UNL     1     -44.764  32.363  25.637  1.00  0.00     0.069 H 
ATOM     17  C   UNL     1     -47.974  33.461  25.675  1.00  0.00    -0.019 A 
ATOM     18  H   UNL     1     -49.483  32.875  24.289  1.00  0.00     0.063 H 
ATOM     19  H   UNL     1     -48.657  34.088  26.243  1.00  0.00     0.066 H 
BRANCH   7  20
ATOM     20  C   UNL     1     -44.742  29.413  21.888  1.00  0.00    -0.022 C 
ATOM     21  H   UNL     1     -43.739  29.849  21.945  1.00  0.00     0.030 H 
ATOM     22  H   UNL     1     -44.989  29.266  20.831  1.00  0.00     0.030 H 
ATOM     23  H   UNL     1     -44.720  28.442  22.392  1.00  0.00     0.030 H 
ENDBRANCH   7  20
BRANCH  15  24
ATOM     24  O   UNL     1     -46.323  34.067  27.187  1.00  0.00    -0.489 OA
BRANCH  24  25
ATOM     25  C   UNL     1     -47.251  35.042  27.669  1.00  0.00     0.115 C 
ATOM     26  H   UNL     1     -47.912  34.520  28.371  1.00  0.00     0.076 H 
ATOM     27  H   UNL     1     -47.898  35.403  26.859  1.00  0.00     0.076 H 
BRANCH  25  28
ATOM     28  C   UNL     1     -46.591  36.166  28.425  1.00  0.00     0.010 A 
ATOM     29  C   UNL     1     -46.523  36.131  29.811  1.00  0.00     0.034 A 
ATOM     30  C   UNL     1     -45.981  37.248  27.774  1.00  0.00    -0.028 A 
ATOM     31  N   UNL     1     -45.928  37.081  30.559  1.00  0.00    -0.262 NA
ATOM     32  H   UNL     1     -46.958  35.314  30.382  1.00  0.00     0.084 H 
ATOM     33  C   UNL     1     -45.356  38.261  28.509  1.00  0.00     0.066 A 
ATOM     34  H   UNL     1     -46.035  37.277  26.690  1.00  0.00     0.065 H 
ATOM     35  C   UNL     1     -45.365  38.122  29.895  1.00  0.00     0.051 A 
ATOM     36  H   UNL     1     -44.898  38.834  30.565  1.00  0.00     0.086 H 
BRANCH  33  37
ATOM     37  N   UNL     1     -44.737  39.392  27.887  1.00  0.00    -0.300 N 
ATOM     38  C   UNL     1     -45.100  39.923  26.655  1.00  0.00     0.012 A 
ATOM     39  C   UNL     1     -43.675  40.166  28.367  1.00  0.00     0.150 A 
ATOM     40  C   UNL     1     -44.290  40.993  26.355  1.00  0.00    -0.031 A 
ATOM     41  H   UNL     1     -45.895  39.496  26.062  1.00  0.00     0.082 H 
ATOM     42  C   UNL     1     -43.385  41.154  27.430  1.00  0.00     0.061 A 
ATOM     43  N   UNL     1     -43.036  40.024  29.546  1.00  0.00    -0.218 NA
ATOM     44  H   UNL     1     -44.348  41.596  25.459  1.00  0.00     0.065 H 
ATOM     45  C   UNL     1     -42.341  42.041  27.728  1.00  0.00     0.136 A 
ATOM     46  C   UNL     1     -42.062  40.927  29.724  1.00  0.00     0.120 A 
ATOM     47  N   UNL     1     -41.680  41.908  28.890  1.00  0.00    -0.219 NA
ATOM     48  H   UNL     1     -41.513  40.858  30.658  1.00  0.00     0.106 H 
BRANCH  45  49
ATOM     49  N   UNL     1     -41.932  43.059  26.879  1.00  0.00    -0.383 N 
ATOM     50  H   UNL     1     -42.723  43.435  26.369  1.00  0.00     0.158 HD
ATOM     51  H   UNL     1     -41.307  43.735  27.295  1.00  0.00     0.158 HD
ENDBRANCH  45  49
ENDBRANCH  33  37
ENDBRANCH  25  28
ENDBRANCH  24  25
ENDBRANCH  15  24
ENDBRANCH   4   6
ENDBRANCH   1   4
BRANCH   1  52
ATOM     52  C   UNL     1     -51.192  29.708  22.044  1.00  0.00     0.015 C 
ATOM     53  H   UNL     1     -52.095  30.195  21.655  1.00  0.00     0.045 H 
ATOM     54  H   UNL     1     -51.263  28.653  21.745  1.00  0.00     0.045 H 
BRANCH  52  55
ATOM     55  N   UNL     1     -51.145  29.790  23.515  1.00  0.00    -0.305 NA
BRANCH  55  56
ATOM     56  C   UNL     1     -52.424  30.210  24.088  1.00  0.00    -0.013 C 
ATOM     57  H   UNL     1     -53.200  30.252  23.316  1.00  0.00     0.039 H 
ATOM     58  H   UNL     1     -52.776  29.487  24.830  1.00  0.00     0.039 H 
ATOM     59  H   UNL     1     -52.366  31.191  24.572  1.00  0.00     0.039 H 
ENDBRANCH  55  56
BRANCH  55  60
ATOM     60  C   UNL     1     -50.655  28.543  24.131  1.00  0.00    -0.002 C 
ATOM     61  H   UNL     1     -49.886  28.804  24.870  1.00  0.00     0.043 H 
ATOM     62  H   UNL     1     -51.475  28.110  24.716  1.00  0.00     0.043 H 
BRANCH  60  63
ATOM     63  C   UNL     1     -50.087  27.482  23.172  1.00  0.00    -0.036 C 
ATOM     64  H   UNL     1     -50.500  26.495  23.406  1.00  0.00     0.028 H 
ATOM     65  H   UNL     1     -50.386  27.718  22.144  1.00  0.00     0.028 H 
BRANCH  63  66
ATOM     66  C   UNL     1     -48.554  27.424  23.203  1.00  0.00    -0.027 C 
ATOM     67  H   UNL     1     -48.142  28.436  23.091  1.00  0.00     0.032 H 
ATOM     68  H   UNL     1     -48.199  26.862  22.330  1.00  0.00     0.032 H 
BRANCH  66  69
ATOM     69  C   UNL     1     -47.994  26.767  24.440  1.00  0.00    -0.048 A 
ATOM     70  C   UNL     1     -46.610  26.700  24.647  1.00  0.00    -0.059 A 
ATOM     71  C   UNL     1     -48.851  26.220  25.405  1.00  0.00    -0.059 A 
ATOM     72  C   UNL     1     -46.094  26.099  25.797  1.00  0.00    -0.062 A 
ATOM     73  H   UNL     1     -45.922  27.117  23.914  1.00  0.00     0.063 H 
ATOM     74  C   UNL     1     -48.334  25.619  26.553  1.00  0.00    -0.062 A 
ATOM     75  H   UNL     1     -49.929  26.255  25.265  1.00  0.00     0.063 H 
ATOM     76  C   UNL     1     -46.956  25.560  26.750  1.00  0.00    -0.062 A 
ATOM     77  H   UNL     1     -45.019  26.053  25.949  1.00  0.00     0.062 H 
ATOM     78  H   UNL     1     -49.006  25.196  27.295  1.00  0.00     0.062 H 
ATOM     79  H   UNL     1     -46.553  25.093  27.644  1.00  0.00     0.062 H 
ENDBRANCH  66  69
ENDBRANCH  63  66
ENDBRANCH  60  63
ENDBRANCH  55  60
ENDBRANCH  52  55
ENDBRANCH   1  52
TORSDOF 15
ENDMDL
MODEL 5
REMARK VINA RESULT:      -8.0      1.545      2.482
REMARK SMILES Cc1cc(NCCN(C)CCCc2ccccc2)c2ccc(OCc3cncc(-n4ccc5c(N)ncnc54)c3)cc2n1
REMARK SMILES IDX 6 1 5 4 4 6 2 7 3 8 43 9 42 11 19 12 41 13 20 14 22 15 21 17
REMARK SMILES IDX 1 20 23 24 24 25 25 28 26 29 40 30 27 31 29 33 28 35 30 37
REMARK SMILES IDX 31 38 39 39 32 40 33 42 38 43 34 45 37 46 36 47 35 49 7 52
REMARK SMILES IDX 8 55 9 56 10 60 11 63 12 66 13 69 14 70 18 71 15 72 17 74
REMARK SMILES IDX 16 76
REMARK H PARENT 6 2 6 3 5 5 3 10 41 16 20 18 21 19 1 21 1 22 1 23 24 26 24 27
REMARK H PARENT 26 32 40 34 28 36 31 41 32 44 37 48 35 50 35 51 7 53 7 54 9 57
REMARK H PARENT 9 58 9 59 10 61 10 62 11 64 11 65 12 67 12 68 14 73 18 75
REMARK H PARENT 15 77 17 78 16 79
REMARK Flexibility Score: inf
ROOT
ATOM      1  C   UNL     1     -50.779  30.212  24.434  1.00  0.00     0.027 C 
ATOM      2  H   UNL     1     -50.092  29.356  24.445  1.00  0.00     0.050 H 
ATOM      3  H   UNL     1     -50.971  30.455  25.484  1.00  0.00     0.050 H 
ENDROOT
BRANCH   1   4
ATOM      4  N   UNL     1     -50.096  31.317  23.754  1.00  0.00    -0.383 N 
ATOM      5  H   UNL     1     -50.452  31.452  22.810  1.00  0.00     0.160 HD
BRANCH   4   6
ATOM      6  C   UNL     1     -48.699  31.476  23.790  1.00  0.00     0.045 A 
ATOM      7  C   UNL     1     -46.467  30.892  23.092  1.00  0.00     0.040 A 
ATOM      8  C   UNL     1     -47.839  30.710  23.000  1.00  0.00    -0.017 A 
ATOM      9  N   UNL     1     -45.903  31.775  23.941  1.00  0.00    -0.253 NA
ATOM     10  H   UNL     1     -48.214  29.978  22.294  1.00  0.00     0.066 H 
ATOM     11  C   UNL     1     -46.703  32.486  24.749  1.00  0.00     0.076 A 
ATOM     12  C   UNL     1     -48.111  32.369  24.732  1.00  0.00     0.024 A 
ATOM     13  C   UNL     1     -46.095  33.363  25.640  1.00  0.00     0.007 A 
ATOM     14  C   UNL     1     -48.850  33.139  25.659  1.00  0.00    -0.047 A 
ATOM     15  C   UNL     1     -46.832  34.137  26.534  1.00  0.00     0.122 A 
ATOM     16  H   UNL     1     -45.010  33.404  25.616  1.00  0.00     0.069 H 
ATOM     17  C   UNL     1     -48.217  34.012  26.544  1.00  0.00    -0.019 A 
ATOM     18  H   UNL     1     -49.932  33.055  25.715  1.00  0.00     0.063 H 
ATOM     19  H   UNL     1     -48.809  34.590  27.249  1.00  0.00     0.066 H 
BRANCH   7  20
ATOM     20  C   UNL     1     -45.541  30.087  22.230  1.00  0.00    -0.022 C 
ATOM     21  H   UNL     1     -44.786  30.728  21.763  1.00  0.00     0.030 H 
ATOM     22  H   UNL     1     -46.104  29.589  21.433  1.00  0.00     0.030 H 
ATOM     23  H   UNL     1     -45.023  29.334  22.831  1.00  0.00     0.030 H 
ENDBRANCH   7  20
BRANCH  15  24
ATOM     24  O   UNL     1     -46.336  35.022  27.449  1.00  0.00    -0.489 OA
BRANCH  24  25
ATOM     25  C   UNL     1     -46.575  36.419  27.257  1.00  0.00     0.115 C 
ATOM     26  H   UNL     1     -47.633  36.588  27.488  1.00  0.00     0.076 H 
ATOM     27  H   UNL     1     -46.449  36.697  26.202  1.00  0.00     0.076 H 
BRANCH  25  28
ATOM     28  C   UNL     1     -45.769  37.292  28.184  1.00  0.00     0.010 A 
ATOM     29  C   UNL     1     -45.607  36.935  29.516  1.00  0.00     0.034 A 
ATOM     30  C   UNL     1     -45.114  38.449  27.739  1.00  0.00    -0.028 A 
ATOM     31  N   UNL     1     -44.881  37.645  30.401  1.00  0.00    -0.262 NA
ATOM     32  H   UNL     1     -46.071  36.041  29.926  1.00  0.00     0.084 H 
ATOM     33  C   UNL     1     -44.354  39.222  28.625  1.00  0.00     0.066 A 
ATOM     34  H   UNL     1     -45.241  38.730  26.699  1.00  0.00     0.065 H 
ATOM     35  C   UNL     1     -44.278  38.769  29.940  1.00  0.00     0.051 A 
ATOM     36  H   UNL     1     -43.705  39.275  30.708  1.00  0.00     0.086 H 
BRANCH  33  37
ATOM     37  N   UNL     1     -43.683  40.420  28.219  1.00  0.00    -0.300 N 
ATOM     38  C   UNL     1     -42.672  41.049  28.936  1.00  0.00     0.012 A 
ATOM     39  C   UNL     1     -43.898  41.181  27.065  1.00  0.00     0.150 A 
ATOM     40  C   UNL     1     -42.264  42.179  28.266  1.00  0.00    -0.031 A 
ATOM     41  H   UNL     1     -42.321  40.667  29.883  1.00  0.00     0.082 H 
ATOM     42  C   UNL     1     -43.035  42.272  27.084  1.00  0.00     0.061 A 
ATOM     43  N   UNL     1     -44.769  40.915  26.070  1.00  0.00    -0.218 NA
ATOM     44  H   UNL     1     -41.491  42.862  28.594  1.00  0.00     0.065 H 
ATOM     45  C   UNL     1     -43.096  43.164  26.004  1.00  0.00     0.136 A 
ATOM     46  C   UNL     1     -44.738  41.831  25.092  1.00  0.00     0.120 A 
ATOM     47  N   UNL     1     -43.968  42.928  25.009  1.00  0.00    -0.219 NA
ATOM     48  H   UNL     1     -45.421  41.667  24.264  1.00  0.00     0.106 H 
BRANCH  45  49
ATOM     49  N   UNL     1     -42.310  44.302  25.901  1.00  0.00    -0.383 N 
ATOM     50  H   UNL     1     -41.422  44.080  25.466  1.00  0.00     0.158 HD
ATOM     51  H   UNL     1     -42.788  45.120  25.549  1.00  0.00     0.158 HD
ENDBRANCH  45  49
ENDBRANCH  33  37
ENDBRANCH  25  28
ENDBRANCH  24  25
ENDBRANCH  15  24
ENDBRANCH   4   6
ENDBRANCH   1   4
BRANCH   1  52
ATOM     52  C   UNL     1     -52.055  29.791  23.671  1.00  0.00     0.015 C 
ATOM     53  H   UNL     1     -52.420  28.825  24.040  1.00  0.00     0.045 H 
ATOM     54  H   UNL     1     -52.831  30.526  23.924  1.00  0.00     0.045 H 
BRANCH  52  55
ATOM     55  N   UNL     1     -51.877  29.759  22.208  1.00  0.00    -0.305 NA
BRANCH  55  56
ATOM     56  C   UNL     1     -51.958  31.093  21.611  1.00  0.00    -0.013 C 
ATOM     57  H   UNL     1     -52.613  31.087  20.733  1.00  0.00     0.039 H 
ATOM     58  H   UNL     1     -52.400  31.808  22.311  1.00  0.00     0.039 H 
ATOM     59  H   UNL     1     -50.978  31.477  21.307  1.00  0.00     0.039 H 
ENDBRANCH  55  56
BRANCH  55  60
ATOM     60  C   UNL     1     -50.644  29.056  21.808  1.00  0.00    -0.002 C 
ATOM     61  H   UNL     1     -50.227  29.568  20.930  1.00  0.00     0.043 H 
ATOM     62  H   UNL     1     -49.900  29.203  22.601  1.00  0.00     0.043 H 
BRANCH  60  63
ATOM     63  C   UNL     1     -50.781  27.556  21.496  1.00  0.00    -0.036 C 
ATOM     64  H   UNL     1     -51.455  27.403  20.647  1.00  0.00     0.028 H 
ATOM     65  H   UNL     1     -49.805  27.150  21.207  1.00  0.00     0.028 H 
BRANCH  63  66
ATOM     66  C   UNL     1     -51.274  26.749  22.704  1.00  0.00    -0.027 C 
ATOM     67  H   UNL     1     -51.405  25.697  22.418  1.00  0.00     0.032 H 
ATOM     68  H   UNL     1     -52.272  27.105  22.990  1.00  0.00     0.032 H 
BRANCH  66  69
ATOM     69  C   UNL     1     -50.377  26.853  23.914  1.00  0.00    -0.048 A 
ATOM     70  C   UNL     1     -49.069  27.341  23.792  1.00  0.00    -0.059 A 
ATOM     71  C   UNL     1     -50.843  26.469  25.179  1.00  0.00    -0.059 A 
ATOM     72  C   UNL     1     -48.245  27.445  24.913  1.00  0.00    -0.062 A 
ATOM     73  H   UNL     1     -48.683  27.647  22.821  1.00  0.00     0.063 H 
ATOM     74  C   UNL     1     -50.017  26.573  26.299  1.00  0.00    -0.062 A 
ATOM     75  H   UNL     1     -51.852  26.082  25.299  1.00  0.00     0.063 H 
ATOM     76  C   UNL     1     -48.718  27.062  26.166  1.00  0.00    -0.062 A 
ATOM     77  H   UNL     1     -47.233  27.826  24.808  1.00  0.00     0.062 H 
ATOM     78  H   UNL     1     -50.385  26.272  27.276  1.00  0.00     0.062 H 
ATOM     79  H   UNL     1     -48.076  27.144  27.038  1.00  0.00     0.062 H 
ENDBRANCH  66  69
ENDBRANCH  63  66
ENDBRANCH  60  63
ENDBRANCH  55  60
ENDBRANCH  52  55
ENDBRANCH   1  52
TORSDOF 15
ENDMDL
MODEL 6
REMARK VINA RESULT:      -8.0      2.766      4.336
REMARK SMILES Cc1cc(NCCN(C)CCCc2ccccc2)c2ccc(OCc3cncc(-n4ccc5c(N)ncnc54)c3)cc2n1
REMARK SMILES IDX 6 1 5 4 4 6 2 7 3 8 43 9 42 11 19 12 41 13 20 14 22 15 21 17
REMARK SMILES IDX 1 20 23 24 24 25 25 28 26 29 40 30 27 31 29 33 28 35 30 37
REMARK SMILES IDX 31 38 39 39 32 40 33 42 38 43 34 45 37 46 36 47 35 49 7 52
REMARK SMILES IDX 8 55 9 56 10 60 11 63 12 66 13 69 14 70 18 71 15 72 17 74
REMARK SMILES IDX 16 76
REMARK H PARENT 6 2 6 3 5 5 3 10 41 16 20 18 21 19 1 21 1 22 1 23 24 26 24 27
REMARK H PARENT 26 32 40 34 28 36 31 41 32 44 37 48 35 50 35 51 7 53 7 54 9 57
REMARK H PARENT 9 58 9 59 10 61 10 62 11 64 11 65 12 67 12 68 14 73 18 75
REMARK H PARENT 15 77 17 78 16 79
REMARK Flexibility Score: inf
ROOT
ATOM      1  C   UNL     1     -48.624  32.543  25.017  1.00  0.00     0.027 C 
ATOM      2  H   UNL     1     -49.184  33.217  25.679  1.00  0.00     0.050 H 
ATOM      3  H   UNL     1     -48.936  32.797  23.998  1.00  0.00     0.050 H 
ENDROOT
BRANCH   1   4
ATOM      4  N   UNL     1     -47.197  32.818  25.215  1.00  0.00    -0.383 N 
ATOM      5  H   UNL     1     -46.616  32.128  24.742  1.00  0.00     0.160 HD
BRANCH   4   6
ATOM      6  C   UNL     1     -46.660  33.150  26.471  1.00  0.00     0.045 A 
ATOM      7  C   UNL     1     -45.804  32.564  28.648  1.00  0.00     0.040 A 
ATOM      8  C   UNL     1     -46.308  32.180  27.414  1.00  0.00    -0.017 A 
ATOM      9  N   UNL     1     -45.652  33.856  29.004  1.00  0.00    -0.253 NA
ATOM     10  H   UNL     1     -46.402  31.121  27.204  1.00  0.00     0.066 H 
ATOM     11  C   UNL     1     -46.032  34.807  28.140  1.00  0.00     0.076 A 
ATOM     12  C   UNL     1     -46.559  34.517  26.861  1.00  0.00     0.024 A 
ATOM     13  C   UNL     1     -45.899  36.131  28.546  1.00  0.00     0.007 A 
ATOM     14  C   UNL     1     -46.964  35.601  26.050  1.00  0.00    -0.047 A 
ATOM     15  C   UNL     1     -46.278  37.195  27.730  1.00  0.00     0.122 A 
ATOM     16  H   UNL     1     -45.498  36.295  29.541  1.00  0.00     0.069 H 
ATOM     17  C   UNL     1     -46.822  36.921  26.480  1.00  0.00    -0.019 A 
ATOM     18  H   UNL     1     -47.414  35.430  25.076  1.00  0.00     0.063 H 
ATOM     19  H   UNL     1     -47.145  37.737  25.838  1.00  0.00     0.066 H 
BRANCH   7  20
ATOM     20  C   UNL     1     -45.404  31.527  29.653  1.00  0.00    -0.022 C 
ATOM     21  H   UNL     1     -45.644  30.521  29.294  1.00  0.00     0.030 H 
ATOM     22  H   UNL     1     -45.938  31.687  30.596  1.00  0.00     0.030 H 
ATOM     23  H   UNL     1     -44.326  31.574  29.837  1.00  0.00     0.030 H 
ENDBRANCH   7  20
BRANCH  15  24
ATOM     24  O   UNL     1     -46.195  38.525  28.032  1.00  0.00    -0.489 OA
BRANCH  24  25
ATOM     25  C   UNL     1     -45.073  39.272  27.552  1.00  0.00     0.115 C 
ATOM     26  H   UNL     1     -44.551  38.623  26.839  1.00  0.00     0.076 H 
ATOM     27  H   UNL     1     -44.357  39.469  28.360  1.00  0.00     0.076 H 
BRANCH  25  28
ATOM     28  C   UNL     1     -45.467  40.524  26.813  1.00  0.00     0.010 A 
ATOM     29  C   UNL     1     -46.724  41.083  27.004  1.00  0.00     0.034 A 
ATOM     30  C   UNL     1     -44.582  41.198  25.959  1.00  0.00    -0.028 A 
ATOM     31  N   UNL     1     -47.143  42.214  26.403  1.00  0.00    -0.262 NA
ATOM     32  H   UNL     1     -47.456  40.625  27.665  1.00  0.00     0.084 H 
ATOM     33  C   UNL     1     -44.976  42.372  25.308  1.00  0.00     0.066 A 
ATOM     34  H   UNL     1     -43.601  40.761  25.807  1.00  0.00     0.065 H 
ATOM     35  C   UNL     1     -46.267  42.827  25.569  1.00  0.00     0.051 A 
ATOM     36  H   UNL     1     -46.674  43.733  25.137  1.00  0.00     0.086 H 
BRANCH  33  37
ATOM     37  N   UNL     1     -44.112  43.083  24.415  1.00  0.00    -0.300 N 
ATOM     38  C   UNL     1     -42.724  43.090  24.485  1.00  0.00     0.012 A 
ATOM     39  C   UNL     1     -44.469  43.891  23.330  1.00  0.00     0.150 A 
ATOM     40  C   UNL     1     -42.213  43.884  23.485  1.00  0.00    -0.031 A 
ATOM     41  H   UNL     1     -42.189  42.548  25.250  1.00  0.00     0.082 H 
ATOM     42  C   UNL     1     -43.308  44.397  22.751  1.00  0.00     0.061 A 
ATOM     43  N   UNL     1     -45.716  44.138  22.879  1.00  0.00    -0.218 NA
ATOM     44  H   UNL     1     -41.164  44.071  23.302  1.00  0.00     0.065 H 
ATOM     45  C   UNL     1     -43.455  45.238  21.638  1.00  0.00     0.136 A 
ATOM     46  C   UNL     1     -45.733  44.950  21.812  1.00  0.00     0.120 A 
ATOM     47  N   UNL     1     -44.689  45.511  21.181  1.00  0.00    -0.219 NA
ATOM     48  H   UNL     1     -46.713  45.183  21.407  1.00  0.00     0.106 H 
BRANCH  45  49
ATOM     49  N   UNL     1     -42.388  45.827  20.975  1.00  0.00    -0.383 N 
ATOM     50  H   UNL     1     -41.710  46.182  21.640  1.00  0.00     0.158 HD
ATOM     51  H   UNL     1     -42.018  45.291  20.203  1.00  0.00     0.158 HD
ENDBRANCH  45  49
ENDBRANCH  33  37
ENDBRANCH  25  28
ENDBRANCH  24  25
ENDBRANCH  15  24
ENDBRANCH   4   6
ENDBRANCH   1   4
BRANCH   1  52
ATOM     52  C   UNL     1     -48.972  31.090  25.409  1.00  0.00     0.015 C 
ATOM     53  H   UNL     1     -48.114  30.609  25.894  1.00  0.00     0.045 H 
ATOM     54  H   UNL     1     -49.761  31.149  26.171  1.00  0.00     0.045 H 
BRANCH  52  55
ATOM     55  N   UNL     1     -49.455  30.279  24.276  1.00  0.00    -0.305 NA
BRANCH  55  56
ATOM     56  C   UNL     1     -50.661  30.840  23.667  1.00  0.00    -0.013 C 
ATOM     57  H   UNL     1     -50.872  31.837  24.069  1.00  0.00     0.039 H 
ATOM     58  H   UNL     1     -50.529  30.971  22.589  1.00  0.00     0.039 H 
ATOM     59  H   UNL     1     -51.544  30.211  23.827  1.00  0.00     0.039 H 
ENDBRANCH  55  56
BRANCH  55  60
ATOM     60  C   UNL     1     -48.401  30.034  23.273  1.00  0.00    -0.002 C 
ATOM     61  H   UNL     1     -48.683  30.551  22.346  1.00  0.00     0.043 H 
ATOM     62  H   UNL     1     -47.488  30.540  23.612  1.00  0.00     0.043 H 
BRANCH  60  63
ATOM     63  C   UNL     1     -48.090  28.563  22.951  1.00  0.00    -0.036 C 
ATOM     64  H   UNL     1     -48.989  27.948  23.067  1.00  0.00     0.028 H 
ATOM     65  H   UNL     1     -47.775  28.474  21.905  1.00  0.00     0.028 H 
BRANCH  63  66
ATOM     66  C   UNL     1     -46.959  27.998  23.821  1.00  0.00    -0.027 C 
ATOM     67  H   UNL     1     -46.437  28.819  24.330  1.00  0.00     0.032 H 
ATOM     68  H   UNL     1     -46.209  27.527  23.173  1.00  0.00     0.032 H 
BRANCH  66  69
ATOM     69  C   UNL     1     -47.418  26.970  24.826  1.00  0.00    -0.048 A 
ATOM     70  C   UNL     1     -46.486  26.249  25.585  1.00  0.00    -0.059 A 
ATOM     71  C   UNL     1     -48.785  26.727  25.020  1.00  0.00    -0.059 A 
ATOM     72  C   UNL     1     -46.914  25.306  26.520  1.00  0.00    -0.062 A 
ATOM     73  H   UNL     1     -45.419  26.420  25.454  1.00  0.00     0.063 H 
ATOM     74  C   UNL     1     -49.210  25.782  25.955  1.00  0.00    -0.062 A 
ATOM     75  H   UNL     1     -49.527  27.270  24.440  1.00  0.00     0.063 H 
ATOM     76  C   UNL     1     -48.275  25.073  26.706  1.00  0.00    -0.062 A 
ATOM     77  H   UNL     1     -46.183  24.753  27.105  1.00  0.00     0.062 H 
ATOM     78  H   UNL     1     -50.272  25.599  26.098  1.00  0.00     0.062 H 
ATOM     79  H   UNL     1     -48.606  24.338  27.435  1.00  0.00     0.062 H 
ENDBRANCH  66  69
ENDBRANCH  63  66
ENDBRANCH  60  63
ENDBRANCH  55  60
ENDBRANCH  52  55
ENDBRANCH   1  52
TORSDOF 15
ENDMDL
MODEL 7
REMARK VINA RESULT:      -8.0      3.968      8.948
REMARK SMILES Cc1cc(NCCN(C)CCCc2ccccc2)c2ccc(OCc3cncc(-n4ccc5c(N)ncnc54)c3)cc2n1
REMARK SMILES IDX 6 1 5 4 4 6 2 7 3 8 43 9 42 11 19 12 41 13 20 14 22 15 21 17
REMARK SMILES IDX 1 20 23 24 24 25 25 28 26 29 40 30 27 31 29 33 28 35 30 37
REMARK SMILES IDX 31 38 39 39 32 40 33 42 38 43 34 45 37 46 36 47 35 49 7 52
REMARK SMILES IDX 8 55 9 56 10 60 11 63 12 66 13 69 14 70 18 71 15 72 17 74
REMARK SMILES IDX 16 76
REMARK H PARENT 6 2 6 3 5 5 3 10 41 16 20 18 21 19 1 21 1 22 1 23 24 26 24 27
REMARK H PARENT 26 32 40 34 28 36 31 41 32 44 37 48 35 50 35 51 7 53 7 54 9 57
REMARK H PARENT 9 58 9 59 10 61 10 62 11 64 11 65 12 67 12 68 14 73 18 75
REMARK H PARENT 15 77 17 78 16 79
REMARK Flexibility Score: inf
ROOT
ATOM      1  C   UNL     1     -45.615  38.231  28.567  1.00  0.00     0.027 C 
ATOM      2  H   UNL     1     -45.256  37.202  28.434  1.00  0.00     0.050 H 
ATOM      3  H   UNL     1     -45.242  38.554  29.545  1.00  0.00     0.050 H 
ENDROOT
BRANCH   1   4
ATOM      4  N   UNL     1     -45.038  39.042  27.490  1.00  0.00    -0.383 N 
ATOM      5  H   UNL     1     -44.789  38.470  26.685  1.00  0.00     0.160 HD
BRANCH   4   6
ATOM      6  C   UNL     1     -44.061  40.025  27.727  1.00  0.00     0.045 A 
ATOM      7  C   UNL     1     -42.375  41.071  29.097  1.00  0.00     0.040 A 
ATOM      8  C   UNL     1     -43.310  40.064  28.905  1.00  0.00    -0.017 A 
ATOM      9  N   UNL     1     -42.162  42.051  28.196  1.00  0.00    -0.253 NA
ATOM     10  H   UNL     1     -43.423  39.313  29.678  1.00  0.00     0.066 H 
ATOM     11  C   UNL     1     -42.906  42.068  27.081  1.00  0.00     0.076 A 
ATOM     12  C   UNL     1     -43.885  41.090  26.797  1.00  0.00     0.024 A 
ATOM     13  C   UNL     1     -42.693  43.110  26.186  1.00  0.00     0.007 A 
ATOM     14  C   UNL     1     -44.638  41.233  25.609  1.00  0.00    -0.047 A 
ATOM     15  C   UNL     1     -43.423  43.231  25.005  1.00  0.00     0.122 A 
ATOM     16  H   UNL     1     -41.936  43.838  26.460  1.00  0.00     0.069 H 
ATOM     17  C   UNL     1     -44.406  42.289  24.726  1.00  0.00    -0.019 A 
ATOM     18  H   UNL     1     -45.431  40.531  25.365  1.00  0.00     0.063 H 
ATOM     19  H   UNL     1     -45.002  42.377  23.821  1.00  0.00     0.066 H 
BRANCH   7  20
ATOM     20  C   UNL     1     -41.551  41.103  30.349  1.00  0.00    -0.022 C 
ATOM     21  H   UNL     1     -41.708  40.198  30.944  1.00  0.00     0.030 H 
ATOM     22  H   UNL     1     -41.829  41.966  30.963  1.00  0.00     0.030 H 
ATOM     23  H   UNL     1     -40.487  41.166  30.100  1.00  0.00     0.030 H 
ENDBRANCH   7  20
BRANCH  15  24
ATOM     24  O   UNL     1     -43.296  44.213  24.063  1.00  0.00    -0.489 OA
BRANCH  24  25
ATOM     25  C   UNL     1     -43.958  45.463  24.277  1.00  0.00     0.115 C 
ATOM     26  H   UNL     1     -43.531  46.167  23.553  1.00  0.00     0.076 H 
ATOM     27  H   UNL     1     -43.719  45.869  25.268  1.00  0.00     0.076 H 
BRANCH  25  28
ATOM     28  C   UNL     1     -45.441  45.400  24.022  1.00  0.00     0.010 A 
ATOM     29  C   UNL     1     -45.944  45.661  22.754  1.00  0.00     0.034 A 
ATOM     30  C   UNL     1     -46.356  45.029  25.018  1.00  0.00    -0.028 A 
ATOM     31  N   UNL     1     -47.253  45.599  22.437  1.00  0.00    -0.262 NA
ATOM     32  H   UNL     1     -45.292  45.936  21.929  1.00  0.00     0.084 H 
ATOM     33  C   UNL     1     -47.725  44.958  24.736  1.00  0.00     0.066 A 
ATOM     34  H   UNL     1     -45.964  44.827  26.009  1.00  0.00     0.065 H 
ATOM     35  C   UNL     1     -48.109  45.256  23.431  1.00  0.00     0.051 A 
ATOM     36  H   UNL     1     -49.138  45.217  23.094  1.00  0.00     0.086 H 
BRANCH  33  37
ATOM     37  N   UNL     1     -48.696  44.601  25.726  1.00  0.00    -0.300 N 
ATOM     38  C   UNL     1     -49.698  45.441  26.199  1.00  0.00     0.012 A 
ATOM     39  C   UNL     1     -48.833  43.384  26.401  1.00  0.00     0.150 A 
ATOM     40  C   UNL     1     -50.441  44.784  27.152  1.00  0.00    -0.031 A 
ATOM     41  H   UNL     1     -49.806  46.455  25.846  1.00  0.00     0.082 H 
ATOM     42  C   UNL     1     -49.901  43.484  27.288  1.00  0.00     0.061 A 
ATOM     43  N   UNL     1     -48.089  42.272  26.227  1.00  0.00    -0.218 NA
ATOM     44  H   UNL     1     -51.285  45.197  27.689  1.00  0.00     0.065 H 
ATOM     45  C   UNL     1     -50.203  42.357  28.066  1.00  0.00     0.136 A 
ATOM     46  C   UNL     1     -48.470  41.260  27.019  1.00  0.00     0.120 A 
ATOM     47  N   UNL     1     -49.465  41.244  27.921  1.00  0.00    -0.219 NA
ATOM     48  H   UNL     1     -47.903  40.340  26.921  1.00  0.00     0.106 H 
BRANCH  45  49
ATOM     49  N   UNL     1     -51.226  42.322  29.002  1.00  0.00    -0.383 N 
ATOM     50  H   UNL     1     -52.014  41.793  28.646  1.00  0.00     0.158 HD
ATOM     51  H   UNL     1     -50.933  42.106  29.945  1.00  0.00     0.158 HD
ENDBRANCH  45  49
ENDBRANCH  33  37
ENDBRANCH  25  28
ENDBRANCH  24  25
ENDBRANCH  15  24
ENDBRANCH   4   6
ENDBRANCH   1   4
BRANCH   1  52
ATOM     52  C   UNL     1     -47.157  38.214  28.487  1.00  0.00     0.015 C 
ATOM     53  H   UNL     1     -47.594  38.489  29.455  1.00  0.00     0.045 H 
ATOM     54  H   UNL     1     -47.446  39.009  27.786  1.00  0.00     0.045 H 
BRANCH  52  55
ATOM     55  N   UNL     1     -47.704  36.929  28.012  1.00  0.00    -0.305 NA
BRANCH  55  56
ATOM     56  C   UNL     1     -49.164  36.883  28.099  1.00  0.00    -0.013 C 
ATOM     57  H   UNL     1     -49.525  37.517  28.916  1.00  0.00     0.039 H 
ATOM     58  H   UNL     1     -49.622  37.276  27.187  1.00  0.00     0.039 H 
ATOM     59  H   UNL     1     -49.543  35.867  28.258  1.00  0.00     0.039 H 
ENDBRANCH  55  56
BRANCH  55  60
ATOM     60  C   UNL     1     -47.227  36.583  26.660  1.00  0.00    -0.002 C 
ATOM     61  H   UNL     1     -48.077  36.655  25.968  1.00  0.00     0.043 H 
ATOM     62  H   UNL     1     -46.532  37.367  26.336  1.00  0.00     0.043 H 
BRANCH  60  63
ATOM     63  C   UNL     1     -46.565  35.204  26.499  1.00  0.00    -0.036 C 
ATOM     64  H   UNL     1     -46.149  35.096  25.492  1.00  0.00     0.028 H 
ATOM     65  H   UNL     1     -45.729  35.113  27.202  1.00  0.00     0.028 H 
BRANCH  63  66
ATOM     66  C   UNL     1     -47.535  34.051  26.787  1.00  0.00    -0.027 C 
ATOM     67  H   UNL     1     -48.545  34.447  26.949  1.00  0.00     0.032 H 
ATOM     68  H   UNL     1     -47.250  33.570  27.732  1.00  0.00     0.032 H 
BRANCH  66  69
ATOM     69  C   UNL     1     -47.558  32.991  25.713  1.00  0.00    -0.048 A 
ATOM     70  C   UNL     1     -46.405  32.707  24.968  1.00  0.00    -0.059 A 
ATOM     71  C   UNL     1     -48.730  32.270  25.449  1.00  0.00    -0.059 A 
ATOM     72  C   UNL     1     -46.425  31.720  23.981  1.00  0.00    -0.062 A 
ATOM     73  H   UNL     1     -45.481  33.251  25.153  1.00  0.00     0.063 H 
ATOM     74  C   UNL     1     -48.749  31.284  24.462  1.00  0.00    -0.062 A 
ATOM     75  H   UNL     1     -49.639  32.475  26.011  1.00  0.00     0.063 H 
ATOM     76  C   UNL     1     -47.596  31.008  23.728  1.00  0.00    -0.062 A 
ATOM     77  H   UNL     1     -45.526  31.506  23.409  1.00  0.00     0.062 H 
ATOM     78  H   UNL     1     -49.663  30.731  24.263  1.00  0.00     0.062 H 
ATOM     79  H   UNL     1     -47.611  30.240  22.960  1.00  0.00     0.062 H 
ENDBRANCH  66  69
ENDBRANCH  63  66
ENDBRANCH  60  63
ENDBRANCH  55  60
ENDBRANCH  52  55
ENDBRANCH   1  52
TORSDOF 15
ENDMDL
