MODEL 1
REMARK VINA RESULT:     -11.4      0.000      0.000
REMARK SMILES O=C(NCc1ccc2cc(CCN3CC4(CCC4)C3)[nH]c2c1)c1cc(=O)n2ccccc2n1
REMARK SMILES IDX 5 1 6 2 7 3 8 4 9 5 10 6 20 7 21 8 22 9 4 15 3 18 1 19 2 20
REMARK SMILES IDX 23 22 24 23 33 24 25 25 32 27 26 28 27 29 31 30 28 31 30 32
REMARK SMILES IDX 29 34 11 38 12 41 13 44 14 45 19 46 15 47 16 52 18 53 17 54
REMARK H PARENT 6 10 7 11 9 12 20 13 22 14 4 16 4 17 3 21 24 26 31 33 28 35
REMARK H PARENT 30 36 29 37 11 39 11 40 12 42 12 43 14 48 14 49 19 50 19 51
REMARK H PARENT 16 55 16 56 18 57 18 58 17 59 17 60
REMARK Flexibility Score: inf
ROOT
ATOM      1  C   UNL     1     -48.025  35.092  26.793  1.00  0.00    -0.027 A 
ATOM      2  C   UNL     1     -46.749  35.155  26.217  1.00  0.00    -0.057 A 
ATOM      3  C   UNL     1     -46.257  34.110  25.425  1.00  0.00    -0.052 A 
ATOM      4  C   UNL     1     -47.062  32.979  25.202  1.00  0.00    -0.000 A 
ATOM      5  C   UNL     1     -46.889  31.770  24.474  1.00  0.00    -0.033 A 
ATOM      6  C   UNL     1     -48.035  31.015  24.618  1.00  0.00     0.017 A 
ATOM      7  N   UNL     1     -48.901  31.737  25.404  1.00  0.00    -0.358 N 
ATOM      8  C   UNL     1     -48.331  32.934  25.776  1.00  0.00     0.046 A 
ATOM      9  C   UNL     1     -48.841  33.971  26.569  1.00  0.00    -0.033 A 
ATOM     10  H   UNL     1     -46.124  36.034  26.378  1.00  0.00     0.063 H 
ATOM     11  H   UNL     1     -45.266  34.178  24.987  1.00  0.00     0.063 H 
ATOM     12  H   UNL     1     -46.012  31.484  23.906  1.00  0.00     0.065 H 
ATOM     13  H   UNL     1     -49.827  31.437  25.677  1.00  0.00     0.166 HD
ATOM     14  H   UNL     1     -49.837  33.906  26.996  1.00  0.00     0.065 H 
ENDROOT
BRANCH   1  15
ATOM     15  C   UNL     1     -48.532  36.247  27.620  1.00  0.00     0.043 C 
ATOM     16  H   UNL     1     -48.781  35.908  28.632  1.00  0.00     0.054 H 
ATOM     17  H   UNL     1     -49.449  36.658  27.182  1.00  0.00     0.054 H 
BRANCH  15  18
ATOM     18  N   UNL     1     -47.562  37.311  27.662  1.00  0.00    -0.347 N 
ATOM     19  O   UNL     1     -46.593  36.729  29.666  1.00  0.00    -0.268 OA
ATOM     20  C   UNL     1     -46.621  37.421  28.655  1.00  0.00     0.270 C 
ATOM     21  H   UNL     1     -47.399  37.869  26.830  1.00  0.00     0.164 HD
BRANCH  20  22
ATOM     22  C   UNL     1     -45.597  38.491  28.358  1.00  0.00     0.136 A 
ATOM     23  C   UNL     1     -45.727  39.128  27.192  1.00  0.00     0.035 A 
ATOM     24  N   UNL     1     -44.615  38.746  29.288  1.00  0.00    -0.225 NA
ATOM     25  C   UNL     1     -44.758  40.180  26.863  1.00  0.00     0.258 A 
ATOM     26  H   UNL     1     -46.505  38.918  26.469  1.00  0.00     0.071 H 
ATOM     27  C   UNL     1     -43.763  39.681  28.995  1.00  0.00     0.140 A 
ATOM     28  O   UNL     1     -44.866  40.769  25.789  1.00  0.00    -0.269 OA
ATOM     29  N   UNL     1     -43.782  40.421  27.818  1.00  0.00    -0.268 N 
ATOM     30  C   UNL     1     -42.685  39.997  29.975  1.00  0.00    -0.019 A 
ATOM     31  C   UNL     1     -42.829  41.407  27.579  1.00  0.00     0.014 A 
ATOM     32  C   UNL     1     -41.792  40.954  29.700  1.00  0.00    -0.057 A 
ATOM     33  H   UNL     1     -42.664  39.427  30.894  1.00  0.00     0.066 H 
ATOM     34  C   UNL     1     -41.863  41.685  28.463  1.00  0.00    -0.045 A 
ATOM     35  H   UNL     1     -42.903  41.947  26.638  1.00  0.00     0.082 H 
ATOM     36  H   UNL     1     -41.000  41.199  30.401  1.00  0.00     0.062 H 
ATOM     37  H   UNL     1     -41.126  42.457  28.266  1.00  0.00     0.064 H 
ENDBRANCH  20  22
ENDBRANCH  15  18
ENDBRANCH   1  15
BRANCH   6  38
ATOM     38  C   UNL     1     -48.392  29.667  24.078  1.00  0.00     0.000 C 
ATOM     39  H   UNL     1     -48.597  29.745  23.002  1.00  0.00     0.034 H 
ATOM     40  H   UNL     1     -47.527  29.003  24.186  1.00  0.00     0.034 H 
BRANCH  38  41
ATOM     41  C   UNL     1     -49.615  29.078  24.800  1.00  0.00     0.004 C 
ATOM     42  H   UNL     1     -50.517  29.555  24.391  1.00  0.00     0.043 H 
ATOM     43  H   UNL     1     -49.586  29.336  25.867  1.00  0.00     0.043 H 
BRANCH  41  44
ATOM     44  N   UNL     1     -49.715  27.625  24.574  1.00  0.00    -0.302 NA
ATOM     45  C   UNL     1     -49.995  26.928  25.859  1.00  0.00     0.005 C 
ATOM     46  C   UNL     1     -48.363  27.005  24.510  1.00  0.00     0.005 C 
ATOM     47  C   UNL     1     -48.562  26.492  25.910  1.00  0.00    -0.004 C 
ATOM     48  H   UNL     1     -50.713  26.108  25.744  1.00  0.00     0.044 H 
ATOM     49  H   UNL     1     -50.339  27.556  26.689  1.00  0.00     0.044 H 
ATOM     50  H   UNL     1     -47.517  27.685  24.359  1.00  0.00     0.044 H 
ATOM     51  H   UNL     1     -48.299  26.223  23.742  1.00  0.00     0.044 H 
ATOM     52  C   UNL     1     -48.208  25.062  26.232  1.00  0.00    -0.045 C 
ATOM     53  C   UNL     1     -47.656  26.999  27.007  1.00  0.00    -0.045 C 
ATOM     54  C   UNL     1     -46.939  25.626  26.922  1.00  0.00    -0.052 C 
ATOM     55  H   UNL     1     -48.022  24.394  25.388  1.00  0.00     0.027 H 
ATOM     56  H   UNL     1     -48.899  24.573  26.928  1.00  0.00     0.027 H 
ATOM     57  H   UNL     1     -48.157  27.166  27.967  1.00  0.00     0.027 H 
ATOM     58  H   UNL     1     -47.030  27.866  26.780  1.00  0.00     0.027 H 
ATOM     59  H   UNL     1     -46.678  25.168  27.880  1.00  0.00     0.027 H 
ATOM     60  H   UNL     1     -46.055  25.633  26.275  1.00  0.00     0.027 H 
ENDBRANCH  41  44
ENDBRANCH  38  41
ENDBRANCH   6  38
TORSDOF 6
ENDMDL
MODEL 2
REMARK VINA RESULT:     -10.5      2.731     11.974
REMARK SMILES O=C(NCc1ccc2cc(CCN3CC4(CCC4)C3)[nH]c2c1)c1cc(=O)n2ccccc2n1
REMARK SMILES IDX 5 1 6 2 7 3 8 4 9 5 10 6 20 7 21 8 22 9 4 15 3 18 1 19 2 20
REMARK SMILES IDX 23 22 24 23 33 24 25 25 32 27 26 28 27 29 31 30 28 31 30 32
REMARK SMILES IDX 29 34 11 38 12 41 13 44 14 45 19 46 15 47 16 52 18 53 17 54
REMARK H PARENT 6 10 7 11 9 12 20 13 22 14 4 16 4 17 3 21 24 26 31 33 28 35
REMARK H PARENT 30 36 29 37 11 39 11 40 12 42 12 43 14 48 14 49 19 50 19 51
REMARK H PARENT 16 55 16 56 18 57 18 58 17 59 17 60
REMARK Flexibility Score: inf
ROOT
ATOM      1  C   UNL     1     -46.974  33.772  25.738  1.00  0.00    -0.027 A 
ATOM      2  C   UNL     1     -48.328  33.780  26.099  1.00  0.00    -0.057 A 
ATOM      3  C   UNL     1     -48.881  34.845  26.822  1.00  0.00    -0.052 A 
ATOM      4  C   UNL     1     -48.061  35.927  27.187  1.00  0.00    -0.000 A 
ATOM      5  C   UNL     1     -48.281  37.138  27.899  1.00  0.00    -0.033 A 
ATOM      6  C   UNL     1     -47.085  37.825  27.955  1.00  0.00     0.017 A 
ATOM      7  N   UNL     1     -46.151  37.071  27.286  1.00  0.00    -0.358 N 
ATOM      8  C   UNL     1     -46.718  35.909  26.814  1.00  0.00     0.046 A 
ATOM      9  C   UNL     1     -46.148  34.854  26.089  1.00  0.00    -0.033 A 
ATOM     10  H   UNL     1     -48.971  32.948  25.811  1.00  0.00     0.063 H 
ATOM     11  H   UNL     1     -49.932  34.832  27.093  1.00  0.00     0.063 H 
ATOM     12  H   UNL     1     -49.218  37.467  28.329  1.00  0.00     0.065 H 
ATOM     13  H   UNL     1     -45.181  37.325  27.159  1.00  0.00     0.166 HD
ATOM     14  H   UNL     1     -45.100  34.874  25.809  1.00  0.00     0.065 H 
ENDROOT
BRANCH   1  15
ATOM     15  C   UNL     1     -46.418  32.621  24.938  1.00  0.00     0.043 C 
ATOM     16  H   UNL     1     -45.376  32.432  25.220  1.00  0.00     0.054 H 
ATOM     17  H   UNL     1     -46.425  32.860  23.868  1.00  0.00     0.054 H 
BRANCH  15  18
ATOM     18  N   UNL     1     -47.219  31.438  25.119  1.00  0.00    -0.347 N 
ATOM     19  O   UNL     1     -48.010  31.301  22.963  1.00  0.00    -0.268 OA
ATOM     20  C   UNL     1     -47.897  30.834  24.089  1.00  0.00     0.270 C 
ATOM     21  H   UNL     1     -47.109  30.887  25.964  1.00  0.00     0.164 HD
BRANCH  20  22
ATOM     22  C   UNL     1     -48.484  29.502  24.494  1.00  0.00     0.136 A 
ATOM     23  C   UNL     1     -49.799  29.354  24.314  1.00  0.00     0.035 A 
ATOM     24  N   UNL     1     -47.648  28.537  25.009  1.00  0.00    -0.225 NA
ATOM     25  C   UNL     1     -50.413  28.075  24.688  1.00  0.00     0.258 A 
ATOM     26  H   UNL     1     -50.445  30.121  23.907  1.00  0.00     0.071 H 
ATOM     27  C   UNL     1     -48.194  27.405  25.334  1.00  0.00     0.140 A 
ATOM     28  O   UNL     1     -51.623  27.931  24.530  1.00  0.00    -0.269 OA
ATOM     29  N   UNL     1     -49.548  27.118  25.199  1.00  0.00    -0.268 N 
ATOM     30  C   UNL     1     -47.327  26.328  25.890  1.00  0.00    -0.019 A 
ATOM     31  C   UNL     1     -50.056  25.877  25.573  1.00  0.00     0.014 A 
ATOM     32  C   UNL     1     -47.862  25.151  26.234  1.00  0.00    -0.057 A 
ATOM     33  H   UNL     1     -46.272  26.542  25.996  1.00  0.00     0.066 H 
ATOM     34  C   UNL     1     -49.271  24.914  26.072  1.00  0.00    -0.045 A 
ATOM     35  H   UNL     1     -51.124  25.721  25.441  1.00  0.00     0.082 H 
ATOM     36  H   UNL     1     -47.247  24.354  26.640  1.00  0.00     0.062 H 
ATOM     37  H   UNL     1     -49.679  23.950  26.360  1.00  0.00     0.064 H 
ENDBRANCH  20  22
ENDBRANCH  15  18
ENDBRANCH   1  15
BRANCH   6  38
ATOM     38  C   UNL     1     -46.741  39.139  28.582  1.00  0.00     0.000 C 
ATOM     39  H   UNL     1     -47.652  39.607  28.977  1.00  0.00     0.034 H 
ATOM     40  H   UNL     1     -46.083  38.958  29.441  1.00  0.00     0.034 H 
BRANCH  38  41
ATOM     41  C   UNL     1     -46.063  40.082  27.575  1.00  0.00     0.004 C 
ATOM     42  H   UNL     1     -46.079  41.098  27.994  1.00  0.00     0.043 H 
ATOM     43  H   UNL     1     -46.642  40.122  26.643  1.00  0.00     0.043 H 
BRANCH  41  44
ATOM     44  N   UNL     1     -44.659  39.696  27.350  1.00  0.00    -0.302 NA
ATOM     45  C   UNL     1     -43.768  40.456  28.270  1.00  0.00     0.005 C 
ATOM     46  C   UNL     1     -44.093  40.418  26.177  1.00  0.00     0.005 C 
ATOM     47  C   UNL     1     -43.370  41.335  27.124  1.00  0.00    -0.004 C 
ATOM     48  H   UNL     1     -42.955  39.839  28.670  1.00  0.00     0.044 H 
ATOM     49  H   UNL     1     -44.254  40.954  29.116  1.00  0.00     0.044 H 
ATOM     50  H   UNL     1     -44.812  40.891  25.498  1.00  0.00     0.044 H 
ATOM     51  H   UNL     1     -43.439  39.779  25.571  1.00  0.00     0.044 H 
ATOM     52  C   UNL     1     -41.918  41.660  26.877  1.00  0.00    -0.045 C 
ATOM     53  C   UNL     1     -43.731  42.802  27.137  1.00  0.00    -0.045 C 
ATOM     54  C   UNL     1     -42.407  43.039  26.364  1.00  0.00    -0.052 C 
ATOM     55  H   UNL     1     -41.390  41.049  26.142  1.00  0.00     0.027 H 
ATOM     56  H   UNL     1     -41.311  41.727  27.786  1.00  0.00     0.027 H 
ATOM     57  H   UNL     1     -43.737  43.259  28.133  1.00  0.00     0.027 H 
ATOM     58  H   UNL     1     -44.640  43.099  26.607  1.00  0.00     0.027 H 
ATOM     59  H   UNL     1     -41.818  43.901  26.687  1.00  0.00     0.027 H 
ATOM     60  H   UNL     1     -42.537  43.081  25.276  1.00  0.00     0.027 H 
ENDBRANCH  41  44
ENDBRANCH  38  41
ENDBRANCH   6  38
TORSDOF 6
ENDMDL
MODEL 3
REMARK VINA RESULT:     -10.4      2.032      3.365
REMARK SMILES O=C(NCc1ccc2cc(CCN3CC4(CCC4)C3)[nH]c2c1)c1cc(=O)n2ccccc2n1
REMARK SMILES IDX 5 1 6 2 7 3 8 4 9 5 10 6 20 7 21 8 22 9 4 15 3 18 1 19 2 20
REMARK SMILES IDX 23 22 24 23 33 24 25 25 32 27 26 28 27 29 31 30 28 31 30 32
REMARK SMILES IDX 29 34 11 38 12 41 13 44 14 45 19 46 15 47 16 52 18 53 17 54
REMARK H PARENT 6 10 7 11 9 12 20 13 22 14 4 16 4 17 3 21 24 26 31 33 28 35
REMARK H PARENT 30 36 29 37 11 39 11 40 12 42 12 43 14 48 14 49 19 50 19 51
REMARK H PARENT 16 55 16 56 18 57 18 58 17 59 17 60
REMARK Flexibility Score: inf
ROOT
ATOM      1  C   UNL     1     -46.301  35.973  28.041  1.00  0.00    -0.027 A 
ATOM      2  C   UNL     1     -47.692  36.008  27.866  1.00  0.00    -0.057 A 
ATOM      3  C   UNL     1     -48.336  35.125  26.990  1.00  0.00    -0.052 A 
ATOM      4  C   UNL     1     -47.573  34.184  26.278  1.00  0.00    -0.000 A 
ATOM      5  C   UNL     1     -47.886  33.166  25.335  1.00  0.00    -0.033 A 
ATOM      6  C   UNL     1     -46.709  32.547  24.966  1.00  0.00     0.017 A 
ATOM      7  N   UNL     1     -45.694  33.153  25.667  1.00  0.00    -0.358 N 
ATOM      8  C   UNL     1     -46.193  34.155  26.468  1.00  0.00     0.046 A 
ATOM      9  C   UNL     1     -45.530  35.029  27.341  1.00  0.00    -0.033 A 
ATOM     10  H   UNL     1     -48.290  36.730  28.422  1.00  0.00     0.063 H 
ATOM     11  H   UNL     1     -49.414  35.169  26.868  1.00  0.00     0.063 H 
ATOM     12  H   UNL     1     -48.873  32.918  24.965  1.00  0.00     0.065 H 
ATOM     13  H   UNL     1     -44.716  32.906  25.604  1.00  0.00     0.166 HD
ATOM     14  H   UNL     1     -44.454  34.975  27.471  1.00  0.00     0.065 H 
ENDROOT
BRANCH   1  15
ATOM     15  C   UNL     1     -45.643  36.922  29.011  1.00  0.00     0.043 C 
ATOM     16  H   UNL     1     -44.922  36.384  29.637  1.00  0.00     0.054 H 
ATOM     17  H   UNL     1     -46.389  37.362  29.681  1.00  0.00     0.054 H 
BRANCH  15  18
ATOM     18  N   UNL     1     -45.003  38.006  28.310  1.00  0.00    -0.347 N 
ATOM     19  O   UNL     1     -46.773  39.474  28.389  1.00  0.00    -0.268 OA
ATOM     20  C   UNL     1     -45.604  39.225  28.119  1.00  0.00     0.270 C 
ATOM     21  H   UNL     1     -44.001  37.973  28.151  1.00  0.00     0.164 HD
BRANCH  20  22
ATOM     22  C   UNL     1     -44.652  40.250  27.548  1.00  0.00     0.136 A 
ATOM     23  C   UNL     1     -43.564  40.518  28.275  1.00  0.00     0.035 A 
ATOM     24  N   UNL     1     -44.951  40.831  26.336  1.00  0.00    -0.225 NA
ATOM     25  C   UNL     1     -42.607  41.503  27.756  1.00  0.00     0.258 A 
ATOM     26  H   UNL     1     -43.340  40.053  29.226  1.00  0.00     0.071 H 
ATOM     27  C   UNL     1     -44.100  41.697  25.879  1.00  0.00     0.140 A 
ATOM     28  O   UNL     1     -41.605  41.760  28.420  1.00  0.00    -0.269 OA
ATOM     29  N   UNL     1     -42.929  42.069  26.531  1.00  0.00    -0.268 N 
ATOM     30  C   UNL     1     -44.378  42.348  24.567  1.00  0.00    -0.019 A 
ATOM     31  C   UNL     1     -42.068  43.009  25.973  1.00  0.00     0.014 A 
ATOM     32  C   UNL     1     -43.519  43.246  24.072  1.00  0.00    -0.057 A 
ATOM     33  H   UNL     1     -45.286  42.063  24.052  1.00  0.00     0.066 H 
ATOM     34  C   UNL     1     -42.325  43.590  24.795  1.00  0.00    -0.045 A 
ATOM     35  H   UNL     1     -41.171  43.254  26.538  1.00  0.00     0.082 H 
ATOM     36  H   UNL     1     -43.704  43.730  23.118  1.00  0.00     0.062 H 
ATOM     37  H   UNL     1     -41.645  44.322  24.369  1.00  0.00     0.064 H 
ENDBRANCH  20  22
ENDBRANCH  15  18
ENDBRANCH   1  15
BRANCH   6  38
ATOM     38  C   UNL     1     -46.452  31.428  24.008  1.00  0.00     0.000 C 
ATOM     39  H   UNL     1     -46.017  31.829  23.083  1.00  0.00     0.034 H 
ATOM     40  H   UNL     1     -45.703  30.756  24.443  1.00  0.00     0.034 H 
BRANCH  38  41
ATOM     41  C   UNL     1     -47.742  30.657  23.686  1.00  0.00     0.004 C 
ATOM     42  H   UNL     1     -47.889  30.676  22.596  1.00  0.00     0.043 H 
ATOM     43  H   UNL     1     -48.610  31.168  24.124  1.00  0.00     0.043 H 
BRANCH  41  44
ATOM     44  N   UNL     1     -47.641  29.251  24.115  1.00  0.00    -0.302 NA
ATOM     45  C   UNL     1     -48.277  28.363  23.103  1.00  0.00     0.005 C 
ATOM     46  C   UNL     1     -48.707  28.921  25.101  1.00  0.00     0.005 C 
ATOM     47  C   UNL     1     -49.461  28.214  24.009  1.00  0.00    -0.004 C 
ATOM     48  H   UNL     1     -47.710  27.437  22.944  1.00  0.00     0.044 H 
ATOM     49  H   UNL     1     -48.472  28.805  22.121  1.00  0.00     0.044 H 
ATOM     50  H   UNL     1     -49.219  29.767  25.574  1.00  0.00     0.044 H 
ATOM     51  H   UNL     1     -48.344  28.265  25.903  1.00  0.00     0.044 H 
ATOM     52  C   UNL     1     -50.053  26.853  24.278  1.00  0.00    -0.045 C 
ATOM     53  C   UNL     1     -50.808  28.753  23.586  1.00  0.00    -0.045 C 
ATOM     54  C   UNL     1     -51.425  27.568  24.374  1.00  0.00    -0.052 C 
ATOM     55  H   UNL     1     -49.729  26.341  25.187  1.00  0.00     0.027 H 
ATOM     56  H   UNL     1     -49.985  26.158  23.434  1.00  0.00     0.027 H 
ATOM     57  H   UNL     1     -50.998  28.701  22.508  1.00  0.00     0.027 H 
ATOM     58  H   UNL     1     -51.085  29.747  23.946  1.00  0.00     0.027 H 
ATOM     59  H   UNL     1     -52.260  27.058  23.886  1.00  0.00     0.027 H 
ATOM     60  H   UNL     1     -51.714  27.827  25.400  1.00  0.00     0.027 H 
ENDBRANCH  41  44
ENDBRANCH  38  41
ENDBRANCH   6  38
TORSDOF 6
ENDMDL
MODEL 4
REMARK VINA RESULT:     -10.3      1.515      2.073
REMARK SMILES O=C(NCc1ccc2cc(CCN3CC4(CCC4)C3)[nH]c2c1)c1cc(=O)n2ccccc2n1
REMARK SMILES IDX 5 1 6 2 7 3 8 4 9 5 10 6 20 7 21 8 22 9 4 15 3 18 1 19 2 20
REMARK SMILES IDX 23 22 24 23 33 24 25 25 32 27 26 28 27 29 31 30 28 31 30 32
REMARK SMILES IDX 29 34 11 38 12 41 13 44 14 45 19 46 15 47 16 52 18 53 17 54
REMARK H PARENT 6 10 7 11 9 12 20 13 22 14 4 16 4 17 3 21 24 26 31 33 28 35
REMARK H PARENT 30 36 29 37 11 39 11 40 12 42 12 43 14 48 14 49 19 50 19 51
REMARK H PARENT 16 55 16 56 18 57 18 58 17 59 17 60
REMARK Flexibility Score: inf
ROOT
ATOM      1  C   UNL     1     -48.004  34.328  26.413  1.00  0.00    -0.027 A 
ATOM      2  C   UNL     1     -46.706  34.304  25.883  1.00  0.00    -0.057 A 
ATOM      3  C   UNL     1     -46.315  33.323  24.964  1.00  0.00    -0.052 A 
ATOM      4  C   UNL     1     -47.245  32.346  24.564  1.00  0.00    -0.000 A 
ATOM      5  C   UNL     1     -47.192  31.237  23.676  1.00  0.00    -0.033 A 
ATOM      6  C   UNL     1     -48.429  30.624  23.684  1.00  0.00     0.017 A 
ATOM      7  N   UNL     1     -49.231  31.337  24.542  1.00  0.00    -0.358 N 
ATOM      8  C   UNL     1     -48.533  32.388  25.094  1.00  0.00     0.046 A 
ATOM      9  C   UNL     1     -48.943  33.363  26.012  1.00  0.00    -0.033 A 
ATOM     10  H   UNL     1     -45.984  35.064  26.183  1.00  0.00     0.063 H 
ATOM     11  H   UNL     1     -45.305  33.321  24.565  1.00  0.00     0.063 H 
ATOM     12  H   UNL     1     -46.335  30.920  23.096  1.00  0.00     0.065 H 
ATOM     13  H   UNL     1     -50.198  31.125  24.747  1.00  0.00     0.166 HD
ATOM     14  H   UNL     1     -49.956  33.370  26.401  1.00  0.00     0.065 H 
ENDROOT
BRANCH   1  15
ATOM     15  C   UNL     1     -48.398  35.415  27.382  1.00  0.00     0.043 C 
ATOM     16  H   UNL     1     -48.592  34.987  28.372  1.00  0.00     0.054 H 
ATOM     17  H   UNL     1     -49.322  35.903  27.054  1.00  0.00     0.054 H 
BRANCH  15  18
ATOM     18  N   UNL     1     -47.378  36.430  27.455  1.00  0.00    -0.347 N 
ATOM     19  O   UNL     1     -48.766  38.182  28.002  1.00  0.00    -0.268 OA
ATOM     20  C   UNL     1     -47.643  37.724  27.830  1.00  0.00     0.270 C 
ATOM     21  H   UNL     1     -46.402  36.155  27.460  1.00  0.00     0.164 HD
BRANCH  20  22
ATOM     22  C   UNL     1     -46.382  38.531  28.029  1.00  0.00     0.136 A 
ATOM     23  C   UNL     1     -45.672  38.262  29.129  1.00  0.00     0.035 A 
ATOM     24  N   UNL     1     -46.040  39.472  27.085  1.00  0.00    -0.225 NA
ATOM     25  C   UNL     1     -44.436  39.017  29.361  1.00  0.00     0.258 A 
ATOM     26  H   UNL     1     -45.951  37.518  29.864  1.00  0.00     0.071 H 
ATOM     27  C   UNL     1     -44.943  40.134  27.292  1.00  0.00     0.140 A 
ATOM     28  O   UNL     1     -43.778  38.780  30.372  1.00  0.00    -0.269 OA
ATOM     29  N   UNL     1     -44.111  39.956  28.392  1.00  0.00    -0.268 N 
ATOM     30  C   UNL     1     -44.529  41.160  26.292  1.00  0.00    -0.019 A 
ATOM     31  C   UNL     1     -42.951  40.709  28.541  1.00  0.00     0.014 A 
ATOM     32  C   UNL     1     -43.404  41.860  26.479  1.00  0.00    -0.057 A 
ATOM     33  H   UNL     1     -45.169  41.305  25.432  1.00  0.00     0.066 H 
ATOM     34  C   UNL     1     -42.586  41.629  27.639  1.00  0.00    -0.045 A 
ATOM     35  H   UNL     1     -42.348  40.517  29.426  1.00  0.00     0.082 H 
ATOM     36  H   UNL     1     -43.086  42.610  25.763  1.00  0.00     0.062 H 
ATOM     37  H   UNL     1     -41.678  42.210  27.766  1.00  0.00     0.064 H 
ENDBRANCH  20  22
ENDBRANCH  15  18
ENDBRANCH   1  15
BRANCH   6  38
ATOM     38  C   UNL     1     -48.928  29.420  22.950  1.00  0.00     0.000 C 
ATOM     39  H   UNL     1     -49.962  29.591  22.624  1.00  0.00     0.034 H 
ATOM     40  H   UNL     1     -48.330  29.287  22.041  1.00  0.00     0.034 H 
BRANCH  38  41
ATOM     41  C   UNL     1     -48.860  28.159  23.827  1.00  0.00     0.004 C 
ATOM     42  H   UNL     1     -48.651  27.299  23.175  1.00  0.00     0.043 H 
ATOM     43  H   UNL     1     -49.836  27.966  24.292  1.00  0.00     0.043 H 
BRANCH  41  44
ATOM     44  N   UNL     1     -47.775  28.262  24.820  1.00  0.00    -0.302 NA
ATOM     45  C   UNL     1     -46.837  27.116  24.669  1.00  0.00     0.005 C 
ATOM     46  C   UNL     1     -48.220  27.748  26.145  1.00  0.00     0.005 C 
ATOM     47  C   UNL     1     -47.447  26.484  25.883  1.00  0.00    -0.004 C 
ATOM     48  H   UNL     1     -45.789  27.414  24.792  1.00  0.00     0.044 H 
ATOM     49  H   UNL     1     -46.912  26.545  23.737  1.00  0.00     0.044 H 
ATOM     50  H   UNL     1     -49.300  27.633  26.291  1.00  0.00     0.044 H 
ATOM     51  H   UNL     1     -47.837  28.353  26.976  1.00  0.00     0.044 H 
ATOM     52  C   UNL     1     -46.571  25.912  26.969  1.00  0.00    -0.045 C 
ATOM     53  C   UNL     1     -48.201  25.181  25.758  1.00  0.00    -0.045 C 
ATOM     54  C   UNL     1     -47.683  24.852  27.182  1.00  0.00    -0.052 C 
ATOM     55  H   UNL     1     -46.366  26.553  27.831  1.00  0.00     0.027 H 
ATOM     56  H   UNL     1     -45.629  25.486  26.610  1.00  0.00     0.027 H 
ATOM     57  H   UNL     1     -47.811  24.504  24.990  1.00  0.00     0.027 H 
ATOM     58  H   UNL     1     -49.288  25.238  25.659  1.00  0.00     0.027 H 
ATOM     59  H   UNL     1     -47.336  23.827  27.336  1.00  0.00     0.027 H 
ATOM     60  H   UNL     1     -48.391  25.114  27.977  1.00  0.00     0.027 H 
ENDBRANCH  41  44
ENDBRANCH  38  41
ENDBRANCH   6  38
TORSDOF 6
ENDMDL
MODEL 5
REMARK VINA RESULT:     -10.2      2.601      4.534
REMARK SMILES O=C(NCc1ccc2cc(CCN3CC4(CCC4)C3)[nH]c2c1)c1cc(=O)n2ccccc2n1
REMARK SMILES IDX 5 1 6 2 7 3 8 4 9 5 10 6 20 7 21 8 22 9 4 15 3 18 1 19 2 20
REMARK SMILES IDX 23 22 24 23 33 24 25 25 32 27 26 28 27 29 31 30 28 31 30 32
REMARK SMILES IDX 29 34 11 38 12 41 13 44 14 45 19 46 15 47 16 52 18 53 17 54
REMARK H PARENT 6 10 7 11 9 12 20 13 22 14 4 16 4 17 3 21 24 26 31 33 28 35
REMARK H PARENT 30 36 29 37 11 39 11 40 12 42 12 43 14 48 14 49 19 50 19 51
REMARK H PARENT 16 55 16 56 18 57 18 58 17 59 17 60
REMARK Flexibility Score: inf
ROOT
ATOM      1  C   UNL     1     -45.386  37.769  28.273  1.00  0.00    -0.027 A 
ATOM      2  C   UNL     1     -46.435  38.217  27.458  1.00  0.00    -0.057 A 
ATOM      3  C   UNL     1     -47.197  37.321  26.698  1.00  0.00    -0.052 A 
ATOM      4  C   UNL     1     -46.907  35.947  26.759  1.00  0.00    -0.000 A 
ATOM      5  C   UNL     1     -47.459  34.791  26.142  1.00  0.00    -0.033 A 
ATOM      6  C   UNL     1     -46.753  33.691  26.584  1.00  0.00     0.017 A 
ATOM      7  N   UNL     1     -45.797  34.146  27.460  1.00  0.00    -0.358 N 
ATOM      8  C   UNL     1     -45.866  35.516  27.580  1.00  0.00     0.046 A 
ATOM      9  C   UNL     1     -45.094  36.396  28.349  1.00  0.00    -0.033 A 
ATOM     10  H   UNL     1     -46.671  39.280  27.414  1.00  0.00     0.063 H 
ATOM     11  H   UNL     1     -48.006  37.688  26.073  1.00  0.00     0.063 H 
ATOM     12  H   UNL     1     -48.286  34.771  25.443  1.00  0.00     0.065 H 
ATOM     13  H   UNL     1     -45.130  33.564  27.947  1.00  0.00     0.166 HD
ATOM     14  H   UNL     1     -44.294  36.026  28.982  1.00  0.00     0.065 H 
ENDROOT
BRANCH   1  15
ATOM     15  C   UNL     1     -44.601  38.759  29.097  1.00  0.00     0.043 C 
ATOM     16  H   UNL     1     -43.629  38.334  29.374  1.00  0.00     0.054 H 
ATOM     17  H   UNL     1     -45.132  38.987  30.028  1.00  0.00     0.054 H 
BRANCH  15  18
ATOM     18  N   UNL     1     -44.433  39.999  28.383  1.00  0.00    -0.347 N 
ATOM     19  O   UNL     1     -42.381  40.554  29.265  1.00  0.00    -0.268 OA
ATOM     20  C   UNL     1     -43.295  40.762  28.476  1.00  0.00     0.270 C 
ATOM     21  H   UNL     1     -45.054  40.216  27.611  1.00  0.00     0.164 HD
BRANCH  20  22
ATOM     22  C   UNL     1     -43.283  41.893  27.476  1.00  0.00     0.136 A 
ATOM     23  C   UNL     1     -42.152  42.062  26.786  1.00  0.00     0.035 A 
ATOM     24  N   UNL     1     -44.414  42.665  27.332  1.00  0.00    -0.225 NA
ATOM     25  C   UNL     1     -42.095  43.146  25.798  1.00  0.00     0.258 A 
ATOM     26  H   UNL     1     -41.269  41.448  26.908  1.00  0.00     0.071 H 
ATOM     27  C   UNL     1     -44.361  43.619  26.454  1.00  0.00     0.140 A 
ATOM     28  O   UNL     1     -41.057  43.313  25.161  1.00  0.00    -0.269 OA
ATOM     29  N   UNL     1     -43.249  43.905  25.669  1.00  0.00    -0.268 N 
ATOM     30  C   UNL     1     -45.564  44.477  26.259  1.00  0.00    -0.019 A 
ATOM     31  C   UNL     1     -43.273  44.949  24.749  1.00  0.00     0.014 A 
ATOM     32  C   UNL     1     -45.539  45.470  25.361  1.00  0.00    -0.057 A 
ATOM     33  H   UNL     1     -46.434  44.261  26.864  1.00  0.00     0.066 H 
ATOM     34  C   UNL     1     -44.357  45.716  24.580  1.00  0.00    -0.045 A 
ATOM     35  H   UNL     1     -42.369  45.117  24.169  1.00  0.00     0.082 H 
ATOM     36  H   UNL     1     -46.405  46.104  25.205  1.00  0.00     0.062 H 
ATOM     37  H   UNL     1     -44.364  46.528  23.859  1.00  0.00     0.064 H 
ENDBRANCH  20  22
ENDBRANCH  15  18
ENDBRANCH   1  15
BRANCH   6  38
ATOM     38  C   UNL     1     -46.899  32.239  26.256  1.00  0.00     0.000 C 
ATOM     39  H   UNL     1     -46.116  31.666  26.770  1.00  0.00     0.034 H 
ATOM     40  H   UNL     1     -47.859  31.883  26.649  1.00  0.00     0.034 H 
BRANCH  38  41
ATOM     41  C   UNL     1     -46.816  31.994  24.741  1.00  0.00     0.004 C 
ATOM     42  H   UNL     1     -46.260  31.061  24.574  1.00  0.00     0.043 H 
ATOM     43  H   UNL     1     -46.234  32.791  24.258  1.00  0.00     0.043 H 
BRANCH  41  44
ATOM     44  N   UNL     1     -48.159  31.844  24.153  1.00  0.00    -0.302 NA
ATOM     45  C   UNL     1     -48.985  30.936  24.997  1.00  0.00     0.005 C 
ATOM     46  C   UNL     1     -48.147  30.840  23.053  1.00  0.00     0.005 C 
ATOM     47  C   UNL     1     -48.778  29.847  23.989  1.00  0.00    -0.004 C 
ATOM     48  H   UNL     1     -50.023  31.277  25.087  1.00  0.00     0.044 H 
ATOM     49  H   UNL     1     -48.612  30.738  26.008  1.00  0.00     0.044 H 
ATOM     50  H   UNL     1     -47.166  30.567  22.648  1.00  0.00     0.044 H 
ATOM     51  H   UNL     1     -48.781  31.139  22.209  1.00  0.00     0.044 H 
ATOM     52  C   UNL     1     -49.942  29.015  23.512  1.00  0.00    -0.045 C 
ATOM     53  C   UNL     1     -48.003  28.606  24.366  1.00  0.00    -0.045 C 
ATOM     54  C   UNL     1     -48.938  27.839  23.395  1.00  0.00    -0.052 C 
ATOM     55  H   UNL     1     -50.418  29.317  22.576  1.00  0.00     0.027 H 
ATOM     56  H   UNL     1     -50.717  28.849  24.268  1.00  0.00     0.027 H 
ATOM     57  H   UNL     1     -48.121  28.299  25.412  1.00  0.00     0.027 H 
ATOM     58  H   UNL     1     -46.941  28.580  24.109  1.00  0.00     0.027 H 
ATOM     59  H   UNL     1     -49.300  26.871  23.750  1.00  0.00     0.027 H 
ATOM     60  H   UNL     1     -48.520  27.719  22.389  1.00  0.00     0.027 H 
ENDBRANCH  41  44
ENDBRANCH  38  41
ENDBRANCH   6  38
TORSDOF 6
ENDMDL
MODEL 6
REMARK VINA RESULT:     -10.2      2.738     11.744
REMARK SMILES O=C(NCc1ccc2cc(CCN3CC4(CCC4)C3)[nH]c2c1)c1cc(=O)n2ccccc2n1
REMARK SMILES IDX 5 1 6 2 7 3 8 4 9 5 10 6 20 7 21 8 22 9 4 15 3 18 1 19 2 20
REMARK SMILES IDX 23 22 24 23 33 24 25 25 32 27 26 28 27 29 31 30 28 31 30 32
REMARK SMILES IDX 29 34 11 38 12 41 13 44 14 45 19 46 15 47 16 52 18 53 17 54
REMARK H PARENT 6 10 7 11 9 12 20 13 22 14 4 16 4 17 3 21 24 26 31 33 28 35
REMARK H PARENT 30 36 29 37 11 39 11 40 12 42 12 43 14 48 14 49 19 50 19 51
REMARK H PARENT 16 55 16 56 18 57 18 58 17 59 17 60
REMARK Flexibility Score: inf
ROOT
ATOM      1  C   UNL     1     -48.431  33.914  26.223  1.00  0.00    -0.027 A 
ATOM      2  C   UNL     1     -47.107  33.465  26.119  1.00  0.00    -0.057 A 
ATOM      3  C   UNL     1     -46.041  34.227  26.614  1.00  0.00    -0.052 A 
ATOM      4  C   UNL     1     -46.306  35.463  27.229  1.00  0.00    -0.000 A 
ATOM      5  C   UNL     1     -45.493  36.465  27.825  1.00  0.00    -0.033 A 
ATOM      6  C   UNL     1     -46.318  37.478  28.269  1.00  0.00     0.017 A 
ATOM      7  N   UNL     1     -47.609  37.112  27.969  1.00  0.00    -0.358 N 
ATOM      8  C   UNL     1     -47.628  35.892  27.332  1.00  0.00     0.046 A 
ATOM      9  C   UNL     1     -48.708  35.143  26.845  1.00  0.00    -0.033 A 
ATOM     10  H   UNL     1     -46.896  32.504  25.651  1.00  0.00     0.063 H 
ATOM     11  H   UNL     1     -45.022  33.861  26.524  1.00  0.00     0.063 H 
ATOM     12  H   UNL     1     -44.414  36.445  27.915  1.00  0.00     0.065 H 
ATOM     13  H   UNL     1     -48.433  37.659  28.179  1.00  0.00     0.166 HD
ATOM     14  H   UNL     1     -49.726  35.505  26.947  1.00  0.00     0.065 H 
ENDROOT
BRANCH   1  15
ATOM     15  C   UNL     1     -49.557  33.056  25.701  1.00  0.00     0.043 C 
ATOM     16  H   UNL     1     -49.898  33.430  24.730  1.00  0.00     0.054 H 
ATOM     17  H   UNL     1     -50.414  33.095  26.383  1.00  0.00     0.054 H 
BRANCH  15  18
ATOM     18  N   UNL     1     -49.147  31.678  25.604  1.00  0.00    -0.347 N 
ATOM     19  O   UNL     1     -49.240  31.520  23.311  1.00  0.00    -0.268 OA
ATOM     20  C   UNL     1     -48.955  31.043  24.403  1.00  0.00     0.270 C 
ATOM     21  H   UNL     1     -48.761  31.216  26.420  1.00  0.00     0.164 HD
BRANCH  20  22
ATOM     22  C   UNL     1     -48.328  29.679  24.571  1.00  0.00     0.136 A 
ATOM     23  C   UNL     1     -47.268  29.415  23.803  1.00  0.00     0.035 A 
ATOM     24  N   UNL     1     -48.870  28.809  25.490  1.00  0.00    -0.225 NA
ATOM     25  C   UNL     1     -46.622  28.103  23.936  1.00  0.00     0.258 A 
ATOM     26  H   UNL     1     -46.851  30.109  23.084  1.00  0.00     0.071 H 
ATOM     27  C   UNL     1     -48.292  27.652  25.608  1.00  0.00     0.140 A 
ATOM     28  O   UNL     1     -45.649  27.849  23.230  1.00  0.00    -0.269 OA
ATOM     29  N   UNL     1     -47.184  27.247  24.872  1.00  0.00    -0.268 N 
ATOM     30  C   UNL     1     -48.840  26.679  26.595  1.00  0.00    -0.019 A 
ATOM     31  C   UNL     1     -46.624  25.987  25.058  1.00  0.00     0.014 A 
ATOM     32  C   UNL     1     -48.267  25.478  26.738  1.00  0.00    -0.057 A 
ATOM     33  H   UNL     1     -49.701  26.986  27.173  1.00  0.00     0.066 H 
ATOM     34  C   UNL     1     -47.122  25.118  25.946  1.00  0.00    -0.045 A 
ATOM     35  H   UNL     1     -45.760  25.736  24.448  1.00  0.00     0.082 H 
ATOM     36  H   UNL     1     -48.650  24.756  27.452  1.00  0.00     0.062 H 
ATOM     37  H   UNL     1     -46.676  24.137  26.083  1.00  0.00     0.064 H 
ENDBRANCH  20  22
ENDBRANCH  15  18
ENDBRANCH   1  15
BRANCH   6  38
ATOM     38  C   UNL     1     -46.000  38.768  28.957  1.00  0.00     0.000 C 
ATOM     39  H   UNL     1     -46.876  39.106  29.526  1.00  0.00     0.034 H 
ATOM     40  H   UNL     1     -45.201  38.591  29.685  1.00  0.00     0.034 H 
BRANCH  38  41
ATOM     41  C   UNL     1     -45.582  39.852  27.951  1.00  0.00     0.004 C 
ATOM     42  H   UNL     1     -45.735  40.834  28.422  1.00  0.00     0.043 H 
ATOM     43  H   UNL     1     -46.237  39.827  27.070  1.00  0.00     0.043 H 
BRANCH  41  44
ATOM     44  N   UNL     1     -44.157  39.726  27.597  1.00  0.00    -0.302 NA
ATOM     45  C   UNL     1     -43.353  40.720  28.359  1.00  0.00     0.005 C 
ATOM     46  C   UNL     1     -43.863  40.437  26.323  1.00  0.00     0.005 C 
ATOM     47  C   UNL     1     -43.251  41.556  27.120  1.00  0.00    -0.004 C 
ATOM     48  H   UNL     1     -42.398  40.309  28.707  1.00  0.00     0.044 H 
ATOM     49  H   UNL     1     -43.845  41.189  29.219  1.00  0.00     0.044 H 
ATOM     50  H   UNL     1     -44.723  40.702  25.698  1.00  0.00     0.044 H 
ATOM     51  H   UNL     1     -43.154  39.885  25.692  1.00  0.00     0.044 H 
ATOM     52  C   UNL     1     -41.924  42.131  26.691  1.00  0.00    -0.045 C 
ATOM     53  C   UNL     1     -43.896  42.921  27.073  1.00  0.00    -0.045 C 
ATOM     54  C   UNL     1     -42.727  43.340  26.144  1.00  0.00    -0.052 C 
ATOM     55  H   UNL     1     -41.357  41.570  25.944  1.00  0.00     0.027 H 
ATOM     56  H   UNL     1     -41.258  42.393  27.521  1.00  0.00     0.027 H 
ATOM     57  H   UNL     1     -43.898  43.454  28.031  1.00  0.00     0.027 H 
ATOM     58  H   UNL     1     -44.892  42.990  26.629  1.00  0.00     0.027 H 
ATOM     59  H   UNL     1     -42.294  44.324  26.340  1.00  0.00     0.027 H 
ATOM     60  H   UNL     1     -42.966  43.259  25.077  1.00  0.00     0.027 H 
ENDBRANCH  41  44
ENDBRANCH  38  41
ENDBRANCH   6  38
TORSDOF 6
ENDMDL
MODEL 7
REMARK VINA RESULT:     -10.1      1.591      2.191
REMARK SMILES O=C(NCc1ccc2cc(CCN3CC4(CCC4)C3)[nH]c2c1)c1cc(=O)n2ccccc2n1
REMARK SMILES IDX 5 1 6 2 7 3 8 4 9 5 10 6 20 7 21 8 22 9 4 15 3 18 1 19 2 20
REMARK SMILES IDX 23 22 24 23 33 24 25 25 32 27 26 28 27 29 31 30 28 31 30 32
REMARK SMILES IDX 29 34 11 38 12 41 13 44 14 45 19 46 15 47 16 52 18 53 17 54
REMARK H PARENT 6 10 7 11 9 12 20 13 22 14 4 16 4 17 3 21 24 26 31 33 28 35
REMARK H PARENT 30 36 29 37 11 39 11 40 12 42 12 43 14 48 14 49 19 50 19 51
REMARK H PARENT 16 55 16 56 18 57 18 58 17 59 17 60
REMARK Flexibility Score: inf
ROOT
ATOM      1  C   UNL     1     -46.663  34.167  26.780  1.00  0.00    -0.027 A 
ATOM      2  C   UNL     1     -48.036  34.363  26.987  1.00  0.00    -0.057 A 
ATOM      3  C   UNL     1     -48.989  33.608  26.292  1.00  0.00    -0.052 A 
ATOM      4  C   UNL     1     -48.559  32.634  25.373  1.00  0.00    -0.000 A 
ATOM      5  C   UNL     1     -49.231  31.715  24.521  1.00  0.00    -0.033 A 
ATOM      6  C   UNL     1     -48.276  30.996  23.831  1.00  0.00     0.017 A 
ATOM      7  N   UNL     1     -47.046  31.446  24.249  1.00  0.00    -0.358 N 
ATOM      8  C   UNL     1     -47.192  32.446  25.184  1.00  0.00     0.046 A 
ATOM      9  C   UNL     1     -46.223  33.189  25.872  1.00  0.00    -0.033 A 
ATOM     10  H   UNL     1     -48.375  35.110  27.704  1.00  0.00     0.063 H 
ATOM     11  H   UNL     1     -50.048  33.775  26.466  1.00  0.00     0.063 H 
ATOM     12  H   UNL     1     -50.303  31.597  24.423  1.00  0.00     0.065 H 
ATOM     13  H   UNL     1     -46.156  31.100  23.919  1.00  0.00     0.166 HD
ATOM     14  H   UNL     1     -45.165  33.013  25.705  1.00  0.00     0.065 H 
ENDROOT
BRANCH   1  15
ATOM     15  C   UNL     1     -45.663  34.980  27.564  1.00  0.00     0.043 C 
ATOM     16  H   UNL     1     -44.645  34.639  27.347  1.00  0.00     0.054 H 
ATOM     17  H   UNL     1     -45.826  34.852  28.640  1.00  0.00     0.054 H 
BRANCH  15  18
ATOM     18  N   UNL     1     -45.805  36.384  27.272  1.00  0.00    -0.347 N 
ATOM     19  O   UNL     1     -45.387  37.155  29.399  1.00  0.00    -0.268 OA
ATOM     20  C   UNL     1     -45.583  37.363  28.208  1.00  0.00     0.270 C 
ATOM     21  H   UNL     1     -45.839  36.690  26.305  1.00  0.00     0.164 HD
BRANCH  20  22
ATOM     22  C   UNL     1     -45.591  38.747  27.601  1.00  0.00     0.136 A 
ATOM     23  C   UNL     1     -46.774  39.203  27.180  1.00  0.00     0.035 A 
ATOM     24  N   UNL     1     -44.407  39.444  27.524  1.00  0.00    -0.225 NA
ATOM     25  C   UNL     1     -46.831  40.545  26.589  1.00  0.00     0.258 A 
ATOM     26  H   UNL     1     -47.698  38.644  27.247  1.00  0.00     0.071 H 
ATOM     27  C   UNL     1     -44.463  40.633  27.005  1.00  0.00     0.140 A 
ATOM     28  O   UNL     1     -47.914  40.972  26.194  1.00  0.00    -0.269 OA
ATOM     29  N   UNL     1     -45.625  41.229  26.528  1.00  0.00    -0.268 N 
ATOM     30  C   UNL     1     -43.207  41.428  26.907  1.00  0.00    -0.019 A 
ATOM     31  C   UNL     1     -45.600  42.509  25.983  1.00  0.00     0.014 A 
ATOM     32  C   UNL     1     -43.233  42.656  26.375  1.00  0.00    -0.057 A 
ATOM     33  H   UNL     1     -42.298  40.973  27.277  1.00  0.00     0.066 H 
ATOM     34  C   UNL     1     -44.468  43.217  25.897  1.00  0.00    -0.045 A 
ATOM     35  H   UNL     1     -46.546  42.913  25.628  1.00  0.00     0.082 H 
ATOM     36  H   UNL     1     -42.329  43.251  26.295  1.00  0.00     0.062 H 
ATOM     37  H   UNL     1     -44.461  44.216  25.470  1.00  0.00     0.064 H 
ENDBRANCH  20  22
ENDBRANCH  15  18
ENDBRANCH   1  15
BRANCH   6  38
ATOM     38  C   UNL     1     -48.417  29.915  22.807  1.00  0.00     0.000 C 
ATOM     39  H   UNL     1     -49.454  29.882  22.449  1.00  0.00     0.034 H 
ATOM     40  H   UNL     1     -47.793  30.166  21.941  1.00  0.00     0.034 H 
BRANCH  38  41
ATOM     41  C   UNL     1     -48.018  28.545  23.378  1.00  0.00     0.004 C 
ATOM     42  H   UNL     1     -47.016  28.637  23.821  1.00  0.00     0.043 H 
ATOM     43  H   UNL     1     -47.933  27.806  22.569  1.00  0.00     0.043 H 
BRANCH  41  44
ATOM     44  N   UNL     1     -48.954  28.118  24.434  1.00  0.00    -0.302 NA
ATOM     45  C   UNL     1     -48.264  28.113  25.753  1.00  0.00     0.005 C 
ATOM     46  C   UNL     1     -49.071  26.634  24.468  1.00  0.00     0.005 C 
ATOM     47  C   UNL     1     -48.178  26.619  25.678  1.00  0.00    -0.004 C 
ATOM     48  H   UNL     1     -48.903  28.489  26.561  1.00  0.00     0.044 H 
ATOM     49  H   UNL     1     -47.311  28.650  25.806  1.00  0.00     0.044 H 
ATOM     50  H   UNL     1     -48.706  26.091  23.589  1.00  0.00     0.044 H 
ATOM     51  H   UNL     1     -50.101  26.302  24.656  1.00  0.00     0.044 H 
ATOM     52  C   UNL     1     -48.555  25.770  26.866  1.00  0.00    -0.045 C 
ATOM     53  C   UNL     1     -46.830  25.943  25.581  1.00  0.00    -0.045 C 
ATOM     54  C   UNL     1     -47.457  24.781  26.394  1.00  0.00    -0.052 C 
ATOM     55  H   UNL     1     -49.570  25.365  26.887  1.00  0.00     0.027 H 
ATOM     56  H   UNL     1     -48.336  26.230  27.836  1.00  0.00     0.027 H 
ATOM     57  H   UNL     1     -46.025  26.460  26.115  1.00  0.00     0.027 H 
ATOM     58  H   UNL     1     -46.475  25.674  24.582  1.00  0.00     0.027 H 
ATOM     59  H   UNL     1     -46.828  24.361  27.183  1.00  0.00     0.027 H 
ATOM     60  H   UNL     1     -47.841  23.966  25.770  1.00  0.00     0.027 H 
ENDBRANCH  41  44
ENDBRANCH  38  41
ENDBRANCH   6  38
TORSDOF 6
ENDMDL
