MODEL 1
REMARK VINA RESULT:     -10.5      0.000      0.000
REMARK SMILES CNc1ccc2ccc(OCc3cc(-n4cc(Cl)c5c(N)ncnc54)ncn3)cc2n1
REMARK SMILES IDX 11 1 10 4 9 5 3 6 4 7 31 8 5 9 30 11 6 12 29 14 7 15 8 17
REMARK SMILES IDX 2 20 1 22 12 26 13 27 28 28 14 29 27 31 26 32 15 34 16 35
REMARK SMILES IDX 25 36 17 37 19 39 24 40 18 41 20 42 23 43 22 44 21 46
REMARK H PARENT 11 2 11 3 4 10 5 13 29 16 7 18 8 19 2 21 1 23 1 24 1 25 13 30
REMARK H PARENT 27 33 16 38 23 45 21 47 21 48
REMARK Flexibility Score: inf
ROOT
ATOM      1  C   UNL     1     -47.677  35.217  27.458  1.00  0.00     0.130 C 
ATOM      2  H   UNL     1     -48.614  35.046  28.003  1.00  0.00     0.078 H 
ATOM      3  H   UNL     1     -47.969  35.621  26.481  1.00  0.00     0.078 H 
ENDROOT
BRANCH   1   4
ATOM      4  O   UNL     1     -47.042  33.941  27.328  1.00  0.00    -0.487 OA
BRANCH   4   5
ATOM      5  C   UNL     1     -47.388  33.143  26.271  1.00  0.00     0.122 A 
ATOM      6  C   UNL     1     -46.543  30.391  22.487  1.00  0.00     0.126 A 
ATOM      7  C   UNL     1     -47.894  30.148  22.289  1.00  0.00    -0.019 A 
ATOM      8  N   UNL     1     -46.089  31.160  23.495  1.00  0.00    -0.231 NA
ATOM      9  C   UNL     1     -48.816  30.733  23.150  1.00  0.00    -0.049 A 
ATOM     10  H   UNL     1     -48.230  29.496  21.491  1.00  0.00     0.066 H 
ATOM     11  C   UNL     1     -46.976  31.727  24.334  1.00  0.00     0.076 A 
ATOM     12  C   UNL     1     -48.365  31.542  24.195  1.00  0.00     0.001 A 
ATOM     13  H   UNL     1     -49.876  30.545  23.005  1.00  0.00     0.063 H 
ATOM     14  C   UNL     1     -46.513  32.526  25.374  1.00  0.00     0.007 A 
ATOM     15  C   UNL     1     -49.253  32.154  25.093  1.00  0.00    -0.049 A 
ATOM     16  H   UNL     1     -45.436  32.640  25.458  1.00  0.00     0.069 H 
ATOM     17  C   UNL     1     -48.761  32.951  26.124  1.00  0.00    -0.019 A 
ATOM     18  H   UNL     1     -50.326  32.014  24.995  1.00  0.00     0.063 H 
ATOM     19  H   UNL     1     -49.452  33.423  26.818  1.00  0.00     0.066 H 
BRANCH   6  20
ATOM     20  N   UNL     1     -45.559  29.827  21.674  1.00  0.00    -0.373 N 
ATOM     21  H   UNL     1     -46.092  29.376  20.929  1.00  0.00     0.161 HD
BRANCH  20  22
ATOM     22  C   UNL     1     -44.701  28.874  22.358  1.00  0.00     0.005 C 
ATOM     23  H   UNL     1     -43.874  28.544  21.720  1.00  0.00     0.045 H 
ATOM     24  H   UNL     1     -44.300  29.289  23.288  1.00  0.00     0.045 H 
ATOM     25  H   UNL     1     -45.288  27.986  22.614  1.00  0.00     0.045 H 
ENDBRANCH  20  22
ENDBRANCH   6  20
ENDBRANCH   4   5
ENDBRANCH   1   4
BRANCH   1  26
ATOM     26  C   UNL     1     -46.861  36.205  28.263  1.00  0.00     0.083 A 
ATOM     27  C   UNL     1     -46.282  37.306  27.649  1.00  0.00     0.007 A 
ATOM     28  N   UNL     1     -46.714  35.953  29.581  1.00  0.00    -0.238 NA
ATOM     29  C   UNL     1     -45.553  38.159  28.454  1.00  0.00     0.142 A 
ATOM     30  H   UNL     1     -46.434  37.457  26.590  1.00  0.00     0.068 H 
ATOM     31  C   UNL     1     -45.995  36.840  30.278  1.00  0.00     0.118 A 
ATOM     32  N   UNL     1     -45.403  37.933  29.781  1.00  0.00    -0.219 NA
ATOM     33  H   UNL     1     -45.881  36.656  31.341  1.00  0.00     0.106 H 
BRANCH  29  34
ATOM     34  N   UNL     1     -44.918  39.333  27.928  1.00  0.00    -0.284 N 
ATOM     35  C   UNL     1     -45.309  39.937  26.744  1.00  0.00     0.032 A 
ATOM     36  C   UNL     1     -43.858  40.073  28.448  1.00  0.00     0.152 A 
ATOM     37  C   UNL     1     -44.507  41.025  26.507  1.00  0.00     0.072 A 
ATOM     38  H   UNL     1     -46.129  39.531  26.165  1.00  0.00     0.084 H 
ATOM     39  C   UNL     1     -43.583  41.125  27.575  1.00  0.00     0.080 A 
ATOM     40  N   UNL     1     -43.199  39.837  29.601  1.00  0.00    -0.218 NA
ATOM     41  Cl  UNL     1     -44.620  42.072  25.172  1.00  0.00    -0.082 Cl
ATOM     42  C   UNL     1     -42.531  41.985  27.925  1.00  0.00     0.137 A 
ATOM     43  C   UNL     1     -42.223  40.725  29.833  1.00  0.00     0.120 A 
ATOM     44  N   UNL     1     -41.863  41.771  29.072  1.00  0.00    -0.219 NA
ATOM     45  H   UNL     1     -41.652  40.584  30.746  1.00  0.00     0.106 H 
BRANCH  42  46
ATOM     46  N   UNL     1     -42.128  43.069  27.162  1.00  0.00    -0.383 N 
ATOM     47  H   UNL     1     -42.577  43.951  27.364  1.00  0.00     0.158 HD
ATOM     48  H   UNL     1     -41.128  43.077  27.009  1.00  0.00     0.158 HD
ENDBRANCH  42  46
ENDBRANCH  29  34
ENDBRANCH   1  26
TORSDOF 7
ENDMDL
MODEL 2
REMARK VINA RESULT:     -10.1      1.497      2.260
REMARK SMILES CNc1ccc2ccc(OCc3cc(-n4cc(Cl)c5c(N)ncnc54)ncn3)cc2n1
REMARK SMILES IDX 11 1 10 4 9 5 3 6 4 7 31 8 5 9 30 11 6 12 29 14 7 15 8 17
REMARK SMILES IDX 2 20 1 22 12 26 13 27 28 28 14 29 27 31 26 32 15 34 16 35
REMARK SMILES IDX 25 36 17 37 19 39 24 40 18 41 20 42 23 43 22 44 21 46
REMARK H PARENT 11 2 11 3 4 10 5 13 29 16 7 18 8 19 2 21 1 23 1 24 1 25 13 30
REMARK H PARENT 27 33 16 38 23 45 21 47 21 48
REMARK Flexibility Score: inf
ROOT
ATOM      1  C   UNL     1     -46.060  34.419  27.709  1.00  0.00     0.130 C 
ATOM      2  H   UNL     1     -45.423  34.496  26.818  1.00  0.00     0.078 H 
ATOM      3  H   UNL     1     -45.664  33.574  28.286  1.00  0.00     0.078 H 
ENDROOT
BRANCH   1   4
ATOM      4  O   UNL     1     -47.387  34.157  27.242  1.00  0.00    -0.487 OA
BRANCH   4   5
ATOM      5  C   UNL     1     -47.555  33.275  26.210  1.00  0.00     0.122 A 
ATOM      6  C   UNL     1     -49.971  30.169  23.541  1.00  0.00     0.126 A 
ATOM      7  C   UNL     1     -48.894  29.974  22.689  1.00  0.00    -0.019 A 
ATOM      8  N   UNL     1     -49.919  31.014  24.588  1.00  0.00    -0.231 NA
ATOM      9  C   UNL     1     -47.710  30.661  22.933  1.00  0.00    -0.049 A 
ATOM     10  H   UNL     1     -48.976  29.315  21.833  1.00  0.00     0.066 H 
ATOM     11  C   UNL     1     -48.777  31.685  24.829  1.00  0.00     0.076 A 
ATOM     12  C   UNL     1     -47.633  31.535  24.020  1.00  0.00     0.001 A 
ATOM     13  H   UNL     1     -46.863  30.518  22.269  1.00  0.00     0.063 H 
ATOM     14  C   UNL     1     -48.714  32.556  25.911  1.00  0.00     0.007 A 
ATOM     15  C   UNL     1     -46.464  32.254  24.309  1.00  0.00    -0.049 A 
ATOM     16  H   UNL     1     -49.617  32.656  26.508  1.00  0.00     0.069 H 
ATOM     17  C   UNL     1     -46.430  33.118  25.401  1.00  0.00    -0.019 A 
ATOM     18  H   UNL     1     -45.578  32.147  23.688  1.00  0.00     0.063 H 
ATOM     19  H   UNL     1     -45.522  33.674  25.621  1.00  0.00     0.066 H 
BRANCH   6  20
ATOM     20  N   UNL     1     -51.195  29.526  23.351  1.00  0.00    -0.373 N 
ATOM     21  H   UNL     1     -51.148  29.199  22.386  1.00  0.00     0.161 HD
BRANCH  20  22
ATOM     22  C   UNL     1     -52.351  30.382  23.560  1.00  0.00     0.005 C 
ATOM     23  H   UNL     1     -52.306  31.283  22.938  1.00  0.00     0.045 H 
ATOM     24  H   UNL     1     -53.288  29.850  23.361  1.00  0.00     0.045 H 
ATOM     25  H   UNL     1     -52.369  30.708  24.605  1.00  0.00     0.045 H 
ENDBRANCH  20  22
ENDBRANCH   6  20
ENDBRANCH   4   5
ENDBRANCH   1   4
BRANCH   1  26
ATOM     26  C   UNL     1     -45.944  35.727  28.461  1.00  0.00     0.083 A 
ATOM     27  C   UNL     1     -45.402  36.847  27.847  1.00  0.00     0.007 A 
ATOM     28  N   UNL     1     -46.370  35.742  29.742  1.00  0.00    -0.238 NA
ATOM     29  C   UNL     1     -45.332  38.001  28.601  1.00  0.00     0.142 A 
ATOM     30  H   UNL     1     -45.078  36.776  26.818  1.00  0.00     0.068 H 
ATOM     31  C   UNL     1     -46.266  36.908  30.388  1.00  0.00     0.118 A 
ATOM     32  N   UNL     1     -45.766  38.042  29.884  1.00  0.00    -0.219 NA
ATOM     33  H   UNL     1     -46.618  36.936  31.414  1.00  0.00     0.106 H 
BRANCH  29  34
ATOM     34  N   UNL     1     -44.798  39.221  28.066  1.00  0.00    -0.284 N 
ATOM     35  C   UNL     1     -45.258  39.795  26.892  1.00  0.00     0.032 A 
ATOM     36  C   UNL     1     -43.787  40.038  28.566  1.00  0.00     0.152 A 
ATOM     37  C   UNL     1     -44.546  40.941  26.642  1.00  0.00     0.072 A 
ATOM     38  H   UNL     1     -46.057  39.328  26.329  1.00  0.00     0.084 H 
ATOM     39  C   UNL     1     -43.610  41.109  27.690  1.00  0.00     0.080 A 
ATOM     40  N   UNL     1     -43.088  39.851  29.705  1.00  0.00    -0.218 NA
ATOM     41  Cl  UNL     1     -44.765  41.978  25.313  1.00  0.00    -0.082 Cl
ATOM     42  C   UNL     1     -42.619  42.046  28.021  1.00  0.00     0.137 A 
ATOM     43  C   UNL     1     -42.177  40.811  29.919  1.00  0.00     0.120 A 
ATOM     44  N   UNL     1     -41.914  41.882  29.154  1.00  0.00    -0.219 NA
ATOM     45  H   UNL     1     -41.579  40.711  30.820  1.00  0.00     0.106 H 
BRANCH  42  46
ATOM     46  N   UNL     1     -42.316  43.158  27.253  1.00  0.00    -0.383 N 
ATOM     47  H   UNL     1     -41.786  42.989  26.410  1.00  0.00     0.158 HD
ATOM     48  H   UNL     1     -43.092  43.806  27.196  1.00  0.00     0.158 HD
ENDBRANCH  42  46
ENDBRANCH  29  34
ENDBRANCH   1  26
TORSDOF 7
ENDMDL
MODEL 3
REMARK VINA RESULT:     -10.0      2.866     10.433
REMARK SMILES CNc1ccc2ccc(OCc3cc(-n4cc(Cl)c5c(N)ncnc54)ncn3)cc2n1
REMARK SMILES IDX 11 1 10 4 9 5 3 6 4 7 31 8 5 9 30 11 6 12 29 14 7 15 8 17
REMARK SMILES IDX 2 20 1 22 12 26 13 27 28 28 14 29 27 31 26 32 15 34 16 35
REMARK SMILES IDX 25 36 17 37 19 39 24 40 18 41 20 42 23 43 22 44 21 46
REMARK H PARENT 11 2 11 3 4 10 5 13 29 16 7 18 8 19 2 21 1 23 1 24 1 25 13 30
REMARK H PARENT 27 33 16 38 23 45 21 47 21 48
REMARK Flexibility Score: inf
ROOT
ATOM      1  C   UNL     1     -46.634  36.895  26.864  1.00  0.00     0.130 C 
ATOM      2  H   UNL     1     -45.752  37.254  26.319  1.00  0.00     0.078 H 
ATOM      3  H   UNL     1     -47.501  37.206  26.268  1.00  0.00     0.078 H 
ENDROOT
BRANCH   1   4
ATOM      4  O   UNL     1     -46.617  37.542  28.140  1.00  0.00    -0.487 OA
BRANCH   4   5
ATOM      5  C   UNL     1     -45.553  38.345  28.452  1.00  0.00     0.122 A 
ATOM      6  C   UNL     1     -42.512  41.935  27.766  1.00  0.00     0.126 A 
ATOM      7  C   UNL     1     -41.840  41.669  28.950  1.00  0.00    -0.019 A 
ATOM      8  N   UNL     1     -43.573  41.211  27.361  1.00  0.00    -0.231 NA
ATOM      9  C   UNL     1     -42.262  40.605  29.739  1.00  0.00    -0.049 A 
ATOM     10  H   UNL     1     -41.012  42.290  29.270  1.00  0.00     0.066 H 
ATOM     11  C   UNL     1     -43.989  40.181  28.121  1.00  0.00     0.076 A 
ATOM     12  C   UNL     1     -43.354  39.835  29.330  1.00  0.00     0.001 A 
ATOM     13  H   UNL     1     -41.744  40.391  30.670  1.00  0.00     0.063 H 
ATOM     14  C   UNL     1     -45.081  39.426  27.706  1.00  0.00     0.007 A 
ATOM     15  C   UNL     1     -43.822  38.753  30.090  1.00  0.00    -0.049 A 
ATOM     16  H   UNL     1     -45.553  39.725  26.774  1.00  0.00     0.069 H 
ATOM     17  C   UNL     1     -44.917  38.014  29.648  1.00  0.00    -0.019 A 
ATOM     18  H   UNL     1     -43.341  38.481  31.026  1.00  0.00     0.063 H 
ATOM     19  H   UNL     1     -45.277  37.176  30.240  1.00  0.00     0.066 H 
BRANCH   6  20
ATOM     20  N   UNL     1     -42.155  42.994  26.930  1.00  0.00    -0.373 N 
ATOM     21  H   UNL     1     -41.520  43.549  27.504  1.00  0.00     0.161 HD
BRANCH  20  22
ATOM     22  C   UNL     1     -43.281  43.790  26.471  1.00  0.00     0.005 C 
ATOM     23  H   UNL     1     -43.802  43.311  25.635  1.00  0.00     0.045 H 
ATOM     24  H   UNL     1     -43.994  43.984  27.280  1.00  0.00     0.045 H 
ATOM     25  H   UNL     1     -42.912  44.756  26.113  1.00  0.00     0.045 H 
ENDBRANCH  20  22
ENDBRANCH   6  20
ENDBRANCH   4   5
ENDBRANCH   1   4
BRANCH   1  26
ATOM     26  C   UNL     1     -46.521  35.389  26.963  1.00  0.00     0.083 A 
ATOM     27  C   UNL     1     -46.726  34.592  25.846  1.00  0.00     0.007 A 
ATOM     28  N   UNL     1     -46.234  34.870  28.176  1.00  0.00    -0.238 NA
ATOM     29  C   UNL     1     -46.605  33.228  26.019  1.00  0.00     0.142 A 
ATOM     30  H   UNL     1     -46.953  35.063  24.900  1.00  0.00     0.068 H 
ATOM     31  C   UNL     1     -46.131  33.539  28.242  1.00  0.00     0.118 A 
ATOM     32  N   UNL     1     -46.304  32.687  27.225  1.00  0.00    -0.219 NA
ATOM     33  H   UNL     1     -45.887  33.111  29.209  1.00  0.00     0.106 H 
BRANCH  29  34
ATOM     34  N   UNL     1     -46.787  32.310  24.933  1.00  0.00    -0.284 N 
ATOM     35  C   UNL     1     -46.043  32.365  23.765  1.00  0.00     0.032 A 
ATOM     36  C   UNL     1     -47.673  31.241  24.817  1.00  0.00     0.152 A 
ATOM     37  C   UNL     1     -46.457  31.367  22.920  1.00  0.00     0.072 A 
ATOM     38  H   UNL     1     -45.281  33.123  23.635  1.00  0.00     0.084 H 
ATOM     39  C   UNL     1     -47.488  30.647  23.569  1.00  0.00     0.080 A 
ATOM     40  N   UNL     1     -48.561  30.826  25.744  1.00  0.00    -0.218 NA
ATOM     41  Cl  UNL     1     -45.827  31.048  21.373  1.00  0.00    -0.082 Cl
ATOM     42  C   UNL     1     -48.303  29.547  23.260  1.00  0.00     0.137 A 
ATOM     43  C   UNL     1     -49.277  29.767  25.340  1.00  0.00     0.120 A 
ATOM     44  N   UNL     1     -49.193  29.114  24.170  1.00  0.00    -0.219 NA
ATOM     45  H   UNL     1     -50.014  29.391  26.042  1.00  0.00     0.106 H 
BRANCH  42  46
ATOM     46  N   UNL     1     -48.250  28.854  22.062  1.00  0.00    -0.383 N 
ATOM     47  H   UNL     1     -48.661  27.931  22.059  1.00  0.00     0.158 HD
ATOM     48  H   UNL     1     -48.437  29.451  21.266  1.00  0.00     0.158 HD
ENDBRANCH  42  46
ENDBRANCH  29  34
ENDBRANCH   1  26
TORSDOF 7
ENDMDL
MODEL 4
REMARK VINA RESULT:      -9.8      2.871     10.237
REMARK SMILES CNc1ccc2ccc(OCc3cc(-n4cc(Cl)c5c(N)ncnc54)ncn3)cc2n1
REMARK SMILES IDX 11 1 10 4 9 5 3 6 4 7 31 8 5 9 30 11 6 12 29 14 7 15 8 17
REMARK SMILES IDX 2 20 1 22 12 26 13 27 28 28 14 29 27 31 26 32 15 34 16 35
REMARK SMILES IDX 25 36 17 37 19 39 24 40 18 41 20 42 23 43 22 44 21 46
REMARK H PARENT 11 2 11 3 4 10 5 13 29 16 7 18 8 19 2 21 1 23 1 24 1 25 13 30
REMARK H PARENT 27 33 16 38 23 45 21 47 21 48
REMARK Flexibility Score: inf
ROOT
ATOM      1  C   UNL     1     -47.467  36.587  27.783  1.00  0.00     0.130 C 
ATOM      2  H   UNL     1     -48.525  36.758  27.546  1.00  0.00     0.078 H 
ATOM      3  H   UNL     1     -47.355  36.840  28.845  1.00  0.00     0.078 H 
ENDROOT
BRANCH   1   4
ATOM      4  O   UNL     1     -46.712  37.475  26.952  1.00  0.00    -0.487 OA
BRANCH   4   5
ATOM      5  C   UNL     1     -45.742  38.247  27.531  1.00  0.00     0.122 A 
ATOM      6  C   UNL     1     -42.753  41.935  27.797  1.00  0.00     0.126 A 
ATOM      7  C   UNL     1     -42.276  41.534  29.035  1.00  0.00    -0.019 A 
ATOM      8  N   UNL     1     -43.708  41.252  27.136  1.00  0.00    -0.231 NA
ATOM      9  C   UNL     1     -42.786  40.375  29.610  1.00  0.00    -0.049 A 
ATOM     10  H   UNL     1     -41.533  42.122  29.561  1.00  0.00     0.066 H 
ATOM     11  C   UNL     1     -44.208  40.131  27.688  1.00  0.00     0.076 A 
ATOM     12  C   UNL     1     -43.769  39.647  28.936  1.00  0.00     0.001 A 
ATOM     13  H   UNL     1     -42.421  40.055  30.582  1.00  0.00     0.063 H 
ATOM     14  C   UNL     1     -45.191  39.418  27.008  1.00  0.00     0.007 A 
ATOM     15  C   UNL     1     -44.319  38.473  29.472  1.00  0.00    -0.049 A 
ATOM     16  H   UNL     1     -45.513  39.824  26.054  1.00  0.00     0.069 H 
ATOM     17  C   UNL     1     -45.300  37.780  28.768  1.00  0.00    -0.019 A 
ATOM     18  H   UNL     1     -43.988  38.095  30.436  1.00  0.00     0.063 H 
ATOM     19  H   UNL     1     -45.724  36.870  29.187  1.00  0.00     0.066 H 
BRANCH   6  20
ATOM     20  N   UNL     1     -42.300  43.094  27.165  1.00  0.00    -0.373 N 
ATOM     21  H   UNL     1     -43.078  43.745  27.270  1.00  0.00     0.161 HD
BRANCH  20  22
ATOM     22  C   UNL     1     -41.955  42.908  25.765  1.00  0.00     0.005 C 
ATOM     23  H   UNL     1     -42.091  41.868  25.449  1.00  0.00     0.045 H 
ATOM     24  H   UNL     1     -42.543  43.564  25.115  1.00  0.00     0.045 H 
ATOM     25  H   UNL     1     -40.899  43.155  25.622  1.00  0.00     0.045 H 
ENDBRANCH  20  22
ENDBRANCH   6  20
ENDBRANCH   4   5
ENDBRANCH   1   4
BRANCH   1  26
ATOM     26  C   UNL     1     -47.174  35.127  27.510  1.00  0.00     0.083 A 
ATOM     27  C   UNL     1     -47.802  34.467  26.464  1.00  0.00     0.007 A 
ATOM     28  N   UNL     1     -46.301  34.510  28.334  1.00  0.00    -0.238 NA
ATOM     29  C   UNL     1     -47.481  33.137  26.282  1.00  0.00     0.142 A 
ATOM     30  H   UNL     1     -48.492  35.013  25.837  1.00  0.00     0.068 H 
ATOM     31  C   UNL     1     -46.050  33.222  28.073  1.00  0.00     0.118 A 
ATOM     32  N   UNL     1     -46.597  32.500  27.089  1.00  0.00    -0.219 NA
ATOM     33  H   UNL     1     -45.339  32.718  28.719  1.00  0.00     0.106 H 
BRANCH  29  34
ATOM     34  N   UNL     1     -48.062  32.357  25.228  1.00  0.00    -0.284 N 
ATOM     35  C   UNL     1     -49.425  32.127  25.123  1.00  0.00     0.032 A 
ATOM     36  C   UNL     1     -47.444  31.716  24.157  1.00  0.00     0.152 A 
ATOM     37  C   UNL     1     -49.666  31.344  24.023  1.00  0.00     0.072 A 
ATOM     38  H   UNL     1     -50.109  32.540  25.853  1.00  0.00     0.084 H 
ATOM     39  C   UNL     1     -48.423  31.073  23.401  1.00  0.00     0.080 A 
ATOM     40  N   UNL     1     -46.125  31.709  23.875  1.00  0.00    -0.218 NA
ATOM     41  Cl  UNL     1     -51.192  30.809  23.497  1.00  0.00    -0.082 Cl
ATOM     42  C   UNL     1     -47.991  30.357  22.274  1.00  0.00     0.137 A 
ATOM     43  C   UNL     1     -45.832  31.000  22.775  1.00  0.00     0.120 A 
ATOM     44  N   UNL     1     -46.681  30.340  21.971  1.00  0.00    -0.219 NA
ATOM     45  H   UNL     1     -44.783  30.954  22.500  1.00  0.00     0.106 H 
BRANCH  42  46
ATOM     46  N   UNL     1     -48.836  29.659  21.427  1.00  0.00    -0.383 N 
ATOM     47  H   UNL     1     -48.402  28.968  20.831  1.00  0.00     0.158 HD
ATOM     48  H   UNL     1     -49.706  29.408  21.878  1.00  0.00     0.158 HD
ENDBRANCH  42  46
ENDBRANCH  29  34
ENDBRANCH   1  26
TORSDOF 7
ENDMDL
MODEL 5
REMARK VINA RESULT:      -9.8      2.145      3.006
REMARK SMILES CNc1ccc2ccc(OCc3cc(-n4cc(Cl)c5c(N)ncnc54)ncn3)cc2n1
REMARK SMILES IDX 11 1 10 4 9 5 3 6 4 7 31 8 5 9 30 11 6 12 29 14 7 15 8 17
REMARK SMILES IDX 2 20 1 22 12 26 13 27 28 28 14 29 27 31 26 32 15 34 16 35
REMARK SMILES IDX 25 36 17 37 19 39 24 40 18 41 20 42 23 43 22 44 21 46
REMARK H PARENT 11 2 11 3 4 10 5 13 29 16 7 18 8 19 2 21 1 23 1 24 1 25 13 30
REMARK H PARENT 27 33 16 38 23 45 21 47 21 48
REMARK Flexibility Score: inf
ROOT
ATOM      1  C   UNL     1     -47.016  35.857  28.113  1.00  0.00     0.130 C 
ATOM      2  H   UNL     1     -46.114  35.505  27.595  1.00  0.00     0.078 H 
ATOM      3  H   UNL     1     -46.926  35.498  29.145  1.00  0.00     0.078 H 
ENDROOT
BRANCH   1   4
ATOM      4  O   UNL     1     -48.130  35.257  27.445  1.00  0.00    -0.487 OA
BRANCH   4   5
ATOM      5  C   UNL     1     -47.892  34.244  26.556  1.00  0.00     0.122 A 
ATOM      6  C   UNL     1     -48.964  30.306  24.117  1.00  0.00     0.126 A 
ATOM      7  C   UNL     1     -47.740  30.305  23.466  1.00  0.00    -0.019 A 
ATOM      8  N   UNL     1     -49.306  31.254  25.010  1.00  0.00    -0.231 NA
ATOM      9  C   UNL     1     -46.823  31.309  23.757  1.00  0.00    -0.049 A 
ATOM     10  H   UNL     1     -47.506  29.550  22.725  1.00  0.00     0.066 H 
ATOM     11  C   UNL     1     -48.424  32.230  25.295  1.00  0.00     0.076 A 
ATOM     12  C   UNL     1     -47.155  32.296  24.688  1.00  0.00     0.001 A 
ATOM     13  H   UNL     1     -45.863  31.319  23.249  1.00  0.00     0.063 H 
ATOM     14  C   UNL     1     -48.769  33.211  26.220  1.00  0.00     0.007 A 
ATOM     15  C   UNL     1     -46.267  33.331  25.016  1.00  0.00    -0.049 A 
ATOM     16  H   UNL     1     -49.758  33.135  26.661  1.00  0.00     0.069 H 
ATOM     17  C   UNL     1     -46.639  34.298  25.948  1.00  0.00    -0.019 A 
ATOM     18  H   UNL     1     -45.287  33.392  24.550  1.00  0.00     0.063 H 
ATOM     19  H   UNL     1     -45.948  35.099  26.199  1.00  0.00     0.066 H 
BRANCH   6  20
ATOM     20  N   UNL     1     -49.940  29.340  23.866  1.00  0.00    -0.373 N 
ATOM     21  H   UNL     1     -50.684  29.573  24.525  1.00  0.00     0.161 HD
BRANCH  20  22
ATOM     22  C   UNL     1     -49.482  27.973  24.052  1.00  0.00     0.005 C 
ATOM     23  H   UNL     1     -50.195  27.383  24.638  1.00  0.00     0.045 H 
ATOM     24  H   UNL     1     -49.299  27.476  23.094  1.00  0.00     0.045 H 
ATOM     25  H   UNL     1     -48.539  27.986  24.607  1.00  0.00     0.045 H 
ENDBRANCH  20  22
ENDBRANCH   6  20
ENDBRANCH   4   5
ENDBRANCH   1   4
BRANCH   1  26
ATOM     26  C   UNL     1     -47.021  37.368  28.032  1.00  0.00     0.083 A 
ATOM     27  C   UNL     1     -45.833  38.070  27.887  1.00  0.00     0.007 A 
ATOM     28  N   UNL     1     -48.218  37.986  28.125  1.00  0.00    -0.238 NA
ATOM     29  C   UNL     1     -45.924  39.446  27.822  1.00  0.00     0.142 A 
ATOM     30  H   UNL     1     -44.905  37.522  27.817  1.00  0.00     0.068 H 
ATOM     31  C   UNL     1     -48.203  39.321  28.046  1.00  0.00     0.118 A 
ATOM     32  N   UNL     1     -47.115  40.087  27.901  1.00  0.00    -0.219 NA
ATOM     33  H   UNL     1     -49.160  39.829  28.106  1.00  0.00     0.106 H 
BRANCH  29  34
ATOM     34  N   UNL     1     -44.762  40.272  27.665  1.00  0.00    -0.284 N 
ATOM     35  C   UNL     1     -43.704  40.266  28.560  1.00  0.00     0.032 A 
ATOM     36  C   UNL     1     -44.455  41.186  26.659  1.00  0.00     0.152 A 
ATOM     37  C   UNL     1     -42.756  41.165  28.144  1.00  0.00     0.072 A 
ATOM     38  H   UNL     1     -43.724  39.619  29.428  1.00  0.00     0.084 H 
ATOM     39  C   UNL     1     -43.216  41.757  26.943  1.00  0.00     0.080 A 
ATOM     40  N   UNL     1     -45.210  41.479  25.579  1.00  0.00    -0.218 NA
ATOM     41  Cl  UNL     1     -41.284  41.495  28.929  1.00  0.00    -0.082 Cl
ATOM     42  C   UNL     1     -42.735  42.719  26.040  1.00  0.00     0.137 A 
ATOM     43  C   UNL     1     -44.647  42.403  24.788  1.00  0.00     0.120 A 
ATOM     44  N   UNL     1     -43.469  43.023  24.955  1.00  0.00    -0.219 NA
ATOM     45  H   UNL     1     -45.211  42.685  23.904  1.00  0.00     0.106 H 
BRANCH  42  46
ATOM     46  N   UNL     1     -41.528  43.383  26.184  1.00  0.00    -0.383 N 
ATOM     47  H   UNL     1     -40.866  43.278  25.428  1.00  0.00     0.158 HD
ATOM     48  H   UNL     1     -41.647  44.308  26.578  1.00  0.00     0.158 HD
ENDBRANCH  42  46
ENDBRANCH  29  34
ENDBRANCH   1  26
TORSDOF 7
ENDMDL
MODEL 6
REMARK VINA RESULT:      -9.7      1.968      2.744
REMARK SMILES CNc1ccc2ccc(OCc3cc(-n4cc(Cl)c5c(N)ncnc54)ncn3)cc2n1
REMARK SMILES IDX 11 1 10 4 9 5 3 6 4 7 31 8 5 9 30 11 6 12 29 14 7 15 8 17
REMARK SMILES IDX 2 20 1 22 12 26 13 27 28 28 14 29 27 31 26 32 15 34 16 35
REMARK SMILES IDX 25 36 17 37 19 39 24 40 18 41 20 42 23 43 22 44 21 46
REMARK H PARENT 11 2 11 3 4 10 5 13 29 16 7 18 8 19 2 21 1 23 1 24 1 25 13 30
REMARK H PARENT 27 33 16 38 23 45 21 47 21 48
REMARK Flexibility Score: inf
ROOT
ATOM      1  C   UNL     1     -48.104  37.593  27.810  1.00  0.00     0.130 C 
ATOM      2  H   UNL     1     -48.101  37.467  28.900  1.00  0.00     0.078 H 
ATOM      3  H   UNL     1     -49.082  37.228  27.470  1.00  0.00     0.078 H 
ENDROOT
BRANCH   1   4
ATOM      4  O   UNL     1     -47.038  36.784  27.302  1.00  0.00    -0.487 OA
BRANCH   4   5
ATOM      5  C   UNL     1     -47.346  35.579  26.731  1.00  0.00     0.122 A 
ATOM      6  C   UNL     1     -46.485  31.693  24.131  1.00  0.00     0.126 A 
ATOM      7  C   UNL     1     -47.749  31.177  24.377  1.00  0.00    -0.019 A 
ATOM      8  N   UNL     1     -46.074  32.869  24.642  1.00  0.00    -0.231 NA
ATOM      9  C   UNL     1     -48.632  31.907  25.164  1.00  0.00    -0.049 A 
ATOM     10  H   UNL     1     -48.040  30.211  23.983  1.00  0.00     0.066 H 
ATOM     11  C   UNL     1     -46.923  33.580  25.407  1.00  0.00     0.076 A 
ATOM     12  C   UNL     1     -48.228  33.134  25.695  1.00  0.00     0.001 A 
ATOM     13  H   UNL     1     -49.623  31.509  25.366  1.00  0.00     0.063 H 
ATOM     14  C   UNL     1     -46.507  34.798  25.935  1.00  0.00     0.007 A 
ATOM     15  C   UNL     1     -49.079  33.909  26.497  1.00  0.00    -0.049 A 
ATOM     16  H   UNL     1     -45.492  35.107  25.701  1.00  0.00     0.069 H 
ATOM     17  C   UNL     1     -48.635  35.126  27.009  1.00  0.00    -0.019 A 
ATOM     18  H   UNL     1     -50.086  33.571  26.727  1.00  0.00     0.063 H 
ATOM     19  H   UNL     1     -49.298  35.723  27.632  1.00  0.00     0.066 H 
BRANCH   6  20
ATOM     20  N   UNL     1     -45.540  31.011  23.363  1.00  0.00    -0.373 N 
ATOM     21  H   UNL     1     -44.855  31.730  23.130  1.00  0.00     0.161 HD
BRANCH  20  22
ATOM     22  C   UNL     1     -46.085  30.397  22.163  1.00  0.00     0.005 C 
ATOM     23  H   UNL     1     -46.194  31.123  21.350  1.00  0.00     0.045 H 
ATOM     24  H   UNL     1     -45.466  29.560  21.822  1.00  0.00     0.045 H 
ATOM     25  H   UNL     1     -47.082  30.005  22.385  1.00  0.00     0.045 H 
ENDBRANCH  20  22
ENDBRANCH   6  20
ENDBRANCH   4   5
ENDBRANCH   1   4
BRANCH   1  26
ATOM     26  C   UNL     1     -47.916  39.067  27.525  1.00  0.00     0.083 A 
ATOM     27  C   UNL     1     -46.694  39.548  27.078  1.00  0.00     0.007 A 
ATOM     28  N   UNL     1     -48.974  39.877  27.744  1.00  0.00    -0.238 NA
ATOM     29  C   UNL     1     -46.604  40.905  26.842  1.00  0.00     0.142 A 
ATOM     30  H   UNL     1     -45.882  38.852  26.920  1.00  0.00     0.068 H 
ATOM     31  C   UNL     1     -48.790  41.176  27.481  1.00  0.00     0.118 A 
ATOM     32  N   UNL     1     -47.656  41.735  27.042  1.00  0.00    -0.219 NA
ATOM     33  H   UNL     1     -49.637  41.835  27.639  1.00  0.00     0.106 H 
BRANCH  29  34
ATOM     34  N   UNL     1     -45.392  41.510  26.370  1.00  0.00    -0.284 N 
ATOM     35  C   UNL     1     -45.318  42.226  25.185  1.00  0.00     0.032 A 
ATOM     36  C   UNL     1     -44.125  41.521  26.948  1.00  0.00     0.152 A 
ATOM     37  C   UNL     1     -44.032  42.667  25.005  1.00  0.00     0.072 A 
ATOM     38  H   UNL     1     -46.197  42.354  24.565  1.00  0.00     0.084 H 
ATOM     39  C   UNL     1     -43.263  42.229  26.110  1.00  0.00     0.080 A 
ATOM     40  N   UNL     1     -43.768  40.957  28.120  1.00  0.00    -0.218 NA
ATOM     41  Cl  UNL     1     -43.470  43.590  23.692  1.00  0.00    -0.082 Cl
ATOM     42  C   UNL     1     -41.926  42.343  26.521  1.00  0.00     0.137 A 
ATOM     43  C   UNL     1     -42.472  41.136  28.410  1.00  0.00     0.120 A 
ATOM     44  N   UNL     1     -41.550  41.792  27.689  1.00  0.00    -0.219 NA
ATOM     45  H   UNL     1     -42.125  40.699  29.341  1.00  0.00     0.106 H 
BRANCH  42  46
ATOM     46  N   UNL     1     -40.946  43.005  25.800  1.00  0.00    -0.383 N 
ATOM     47  H   UNL     1     -40.086  42.499  25.643  1.00  0.00     0.158 HD
ATOM     48  H   UNL     1     -41.331  43.525  25.021  1.00  0.00     0.158 HD
ENDBRANCH  42  46
ENDBRANCH  29  34
ENDBRANCH   1  26
TORSDOF 7
ENDMDL
MODEL 7
REMARK VINA RESULT:      -9.5      2.305      3.072
REMARK SMILES CNc1ccc2ccc(OCc3cc(-n4cc(Cl)c5c(N)ncnc54)ncn3)cc2n1
REMARK SMILES IDX 11 1 10 4 9 5 3 6 4 7 31 8 5 9 30 11 6 12 29 14 7 15 8 17
REMARK SMILES IDX 2 20 1 22 12 26 13 27 28 28 14 29 27 31 26 32 15 34 16 35
REMARK SMILES IDX 25 36 17 37 19 39 24 40 18 41 20 42 23 43 22 44 21 46
REMARK H PARENT 11 2 11 3 4 10 5 13 29 16 7 18 8 19 2 21 1 23 1 24 1 25 13 30
REMARK H PARENT 27 33 16 38 23 45 21 47 21 48
REMARK Flexibility Score: inf
ROOT
ATOM      1  C   UNL     1     -48.874  34.069  26.575  1.00  0.00     0.130 C 
ATOM      2  H   UNL     1     -49.038  33.405  27.433  1.00  0.00     0.078 H 
ATOM      3  H   UNL     1     -49.709  33.882  25.889  1.00  0.00     0.078 H 
ENDROOT
BRANCH   1   4
ATOM      4  O   UNL     1     -47.623  33.686  25.995  1.00  0.00    -0.487 OA
BRANCH   4   5
ATOM      5  C   UNL     1     -47.542  32.480  25.354  1.00  0.00     0.122 A 
ATOM      6  C   UNL     1     -48.837  28.005  24.402  1.00  0.00     0.126 A 
ATOM      7  C   UNL     1     -47.859  27.866  23.430  1.00  0.00    -0.019 A 
ATOM      8  N   UNL     1     -49.009  29.147  25.096  1.00  0.00    -0.231 NA
ATOM      9  C   UNL     1     -47.010  28.937  23.171  1.00  0.00    -0.049 A 
ATOM     10  H   UNL     1     -47.766  26.948  22.861  1.00  0.00     0.066 H 
ATOM     11  C   UNL     1     -48.193  30.189  24.849  1.00  0.00     0.076 A 
ATOM     12  C   UNL     1     -47.166  30.127  23.887  1.00  0.00     0.001 A 
ATOM     13  H   UNL     1     -46.243  28.840  22.408  1.00  0.00     0.063 H 
ATOM     14  C   UNL     1     -48.362  31.369  25.565  1.00  0.00     0.007 A 
ATOM     15  C   UNL     1     -46.339  31.237  23.664  1.00  0.00    -0.049 A 
ATOM     16  H   UNL     1     -49.169  31.386  26.292  1.00  0.00     0.069 H 
ATOM     17  C   UNL     1     -46.530  32.406  24.398  1.00  0.00    -0.019 A 
ATOM     18  H   UNL     1     -45.546  31.200  22.922  1.00  0.00     0.063 H 
ATOM     19  H   UNL     1     -45.887  33.265  24.221  1.00  0.00     0.066 H 
BRANCH   6  20
ATOM     20  N   UNL     1     -49.734  26.979  24.706  1.00  0.00    -0.373 N 
ATOM     21  H   UNL     1     -50.566  27.475  25.027  1.00  0.00     0.161 HD
BRANCH  20  22
ATOM     22  C   UNL     1     -49.252  26.052  25.717  1.00  0.00     0.005 C 
ATOM     23  H   UNL     1     -48.486  25.379  25.317  1.00  0.00     0.045 H 
ATOM     24  H   UNL     1     -48.852  26.580  26.589  1.00  0.00     0.045 H 
ATOM     25  H   UNL     1     -50.086  25.431  26.057  1.00  0.00     0.045 H 
ENDBRANCH  20  22
ENDBRANCH   6  20
ENDBRANCH   4   5
ENDBRANCH   1   4
BRANCH   1  26
ATOM     26  C   UNL     1     -48.873  35.489  27.098  1.00  0.00     0.083 A 
ATOM     27  C   UNL     1     -47.707  36.240  27.096  1.00  0.00     0.007 A 
ATOM     28  N   UNL     1     -50.041  35.971  27.576  1.00  0.00    -0.238 NA
ATOM     29  C   UNL     1     -47.790  37.526  27.590  1.00  0.00     0.142 A 
ATOM     30  H   UNL     1     -46.802  35.803  26.700  1.00  0.00     0.068 H 
ATOM     31  C   UNL     1     -50.022  37.229  28.028  1.00  0.00     0.118 A 
ATOM     32  N   UNL     1     -48.954  38.035  28.062  1.00  0.00    -0.219 NA
ATOM     33  H   UNL     1     -50.958  37.632  28.401  1.00  0.00     0.106 H 
BRANCH  29  34
ATOM     34  N   UNL     1     -46.650  38.396  27.628  1.00  0.00    -0.284 N 
ATOM     35  C   UNL     1     -46.351  39.293  26.615  1.00  0.00     0.032 A 
ATOM     36  C   UNL     1     -45.672  38.530  28.611  1.00  0.00     0.152 A 
ATOM     37  C   UNL     1     -45.201  39.969  26.937  1.00  0.00     0.072 A 
ATOM     38  H   UNL     1     -46.987  39.367  25.742  1.00  0.00     0.084 H 
ATOM     39  C   UNL     1     -44.757  39.497  28.196  1.00  0.00     0.080 A 
ATOM     40  N   UNL     1     -45.603  37.855  29.777  1.00  0.00    -0.218 NA
ATOM     41  Cl  UNL     1     -44.455  41.170  25.993  1.00  0.00    -0.082 Cl
ATOM     42  C   UNL     1     -43.683  39.770  29.056  1.00  0.00     0.137 A 
ATOM     43  C   UNL     1     -44.541  38.203  30.517  1.00  0.00     0.120 A 
ATOM     44  N   UNL     1     -43.597  39.112  30.226  1.00  0.00    -0.219 NA
ATOM     45  H   UNL     1     -44.429  37.689  31.466  1.00  0.00     0.106 H 
BRANCH  42  46
ATOM     46  N   UNL     1     -42.688  40.694  28.787  1.00  0.00    -0.383 N 
ATOM     47  H   UNL     1     -42.773  41.203  27.917  1.00  0.00     0.158 HD
ATOM     48  H   UNL     1     -42.419  41.218  29.610  1.00  0.00     0.158 HD
ENDBRANCH  42  46
ENDBRANCH  29  34
ENDBRANCH   1  26
TORSDOF 7
ENDMDL
