MODEL 1
REMARK VINA RESULT:     -11.2      0.000      0.000
REMARK SMILES O=C(NCc1ccc2cc(CNC34CC(C3)C4)[nH]c2c1)c1cc(=O)n2ccccc2n1
REMARK SMILES IDX 5 1 6 2 7 3 8 4 9 5 10 6 18 7 19 8 20 9 4 15 3 18 1 19 2 20
REMARK SMILES IDX 21 22 22 23 31 24 23 25 30 27 24 28 25 29 29 30 26 31 28 32
REMARK SMILES IDX 27 34 11 38 12 41 13 43 14 44 16 45 17 46 15 47
REMARK H PARENT 6 10 7 11 9 12 18 13 20 14 4 16 4 17 3 21 22 26 29 33 26 35
REMARK H PARENT 28 36 27 37 11 39 11 40 12 42 14 48 14 49 16 50 16 51 17 52
REMARK H PARENT 17 53 15 54
REMARK Flexibility Score: inf
ROOT
ATOM      1  C   UNL     1     -47.913  34.773  26.503  1.00  0.00    -0.027 A 
ATOM      2  C   UNL     1     -46.682  34.755  25.834  1.00  0.00    -0.057 A 
ATOM      3  C   UNL     1     -46.280  33.641  25.086  1.00  0.00    -0.052 A 
ATOM      4  C   UNL     1     -47.125  32.518  25.013  1.00  0.00    -0.000 A 
ATOM      5  C   UNL     1     -47.038  31.253  24.369  1.00  0.00    -0.032 A 
ATOM      6  C   UNL     1     -48.181  30.538  24.669  1.00  0.00     0.030 A 
ATOM      7  N   UNL     1     -48.965  31.345  25.459  1.00  0.00    -0.357 N 
ATOM      8  C   UNL     1     -48.342  32.549  25.691  1.00  0.00     0.046 A 
ATOM      9  C   UNL     1     -48.760  33.653  26.443  1.00  0.00    -0.033 A 
ATOM     10  H   UNL     1     -46.018  35.615  25.891  1.00  0.00     0.063 H 
ATOM     11  H   UNL     1     -45.325  33.645  24.569  1.00  0.00     0.063 H 
ATOM     12  H   UNL     1     -46.219  30.904  23.754  1.00  0.00     0.065 H 
ATOM     13  H   UNL     1     -49.867  31.089  25.837  1.00  0.00     0.166 HD
ATOM     14  H   UNL     1     -49.712  33.644  26.970  1.00  0.00     0.065 H 
ENDROOT
BRANCH   1  15
ATOM     15  C   UNL     1     -48.310  35.967  27.330  1.00  0.00     0.043 C 
ATOM     16  H   UNL     1     -48.520  35.671  28.365  1.00  0.00     0.054 H 
ATOM     17  H   UNL     1     -49.227  36.426  26.941  1.00  0.00     0.054 H 
BRANCH  15  18
ATOM     18  N   UNL     1     -47.270  36.960  27.323  1.00  0.00    -0.347 N 
ATOM     19  O   UNL     1     -46.714  36.739  29.540  1.00  0.00    -0.268 OA
ATOM     20  C   UNL     1     -46.577  37.297  28.458  1.00  0.00     0.270 C 
ATOM     21  H   UNL     1     -47.129  37.546  26.506  1.00  0.00     0.164 HD
BRANCH  20  22
ATOM     22  C   UNL     1     -45.625  38.447  28.232  1.00  0.00     0.136 A 
ATOM     23  C   UNL     1     -45.814  39.167  27.124  1.00  0.00     0.035 A 
ATOM     24  N   UNL     1     -44.638  38.680  29.162  1.00  0.00    -0.225 NA
ATOM     25  C   UNL     1     -44.910  40.296  26.867  1.00  0.00     0.258 A 
ATOM     26  H   UNL     1     -46.593  38.973  26.400  1.00  0.00     0.071 H 
ATOM     27  C   UNL     1     -43.842  39.679  28.931  1.00  0.00     0.140 A 
ATOM     28  O   UNL     1     -45.077  40.965  25.849  1.00  0.00    -0.269 OA
ATOM     29  N   UNL     1     -43.925  40.510  27.819  1.00  0.00    -0.268 N 
ATOM     30  C   UNL     1     -42.758  39.970  29.912  1.00  0.00    -0.019 A 
ATOM     31  C   UNL     1     -43.031  41.561  27.645  1.00  0.00     0.014 A 
ATOM     32  C   UNL     1     -41.921  40.994  29.700  1.00  0.00    -0.057 A 
ATOM     33  H   UNL     1     -42.685  39.328  30.781  1.00  0.00     0.066 H 
ATOM     34  C   UNL     1     -42.060  41.817  28.529  1.00  0.00    -0.045 A 
ATOM     35  H   UNL     1     -43.155  42.171  26.751  1.00  0.00     0.082 H 
ATOM     36  H   UNL     1     -41.126  41.221  30.403  1.00  0.00     0.062 H 
ATOM     37  H   UNL     1     -41.368  42.640  28.382  1.00  0.00     0.064 H 
ENDBRANCH  20  22
ENDBRANCH  15  18
ENDBRANCH   1  15
BRANCH   6  38
ATOM     38  C   UNL     1     -48.615  29.173  24.265  1.00  0.00     0.036 C 
ATOM     39  H   UNL     1     -48.795  29.178  23.183  1.00  0.00     0.049 H 
ATOM     40  H   UNL     1     -49.576  28.903  24.720  1.00  0.00     0.049 H 
BRANCH  38  41
ATOM     41  N   UNL     1     -47.594  28.170  24.544  1.00  0.00    -0.306 NA
ATOM     42  H   UNL     1     -46.741  28.647  24.835  1.00  0.00     0.123 HD
BRANCH  41  43
ATOM     43  C   UNL     1     -48.026  27.168  25.438  1.00  0.00     0.019 C 
ATOM     44  C   UNL     1     -47.100  25.993  25.804  1.00  0.00    -0.032 C 
ATOM     45  C   UNL     1     -49.155  26.158  25.276  1.00  0.00    -0.032 C 
ATOM     46  C   UNL     1     -48.361  27.290  26.920  1.00  0.00    -0.032 C 
ATOM     47  C   UNL     1     -48.425  25.732  26.621  1.00  0.00    -0.036 C 
ATOM     48  H   UNL     1     -46.855  25.273  25.016  1.00  0.00     0.029 H 
ATOM     49  H   UNL     1     -46.197  26.216  26.382  1.00  0.00     0.029 H 
ATOM     50  H   UNL     1     -50.181  26.525  25.373  1.00  0.00     0.029 H 
ATOM     51  H   UNL     1     -49.096  25.455  24.439  1.00  0.00     0.029 H 
ATOM     52  H   UNL     1     -49.308  27.761  27.201  1.00  0.00     0.029 H 
ATOM     53  H   UNL     1     -47.571  27.632  27.597  1.00  0.00     0.029 H 
ATOM     54  H   UNL     1     -48.655  24.920  27.292  1.00  0.00     0.030 H 
ENDBRANCH  41  43
ENDBRANCH  38  41
ENDBRANCH   6  38
TORSDOF 6
ENDMDL
MODEL 2
REMARK VINA RESULT:     -10.1      2.189      3.458
REMARK SMILES O=C(NCc1ccc2cc(CNC34CC(C3)C4)[nH]c2c1)c1cc(=O)n2ccccc2n1
REMARK SMILES IDX 5 1 6 2 7 3 8 4 9 5 10 6 18 7 19 8 20 9 4 15 3 18 1 19 2 20
REMARK SMILES IDX 21 22 22 23 31 24 23 25 30 27 24 28 25 29 29 30 26 31 28 32
REMARK SMILES IDX 27 34 11 38 12 41 13 43 14 44 16 45 17 46 15 47
REMARK H PARENT 6 10 7 11 9 12 18 13 20 14 4 16 4 17 3 21 22 26 29 33 26 35
REMARK H PARENT 28 36 27 37 11 39 11 40 12 42 14 48 14 49 16 50 16 51 17 52
REMARK H PARENT 17 53 15 54
REMARK Flexibility Score: inf
ROOT
ATOM      1  C   UNL     1     -46.564  35.696  28.364  1.00  0.00    -0.027 A 
ATOM      2  C   UNL     1     -47.915  35.814  28.014  1.00  0.00    -0.057 A 
ATOM      3  C   UNL     1     -48.466  35.041  26.983  1.00  0.00    -0.052 A 
ATOM      4  C   UNL     1     -47.645  34.138  26.284  1.00  0.00    -0.000 A 
ATOM      5  C   UNL     1     -47.861  33.229  25.212  1.00  0.00    -0.032 A 
ATOM      6  C   UNL     1     -46.661  32.606  24.928  1.00  0.00     0.030 A 
ATOM      7  N   UNL     1     -45.731  33.100  25.812  1.00  0.00    -0.357 N 
ATOM      8  C   UNL     1     -46.302  34.040  26.639  1.00  0.00     0.046 A 
ATOM      9  C   UNL     1     -45.733  34.803  27.666  1.00  0.00    -0.033 A 
ATOM     10  H   UNL     1     -48.558  36.515  28.543  1.00  0.00     0.063 H 
ATOM     11  H   UNL     1     -49.517  35.141  26.727  1.00  0.00     0.063 H 
ATOM     12  H   UNL     1     -48.798  33.053  24.702  1.00  0.00     0.065 H 
ATOM     13  H   UNL     1     -44.758  32.830  25.843  1.00  0.00     0.166 HD
ATOM     14  H   UNL     1     -44.679  34.712  27.915  1.00  0.00     0.065 H 
ENDROOT
BRANCH   1  15
ATOM     15  C   UNL     1     -45.984  36.561  29.452  1.00  0.00     0.043 C 
ATOM     16  H   UNL     1     -45.310  35.980  30.093  1.00  0.00     0.054 H 
ATOM     17  H   UNL     1     -46.773  36.957  30.102  1.00  0.00     0.054 H 
BRANCH  15  18
ATOM     18  N   UNL     1     -45.262  37.671  28.891  1.00  0.00    -0.347 N 
ATOM     19  O   UNL     1     -44.260  38.320  30.852  1.00  0.00    -0.268 OA
ATOM     20  C   UNL     1     -44.480  38.496  29.659  1.00  0.00     0.270 C 
ATOM     21  H   UNL     1     -45.437  37.962  27.934  1.00  0.00     0.164 HD
BRANCH  20  22
ATOM     22  C   UNL     1     -43.924  39.659  28.875  1.00  0.00     0.136 A 
ATOM     23  C   UNL     1     -42.893  40.307  29.422  1.00  0.00     0.035 A 
ATOM     24  N   UNL     1     -44.502  39.979  27.668  1.00  0.00    -0.225 NA
ATOM     25  C   UNL     1     -42.321  41.445  28.692  1.00  0.00     0.258 A 
ATOM     26  H   UNL     1     -42.448  40.046  30.373  1.00  0.00     0.071 H 
ATOM     27  C   UNL     1     -43.992  40.985  27.026  1.00  0.00     0.140 A 
ATOM     28  O   UNL     1     -41.371  42.047  29.188  1.00  0.00    -0.269 OA
ATOM     29  N   UNL     1     -42.920  41.746  27.478  1.00  0.00    -0.268 N 
ATOM     30  C   UNL     1     -44.585  41.368  25.712  1.00  0.00    -0.019 A 
ATOM     31  C   UNL     1     -42.433  42.811  26.728  1.00  0.00     0.014 A 
ATOM     32  C   UNL     1     -44.082  42.402  25.027  1.00  0.00    -0.057 A 
ATOM     33  H   UNL     1     -45.421  40.781  25.352  1.00  0.00     0.066 H 
ATOM     34  C   UNL     1     -42.970  43.150  25.549  1.00  0.00    -0.045 A 
ATOM     35  H   UNL     1     -41.592  43.363  27.143  1.00  0.00     0.082 H 
ATOM     36  H   UNL     1     -44.500  42.695  24.069  1.00  0.00     0.062 H 
ATOM     37  H   UNL     1     -42.582  43.983  24.973  1.00  0.00     0.064 H 
ENDBRANCH  20  22
ENDBRANCH  15  18
ENDBRANCH   1  15
BRANCH   6  38
ATOM     38  C   UNL     1     -46.311  31.573  23.915  1.00  0.00     0.036 C 
ATOM     39  H   UNL     1     -45.220  31.451  23.915  1.00  0.00     0.049 H 
ATOM     40  H   UNL     1     -46.569  31.899  22.900  1.00  0.00     0.049 H 
BRANCH  38  41
ATOM     41  N   UNL     1     -46.906  30.279  24.227  1.00  0.00    -0.306 NA
ATOM     42  H   UNL     1     -47.135  30.257  25.220  1.00  0.00     0.123 HD
BRANCH  41  43
ATOM     43  C   UNL     1     -47.984  29.942  23.381  1.00  0.00     0.019 C 
ATOM     44  C   UNL     1     -49.079  28.971  23.857  1.00  0.00    -0.032 C 
ATOM     45  C   UNL     1     -47.966  29.189  22.057  1.00  0.00    -0.032 C 
ATOM     46  C   UNL     1     -49.093  30.839  22.844  1.00  0.00    -0.032 C 
ATOM     47  C   UNL     1     -49.507  29.374  22.392  1.00  0.00    -0.036 C 
ATOM     48  H   UNL     1     -48.798  27.925  24.019  1.00  0.00     0.029 H 
ATOM     49  H   UNL     1     -49.733  29.298  24.672  1.00  0.00     0.029 H 
ATOM     50  H   UNL     1     -47.591  29.720  21.176  1.00  0.00     0.029 H 
ATOM     51  H   UNL     1     -47.581  28.164  22.056  1.00  0.00     0.029 H 
ATOM     52  H   UNL     1     -48.852  31.537  22.037  1.00  0.00     0.029 H 
ATOM     53  H   UNL     1     -49.745  31.336  23.570  1.00  0.00     0.029 H 
ATOM     54  H   UNL     1     -50.370  29.056  21.829  1.00  0.00     0.030 H 
ENDBRANCH  41  43
ENDBRANCH  38  41
ENDBRANCH   6  38
TORSDOF 6
ENDMDL
MODEL 3
REMARK VINA RESULT:     -10.0      1.552      2.567
REMARK SMILES O=C(NCc1ccc2cc(CNC34CC(C3)C4)[nH]c2c1)c1cc(=O)n2ccccc2n1
REMARK SMILES IDX 5 1 6 2 7 3 8 4 9 5 10 6 18 7 19 8 20 9 4 15 3 18 1 19 2 20
REMARK SMILES IDX 21 22 22 23 31 24 23 25 30 27 24 28 25 29 29 30 26 31 28 32
REMARK SMILES IDX 27 34 11 38 12 41 13 43 14 44 16 45 17 46 15 47
REMARK H PARENT 6 10 7 11 9 12 18 13 20 14 4 16 4 17 3 21 22 26 29 33 26 35
REMARK H PARENT 28 36 27 37 11 39 11 40 12 42 14 48 14 49 16 50 16 51 17 52
REMARK H PARENT 17 53 15 54
REMARK Flexibility Score: inf
ROOT
ATOM      1  C   UNL     1     -47.943  34.968  26.560  1.00  0.00    -0.027 A 
ATOM      2  C   UNL     1     -46.696  34.897  25.927  1.00  0.00    -0.057 A 
ATOM      3  C   UNL     1     -46.318  33.764  25.194  1.00  0.00    -0.052 A 
ATOM      4  C   UNL     1     -47.206  32.677  25.101  1.00  0.00    -0.000 A 
ATOM      5  C   UNL     1     -47.151  31.406  24.465  1.00  0.00    -0.032 A 
ATOM      6  C   UNL     1     -48.330  30.739  24.735  1.00  0.00     0.030 A 
ATOM      7  N   UNL     1     -49.103  31.580  25.498  1.00  0.00    -0.357 N 
ATOM      8  C   UNL     1     -48.438  32.760  25.743  1.00  0.00     0.046 A 
ATOM      9  C   UNL     1     -48.834  33.883  26.480  1.00  0.00    -0.033 A 
ATOM     10  H   UNL     1     -45.999  35.730  25.999  1.00  0.00     0.063 H 
ATOM     11  H   UNL     1     -45.349  33.728  24.706  1.00  0.00     0.063 H 
ATOM     12  H   UNL     1     -46.330  31.021  23.875  1.00  0.00     0.065 H 
ATOM     13  H   UNL     1     -50.025  31.363  25.852  1.00  0.00     0.166 HD
ATOM     14  H   UNL     1     -49.799  33.915  26.979  1.00  0.00     0.065 H 
ENDROOT
BRANCH   1  15
ATOM     15  C   UNL     1     -48.316  36.181  27.371  1.00  0.00     0.043 C 
ATOM     16  H   UNL     1     -48.527  35.905  28.410  1.00  0.00     0.054 H 
ATOM     17  H   UNL     1     -49.225  36.651  26.978  1.00  0.00     0.054 H 
BRANCH  15  18
ATOM     18  N   UNL     1     -47.258  37.155  27.346  1.00  0.00    -0.347 N 
ATOM     19  O   UNL     1     -46.579  36.825  29.514  1.00  0.00    -0.268 OA
ATOM     20  C   UNL     1     -46.493  37.429  28.451  1.00  0.00     0.270 C 
ATOM     21  H   UNL     1     -47.152  37.774  26.547  1.00  0.00     0.164 HD
BRANCH  20  22
ATOM     22  C   UNL     1     -45.533  38.570  28.220  1.00  0.00     0.136 A 
ATOM     23  C   UNL     1     -45.712  39.283  27.106  1.00  0.00     0.035 A 
ATOM     24  N   UNL     1     -44.547  38.804  29.152  1.00  0.00    -0.225 NA
ATOM     25  C   UNL     1     -44.800  40.403  26.843  1.00  0.00     0.258 A 
ATOM     26  H   UNL     1     -46.490  39.088  26.380  1.00  0.00     0.071 H 
ATOM     27  C   UNL     1     -43.744  39.795  28.916  1.00  0.00     0.140 A 
ATOM     28  O   UNL     1     -44.958  41.065  25.819  1.00  0.00    -0.269 OA
ATOM     29  N   UNL     1     -43.817  40.618  27.797  1.00  0.00    -0.268 N 
ATOM     30  C   UNL     1     -42.661  40.087  29.899  1.00  0.00    -0.019 A 
ATOM     31  C   UNL     1     -42.915  41.662  27.618  1.00  0.00     0.014 A 
ATOM     32  C   UNL     1     -41.817  41.103  29.682  1.00  0.00    -0.057 A 
ATOM     33  H   UNL     1     -42.596  39.452  30.773  1.00  0.00     0.066 H 
ATOM     34  C   UNL     1     -41.945  41.918  28.504  1.00  0.00    -0.045 A 
ATOM     35  H   UNL     1     -43.031  42.265  26.719  1.00  0.00     0.082 H 
ATOM     36  H   UNL     1     -41.023  41.331  30.386  1.00  0.00     0.062 H 
ATOM     37  H   UNL     1     -41.247  42.735  28.353  1.00  0.00     0.064 H 
ENDBRANCH  20  22
ENDBRANCH  15  18
ENDBRANCH   1  15
BRANCH   6  38
ATOM     38  C   UNL     1     -48.807  29.390  24.323  1.00  0.00     0.036 C 
ATOM     39  H   UNL     1     -48.994  28.802  25.230  1.00  0.00     0.049 H 
ATOM     40  H   UNL     1     -48.036  28.840  23.771  1.00  0.00     0.049 H 
BRANCH  38  41
ATOM     41  N   UNL     1     -50.053  29.459  23.569  1.00  0.00    -0.306 NA
ATOM     42  H   UNL     1     -50.691  30.092  24.051  1.00  0.00     0.123 HD
BRANCH  41  43
ATOM     43  C   UNL     1     -49.864  29.763  22.204  1.00  0.00     0.019 C 
ATOM     44  C   UNL     1     -48.579  29.330  21.476  1.00  0.00    -0.032 C 
ATOM     45  C   UNL     1     -49.722  31.123  21.534  1.00  0.00    -0.032 C 
ATOM     46  C   UNL     1     -50.648  29.261  20.997  1.00  0.00    -0.032 C 
ATOM     47  C   UNL     1     -49.433  30.074  20.377  1.00  0.00    -0.036 C 
ATOM     48  H   UNL     1     -47.638  29.805  21.777  1.00  0.00     0.029 H 
ATOM     49  H   UNL     1     -48.410  28.258  21.331  1.00  0.00     0.029 H 
ATOM     50  H   UNL     1     -50.626  31.732  21.426  1.00  0.00     0.029 H 
ATOM     51  H   UNL     1     -48.888  31.761  21.842  1.00  0.00     0.029 H 
ATOM     52  H   UNL     1     -51.643  29.677  20.815  1.00  0.00     0.029 H 
ATOM     53  H   UNL     1     -50.667  28.182  20.812  1.00  0.00     0.029 H 
ATOM     54  H   UNL     1     -49.193  30.252  19.341  1.00  0.00     0.030 H 
ENDBRANCH  41  43
ENDBRANCH  38  41
ENDBRANCH   6  38
TORSDOF 6
ENDMDL
MODEL 4
REMARK VINA RESULT:     -10.0      1.574      2.308
REMARK SMILES O=C(NCc1ccc2cc(CNC34CC(C3)C4)[nH]c2c1)c1cc(=O)n2ccccc2n1
REMARK SMILES IDX 5 1 6 2 7 3 8 4 9 5 10 6 18 7 19 8 20 9 4 15 3 18 1 19 2 20
REMARK SMILES IDX 21 22 22 23 31 24 23 25 30 27 24 28 25 29 29 30 26 31 28 32
REMARK SMILES IDX 27 34 11 38 12 41 13 43 14 44 16 45 17 46 15 47
REMARK H PARENT 6 10 7 11 9 12 18 13 20 14 4 16 4 17 3 21 22 26 29 33 26 35
REMARK H PARENT 28 36 27 37 11 39 11 40 12 42 14 48 14 49 16 50 16 51 17 52
REMARK H PARENT 17 53 15 54
REMARK Flexibility Score: inf
ROOT
ATOM      1  C   UNL     1     -47.670  36.034  26.996  1.00  0.00    -0.027 A 
ATOM      2  C   UNL     1     -46.364  35.704  26.613  1.00  0.00    -0.057 A 
ATOM      3  C   UNL     1     -46.058  34.442  26.089  1.00  0.00    -0.052 A 
ATOM      4  C   UNL     1     -47.082  33.486  25.953  1.00  0.00    -0.000 A 
ATOM      5  C   UNL     1     -47.129  32.146  25.479  1.00  0.00    -0.032 A 
ATOM      6  C   UNL     1     -48.429  31.694  25.598  1.00  0.00     0.030 A 
ATOM      7  N   UNL     1     -49.171  32.730  26.111  1.00  0.00    -0.357 N 
ATOM      8  C   UNL     1     -48.374  33.827  26.346  1.00  0.00     0.046 A 
ATOM      9  C   UNL     1     -48.698  35.083  26.871  1.00  0.00    -0.033 A 
ATOM     10  H   UNL     1     -45.563  36.434  26.722  1.00  0.00     0.063 H 
ATOM     11  H   UNL     1     -45.041  34.204  25.793  1.00  0.00     0.063 H 
ATOM     12  H   UNL     1     -46.296  31.574  25.094  1.00  0.00     0.065 H 
ATOM     13  H   UNL     1     -50.161  32.693  26.311  1.00  0.00     0.166 HD
ATOM     14  H   UNL     1     -49.715  35.317  27.179  1.00  0.00     0.065 H 
ENDROOT
BRANCH   1  15
ATOM     15  C   UNL     1     -47.970  37.385  27.589  1.00  0.00     0.043 C 
ATOM     16  H   UNL     1     -48.171  37.303  28.663  1.00  0.00     0.054 H 
ATOM     17  H   UNL     1     -48.866  37.823  27.133  1.00  0.00     0.054 H 
BRANCH  15  18
ATOM     18  N   UNL     1     -46.871  38.289  27.381  1.00  0.00    -0.347 N 
ATOM     19  O   UNL     1     -46.022  38.125  29.508  1.00  0.00    -0.268 OA
ATOM     20  C   UNL     1     -45.999  38.620  28.387  1.00  0.00     0.270 C 
ATOM     21  H   UNL     1     -46.804  38.822  26.519  1.00  0.00     0.164 HD
BRANCH  20  22
ATOM     22  C   UNL     1     -45.006  39.675  27.966  1.00  0.00     0.136 A 
ATOM     23  C   UNL     1     -43.967  39.874  28.780  1.00  0.00     0.035 A 
ATOM     24  N   UNL     1     -45.225  40.359  26.792  1.00  0.00    -0.225 NA
ATOM     25  C   UNL     1     -42.976  40.891  28.407  1.00  0.00     0.258 A 
ATOM     26  H   UNL     1     -43.806  39.330  29.701  1.00  0.00     0.071 H 
ATOM     27  C   UNL     1     -44.347  41.257  26.466  1.00  0.00     0.140 A 
ATOM     28  O   UNL     1     -42.016  41.080  29.151  1.00  0.00    -0.269 OA
ATOM     29  N   UNL     1     -43.220  41.565  27.219  1.00  0.00    -0.268 N 
ATOM     30  C   UNL     1     -44.543  42.022  25.201  1.00  0.00    -0.019 A 
ATOM     31  C   UNL     1     -42.326  42.544  26.800  1.00  0.00     0.014 A 
ATOM     32  C   UNL     1     -43.654  42.955  24.840  1.00  0.00    -0.057 A 
ATOM     33  H   UNL     1     -45.419  41.789  24.608  1.00  0.00     0.066 H 
ATOM     34  C   UNL     1     -42.507  43.227  25.664  1.00  0.00    -0.045 A 
ATOM     35  H   UNL     1     -41.465  42.733  27.439  1.00  0.00     0.082 H 
ATOM     36  H   UNL     1     -43.780  43.522  23.922  1.00  0.00     0.062 H 
ATOM     37  H   UNL     1     -41.803  43.989  25.346  1.00  0.00     0.064 H 
ENDBRANCH  20  22
ENDBRANCH  15  18
ENDBRANCH   1  15
BRANCH   6  38
ATOM     38  C   UNL     1     -49.043  30.382  25.254  1.00  0.00     0.036 C 
ATOM     39  H   UNL     1     -49.740  30.539  24.421  1.00  0.00     0.049 H 
ATOM     40  H   UNL     1     -49.654  29.993  26.078  1.00  0.00     0.049 H 
BRANCH  38  41
ATOM     41  N   UNL     1     -48.046  29.408  24.825  1.00  0.00    -0.306 NA
ATOM     42  H   UNL     1     -47.136  29.696  25.183  1.00  0.00     0.123 HD
BRANCH  41  43
ATOM     43  C   UNL     1     -48.394  28.078  25.139  1.00  0.00     0.019 C 
ATOM     44  C   UNL     1     -47.408  26.926  24.872  1.00  0.00    -0.032 C 
ATOM     45  C   UNL     1     -49.491  27.206  24.543  1.00  0.00    -0.032 C 
ATOM     46  C   UNL     1     -48.658  27.457  26.507  1.00  0.00    -0.032 C 
ATOM     47  C   UNL     1     -48.679  26.231  25.498  1.00  0.00    -0.036 C 
ATOM     48  H   UNL     1     -47.176  26.685  23.829  1.00  0.00     0.029 H 
ATOM     49  H   UNL     1     -46.486  26.897  25.462  1.00  0.00     0.029 H 
ATOM     50  H   UNL     1     -50.525  27.422  24.831  1.00  0.00     0.029 H 
ATOM     51  H   UNL     1     -49.449  26.993  23.470  1.00  0.00     0.029 H 
ATOM     52  H   UNL     1     -49.606  27.681  27.004  1.00  0.00     0.029 H 
ATOM     53  H   UNL     1     -47.848  27.479  27.243  1.00  0.00     0.029 H 
ATOM     54  H   UNL     1     -48.844  25.185  25.704  1.00  0.00     0.030 H 
ENDBRANCH  41  43
ENDBRANCH  38  41
ENDBRANCH   6  38
TORSDOF 6
ENDMDL
MODEL 5
REMARK VINA RESULT:      -9.9      1.772      2.708
REMARK SMILES O=C(NCc1ccc2cc(CNC34CC(C3)C4)[nH]c2c1)c1cc(=O)n2ccccc2n1
REMARK SMILES IDX 5 1 6 2 7 3 8 4 9 5 10 6 18 7 19 8 20 9 4 15 3 18 1 19 2 20
REMARK SMILES IDX 21 22 22 23 31 24 23 25 30 27 24 28 25 29 29 30 26 31 28 32
REMARK SMILES IDX 27 34 11 38 12 41 13 43 14 44 16 45 17 46 15 47
REMARK H PARENT 6 10 7 11 9 12 18 13 20 14 4 16 4 17 3 21 22 26 29 33 26 35
REMARK H PARENT 28 36 27 37 11 39 11 40 12 42 14 48 14 49 16 50 16 51 17 52
REMARK H PARENT 17 53 15 54
REMARK Flexibility Score: inf
ROOT
ATOM      1  C   UNL     1     -46.432  35.275  27.702  1.00  0.00    -0.027 A 
ATOM      2  C   UNL     1     -47.815  35.344  27.493  1.00  0.00    -0.057 A 
ATOM      3  C   UNL     1     -48.458  34.474  26.603  1.00  0.00    -0.052 A 
ATOM      4  C   UNL     1     -47.698  33.520  25.902  1.00  0.00    -0.000 A 
ATOM      5  C   UNL     1     -48.010  32.513  24.947  1.00  0.00    -0.032 A 
ATOM      6  C   UNL     1     -46.835  31.881  24.590  1.00  0.00     0.030 A 
ATOM      7  N   UNL     1     -45.826  32.464  25.319  1.00  0.00    -0.357 N 
ATOM      8  C   UNL     1     -46.323  33.470  26.115  1.00  0.00     0.046 A 
ATOM      9  C   UNL     1     -45.663  34.330  27.001  1.00  0.00    -0.033 A 
ATOM     10  H   UNL     1     -48.412  36.083  28.025  1.00  0.00     0.063 H 
ATOM     11  H   UNL     1     -49.532  34.538  26.456  1.00  0.00     0.063 H 
ATOM     12  H   UNL     1     -48.993  32.281  24.560  1.00  0.00     0.065 H 
ATOM     13  H   UNL     1     -44.849  32.209  25.267  1.00  0.00     0.166 HD
ATOM     14  H   UNL     1     -44.586  34.274  27.139  1.00  0.00     0.065 H 
ENDROOT
BRANCH   1  15
ATOM     15  C   UNL     1     -45.756  36.241  28.638  1.00  0.00     0.043 C 
ATOM     16  H   UNL     1     -44.816  35.824  29.017  1.00  0.00     0.054 H 
ATOM     17  H   UNL     1     -46.385  36.447  29.512  1.00  0.00     0.054 H 
BRANCH  15  18
ATOM     18  N   UNL     1     -45.485  37.488  27.974  1.00  0.00    -0.347 N 
ATOM     19  O   UNL     1     -44.478  38.502  29.771  1.00  0.00    -0.268 OA
ATOM     20  C   UNL     1     -44.896  38.545  28.620  1.00  0.00     0.270 C 
ATOM     21  H   UNL     1     -45.864  37.667  27.049  1.00  0.00     0.164 HD
BRANCH  20  22
ATOM     22  C   UNL     1     -44.827  39.782  27.758  1.00  0.00     0.136 A 
ATOM     23  C   UNL     1     -45.974  40.195  27.216  1.00  0.00     0.035 A 
ATOM     24  N   UNL     1     -43.609  40.400  27.585  1.00  0.00    -0.225 NA
ATOM     25  C   UNL     1     -45.952  41.395  26.371  1.00  0.00     0.258 A 
ATOM     26  H   UNL     1     -46.925  39.699  27.359  1.00  0.00     0.071 H 
ATOM     27  C   UNL     1     -43.594  41.462  26.838  1.00  0.00     0.140 A 
ATOM     28  O   UNL     1     -47.005  41.782  25.867  1.00  0.00    -0.269 OA
ATOM     29  N   UNL     1     -44.713  41.999  26.213  1.00  0.00    -0.268 N 
ATOM     30  C   UNL     1     -42.297  42.165  26.623  1.00  0.00    -0.019 A 
ATOM     31  C   UNL     1     -44.612  43.142  25.426  1.00  0.00     0.014 A 
ATOM     32  C   UNL     1     -42.251  43.261  25.857  1.00  0.00    -0.057 A 
ATOM     33  H   UNL     1     -41.420  41.753  27.106  1.00  0.00     0.066 H 
ATOM     34  C   UNL     1     -43.445  43.769  25.237  1.00  0.00    -0.045 A 
ATOM     35  H   UNL     1     -45.529  43.508  24.967  1.00  0.00     0.082 H 
ATOM     36  H   UNL     1     -41.316  43.787  25.688  1.00  0.00     0.062 H 
ATOM     37  H   UNL     1     -43.379  44.660  24.620  1.00  0.00     0.064 H 
ENDBRANCH  20  22
ENDBRANCH  15  18
ENDBRANCH   1  15
BRANCH   6  38
ATOM     38  C   UNL     1     -46.575  30.763  23.642  1.00  0.00     0.036 C 
ATOM     39  H   UNL     1     -46.007  29.989  24.173  1.00  0.00     0.049 H 
ATOM     40  H   UNL     1     -45.932  31.080  22.811  1.00  0.00     0.049 H 
BRANCH  38  41
ATOM     41  N   UNL     1     -47.810  30.159  23.158  1.00  0.00    -0.306 NA
ATOM     42  H   UNL     1     -47.811  30.192  22.139  1.00  0.00     0.123 HD
BRANCH  41  43
ATOM     43  C   UNL     1     -48.051  28.876  23.692  1.00  0.00     0.019 C 
ATOM     44  C   UNL     1     -48.658  28.714  25.098  1.00  0.00    -0.032 C 
ATOM     45  C   UNL     1     -47.053  27.784  24.056  1.00  0.00    -0.032 C 
ATOM     46  C   UNL     1     -49.028  27.809  23.210  1.00  0.00    -0.032 C 
ATOM     47  C   UNL     1     -48.451  27.239  24.576  1.00  0.00    -0.036 C 
ATOM     48  H   UNL     1     -48.051  29.025  25.954  1.00  0.00     0.029 H 
ATOM     49  H   UNL     1     -49.691  29.046  25.249  1.00  0.00     0.029 H 
ATOM     50  H   UNL     1     -46.588  27.229  23.235  1.00  0.00     0.029 H 
ATOM     51  H   UNL     1     -46.299  28.013  24.815  1.00  0.00     0.029 H 
ATOM     52  H   UNL     1     -48.774  27.241  22.311  1.00  0.00     0.029 H 
ATOM     53  H   UNL     1     -50.093  28.062  23.190  1.00  0.00     0.029 H 
ATOM     54  H   UNL     1     -48.677  26.309  25.073  1.00  0.00     0.030 H 
ENDBRANCH  41  43
ENDBRANCH  38  41
ENDBRANCH   6  38
TORSDOF 6
ENDMDL
MODEL 6
REMARK VINA RESULT:      -9.8      2.743      4.706
REMARK SMILES O=C(NCc1ccc2cc(CNC34CC(C3)C4)[nH]c2c1)c1cc(=O)n2ccccc2n1
REMARK SMILES IDX 5 1 6 2 7 3 8 4 9 5 10 6 18 7 19 8 20 9 4 15 3 18 1 19 2 20
REMARK SMILES IDX 21 22 22 23 31 24 23 25 30 27 24 28 25 29 29 30 26 31 28 32
REMARK SMILES IDX 27 34 11 38 12 41 13 43 14 44 16 45 17 46 15 47
REMARK H PARENT 6 10 7 11 9 12 18 13 20 14 4 16 4 17 3 21 22 26 29 33 26 35
REMARK H PARENT 28 36 27 37 11 39 11 40 12 42 14 48 14 49 16 50 16 51 17 52
REMARK H PARENT 17 53 15 54
REMARK Flexibility Score: inf
ROOT
ATOM      1  C   UNL     1     -45.837  37.373  28.294  1.00  0.00    -0.027 A 
ATOM      2  C   UNL     1     -47.207  37.607  28.121  1.00  0.00    -0.057 A 
ATOM      3  C   UNL     1     -48.023  36.676  27.464  1.00  0.00    -0.052 A 
ATOM      4  C   UNL     1     -47.454  35.491  26.965  1.00  0.00    -0.000 A 
ATOM      5  C   UNL     1     -47.967  34.365  26.264  1.00  0.00    -0.032 A 
ATOM      6  C   UNL     1     -46.919  33.499  26.016  1.00  0.00     0.030 A 
ATOM      7  N   UNL     1     -45.792  34.062  26.566  1.00  0.00    -0.357 N 
ATOM      8  C   UNL     1     -46.088  35.278  27.139  1.00  0.00     0.046 A 
ATOM      9  C   UNL     1     -45.257  36.195  27.792  1.00  0.00    -0.033 A 
ATOM     10  H   UNL     1     -47.656  38.524  28.496  1.00  0.00     0.063 H 
ATOM     11  H   UNL     1     -49.084  36.871  27.341  1.00  0.00     0.063 H 
ATOM     12  H   UNL     1     -48.996  34.208  25.970  1.00  0.00     0.065 H 
ATOM     13  H   UNL     1     -44.867  33.656  26.539  1.00  0.00     0.166 HD
ATOM     14  H   UNL     1     -44.192  36.005  27.904  1.00  0.00     0.065 H 
ENDROOT
BRANCH   1  15
ATOM     15  C   UNL     1     -44.971  38.401  28.973  1.00  0.00     0.043 C 
ATOM     16  H   UNL     1     -44.037  37.950  29.328  1.00  0.00     0.054 H 
ATOM     17  H   UNL     1     -45.474  38.819  29.853  1.00  0.00     0.054 H 
BRANCH  15  18
ATOM     18  N   UNL     1     -44.662  39.481  28.074  1.00  0.00    -0.347 N 
ATOM     19  O   UNL     1     -42.951  40.356  29.330  1.00  0.00    -0.268 OA
ATOM     20  C   UNL     1     -43.689  40.407  28.353  1.00  0.00     0.270 C 
ATOM     21  H   UNL     1     -45.265  39.671  27.278  1.00  0.00     0.164 HD
BRANCH  20  22
ATOM     22  C   UNL     1     -43.632  41.511  27.327  1.00  0.00     0.136 A 
ATOM     23  C   UNL     1     -42.419  41.849  26.883  1.00  0.00     0.035 A 
ATOM     24  N   UNL     1     -44.809  42.095  26.916  1.00  0.00    -0.225 NA
ATOM     25  C   UNL     1     -42.318  42.919  25.883  1.00  0.00     0.258 A 
ATOM     26  H   UNL     1     -41.501  41.383  27.214  1.00  0.00     0.071 H 
ATOM     27  C   UNL     1     -44.715  43.039  26.031  1.00  0.00     0.140 A 
ATOM     28  O   UNL     1     -41.205  43.236  25.468  1.00  0.00    -0.269 OA
ATOM     29  N   UNL     1     -43.519  43.490  25.485  1.00  0.00    -0.268 N 
ATOM     30  C   UNL     1     -45.965  43.700  25.556  1.00  0.00    -0.019 A 
ATOM     31  C   UNL     1     -43.504  44.509  24.540  1.00  0.00     0.014 A 
ATOM     32  C   UNL     1     -45.899  44.678  24.645  1.00  0.00    -0.057 A 
ATOM     33  H   UNL     1     -46.902  43.356  25.976  1.00  0.00     0.066 H 
ATOM     34  C   UNL     1     -44.629  45.099  24.118  1.00  0.00    -0.045 A 
ATOM     35  H   UNL     1     -42.531  44.812  24.155  1.00  0.00     0.082 H 
ATOM     36  H   UNL     1     -46.798  45.170  24.287  1.00  0.00     0.062 H 
ATOM     37  H   UNL     1     -44.605  45.894  23.380  1.00  0.00     0.064 H 
ENDBRANCH  20  22
ENDBRANCH  15  18
ENDBRANCH   1  15
BRANCH   6  38
ATOM     38  C   UNL     1     -46.882  32.179  25.328  1.00  0.00     0.036 C 
ATOM     39  H   UNL     1     -47.911  31.810  25.242  1.00  0.00     0.049 H 
ATOM     40  H   UNL     1     -46.349  31.428  25.924  1.00  0.00     0.049 H 
BRANCH  38  41
ATOM     41  N   UNL     1     -46.330  32.281  23.983  1.00  0.00    -0.306 NA
ATOM     42  H   UNL     1     -45.328  32.459  24.055  1.00  0.00     0.123 HD
BRANCH  41  43
ATOM     43  C   UNL     1     -46.662  31.186  23.158  1.00  0.00     0.019 C 
ATOM     44  C   UNL     1     -48.119  30.947  22.723  1.00  0.00    -0.032 C 
ATOM     45  C   UNL     1     -46.562  29.695  23.455  1.00  0.00    -0.032 C 
ATOM     46  C   UNL     1     -46.248  30.916  21.716  1.00  0.00    -0.032 C 
ATOM     47  C   UNL     1     -47.301  29.776  22.052  1.00  0.00    -0.036 C 
ATOM     48  H   UNL     1     -48.843  30.665  23.496  1.00  0.00     0.029 H 
ATOM     49  H   UNL     1     -48.578  31.679  22.051  1.00  0.00     0.029 H 
ATOM     50  H   UNL     1     -45.565  29.244  23.457  1.00  0.00     0.029 H 
ATOM     51  H   UNL     1     -47.142  29.301  24.296  1.00  0.00     0.029 H 
ATOM     52  H   UNL     1     -45.225  30.578  21.524  1.00  0.00     0.029 H 
ATOM     53  H   UNL     1     -46.537  31.648  20.955  1.00  0.00     0.029 H 
ATOM     54  H   UNL     1     -47.659  28.975  21.424  1.00  0.00     0.030 H 
ENDBRANCH  41  43
ENDBRANCH  38  41
ENDBRANCH   6  38
TORSDOF 6
ENDMDL
MODEL 7
REMARK VINA RESULT:      -9.8      2.396      3.761
REMARK SMILES O=C(NCc1ccc2cc(CNC34CC(C3)C4)[nH]c2c1)c1cc(=O)n2ccccc2n1
REMARK SMILES IDX 5 1 6 2 7 3 8 4 9 5 10 6 18 7 19 8 20 9 4 15 3 18 1 19 2 20
REMARK SMILES IDX 21 22 22 23 31 24 23 25 30 27 24 28 25 29 29 30 26 31 28 32
REMARK SMILES IDX 27 34 11 38 12 41 13 43 14 44 16 45 17 46 15 47
REMARK H PARENT 6 10 7 11 9 12 18 13 20 14 4 16 4 17 3 21 22 26 29 33 26 35
REMARK H PARENT 28 36 27 37 11 39 11 40 12 42 14 48 14 49 16 50 16 51 17 52
REMARK H PARENT 17 53 15 54
REMARK Flexibility Score: inf
ROOT
ATOM      1  C   UNL     1     -47.225  36.844  27.869  1.00  0.00    -0.027 A 
ATOM      2  C   UNL     1     -45.926  36.320  27.893  1.00  0.00    -0.057 A 
ATOM      3  C   UNL     1     -45.654  35.034  27.407  1.00  0.00    -0.052 A 
ATOM      4  C   UNL     1     -46.706  34.255  26.894  1.00  0.00    -0.000 A 
ATOM      5  C   UNL     1     -46.791  32.948  26.340  1.00  0.00    -0.032 A 
ATOM      6  C   UNL     1     -48.111  32.703  26.016  1.00  0.00     0.030 A 
ATOM      7  N   UNL     1     -48.822  33.834  26.340  1.00  0.00    -0.357 N 
ATOM      8  C   UNL     1     -47.993  34.787  26.885  1.00  0.00     0.046 A 
ATOM      9  C   UNL     1     -48.284  36.070  27.366  1.00  0.00    -0.033 A 
ATOM     10  H   UNL     1     -45.106  36.912  28.296  1.00  0.00     0.063 H 
ATOM     11  H   UNL     1     -44.640  34.645  27.429  1.00  0.00     0.063 H 
ATOM     12  H   UNL     1     -45.969  32.258  26.197  1.00  0.00     0.065 H 
ATOM     13  H   UNL     1     -49.819  33.950  26.217  1.00  0.00     0.166 HD
ATOM     14  H   UNL     1     -49.301  36.455  27.355  1.00  0.00     0.065 H 
ENDROOT
BRANCH   1  15
ATOM     15  C   UNL     1     -47.501  38.214  28.428  1.00  0.00     0.043 C 
ATOM     16  H   UNL     1     -47.579  38.181  29.521  1.00  0.00     0.054 H 
ATOM     17  H   UNL     1     -48.455  38.605  28.055  1.00  0.00     0.054 H 
BRANCH  15  18
ATOM     18  N   UNL     1     -46.461  39.136  28.057  1.00  0.00    -0.347 N 
ATOM     19  O   UNL     1     -47.585  40.063  26.282  1.00  0.00    -0.268 OA
ATOM     20  C   UNL     1     -46.576  39.967  26.972  1.00  0.00     0.270 C 
ATOM     21  H   UNL     1     -45.549  39.084  28.502  1.00  0.00     0.164 HD
BRANCH  20  22
ATOM     22  C   UNL     1     -45.314  40.751  26.708  1.00  0.00     0.136 A 
ATOM     23  C   UNL     1     -44.344  40.642  27.619  1.00  0.00     0.035 A 
ATOM     24  N   UNL     1     -45.237  41.518  25.568  1.00  0.00    -0.225 NA
ATOM     25  C   UNL     1     -43.098  41.387  27.400  1.00  0.00     0.258 A 
ATOM     26  H   UNL     1     -44.417  40.035  28.512  1.00  0.00     0.071 H 
ATOM     27  C   UNL     1     -44.134  42.175  25.378  1.00  0.00     0.140 A 
ATOM     28  O   UNL     1     -42.199  41.291  28.234  1.00  0.00    -0.269 OA
ATOM     29  N   UNL     1     -43.046  42.151  26.244  1.00  0.00    -0.268 N 
ATOM     30  C   UNL     1     -44.006  43.018  24.155  1.00  0.00    -0.019 A 
ATOM     31  C   UNL     1     -41.898  42.885  25.968  1.00  0.00     0.014 A 
ATOM     32  C   UNL     1     -42.880  43.707  23.934  1.00  0.00    -0.057 A 
ATOM     33  H   UNL     1     -44.849  43.043  23.476  1.00  0.00     0.066 H 
ATOM     34  C   UNL     1     -41.789  43.641  24.869  1.00  0.00    -0.045 A 
ATOM     35  H   UNL     1     -41.085  42.820  26.689  1.00  0.00     0.082 H 
ATOM     36  H   UNL     1     -42.768  44.327  23.049  1.00  0.00     0.062 H 
ATOM     37  H   UNL     1     -40.888  44.210  24.664  1.00  0.00     0.064 H 
ENDBRANCH  20  22
ENDBRANCH  15  18
ENDBRANCH   1  15
BRANCH   6  38
ATOM     38  C   UNL     1     -48.765  31.511  25.409  1.00  0.00     0.036 C 
ATOM     39  H   UNL     1     -49.119  31.788  24.409  1.00  0.00     0.049 H 
ATOM     40  H   UNL     1     -49.663  31.216  25.966  1.00  0.00     0.049 H 
BRANCH  38  41
ATOM     41  N   UNL     1     -47.838  30.395  25.264  1.00  0.00    -0.306 NA
ATOM     42  H   UNL     1     -48.271  29.560  25.656  1.00  0.00     0.123 HD
BRANCH  41  43
ATOM     43  C   UNL     1     -47.363  30.233  23.946  1.00  0.00     0.019 C 
ATOM     44  C   UNL     1     -48.267  30.552  22.741  1.00  0.00    -0.032 C 
ATOM     45  C   UNL     1     -46.945  28.957  23.227  1.00  0.00    -0.032 C 
ATOM     46  C   UNL     1     -46.246  30.988  23.234  1.00  0.00    -0.032 C 
ATOM     47  C   UNL     1     -46.901  30.082  22.106  1.00  0.00    -0.036 C 
ATOM     48  H   UNL     1     -49.138  29.909  22.573  1.00  0.00     0.029 H 
ATOM     49  H   UNL     1     -48.555  31.596  22.581  1.00  0.00     0.029 H 
ATOM     50  H   UNL     1     -45.987  28.508  23.505  1.00  0.00     0.029 H 
ATOM     51  H   UNL     1     -47.695  28.169  23.105  1.00  0.00     0.029 H 
ATOM     52  H   UNL     1     -45.211  30.750  23.495  1.00  0.00     0.029 H 
ATOM     53  H   UNL     1     -46.352  32.072  23.122  1.00  0.00     0.029 H 
ATOM     54  H   UNL     1     -46.635  29.995  21.065  1.00  0.00     0.030 H 
ENDBRANCH  41  43
ENDBRANCH  38  41
ENDBRANCH   6  38
TORSDOF 6
ENDMDL
