MODEL 1
REMARK VINA RESULT:     -10.5      0.000      0.000
REMARK SMILES Cn1ccc(-c2cn(-c3cncc(COc4ccc5ccc(N6CC(CO)(CO)C6)nc5c4)c3)c3ncnc(N)c23)n1
REMARK SMILES IDX 14 1 13 4 9 5 10 6 34 7 11 8 12 11 8 13 6 14 7 15 41 16
REMARK SMILES IDX 35 18 39 19 36 20 38 21 37 22 5 24 2 25 3 26 42 27 4 28 1 31
REMARK SMILES IDX 40 35 15 38 16 39 17 40 33 41 18 42 32 44 19 46 31 48 20 49
REMARK SMILES IDX 22 50 21 51 23 54 24 55 30 56 25 57 26 62 27 65 28 67 29 70
REMARK H PARENT 14 2 14 3 10 9 34 10 12 12 7 17 37 23 3 29 4 30 1 32 1 33 1 34
REMARK H PARENT 40 36 40 37 17 43 33 45 18 47 20 52 21 53 24 58 24 59 30 60
REMARK H PARENT 30 61 26 63 26 64 27 66 28 68 28 69 29 71
REMARK Flexibility Score: inf
ROOT
ATOM      1  C   UNL     1     -48.808  35.747  27.253  1.00  0.00     0.115 C 
ATOM      2  H   UNL     1     -49.869  35.469  27.281  1.00  0.00     0.076 H 
ATOM      3  H   UNL     1     -48.758  36.709  26.729  1.00  0.00     0.076 H 
ENDROOT
BRANCH   1   4
ATOM      4  C   UNL     1     -48.084  34.661  26.492  1.00  0.00     0.010 A 
ATOM      5  C   UNL     1     -47.967  32.475  25.431  1.00  0.00     0.066 A 
ATOM      6  C   UNL     1     -46.652  32.781  25.096  1.00  0.00     0.051 A 
ATOM      7  C   UNL     1     -48.691  33.455  26.115  1.00  0.00    -0.028 A 
ATOM      8  N   UNL     1     -46.039  33.949  25.411  1.00  0.00    -0.262 NA
ATOM      9  H   UNL     1     -45.998  32.087  24.578  1.00  0.00     0.086 H 
ATOM     10  H   UNL     1     -49.740  33.309  26.356  1.00  0.00     0.065 H 
ATOM     11  C   UNL     1     -46.765  34.855  26.102  1.00  0.00     0.034 A 
ATOM     12  H   UNL     1     -46.233  35.772  26.338  1.00  0.00     0.084 H 
BRANCH   5  13
ATOM     13  N   UNL     1     -48.536  31.208  25.095  1.00  0.00    -0.299 N 
ATOM     14  C   UNL     1     -49.052  29.020  25.209  1.00  0.00     0.033 A 
ATOM     15  C   UNL     1     -48.400  30.056  25.844  1.00  0.00     0.021 A 
ATOM     16  C   UNL     1     -49.693  29.549  24.059  1.00  0.00     0.071 A 
ATOM     17  H   UNL     1     -47.809  30.022  26.748  1.00  0.00     0.083 H 
ATOM     18  C   UNL     1     -49.336  30.896  23.994  1.00  0.00     0.150 A 
ATOM     19  C   UNL     1     -50.559  29.080  23.055  1.00  0.00     0.137 A 
ATOM     20  N   UNL     1     -49.748  31.758  23.042  1.00  0.00    -0.218 NA
ATOM     21  N   UNL     1     -50.970  29.923  22.092  1.00  0.00    -0.219 NA
ATOM     22  C   UNL     1     -50.548  31.196  22.130  1.00  0.00     0.120 A 
ATOM     23  H   UNL     1     -50.902  31.843  21.333  1.00  0.00     0.106 H 
BRANCH  14  24
ATOM     24  C   UNL     1     -49.069  27.636  25.676  1.00  0.00     0.095 A 
ATOM     25  N   UNL     1     -48.398  25.712  26.230  1.00  0.00    -0.275 N 
ATOM     26  C   UNL     1     -49.757  25.637  26.313  1.00  0.00     0.025 A 
ATOM     27  N   UNL     1     -47.951  26.919  25.835  1.00  0.00    -0.173 NA
ATOM     28  C   UNL     1     -50.226  26.876  25.944  1.00  0.00    -0.016 A 
ATOM     29  H   UNL     1     -50.266  24.730  26.607  1.00  0.00     0.084 H 
ATOM     30  H   UNL     1     -51.261  27.183  25.871  1.00  0.00     0.066 H 
BRANCH  25  31
ATOM     31  C   UNL     1     -47.450  24.660  26.504  1.00  0.00     0.030 C 
ATOM     32  H   UNL     1     -47.976  23.794  26.910  1.00  0.00     0.048 H 
ATOM     33  H   UNL     1     -46.726  25.032  27.233  1.00  0.00     0.048 H 
ATOM     34  H   UNL     1     -46.953  24.392  25.569  1.00  0.00     0.048 H 
ENDBRANCH  25  31
ENDBRANCH  14  24
BRANCH  19  35
ATOM     35  N   UNL     1     -51.082  27.794  22.997  1.00  0.00    -0.383 N 
ATOM     36  H   UNL     1     -51.677  27.560  23.783  1.00  0.00     0.158 HD
ATOM     37  H   UNL     1     -51.496  27.644  22.082  1.00  0.00     0.158 HD
ENDBRANCH  19  35
ENDBRANCH   5  13
ENDBRANCH   1   4
BRANCH   1  38
ATOM     38  O   UNL     1     -48.407  35.904  28.618  1.00  0.00    -0.489 OA
BRANCH  38  39
ATOM     39  C   UNL     1     -47.261  36.602  28.887  1.00  0.00     0.122 A 
ATOM     40  C   UNL     1     -46.417  36.400  29.973  1.00  0.00    -0.019 A 
ATOM     41  C   UNL     1     -46.972  37.618  27.968  1.00  0.00     0.007 A 
ATOM     42  C   UNL     1     -45.310  37.231  30.149  1.00  0.00    -0.049 A 
ATOM     43  H   UNL     1     -46.593  35.617  30.703  1.00  0.00     0.066 H 
ATOM     44  C   UNL     1     -45.889  38.469  28.129  1.00  0.00     0.076 A 
ATOM     45  H   UNL     1     -47.634  37.773  27.120  1.00  0.00     0.069 H 
ATOM     46  C   UNL     1     -45.048  38.269  29.239  1.00  0.00     0.001 A 
ATOM     47  H   UNL     1     -44.660  37.073  31.005  1.00  0.00     0.063 H 
ATOM     48  N   UNL     1     -45.686  39.459  27.239  1.00  0.00    -0.231 NA
ATOM     49  C   UNL     1     -43.963  39.134  29.397  1.00  0.00    -0.049 A 
ATOM     50  C   UNL     1     -44.641  40.299  27.407  1.00  0.00     0.129 A 
ATOM     51  C   UNL     1     -43.760  40.155  28.473  1.00  0.00    -0.019 A 
ATOM     52  H   UNL     1     -43.277  39.024  30.231  1.00  0.00     0.063 H 
ATOM     53  H   UNL     1     -42.913  40.822  28.586  1.00  0.00     0.066 H 
BRANCH  50  54
ATOM     54  N   UNL     1     -44.441  41.319  26.460  1.00  0.00    -0.355 N 
ATOM     55  C   UNL     1     -45.417  42.315  26.109  1.00  0.00     0.031 C 
ATOM     56  C   UNL     1     -43.358  42.261  26.420  1.00  0.00     0.031 C 
ATOM     57  C   UNL     1     -44.247  43.120  25.490  1.00  0.00     0.052 C 
ATOM     58  H   UNL     1     -45.901  42.753  26.989  1.00  0.00     0.050 H 
ATOM     59  H   UNL     1     -46.176  41.944  25.415  1.00  0.00     0.050 H 
ATOM     60  H   UNL     1     -42.446  41.849  25.979  1.00  0.00     0.050 H 
ATOM     61  H   UNL     1     -43.136  42.684  27.406  1.00  0.00     0.050 H 
BRANCH  57  62
ATOM     62  C   UNL     1     -44.047  42.801  24.004  1.00  0.00     0.054 C 
ATOM     63  H   UNL     1     -44.669  41.953  23.700  1.00  0.00     0.057 H 
ATOM     64  H   UNL     1     -43.004  42.560  23.769  1.00  0.00     0.057 H 
BRANCH  62  65
ATOM     65  O   UNL     1     -44.423  43.934  23.224  1.00  0.00    -0.396 OA
ATOM     66  H   UNL     1     -44.368  43.663  22.291  1.00  0.00     0.210 HD
ENDBRANCH  62  65
ENDBRANCH  57  62
BRANCH  57  67
ATOM     67  C   UNL     1     -44.265  44.625  25.733  1.00  0.00     0.054 C 
ATOM     68  H   UNL     1     -44.988  45.130  25.084  1.00  0.00     0.057 H 
ATOM     69  H   UNL     1     -44.542  44.840  26.770  1.00  0.00     0.057 H 
BRANCH  67  70
ATOM     70  O   UNL     1     -42.986  45.217  25.518  1.00  0.00    -0.396 OA
ATOM     71  H   UNL     1     -42.514  45.234  26.367  1.00  0.00     0.210 HD
ENDBRANCH  67  70
ENDBRANCH  57  67
ENDBRANCH  50  54
ENDBRANCH  38  39
ENDBRANCH   1  38
TORSDOF 12
ENDMDL
MODEL 2
REMARK VINA RESULT:      -9.8      1.888      2.763
REMARK SMILES Cn1ccc(-c2cn(-c3cncc(COc4ccc5ccc(N6CC(CO)(CO)C6)nc5c4)c3)c3ncnc(N)c23)n1
REMARK SMILES IDX 14 1 13 4 9 5 10 6 34 7 11 8 12 11 8 13 6 14 7 15 41 16
REMARK SMILES IDX 35 18 39 19 36 20 38 21 37 22 5 24 2 25 3 26 42 27 4 28 1 31
REMARK SMILES IDX 40 35 15 38 16 39 17 40 33 41 18 42 32 44 19 46 31 48 20 49
REMARK SMILES IDX 22 50 21 51 23 54 24 55 30 56 25 57 26 62 27 65 28 67 29 70
REMARK H PARENT 14 2 14 3 10 9 34 10 12 12 7 17 37 23 3 29 4 30 1 32 1 33 1 34
REMARK H PARENT 40 36 40 37 17 43 33 45 18 47 20 52 21 53 24 58 24 59 30 60
REMARK H PARENT 30 61 26 63 26 64 27 66 28 68 28 69 29 71
REMARK Flexibility Score: inf
ROOT
ATOM      1  C   UNL     1     -47.153  36.737  26.513  1.00  0.00     0.115 C 
ATOM      2  H   UNL     1     -48.176  36.813  26.123  1.00  0.00     0.076 H 
ATOM      3  H   UNL     1     -46.496  37.123  25.724  1.00  0.00     0.076 H 
ENDROOT
BRANCH   1   4
ATOM      4  C   UNL     1     -46.890  35.276  26.790  1.00  0.00     0.010 A 
ATOM      5  C   UNL     1     -47.044  32.911  26.243  1.00  0.00     0.066 A 
ATOM      6  C   UNL     1     -46.330  32.662  27.411  1.00  0.00     0.051 A 
ATOM      7  C   UNL     1     -47.294  34.248  25.926  1.00  0.00    -0.028 A 
ATOM      8  N   UNL     1     -45.892  33.628  28.255  1.00  0.00    -0.262 NA
ATOM      9  H   UNL     1     -46.095  31.660  27.757  1.00  0.00     0.086 H 
ATOM     10  H   UNL     1     -47.793  34.519  25.000  1.00  0.00     0.065 H 
ATOM     11  C   UNL     1     -46.185  34.906  27.928  1.00  0.00     0.034 A 
ATOM     12  H   UNL     1     -45.819  35.646  28.634  1.00  0.00     0.084 H 
BRANCH   5  13
ATOM     13  N   UNL     1     -47.505  31.837  25.419  1.00  0.00    -0.299 N 
ATOM     14  C   UNL     1     -48.670  30.033  24.746  1.00  0.00     0.033 A 
ATOM     15  C   UNL     1     -48.508  30.952  25.760  1.00  0.00     0.021 A 
ATOM     16  C   UNL     1     -47.794  30.393  23.688  1.00  0.00     0.071 A 
ATOM     17  H   UNL     1     -49.011  30.991  26.716  1.00  0.00     0.083 H 
ATOM     18  C   UNL     1     -47.064  31.493  24.140  1.00  0.00     0.150 A 
ATOM     19  C   UNL     1     -47.522  29.953  22.381  1.00  0.00     0.137 A 
ATOM     20  N   UNL     1     -46.124  32.141  23.423  1.00  0.00    -0.218 NA
ATOM     21  N   UNL     1     -46.580  30.580  21.656  1.00  0.00    -0.219 NA
ATOM     22  C   UNL     1     -45.935  31.621  22.205  1.00  0.00     0.120 A 
ATOM     23  H   UNL     1     -45.181  32.099  21.587  1.00  0.00     0.106 H 
BRANCH  14  24
ATOM     24  C   UNL     1     -49.599  28.907  24.782  1.00  0.00     0.095 A 
ATOM     25  N   UNL     1     -50.438  27.032  25.272  1.00  0.00    -0.275 N 
ATOM     26  C   UNL     1     -51.281  27.549  24.332  1.00  0.00     0.025 A 
ATOM     27  N   UNL     1     -49.398  27.836  25.560  1.00  0.00    -0.173 NA
ATOM     28  C   UNL     1     -50.752  28.769  23.982  1.00  0.00    -0.016 A 
ATOM     29  H   UNL     1     -52.156  27.016  23.988  1.00  0.00     0.084 H 
ATOM     30  H   UNL     1     -51.142  29.458  23.244  1.00  0.00     0.066 H 
BRANCH  25  31
ATOM     31  C   UNL     1     -50.555  25.759  25.939  1.00  0.00     0.030 C 
ATOM     32  H   UNL     1     -51.297  25.834  26.738  1.00  0.00     0.048 H 
ATOM     33  H   UNL     1     -49.580  25.500  26.359  1.00  0.00     0.048 H 
ATOM     34  H   UNL     1     -50.870  25.013  25.206  1.00  0.00     0.048 H 
ENDBRANCH  25  31
ENDBRANCH  14  24
BRANCH  19  35
ATOM     35  N   UNL     1     -48.198  28.925  21.734  1.00  0.00    -0.383 N 
ATOM     36  H   UNL     1     -47.800  28.008  21.901  1.00  0.00     0.158 HD
ATOM     37  H   UNL     1     -49.191  29.006  21.926  1.00  0.00     0.158 HD
ENDBRANCH  19  35
ENDBRANCH   5  13
ENDBRANCH   1   4
BRANCH   1  38
ATOM     38  O   UNL     1     -47.106  37.592  27.660  1.00  0.00    -0.489 OA
BRANCH  38  39
ATOM     39  C   UNL     1     -46.045  38.445  27.797  1.00  0.00     0.122 A 
ATOM     40  C   UNL     1     -45.081  38.396  28.799  1.00  0.00    -0.019 A 
ATOM     41  C   UNL     1     -45.984  39.456  26.831  1.00  0.00     0.007 A 
ATOM     42  C   UNL     1     -44.085  39.373  28.844  1.00  0.00    -0.049 A 
ATOM     43  H   UNL     1     -45.080  37.625  29.561  1.00  0.00     0.066 H 
ATOM     44  C   UNL     1     -45.016  40.448  26.863  1.00  0.00     0.076 A 
ATOM     45  H   UNL     1     -46.739  39.491  26.049  1.00  0.00     0.069 H 
ATOM     46  C   UNL     1     -44.054  40.402  27.888  1.00  0.00     0.001 A 
ATOM     47  H   UNL     1     -43.342  39.333  29.636  1.00  0.00     0.063 H 
ATOM     48  N   UNL     1     -45.035  41.422  25.934  1.00  0.00    -0.231 NA
ATOM     49  C   UNL     1     -43.086  41.408  27.917  1.00  0.00    -0.049 A 
ATOM     50  C   UNL     1     -44.102  42.399  25.977  1.00  0.00     0.129 A 
ATOM     51  C   UNL     1     -43.112  42.412  26.954  1.00  0.00    -0.019 A 
ATOM     52  H   UNL     1     -42.316  41.421  28.682  1.00  0.00     0.063 H 
ATOM     53  H   UNL     1     -42.356  43.189  26.966  1.00  0.00     0.066 H 
BRANCH  50  54
ATOM     54  N   UNL     1     -44.132  43.401  24.991  1.00  0.00    -0.355 N 
ATOM     55  C   UNL     1     -43.086  44.363  24.767  1.00  0.00     0.031 C 
ATOM     56  C   UNL     1     -44.372  43.225  23.586  1.00  0.00     0.031 C 
ATOM     57  C   UNL     1     -43.739  44.622  23.387  1.00  0.00     0.052 C 
ATOM     58  H   UNL     1     -42.092  43.903  24.760  1.00  0.00     0.050 H 
ATOM     59  H   UNL     1     -43.106  45.191  25.481  1.00  0.00     0.050 H 
ATOM     60  H   UNL     1     -45.432  43.130  23.339  1.00  0.00     0.050 H 
ATOM     61  H   UNL     1     -43.815  42.377  23.172  1.00  0.00     0.050 H 
BRANCH  57  62
ATOM     62  C   UNL     1     -44.766  45.760  23.436  1.00  0.00     0.054 C 
ATOM     63  H   UNL     1     -44.314  46.675  23.831  1.00  0.00     0.057 H 
ATOM     64  H   UNL     1     -45.631  45.510  24.060  1.00  0.00     0.057 H 
BRANCH  62  65
ATOM     65  O   UNL     1     -45.238  46.027  22.117  1.00  0.00    -0.396 OA
ATOM     66  H   UNL     1     -45.056  46.965  21.938  1.00  0.00     0.210 HD
ENDBRANCH  62  65
ENDBRANCH  57  62
BRANCH  57  67
ATOM     67  C   UNL     1     -42.781  44.796  22.214  1.00  0.00     0.054 C 
ATOM     68  H   UNL     1     -42.427  45.830  22.130  1.00  0.00     0.057 H 
ATOM     69  H   UNL     1     -41.904  44.154  22.340  1.00  0.00     0.057 H 
BRANCH  67  70
ATOM     70  O   UNL     1     -43.382  44.431  20.974  1.00  0.00    -0.396 OA
ATOM     71  H   UNL     1     -44.296  44.762  20.972  1.00  0.00     0.210 HD
ENDBRANCH  67  70
ENDBRANCH  57  67
ENDBRANCH  50  54
ENDBRANCH  38  39
ENDBRANCH   1  38
TORSDOF 12
ENDMDL
MODEL 3
REMARK VINA RESULT:      -9.4      1.551      2.261
REMARK SMILES Cn1ccc(-c2cn(-c3cncc(COc4ccc5ccc(N6CC(CO)(CO)C6)nc5c4)c3)c3ncnc(N)c23)n1
REMARK SMILES IDX 14 1 13 4 9 5 10 6 34 7 11 8 12 11 8 13 6 14 7 15 41 16
REMARK SMILES IDX 35 18 39 19 36 20 38 21 37 22 5 24 2 25 3 26 42 27 4 28 1 31
REMARK SMILES IDX 40 35 15 38 16 39 17 40 33 41 18 42 32 44 19 46 31 48 20 49
REMARK SMILES IDX 22 50 21 51 23 54 24 55 30 56 25 57 26 62 27 65 28 67 29 70
REMARK H PARENT 14 2 14 3 10 9 34 10 12 12 7 17 37 23 3 29 4 30 1 32 1 33 1 34
REMARK H PARENT 40 36 40 37 17 43 33 45 18 47 20 52 21 53 24 58 24 59 30 60
REMARK H PARENT 30 61 26 63 26 64 27 66 28 68 28 69 29 71
REMARK Flexibility Score: inf
ROOT
ATOM      1  C   UNL     1     -48.846  35.706  27.349  1.00  0.00     0.115 C 
ATOM      2  H   UNL     1     -49.375  35.187  28.159  1.00  0.00     0.076 H 
ATOM      3  H   UNL     1     -49.618  36.199  26.747  1.00  0.00     0.076 H 
ENDROOT
BRANCH   1   4
ATOM      4  C   UNL     1     -48.109  34.654  26.554  1.00  0.00     0.010 A 
ATOM      5  C   UNL     1     -47.962  32.500  25.434  1.00  0.00     0.066 A 
ATOM      6  C   UNL     1     -46.655  32.838  25.099  1.00  0.00     0.051 A 
ATOM      7  C   UNL     1     -48.698  33.448  26.149  1.00  0.00    -0.028 A 
ATOM      8  N   UNL     1     -46.060  34.007  25.441  1.00  0.00    -0.262 NA
ATOM      9  H   UNL     1     -45.992  32.169  24.558  1.00  0.00     0.086 H 
ATOM     10  H   UNL     1     -49.742  33.277  26.393  1.00  0.00     0.065 H 
ATOM     11  C   UNL     1     -46.796  34.881  26.161  1.00  0.00     0.034 A 
ATOM     12  H   UNL     1     -46.278  35.801  26.419  1.00  0.00     0.084 H 
BRANCH   5  13
ATOM     13  N   UNL     1     -48.512  31.232  25.068  1.00  0.00    -0.299 N 
ATOM     14  C   UNL     1     -49.024  29.042  25.149  1.00  0.00     0.033 A 
ATOM     15  C   UNL     1     -48.404  30.077  25.816  1.00  0.00     0.021 A 
ATOM     16  C   UNL     1     -49.616  29.575  23.974  1.00  0.00     0.071 A 
ATOM     17  H   UNL     1     -47.854  30.041  26.746  1.00  0.00     0.083 H 
ATOM     18  C   UNL     1     -49.261  30.923  23.931  1.00  0.00     0.150 A 
ATOM     19  C   UNL     1     -50.435  29.107  22.931  1.00  0.00     0.137 A 
ATOM     20  N   UNL     1     -49.633  31.788  22.966  1.00  0.00    -0.218 NA
ATOM     21  N   UNL     1     -50.806  29.953  21.954  1.00  0.00    -0.219 NA
ATOM     22  C   UNL     1     -50.390  31.227  22.016  1.00  0.00     0.120 A 
ATOM     23  H   UNL     1     -50.711  31.877  21.207  1.00  0.00     0.106 H 
BRANCH  14  24
ATOM     24  C   UNL     1     -49.057  27.656  25.608  1.00  0.00     0.095 A 
ATOM     25  N   UNL     1     -48.405  25.731  26.181  1.00  0.00    -0.275 N 
ATOM     26  C   UNL     1     -49.766  25.653  26.207  1.00  0.00     0.025 A 
ATOM     27  N   UNL     1     -47.945  26.941  25.811  1.00  0.00    -0.173 NA
ATOM     28  C   UNL     1     -50.223  26.892  25.824  1.00  0.00    -0.016 A 
ATOM     29  H   UNL     1     -50.285  24.743  26.475  1.00  0.00     0.084 H 
ATOM     30  H   UNL     1     -51.255  27.197  25.709  1.00  0.00     0.066 H 
BRANCH  25  31
ATOM     31  C   UNL     1     -47.466  24.680  26.490  1.00  0.00     0.030 C 
ATOM     32  H   UNL     1     -46.616  25.101  27.031  1.00  0.00     0.048 H 
ATOM     33  H   UNL     1     -47.127  24.236  25.551  1.00  0.00     0.048 H 
ATOM     34  H   UNL     1     -47.974  23.936  27.109  1.00  0.00     0.048 H 
ENDBRANCH  25  31
ENDBRANCH  14  24
BRANCH  19  35
ATOM     35  N   UNL     1     -50.950  27.820  22.843  1.00  0.00    -0.383 N 
ATOM     36  H   UNL     1     -51.841  27.706  23.313  1.00  0.00     0.158 HD
ATOM     37  H   UNL     1     -50.932  27.519  21.874  1.00  0.00     0.158 HD
ENDBRANCH  19  35
ENDBRANCH   5  13
ENDBRANCH   1   4
BRANCH   1  38
ATOM     38  O   UNL     1     -48.014  36.681  27.986  1.00  0.00    -0.489 OA
BRANCH  38  39
ATOM     39  C   UNL     1     -48.318  38.006  27.823  1.00  0.00     0.122 A 
ATOM     40  C   UNL     1     -49.557  38.595  28.052  1.00  0.00    -0.019 A 
ATOM     41  C   UNL     1     -47.256  38.791  27.357  1.00  0.00     0.007 A 
ATOM     42  C   UNL     1     -49.732  39.954  27.786  1.00  0.00    -0.049 A 
ATOM     43  H   UNL     1     -50.404  38.030  28.425  1.00  0.00     0.066 H 
ATOM     44  C   UNL     1     -47.409  40.138  27.068  1.00  0.00     0.076 A 
ATOM     45  H   UNL     1     -46.289  38.327  27.179  1.00  0.00     0.069 H 
ATOM     46  C   UNL     1     -48.669  40.724  27.287  1.00  0.00     0.001 A 
ATOM     47  H   UNL     1     -50.706  40.404  27.959  1.00  0.00     0.063 H 
ATOM     48  N   UNL     1     -46.365  40.833  26.577  1.00  0.00    -0.231 NA
ATOM     49  C   UNL     1     -48.816  42.080  26.988  1.00  0.00    -0.049 A 
ATOM     50  C   UNL     1     -46.520  42.142  26.279  1.00  0.00     0.129 A 
ATOM     51  C   UNL     1     -47.733  42.792  26.481  1.00  0.00    -0.019 A 
ATOM     52  H   UNL     1     -49.764  42.587  27.142  1.00  0.00     0.063 H 
ATOM     53  H   UNL     1     -47.840  43.848  26.258  1.00  0.00     0.066 H 
BRANCH  50  54
ATOM     54  N   UNL     1     -45.415  42.852  25.778  1.00  0.00    -0.355 N 
ATOM     55  C   UNL     1     -44.204  42.248  25.292  1.00  0.00     0.031 C 
ATOM     56  C   UNL     1     -45.423  43.845  24.741  1.00  0.00     0.031 C 
ATOM     57  C   UNL     1     -43.900  43.607  24.614  1.00  0.00     0.052 C 
ATOM     58  H   UNL     1     -44.399  41.400  24.625  1.00  0.00     0.050 H 
ATOM     59  H   UNL     1     -43.528  41.939  26.094  1.00  0.00     0.050 H 
ATOM     60  H   UNL     1     -45.735  44.832  25.092  1.00  0.00     0.050 H 
ATOM     61  H   UNL     1     -46.034  43.545  23.882  1.00  0.00     0.050 H 
BRANCH  57  62
ATOM     62  C   UNL     1     -43.070  44.530  25.514  1.00  0.00     0.054 C 
ATOM     63  H   UNL     1     -43.415  44.475  26.552  1.00  0.00     0.057 H 
ATOM     64  H   UNL     1     -43.121  45.576  25.193  1.00  0.00     0.057 H 
BRANCH  62  65
ATOM     65  O   UNL     1     -41.703  44.124  25.475  1.00  0.00    -0.396 OA
ATOM     66  H   UNL     1     -41.178  44.924  25.300  1.00  0.00     0.210 HD
ENDBRANCH  62  65
ENDBRANCH  57  62
BRANCH  57  67
ATOM     67  C   UNL     1     -43.316  43.540  23.208  1.00  0.00     0.054 C 
ATOM     68  H   UNL     1     -42.581  42.732  23.113  1.00  0.00     0.057 H 
ATOM     69  H   UNL     1     -44.109  43.355  22.475  1.00  0.00     0.057 H 
BRANCH  67  70
ATOM     70  O   UNL     1     -42.685  44.761  22.831  1.00  0.00    -0.396 OA
ATOM     71  H   UNL     1     -43.338  45.476  22.911  1.00  0.00     0.210 HD
ENDBRANCH  67  70
ENDBRANCH  57  67
ENDBRANCH  50  54
ENDBRANCH  38  39
ENDBRANCH   1  38
TORSDOF 12
ENDMDL
MODEL 4
REMARK VINA RESULT:      -9.1      2.961     12.643
REMARK SMILES Cn1ccc(-c2cn(-c3cncc(COc4ccc5ccc(N6CC(CO)(CO)C6)nc5c4)c3)c3ncnc(N)c23)n1
REMARK SMILES IDX 14 1 13 4 9 5 10 6 34 7 11 8 12 11 8 13 6 14 7 15 41 16
REMARK SMILES IDX 35 18 39 19 36 20 38 21 37 22 5 24 2 25 3 26 42 27 4 28 1 31
REMARK SMILES IDX 40 35 15 38 16 39 17 40 33 41 18 42 32 44 19 46 31 48 20 49
REMARK SMILES IDX 22 50 21 51 23 54 24 55 30 56 25 57 26 62 27 65 28 67 29 70
REMARK H PARENT 14 2 14 3 10 9 34 10 12 12 7 17 37 23 3 29 4 30 1 32 1 33 1 34
REMARK H PARENT 40 36 40 37 17 43 33 45 18 47 20 52 21 53 24 58 24 59 30 60
REMARK H PARENT 30 61 26 63 26 64 27 66 28 68 28 69 29 71
REMARK Flexibility Score: inf
ROOT
ATOM      1  C   UNL     1     -49.001  36.596  28.642  1.00  0.00     0.115 C 
ATOM      2  H   UNL     1     -49.605  37.501  28.788  1.00  0.00     0.076 H 
ATOM      3  H   UNL     1     -49.340  35.877  29.396  1.00  0.00     0.076 H 
ENDROOT
BRANCH   1   4
ATOM      4  C   UNL     1     -47.557  36.986  28.855  1.00  0.00     0.010 A 
ATOM      5  C   UNL     1     -45.656  38.477  28.570  1.00  0.00     0.066 A 
ATOM      6  C   UNL     1     -44.919  37.575  29.332  1.00  0.00     0.051 A 
ATOM      7  C   UNL     1     -47.005  38.177  28.362  1.00  0.00    -0.028 A 
ATOM      8  N   UNL     1     -45.424  36.431  29.856  1.00  0.00    -0.262 NA
ATOM      9  H   UNL     1     -43.862  37.705  29.541  1.00  0.00     0.086 H 
ATOM     10  H   UNL     1     -47.654  38.863  27.827  1.00  0.00     0.065 H 
ATOM     11  C   UNL     1     -46.724  36.163  29.602  1.00  0.00     0.034 A 
ATOM     12  H   UNL     1     -47.085  35.234  30.036  1.00  0.00     0.084 H 
BRANCH   5  13
ATOM     13  N   UNL     1     -45.046  39.646  28.020  1.00  0.00    -0.299 N 
ATOM     14  C   UNL     1     -44.679  41.409  26.669  1.00  0.00     0.033 A 
ATOM     15  C   UNL     1     -45.533  40.362  26.944  1.00  0.00     0.021 A 
ATOM     16  C   UNL     1     -43.657  41.407  27.654  1.00  0.00     0.071 A 
ATOM     17  H   UNL     1     -46.420  40.061  26.405  1.00  0.00     0.083 H 
ATOM     18  C   UNL     1     -43.889  40.292  28.459  1.00  0.00     0.150 A 
ATOM     19  C   UNL     1     -42.560  42.215  28.000  1.00  0.00     0.137 A 
ATOM     20  N   UNL     1     -43.136  39.938  29.521  1.00  0.00    -0.218 NA
ATOM     21  N   UNL     1     -41.792  41.871  29.048  1.00  0.00    -0.219 NA
ATOM     22  C   UNL     1     -42.109  40.766  29.741  1.00  0.00     0.120 A 
ATOM     23  H   UNL     1     -41.462  40.522  30.578  1.00  0.00     0.106 H 
BRANCH  14  24
ATOM     24  C   UNL     1     -44.839  42.343  25.558  1.00  0.00     0.095 A 
ATOM     25  N   UNL     1     -45.644  43.864  24.334  1.00  0.00    -0.275 N 
ATOM     26  C   UNL     1     -44.585  43.380  23.625  1.00  0.00     0.025 A 
ATOM     27  N   UNL     1     -45.827  43.244  25.515  1.00  0.00    -0.173 NA
ATOM     28  C   UNL     1     -44.045  42.374  24.392  1.00  0.00    -0.016 A 
ATOM     29  H   UNL     1     -44.317  43.768  22.652  1.00  0.00     0.084 H 
ATOM     30  H   UNL     1     -43.201  41.746  24.140  1.00  0.00     0.066 H 
BRANCH  25  31
ATOM     31  C   UNL     1     -46.543  44.921  23.942  1.00  0.00     0.030 C 
ATOM     32  H   UNL     1     -47.323  44.514  23.294  1.00  0.00     0.048 H 
ATOM     33  H   UNL     1     -45.969  45.679  23.403  1.00  0.00     0.048 H 
ATOM     34  H   UNL     1     -46.990  45.346  24.844  1.00  0.00     0.048 H 
ENDBRANCH  25  31
ENDBRANCH  14  24
BRANCH  19  35
ATOM     35  N   UNL     1     -42.217  43.402  27.365  1.00  0.00    -0.383 N 
ATOM     36  H   UNL     1     -42.343  44.225  27.943  1.00  0.00     0.158 HD
ATOM     37  H   UNL     1     -41.296  43.304  26.949  1.00  0.00     0.158 HD
ENDBRANCH  19  35
ENDBRANCH   5  13
ENDBRANCH   1   4
BRANCH   1  38
ATOM     38  O   UNL     1     -49.316  36.123  27.328  1.00  0.00    -0.489 OA
BRANCH  38  39
ATOM     39  C   UNL     1     -48.427  35.291  26.702  1.00  0.00     0.122 A 
ATOM     40  C   UNL     1     -47.159  35.641  26.251  1.00  0.00    -0.019 A 
ATOM     41  C   UNL     1     -48.897  33.988  26.499  1.00  0.00     0.007 A 
ATOM     42  C   UNL     1     -46.384  34.697  25.576  1.00  0.00    -0.049 A 
ATOM     43  H   UNL     1     -46.748  36.634  26.396  1.00  0.00     0.066 H 
ATOM     44  C   UNL     1     -48.155  33.037  25.816  1.00  0.00     0.076 A 
ATOM     45  H   UNL     1     -49.888  33.718  26.854  1.00  0.00     0.069 H 
ATOM     46  C   UNL     1     -46.879  33.402  25.348  1.00  0.00     0.001 A 
ATOM     47  H   UNL     1     -45.398  34.981  25.218  1.00  0.00     0.063 H 
ATOM     48  N   UNL     1     -48.676  31.813  25.610  1.00  0.00    -0.231 NA
ATOM     49  C   UNL     1     -46.141  32.440  24.657  1.00  0.00    -0.049 A 
ATOM     50  C   UNL     1     -47.960  30.892  24.928  1.00  0.00     0.129 A 
ATOM     51  C   UNL     1     -46.686  31.177  24.446  1.00  0.00    -0.019 A 
ATOM     52  H   UNL     1     -45.148  32.663  24.277  1.00  0.00     0.063 H 
ATOM     53  H   UNL     1     -46.112  30.423  23.919  1.00  0.00     0.066 H 
BRANCH  50  54
ATOM     54  N   UNL     1     -48.518  29.617  24.733  1.00  0.00    -0.355 N 
ATOM     55  C   UNL     1     -47.860  28.528  24.061  1.00  0.00     0.031 C 
ATOM     56  C   UNL     1     -49.079  28.755  25.735  1.00  0.00     0.031 C 
ATOM     57  C   UNL     1     -48.910  27.600  24.721  1.00  0.00     0.052 C 
ATOM     58  H   UNL     1     -46.822  28.403  24.387  1.00  0.00     0.050 H 
ATOM     59  H   UNL     1     -47.898  28.612  22.971  1.00  0.00     0.050 H 
ATOM     60  H   UNL     1     -50.104  29.021  26.006  1.00  0.00     0.050 H 
ATOM     61  H   UNL     1     -48.457  28.704  26.636  1.00  0.00     0.050 H 
BRANCH  57  62
ATOM     62  C   UNL     1     -50.143  27.396  23.832  1.00  0.00     0.054 C 
ATOM     63  H   UNL     1     -50.665  28.344  23.668  1.00  0.00     0.057 H 
ATOM     64  H   UNL     1     -50.854  26.685  24.267  1.00  0.00     0.057 H 
BRANCH  62  65
ATOM     65  O   UNL     1     -49.731  26.886  22.565  1.00  0.00    -0.396 OA
ATOM     66  H   UNL     1     -49.980  27.552  21.901  1.00  0.00     0.210 HD
ENDBRANCH  62  65
ENDBRANCH  57  62
BRANCH  57  67
ATOM     67  C   UNL     1     -48.390  26.270  25.254  1.00  0.00     0.054 C 
ATOM     68  H   UNL     1     -48.374  26.253  26.350  1.00  0.00     0.057 H 
ATOM     69  H   UNL     1     -49.031  25.448  24.918  1.00  0.00     0.057 H 
BRANCH  67  70
ATOM     70  O   UNL     1     -47.075  25.983  24.787  1.00  0.00    -0.396 OA
ATOM     71  H   UNL     1     -46.757  26.754  24.287  1.00  0.00     0.210 HD
ENDBRANCH  67  70
ENDBRANCH  57  67
ENDBRANCH  50  54
ENDBRANCH  38  39
ENDBRANCH   1  38
TORSDOF 12
ENDMDL
MODEL 5
REMARK VINA RESULT:      -8.9      3.326     13.303
REMARK SMILES Cn1ccc(-c2cn(-c3cncc(COc4ccc5ccc(N6CC(CO)(CO)C6)nc5c4)c3)c3ncnc(N)c23)n1
REMARK SMILES IDX 14 1 13 4 9 5 10 6 34 7 11 8 12 11 8 13 6 14 7 15 41 16
REMARK SMILES IDX 35 18 39 19 36 20 38 21 37 22 5 24 2 25 3 26 42 27 4 28 1 31
REMARK SMILES IDX 40 35 15 38 16 39 17 40 33 41 18 42 32 44 19 46 31 48 20 49
REMARK SMILES IDX 22 50 21 51 23 54 24 55 30 56 25 57 26 62 27 65 28 67 29 70
REMARK H PARENT 14 2 14 3 10 9 34 10 12 12 7 17 37 23 3 29 4 30 1 32 1 33 1 34
REMARK H PARENT 40 36 40 37 17 43 33 45 18 47 20 52 21 53 24 58 24 59 30 60
REMARK H PARENT 30 61 26 63 26 64 27 66 28 68 28 69 29 71
REMARK Flexibility Score: inf
ROOT
ATOM      1  C   UNL     1     -45.114  38.429  28.819  1.00  0.00     0.115 C 
ATOM      2  H   UNL     1     -46.115  38.820  29.041  1.00  0.00     0.076 H 
ATOM      3  H   UNL     1     -44.847  37.778  29.660  1.00  0.00     0.076 H 
ENDROOT
BRANCH   1   4
ATOM      4  C   UNL     1     -44.186  39.616  28.718  1.00  0.00     0.010 A 
ATOM      5  C   UNL     1     -43.517  41.764  27.794  1.00  0.00     0.066 A 
ATOM      6  C   UNL     1     -42.420  41.716  28.648  1.00  0.00     0.051 A 
ATOM      7  C   UNL     1     -44.422  40.702  27.863  1.00  0.00    -0.028 A 
ATOM      8  N   UNL     1     -42.174  40.701  29.513  1.00  0.00    -0.262 NA
ATOM      9  H   UNL     1     -41.651  42.482  28.664  1.00  0.00     0.086 H 
ATOM     10  H   UNL     1     -45.331  40.702  27.269  1.00  0.00     0.065 H 
ATOM     11  C   UNL     1     -43.056  39.679  29.524  1.00  0.00     0.034 A 
ATOM     12  H   UNL     1     -42.817  38.886  30.228  1.00  0.00     0.084 H 
BRANCH   5  13
ATOM     13  N   UNL     1     -43.693  42.851  26.882  1.00  0.00    -0.299 N 
ATOM     14  C   UNL     1     -43.865  43.985  24.945  1.00  0.00     0.033 A 
ATOM     15  C   UNL     1     -43.703  42.736  25.506  1.00  0.00     0.021 A 
ATOM     16  C   UNL     1     -44.044  44.916  26.001  1.00  0.00     0.071 A 
ATOM     17  H   UNL     1     -43.544  41.792  25.004  1.00  0.00     0.083 H 
ATOM     18  C   UNL     1     -43.904  44.197  27.188  1.00  0.00     0.150 A 
ATOM     19  C   UNL     1     -44.330  46.287  26.128  1.00  0.00     0.137 A 
ATOM     20  N   UNL     1     -44.011  44.722  28.426  1.00  0.00    -0.218 NA
ATOM     21  N   UNL     1     -44.429  46.830  27.354  1.00  0.00    -0.219 NA
ATOM     22  C   UNL     1     -44.262  46.036  28.423  1.00  0.00     0.120 A 
ATOM     23  H   UNL     1     -44.348  46.514  29.394  1.00  0.00     0.106 H 
BRANCH  14  24
ATOM     24  C   UNL     1     -43.861  44.261  23.511  1.00  0.00     0.095 A 
ATOM     25  N   UNL     1     -43.193  44.860  21.600  1.00  0.00    -0.275 N 
ATOM     26  C   UNL     1     -44.513  44.564  21.423  1.00  0.00     0.025 A 
ATOM     27  N   UNL     1     -42.771  44.692  22.866  1.00  0.00    -0.173 NA
ATOM     28  C   UNL     1     -44.982  44.182  22.658  1.00  0.00    -0.016 A 
ATOM     29  H   UNL     1     -45.001  44.660  20.464  1.00  0.00     0.084 H 
ATOM     30  H   UNL     1     -45.995  43.895  22.908  1.00  0.00     0.066 H 
BRANCH  25  31
ATOM     31  C   UNL     1     -42.264  45.324  20.599  1.00  0.00     0.030 C 
ATOM     32  H   UNL     1     -41.250  45.031  20.880  1.00  0.00     0.048 H 
ATOM     33  H   UNL     1     -42.335  46.413  20.542  1.00  0.00     0.048 H 
ATOM     34  H   UNL     1     -42.533  44.869  19.642  1.00  0.00     0.048 H 
ENDBRANCH  25  31
ENDBRANCH  14  24
BRANCH  19  35
ATOM     35  N   UNL     1     -44.577  47.147  25.065  1.00  0.00    -0.383 N 
ATOM     36  H   UNL     1     -44.216  48.083  25.207  1.00  0.00     0.158 HD
ATOM     37  H   UNL     1     -44.289  46.700  24.201  1.00  0.00     0.158 HD
ENDBRANCH  19  35
ENDBRANCH   5  13
ENDBRANCH   1   4
BRANCH   1  38
ATOM     38  O   UNL     1     -45.251  37.660  27.620  1.00  0.00    -0.489 OA
BRANCH  38  39
ATOM     39  C   UNL     1     -46.387  36.916  27.446  1.00  0.00     0.122 A 
ATOM     40  C   UNL     1     -47.607  37.128  28.080  1.00  0.00    -0.019 A 
ATOM     41  C   UNL     1     -46.248  35.843  26.559  1.00  0.00     0.007 A 
ATOM     42  C   UNL     1     -48.666  36.249  27.845  1.00  0.00    -0.049 A 
ATOM     43  H   UNL     1     -47.766  37.953  28.765  1.00  0.00     0.066 H 
ATOM     44  C   UNL     1     -47.278  34.945  26.322  1.00  0.00     0.076 A 
ATOM     45  H   UNL     1     -45.293  35.681  26.065  1.00  0.00     0.069 H 
ATOM     46  C   UNL     1     -48.504  35.156  26.978  1.00  0.00     0.001 A 
ATOM     47  H   UNL     1     -49.613  36.416  28.351  1.00  0.00     0.063 H 
ATOM     48  N   UNL     1     -47.071  33.904  25.494  1.00  0.00    -0.231 NA
ATOM     49  C   UNL     1     -49.534  34.245  26.739  1.00  0.00    -0.049 A 
ATOM     50  C   UNL     1     -48.070  33.020  25.278  1.00  0.00     0.129 A 
ATOM     51  C   UNL     1     -49.314  33.170  25.882  1.00  0.00    -0.019 A 
ATOM     52  H   UNL     1     -50.504  34.359  27.213  1.00  0.00     0.063 H 
ATOM     53  H   UNL     1     -50.115  32.466  25.684  1.00  0.00     0.066 H 
BRANCH  50  54
ATOM     54  N   UNL     1     -47.838  31.946  24.401  1.00  0.00    -0.355 N 
ATOM     55  C   UNL     1     -46.583  31.257  24.262  1.00  0.00     0.031 C 
ATOM     56  C   UNL     1     -48.599  30.732  24.300  1.00  0.00     0.031 C 
ATOM     57  C   UNL     1     -47.379  30.125  23.567  1.00  0.00     0.052 C 
ATOM     58  H   UNL     1     -46.131  31.015  25.230  1.00  0.00     0.050 H 
ATOM     59  H   UNL     1     -45.863  31.800  23.643  1.00  0.00     0.050 H 
ATOM     60  H   UNL     1     -49.514  30.845  23.713  1.00  0.00     0.050 H 
ATOM     61  H   UNL     1     -48.836  30.306  25.281  1.00  0.00     0.050 H 
BRANCH  57  62
ATOM     62  C   UNL     1     -47.440  30.308  22.046  1.00  0.00     0.054 C 
ATOM     63  H   UNL     1     -47.552  31.366  21.786  1.00  0.00     0.057 H 
ATOM     64  H   UNL     1     -48.271  29.756  21.595  1.00  0.00     0.057 H 
BRANCH  62  65
ATOM     65  O   UNL     1     -46.228  29.831  21.465  1.00  0.00    -0.396 OA
ATOM     66  H   UNL     1     -46.206  30.162  20.550  1.00  0.00     0.210 HD
ENDBRANCH  62  65
ENDBRANCH  57  62
BRANCH  57  67
ATOM     67  C   UNL     1     -46.980  28.700  23.934  1.00  0.00     0.054 C 
ATOM     68  H   UNL     1     -45.903  28.539  23.814  1.00  0.00     0.057 H 
ATOM     69  H   UNL     1     -47.233  28.491  24.978  1.00  0.00     0.057 H 
BRANCH  67  70
ATOM     70  O   UNL     1     -47.664  27.732  23.144  1.00  0.00    -0.396 OA
ATOM     71  H   UNL     1     -48.222  27.199  23.735  1.00  0.00     0.210 HD
ENDBRANCH  67  70
ENDBRANCH  57  67
ENDBRANCH  50  54
ENDBRANCH  38  39
ENDBRANCH   1  38
TORSDOF 12
ENDMDL
MODEL 6
REMARK VINA RESULT:      -8.9      3.696     12.984
REMARK SMILES Cn1ccc(-c2cn(-c3cncc(COc4ccc5ccc(N6CC(CO)(CO)C6)nc5c4)c3)c3ncnc(N)c23)n1
REMARK SMILES IDX 14 1 13 4 9 5 10 6 34 7 11 8 12 11 8 13 6 14 7 15 41 16
REMARK SMILES IDX 35 18 39 19 36 20 38 21 37 22 5 24 2 25 3 26 42 27 4 28 1 31
REMARK SMILES IDX 40 35 15 38 16 39 17 40 33 41 18 42 32 44 19 46 31 48 20 49
REMARK SMILES IDX 22 50 21 51 23 54 24 55 30 56 25 57 26 62 27 65 28 67 29 70
REMARK H PARENT 14 2 14 3 10 9 34 10 12 12 7 17 37 23 3 29 4 30 1 32 1 33 1 34
REMARK H PARENT 40 36 40 37 17 43 33 45 18 47 20 52 21 53 24 58 24 59 30 60
REMARK H PARENT 30 61 26 63 26 64 27 66 28 68 28 69 29 71
REMARK Flexibility Score: inf
ROOT
ATOM      1  C   UNL     1     -48.207  36.248  28.532  1.00  0.00     0.115 C 
ATOM      2  H   UNL     1     -49.038  36.643  29.130  1.00  0.00     0.076 H 
ATOM      3  H   UNL     1     -47.777  35.424  29.114  1.00  0.00     0.076 H 
ENDROOT
BRANCH   1   4
ATOM      4  C   UNL     1     -47.218  37.374  28.345  1.00  0.00     0.010 A 
ATOM      5  C   UNL     1     -46.606  39.618  27.633  1.00  0.00     0.066 A 
ATOM      6  C   UNL     1     -45.319  39.337  28.078  1.00  0.00     0.051 A 
ATOM      7  C   UNL     1     -47.568  38.619  27.803  1.00  0.00    -0.028 A 
ATOM      8  N   UNL     1     -44.948  38.159  28.639  1.00  0.00    -0.262 NA
ATOM      9  H   UNL     1     -44.494  40.036  27.980  1.00  0.00     0.086 H 
ATOM     10  H   UNL     1     -48.606  38.790  27.533  1.00  0.00     0.065 H 
ATOM     11  C   UNL     1     -45.901  37.209  28.755  1.00  0.00     0.034 A 
ATOM     12  H   UNL     1     -45.559  36.280  29.203  1.00  0.00     0.084 H 
BRANCH   5  13
ATOM     13  N   UNL     1     -46.916  40.871  27.019  1.00  0.00    -0.299 N 
ATOM     14  C   UNL     1     -48.077  42.695  26.395  1.00  0.00     0.033 A 
ATOM     15  C   UNL     1     -48.119  41.537  27.141  1.00  0.00     0.021 A 
ATOM     16  C   UNL     1     -46.775  42.810  25.843  1.00  0.00     0.071 A 
ATOM     17  H   UNL     1     -48.949  41.131  27.703  1.00  0.00     0.083 H 
ATOM     18  C   UNL     1     -46.085  41.657  26.218  1.00  0.00     0.150 A 
ATOM     19  C   UNL     1     -46.058  43.751  25.083  1.00  0.00     0.137 A 
ATOM     20  N   UNL     1     -44.804  41.385  25.895  1.00  0.00    -0.218 NA
ATOM     21  N   UNL     1     -44.784  43.491  24.742  1.00  0.00    -0.219 NA
ATOM     22  C   UNL     1     -44.232  42.339  25.153  1.00  0.00     0.120 A 
ATOM     23  H   UNL     1     -43.202  42.167  24.855  1.00  0.00     0.106 H 
BRANCH  14  24
ATOM     24  C   UNL     1     -49.193  43.623  26.235  1.00  0.00     0.095 A 
ATOM     25  N   UNL     1     -50.318  45.410  26.263  1.00  0.00    -0.275 N 
ATOM     26  C   UNL     1     -51.210  44.451  25.885  1.00  0.00     0.025 A 
ATOM     27  N   UNL     1     -49.081  44.932  26.491  1.00  0.00    -0.173 NA
ATOM     28  C   UNL     1     -50.509  43.268  25.870  1.00  0.00    -0.016 A 
ATOM     29  H   UNL     1     -52.246  44.678  25.676  1.00  0.00     0.084 H 
ATOM     30  H   UNL     1     -50.897  42.286  25.635  1.00  0.00     0.066 H 
BRANCH  25  31
ATOM     31  C   UNL     1     -50.577  46.818  26.441  1.00  0.00     0.030 C 
ATOM     32  H   UNL     1     -50.478  47.075  27.498  1.00  0.00     0.048 H 
ATOM     33  H   UNL     1     -51.594  47.026  26.101  1.00  0.00     0.048 H 
ATOM     34  H   UNL     1     -49.849  47.379  25.850  1.00  0.00     0.048 H 
ENDBRANCH  25  31
ENDBRANCH  14  24
BRANCH  19  35
ATOM     35  N   UNL     1     -46.550  44.987  24.682  1.00  0.00    -0.383 N 
ATOM     36  H   UNL     1     -47.508  44.957  24.352  1.00  0.00     0.158 HD
ATOM     37  H   UNL     1     -46.366  45.671  25.409  1.00  0.00     0.158 HD
ENDBRANCH  19  35
ENDBRANCH   5  13
ENDBRANCH   1   4
BRANCH   1  38
ATOM     38  O   UNL     1     -48.796  35.749  27.327  1.00  0.00    -0.489 OA
BRANCH  38  39
ATOM     39  C   UNL     1     -48.106  34.819  26.597  1.00  0.00     0.122 A 
ATOM     40  C   UNL     1     -46.838  34.987  26.050  1.00  0.00    -0.019 A 
ATOM     41  C   UNL     1     -48.793  33.617  26.391  1.00  0.00     0.007 A 
ATOM     42  C   UNL     1     -46.281  33.965  25.278  1.00  0.00    -0.049 A 
ATOM     43  H   UNL     1     -46.263  35.894  26.194  1.00  0.00     0.066 H 
ATOM     44  C   UNL     1     -48.270  32.594  25.614  1.00  0.00     0.076 A 
ATOM     45  H   UNL     1     -49.783  33.489  26.821  1.00  0.00     0.069 H 
ATOM     46  C   UNL     1     -46.994  32.777  25.050  1.00  0.00     0.001 A 
ATOM     47  H   UNL     1     -45.295  34.108  24.846  1.00  0.00     0.063 H 
ATOM     48  N   UNL     1     -48.996  31.479  25.412  1.00  0.00    -0.231 NA
ATOM     49  C   UNL     1     -46.477  31.745  24.264  1.00  0.00    -0.049 A 
ATOM     50  C   UNL     1     -48.494  30.491  24.639  1.00  0.00     0.129 A 
ATOM     51  C   UNL     1     -47.233  30.595  24.059  1.00  0.00    -0.019 A 
ATOM     52  H   UNL     1     -45.496  31.827  23.808  1.00  0.00     0.063 H 
ATOM     53  H   UNL     1     -46.832  29.786  23.458  1.00  0.00     0.066 H 
BRANCH  50  54
ATOM     54  N   UNL     1     -49.263  29.329  24.449  1.00  0.00    -0.355 N 
ATOM     55  C   UNL     1     -50.546  29.293  23.800  1.00  0.00     0.031 C 
ATOM     56  C   UNL     1     -48.838  28.101  23.840  1.00  0.00     0.031 C 
ATOM     57  C   UNL     1     -50.338  27.764  23.664  1.00  0.00     0.052 C 
ATOM     58  H   UNL     1     -50.559  29.870  22.869  1.00  0.00     0.050 H 
ATOM     59  H   UNL     1     -51.363  29.619  24.449  1.00  0.00     0.050 H 
ATOM     60  H   UNL     1     -48.270  27.458  24.517  1.00  0.00     0.050 H 
ATOM     61  H   UNL     1     -48.267  28.268  22.919  1.00  0.00     0.050 H 
BRANCH  57  62
ATOM     62  C   UNL     1     -50.923  26.992  24.852  1.00  0.00     0.054 C 
ATOM     63  H   UNL     1     -51.997  26.825  24.717  1.00  0.00     0.057 H 
ATOM     64  H   UNL     1     -50.777  27.519  25.801  1.00  0.00     0.057 H 
BRANCH  62  65
ATOM     65  O   UNL     1     -50.282  25.721  24.951  1.00  0.00    -0.396 OA
ATOM     66  H   UNL     1     -50.764  25.117  24.360  1.00  0.00     0.210 HD
ENDBRANCH  62  65
ENDBRANCH  57  62
BRANCH  57  67
ATOM     67  C   UNL     1     -50.765  27.143  22.339  1.00  0.00     0.054 C 
ATOM     68  H   UNL     1     -51.246  27.879  21.685  1.00  0.00     0.057 H 
ATOM     69  H   UNL     1     -49.896  26.744  21.808  1.00  0.00     0.057 H 
BRANCH  67  70
ATOM     70  O   UNL     1     -51.668  26.057  22.524  1.00  0.00    -0.396 OA
ATOM     71  H   UNL     1     -51.188  25.336  22.966  1.00  0.00     0.210 HD
ENDBRANCH  67  70
ENDBRANCH  57  67
ENDBRANCH  50  54
ENDBRANCH  38  39
ENDBRANCH   1  38
TORSDOF 12
ENDMDL
MODEL 7
REMARK VINA RESULT:      -8.9      3.163     13.178
REMARK SMILES Cn1ccc(-c2cn(-c3cncc(COc4ccc5ccc(N6CC(CO)(CO)C6)nc5c4)c3)c3ncnc(N)c23)n1
REMARK SMILES IDX 14 1 13 4 9 5 10 6 34 7 11 8 12 11 8 13 6 14 7 15 41 16
REMARK SMILES IDX 35 18 39 19 36 20 38 21 37 22 5 24 2 25 3 26 42 27 4 28 1 31
REMARK SMILES IDX 40 35 15 38 16 39 17 40 33 41 18 42 32 44 19 46 31 48 20 49
REMARK SMILES IDX 22 50 21 51 23 54 24 55 30 56 25 57 26 62 27 65 28 67 29 70
REMARK H PARENT 14 2 14 3 10 9 34 10 12 12 7 17 37 23 3 29 4 30 1 32 1 33 1 34
REMARK H PARENT 40 36 40 37 17 43 33 45 18 47 20 52 21 53 24 58 24 59 30 60
REMARK H PARENT 30 61 26 63 26 64 27 66 28 68 28 69 29 71
REMARK Flexibility Score: inf
ROOT
ATOM      1  C   UNL     1     -46.150  35.262  28.393  1.00  0.00     0.115 C 
ATOM      2  H   UNL     1     -45.980  35.180  29.474  1.00  0.00     0.076 H 
ATOM      3  H   UNL     1     -45.177  35.092  27.917  1.00  0.00     0.076 H 
ENDROOT
BRANCH   1   4
ATOM      4  C   UNL     1     -46.662  36.659  28.128  1.00  0.00     0.010 A 
ATOM      5  C   UNL     1     -46.365  38.981  27.469  1.00  0.00     0.066 A 
ATOM      6  C   UNL     1     -47.732  39.144  27.672  1.00  0.00     0.051 A 
ATOM      7  C   UNL     1     -45.842  37.702  27.676  1.00  0.00    -0.028 A 
ATOM      8  N   UNL     1     -48.565  38.153  28.076  1.00  0.00    -0.262 NA
ATOM      9  H   UNL     1     -48.236  40.098  27.554  1.00  0.00     0.086 H 
ATOM     10  H   UNL     1     -44.797  37.487  27.479  1.00  0.00     0.065 H 
ATOM     11  C   UNL     1     -48.012  36.941  28.297  1.00  0.00     0.034 A 
ATOM     12  H   UNL     1     -48.714  36.179  28.624  1.00  0.00     0.084 H 
BRANCH   5  13
ATOM     13  N   UNL     1     -45.543  40.082  27.077  1.00  0.00    -0.299 N 
ATOM     14  C   UNL     1     -44.788  41.854  25.912  1.00  0.00     0.033 A 
ATOM     15  C   UNL     1     -45.804  40.927  26.016  1.00  0.00     0.021 A 
ATOM     16  C   UNL     1     -43.892  41.641  26.991  1.00  0.00     0.071 A 
ATOM     17  H   UNL     1     -46.659  40.793  25.369  1.00  0.00     0.083 H 
ATOM     18  C   UNL     1     -44.363  40.523  27.680  1.00  0.00     0.150 A 
ATOM     19  C   UNL     1     -42.739  42.257  27.509  1.00  0.00     0.137 A 
ATOM     20  N   UNL     1     -43.789  39.997  28.780  1.00  0.00    -0.218 NA
ATOM     21  N   UNL     1     -42.147  41.740  28.599  1.00  0.00    -0.219 NA
ATOM     22  C   UNL     1     -42.688  40.651  29.167  1.00  0.00     0.120 A 
ATOM     23  H   UNL     1     -42.178  40.264  30.044  1.00  0.00     0.106 H 
BRANCH  14  24
ATOM     24  C   UNL     1     -44.693  42.870  24.867  1.00  0.00     0.095 A 
ATOM     25  N   UNL     1     -43.894  44.082  23.334  1.00  0.00    -0.275 N 
ATOM     26  C   UNL     1     -45.147  44.579  23.544  1.00  0.00     0.025 A 
ATOM     27  N   UNL     1     -43.588  43.044  24.134  1.00  0.00    -0.173 NA
ATOM     28  C   UNL     1     -45.691  43.816  24.550  1.00  0.00    -0.016 A 
ATOM     29  H   UNL     1     -45.533  45.420  22.986  1.00  0.00     0.084 H 
ATOM     30  H   UNL     1     -46.669  43.933  24.998  1.00  0.00     0.066 H 
BRANCH  25  31
ATOM     31  C   UNL     1     -42.917  44.558  22.385  1.00  0.00     0.030 C 
ATOM     32  H   UNL     1     -41.916  44.447  22.808  1.00  0.00     0.048 H 
ATOM     33  H   UNL     1     -43.120  45.612  22.182  1.00  0.00     0.048 H 
ATOM     34  H   UNL     1     -43.006  43.964  21.473  1.00  0.00     0.048 H 
ENDBRANCH  25  31
ENDBRANCH  14  24
BRANCH  19  35
ATOM     35  N   UNL     1     -42.168  43.420  27.006  1.00  0.00    -0.383 N 
ATOM     36  H   UNL     1     -41.989  44.124  27.712  1.00  0.00     0.158 HD
ATOM     37  H   UNL     1     -41.369  43.176  26.429  1.00  0.00     0.158 HD
ENDBRANCH  19  35
ENDBRANCH   5  13
ENDBRANCH   1   4
BRANCH   1  38
ATOM     38  O   UNL     1     -47.058  34.207  28.058  1.00  0.00    -0.489 OA
BRANCH  38  39
ATOM     39  C   UNL     1     -46.923  33.589  26.845  1.00  0.00     0.122 A 
ATOM     40  C   UNL     1     -46.115  34.016  25.795  1.00  0.00    -0.019 A 
ATOM     41  C   UNL     1     -47.710  32.442  26.687  1.00  0.00     0.007 A 
ATOM     42  C   UNL     1     -46.124  33.312  24.590  1.00  0.00    -0.049 A 
ATOM     43  H   UNL     1     -45.479  34.890  25.875  1.00  0.00     0.066 H 
ATOM     44  C   UNL     1     -47.750  31.735  25.495  1.00  0.00     0.076 A 
ATOM     45  H   UNL     1     -48.339  32.111  27.509  1.00  0.00     0.069 H 
ATOM     46  C   UNL     1     -46.942  32.182  24.433  1.00  0.00     0.001 A 
ATOM     47  H   UNL     1     -45.497  33.657  23.772  1.00  0.00     0.063 H 
ATOM     48  N   UNL     1     -48.561  30.666  25.386  1.00  0.00    -0.231 NA
ATOM     49  C   UNL     1     -46.993  31.467  23.234  1.00  0.00    -0.049 A 
ATOM     50  C   UNL     1     -48.613  29.989  24.218  1.00  0.00     0.129 A 
ATOM     51  C   UNL     1     -47.834  30.363  23.128  1.00  0.00    -0.019 A 
ATOM     52  H   UNL     1     -46.388  31.762  22.381  1.00  0.00     0.063 H 
ATOM     53  H   UNL     1     -47.869  29.800  22.202  1.00  0.00     0.066 H 
BRANCH  50  54
ATOM     54  N   UNL     1     -49.458  28.869  24.128  1.00  0.00    -0.355 N 
ATOM     55  C   UNL     1     -49.225  27.611  24.786  1.00  0.00     0.031 C 
ATOM     56  C   UNL     1     -50.869  28.827  24.388  1.00  0.00     0.031 C 
ATOM     57  C   UNL     1     -50.717  27.293  24.519  1.00  0.00     0.052 C 
ATOM     58  H   UNL     1     -48.931  27.737  25.834  1.00  0.00     0.050 H 
ATOM     59  H   UNL     1     -48.492  26.986  24.268  1.00  0.00     0.050 H 
ATOM     60  H   UNL     1     -51.472  29.188  23.551  1.00  0.00     0.050 H 
ATOM     61  H   UNL     1     -51.140  29.367  25.302  1.00  0.00     0.050 H 
BRANCH  57  62
ATOM     62  C   UNL     1     -50.924  26.554  23.192  1.00  0.00     0.054 C 
ATOM     63  H   UNL     1     -50.559  25.524  23.260  1.00  0.00     0.057 H 
ATOM     64  H   UNL     1     -50.407  27.045  22.360  1.00  0.00     0.057 H 
BRANCH  62  65
ATOM     65  O   UNL     1     -52.316  26.516  22.885  1.00  0.00    -0.396 OA
ATOM     66  H   UNL     1     -52.789  26.457  23.733  1.00  0.00     0.210 HD
ENDBRANCH  62  65
ENDBRANCH  57  62
BRANCH  57  67
ATOM     67  C   UNL     1     -51.472  26.609  25.653  1.00  0.00     0.054 C 
ATOM     68  H   UNL     1     -51.542  27.253  26.537  1.00  0.00     0.057 H 
ATOM     69  H   UNL     1     -52.491  26.363  25.339  1.00  0.00     0.057 H 
BRANCH  67  70
ATOM     70  O   UNL     1     -50.856  25.385  26.044  1.00  0.00    -0.396 OA
ATOM     71  H   UNL     1     -51.407  24.975  26.732  1.00  0.00     0.210 HD
ENDBRANCH  67  70
ENDBRANCH  57  67
ENDBRANCH  50  54
ENDBRANCH  38  39
ENDBRANCH   1  38
TORSDOF 12
ENDMDL
