MODEL 1
REMARK VINA RESULT:     -10.4      0.000      0.000
REMARK SMILES CCCc1cc(N)c2ccc(CCc3cncc(-n4cc(-c5ccn(C)n5)c5c(N)ncnc54)c3)cc2n1
REMARK SMILES IDX 12 1 11 4 4 5 5 6 38 7 6 8 37 10 8 11 36 12 9 13 10 15 3 18
REMARK SMILES IDX 2 21 1 24 7 28 13 31 14 34 15 35 35 36 16 37 18 39 17 41
REMARK SMILES IDX 19 43 20 44 34 45 21 46 28 48 33 49 29 50 32 51 31 52 22 54
REMARK SMILES IDX 23 55 27 56 24 57 25 59 26 61 30 65
REMARK H PARENT 12 2 12 3 5 9 36 14 9 16 10 17 3 19 3 20 2 22 2 23 1 25 1 26
REMARK H PARENT 1 27 7 29 7 30 13 32 13 33 15 38 35 40 17 42 20 47 32 53 23 58
REMARK H PARENT 24 60 26 62 26 63 26 64 30 66 30 67
REMARK Flexibility Score: inf
ROOT
ATOM      1  C   UNL     1     -48.420  34.368  27.032  1.00  0.00    -0.024 C 
ATOM      2  H   UNL     1     -47.999  34.191  28.030  1.00  0.00     0.032 H 
ATOM      3  H   UNL     1     -49.504  34.233  27.142  1.00  0.00     0.032 H 
ENDROOT
BRANCH   1   4
ATOM      4  C   UNL     1     -47.880  33.335  26.075  1.00  0.00    -0.045 A 
ATOM      5  C   UNL     1     -48.256  28.960  24.234  1.00  0.00     0.043 A 
ATOM      6  C   UNL     1     -47.118  29.107  23.454  1.00  0.00    -0.017 A 
ATOM      7  N   UNL     1     -48.729  29.951  25.019  1.00  0.00    -0.253 NA
ATOM      8  C   UNL     1     -46.451  30.331  23.443  1.00  0.00     0.043 A 
ATOM      9  H   UNL     1     -46.760  28.278  22.851  1.00  0.00     0.066 H 
ATOM     10  C   UNL     1     -48.052  31.109  25.074  1.00  0.00     0.073 A 
ATOM     11  C   UNL     1     -46.884  31.353  24.322  1.00  0.00     0.023 A 
ATOM     12  C   UNL     1     -48.527  32.099  25.925  1.00  0.00    -0.032 A 
ATOM     13  C   UNL     1     -46.221  32.593  24.488  1.00  0.00    -0.050 A 
ATOM     14  H   UNL     1     -49.432  31.891  26.494  1.00  0.00     0.065 H 
ATOM     15  C   UNL     1     -46.713  33.572  25.354  1.00  0.00    -0.058 A 
ATOM     16  H   UNL     1     -45.302  32.806  23.949  1.00  0.00     0.063 H 
ATOM     17  H   UNL     1     -46.176  34.511  25.459  1.00  0.00     0.063 H 
BRANCH   5  18
ATOM     18  C   UNL     1     -49.023  27.662  24.239  1.00  0.00    -0.011 C 
ATOM     19  H   UNL     1     -50.089  27.844  24.061  1.00  0.00     0.033 H 
ATOM     20  H   UNL     1     -48.671  27.060  23.391  1.00  0.00     0.033 H 
BRANCH  18  21
ATOM     21  C   UNL     1     -48.835  26.858  25.528  1.00  0.00    -0.051 C 
ATOM     22  H   UNL     1     -47.790  26.524  25.580  1.00  0.00     0.027 H 
ATOM     23  H   UNL     1     -49.008  27.492  26.406  1.00  0.00     0.027 H 
BRANCH  21  24
ATOM     24  C   UNL     1     -49.734  25.633  25.608  1.00  0.00    -0.065 C 
ATOM     25  H   UNL     1     -50.454  25.727  26.428  1.00  0.00     0.023 H 
ATOM     26  H   UNL     1     -50.297  25.519  24.675  1.00  0.00     0.023 H 
ATOM     27  H   UNL     1     -49.154  24.718  25.760  1.00  0.00     0.023 H 
ENDBRANCH  21  24
ENDBRANCH  18  21
ENDBRANCH   5  18
BRANCH   8  28
ATOM     28  N   UNL     1     -45.249  30.430  22.707  1.00  0.00    -0.398 N 
ATOM     29  H   UNL     1     -45.047  31.372  22.384  1.00  0.00     0.156 HD
ATOM     30  H   UNL     1     -44.450  30.023  23.180  1.00  0.00     0.156 HD
ENDBRANCH   8  28
ENDBRANCH   1   4
BRANCH   1  31
ATOM     31  C   UNL     1     -48.105  35.791  26.561  1.00  0.00    -0.022 C 
ATOM     32  H   UNL     1     -49.027  36.383  26.488  1.00  0.00     0.032 H 
ATOM     33  H   UNL     1     -47.685  35.777  25.547  1.00  0.00     0.032 H 
BRANCH  31  34
ATOM     34  C   UNL     1     -47.141  36.481  27.488  1.00  0.00    -0.027 A 
ATOM     35  C   UNL     1     -46.807  35.926  28.714  1.00  0.00     0.030 A 
ATOM     36  C   UNL     1     -46.526  37.689  27.132  1.00  0.00    -0.032 A 
ATOM     37  N   UNL     1     -45.936  36.485  29.577  1.00  0.00    -0.262 NA
ATOM     38  H   UNL     1     -47.241  34.988  29.051  1.00  0.00     0.084 H 
ATOM     39  C   UNL     1     -45.614  38.309  28.001  1.00  0.00     0.066 A 
ATOM     40  H   UNL     1     -46.792  38.123  26.173  1.00  0.00     0.065 H 
ATOM     41  C   UNL     1     -45.363  37.659  29.205  1.00  0.00     0.051 A 
ATOM     42  H   UNL     1     -44.672  38.030  29.953  1.00  0.00     0.086 H 
BRANCH  39  43
ATOM     43  N   UNL     1     -44.977  39.543  27.651  1.00  0.00    -0.299 N 
ATOM     44  C   UNL     1     -45.322  40.333  26.570  1.00  0.00     0.021 A 
ATOM     45  C   UNL     1     -43.916  40.184  28.300  1.00  0.00     0.150 A 
ATOM     46  C   UNL     1     -44.490  41.430  26.512  1.00  0.00     0.033 A 
ATOM     47  H   UNL     1     -46.115  40.066  25.887  1.00  0.00     0.083 H 
ATOM     48  C   UNL     1     -43.621  41.373  27.629  1.00  0.00     0.071 A 
ATOM     49  N   UNL     1     -43.284  39.751  29.409  1.00  0.00    -0.218 NA
ATOM     50  C   UNL     1     -42.616  42.181  28.190  1.00  0.00     0.137 A 
ATOM     51  C   UNL     1     -42.326  40.584  29.828  1.00  0.00     0.120 A 
ATOM     52  N   UNL     1     -41.969  41.760  29.292  1.00  0.00    -0.219 NA
ATOM     53  H   UNL     1     -41.776  40.277  30.713  1.00  0.00     0.106 H 
BRANCH  46  54
ATOM     54  C   UNL     1     -44.534  42.453  25.471  1.00  0.00     0.095 A 
ATOM     55  C   UNL     1     -45.628  43.299  25.198  1.00  0.00    -0.016 A 
ATOM     56  N   UNL     1     -43.479  42.733  24.697  1.00  0.00    -0.173 NA
ATOM     57  C   UNL     1     -45.198  44.114  24.175  1.00  0.00     0.025 A 
ATOM     58  H   UNL     1     -46.595  43.321  25.682  1.00  0.00     0.066 H 
ATOM     59  N   UNL     1     -43.912  43.739  23.916  1.00  0.00    -0.275 N 
ATOM     60  H   UNL     1     -45.685  44.915  23.637  1.00  0.00     0.084 H 
BRANCH  59  61
ATOM     61  C   UNL     1     -43.022  44.308  22.933  1.00  0.00     0.030 C 
ATOM     62  H   UNL     1     -42.338  43.535  22.573  1.00  0.00     0.048 H 
ATOM     63  H   UNL     1     -42.458  45.115  23.405  1.00  0.00     0.048 H 
ATOM     64  H   UNL     1     -43.623  44.690  22.104  1.00  0.00     0.048 H 
ENDBRANCH  59  61
ENDBRANCH  46  54
BRANCH  50  65
ATOM     65  N   UNL     1     -42.248  43.434  27.715  1.00  0.00    -0.383 N 
ATOM     66  H   UNL     1     -42.990  43.808  27.134  1.00  0.00     0.158 HD
ATOM     67  H   UNL     1     -41.325  43.456  27.297  1.00  0.00     0.158 HD
ENDBRANCH  50  65
ENDBRANCH  39  43
ENDBRANCH  31  34
ENDBRANCH   1  31
TORSDOF 11
ENDMDL
MODEL 2
REMARK VINA RESULT:     -10.3      1.493      2.207
REMARK SMILES CCCc1cc(N)c2ccc(CCc3cncc(-n4cc(-c5ccn(C)n5)c5c(N)ncnc54)c3)cc2n1
REMARK SMILES IDX 12 1 11 4 4 5 5 6 38 7 6 8 37 10 8 11 36 12 9 13 10 15 3 18
REMARK SMILES IDX 2 21 1 24 7 28 13 31 14 34 15 35 35 36 16 37 18 39 17 41
REMARK SMILES IDX 19 43 20 44 34 45 21 46 28 48 33 49 29 50 32 51 31 52 22 54
REMARK SMILES IDX 23 55 27 56 24 57 25 59 26 61 30 65
REMARK H PARENT 12 2 12 3 5 9 36 14 9 16 10 17 3 19 3 20 2 22 2 23 1 25 1 26
REMARK H PARENT 1 27 7 29 7 30 13 32 13 33 15 38 35 40 17 42 20 47 32 53 23 58
REMARK H PARENT 24 60 26 62 26 63 26 64 30 66 30 67
REMARK Flexibility Score: inf
ROOT
ATOM      1  C   UNL     1     -48.217  32.913  26.526  1.00  0.00    -0.024 C 
ATOM      2  H   UNL     1     -47.694  32.522  27.408  1.00  0.00     0.032 H 
ATOM      3  H   UNL     1     -49.189  33.266  26.894  1.00  0.00     0.032 H 
ENDROOT
BRANCH   1   4
ATOM      4  C   UNL     1     -48.432  31.794  25.539  1.00  0.00    -0.045 A 
ATOM      5  C   UNL     1     -49.302  27.168  24.815  1.00  0.00     0.043 A 
ATOM      6  C   UNL     1     -49.219  27.290  23.435  1.00  0.00    -0.017 A 
ATOM      7  N   UNL     1     -49.170  28.226  25.644  1.00  0.00    -0.253 NA
ATOM      8  C   UNL     1     -49.030  28.551  22.870  1.00  0.00     0.043 A 
ATOM      9  H   UNL     1     -49.312  26.411  22.805  1.00  0.00     0.066 H 
ATOM     10  C   UNL     1     -48.912  29.432  25.115  1.00  0.00     0.073 A 
ATOM     11  C   UNL     1     -48.806  29.656  23.727  1.00  0.00     0.023 A 
ATOM     12  C   UNL     1     -48.730  30.498  25.987  1.00  0.00    -0.032 A 
ATOM     13  C   UNL     1     -48.487  30.960  23.275  1.00  0.00    -0.050 A 
ATOM     14  H   UNL     1     -48.819  30.304  27.055  1.00  0.00     0.065 H 
ATOM     15  C   UNL     1     -48.302  32.015  24.170  1.00  0.00    -0.058 A 
ATOM     16  H   UNL     1     -48.367  31.164  22.215  1.00  0.00     0.063 H 
ATOM     17  H   UNL     1     -48.055  33.003  23.788  1.00  0.00     0.063 H 
BRANCH   5  18
ATOM     18  C   UNL     1     -49.544  25.825  25.456  1.00  0.00    -0.011 C 
ATOM     19  H   UNL     1     -50.545  25.787  25.904  1.00  0.00     0.033 H 
ATOM     20  H   UNL     1     -49.537  25.068  24.662  1.00  0.00     0.033 H 
BRANCH  18  21
ATOM     21  C   UNL     1     -48.487  25.459  26.500  1.00  0.00    -0.051 C 
ATOM     22  H   UNL     1     -48.498  26.223  27.288  1.00  0.00     0.027 H 
ATOM     23  H   UNL     1     -48.735  24.505  26.981  1.00  0.00     0.027 H 
BRANCH  21  24
ATOM     24  C   UNL     1     -47.080  25.382  25.927  1.00  0.00    -0.065 C 
ATOM     25  H   UNL     1     -46.604  24.427  26.179  1.00  0.00     0.023 H 
ATOM     26  H   UNL     1     -47.113  25.464  24.835  1.00  0.00     0.023 H 
ATOM     27  H   UNL     1     -46.448  26.193  26.302  1.00  0.00     0.023 H 
ENDBRANCH  21  24
ENDBRANCH  18  21
ENDBRANCH   5  18
BRANCH   8  28
ATOM     28  N   UNL     1     -48.866  28.636  21.471  1.00  0.00    -0.398 N 
ATOM     29  H   UNL     1     -47.894  28.628  21.174  1.00  0.00     0.156 HD
ATOM     30  H   UNL     1     -49.412  27.955  20.955  1.00  0.00     0.156 HD
ENDBRANCH   8  28
ENDBRANCH   1   4
BRANCH   1  31
ATOM     31  C   UNL     1     -47.429  34.070  25.904  1.00  0.00    -0.022 C 
ATOM     32  H   UNL     1     -47.674  34.171  24.839  1.00  0.00     0.032 H 
ATOM     33  H   UNL     1     -46.351  33.864  25.939  1.00  0.00     0.032 H 
BRANCH  31  34
ATOM     34  C   UNL     1     -47.708  35.371  26.607  1.00  0.00    -0.027 A 
ATOM     35  C   UNL     1     -48.916  35.591  27.251  1.00  0.00     0.030 A 
ATOM     36  C   UNL     1     -46.748  36.391  26.660  1.00  0.00    -0.032 A 
ATOM     37  N   UNL     1     -49.216  36.725  27.914  1.00  0.00    -0.262 NA
ATOM     38  H   UNL     1     -49.703  34.841  27.257  1.00  0.00     0.084 H 
ATOM     39  C   UNL     1     -47.018  37.591  27.336  1.00  0.00     0.066 A 
ATOM     40  H   UNL     1     -45.804  36.217  26.151  1.00  0.00     0.065 H 
ATOM     41  C   UNL     1     -48.266  37.697  27.940  1.00  0.00     0.051 A 
ATOM     42  H   UNL     1     -48.588  38.567  28.500  1.00  0.00     0.086 H 
BRANCH  39  43
ATOM     43  N   UNL     1     -46.047  38.643  27.399  1.00  0.00    -0.299 N 
ATOM     44  C   UNL     1     -45.917  39.656  26.467  1.00  0.00     0.021 A 
ATOM     45  C   UNL     1     -45.066  38.858  28.373  1.00  0.00     0.150 A 
ATOM     46  C   UNL     1     -44.869  40.478  26.818  1.00  0.00     0.033 A 
ATOM     47  H   UNL     1     -46.551  39.726  25.595  1.00  0.00     0.083 H 
ATOM     48  C   UNL     1     -44.347  40.011  28.049  1.00  0.00     0.071 A 
ATOM     49  N   UNL     1     -44.852  38.102  29.467  1.00  0.00    -0.218 NA
ATOM     50  C   UNL     1     -43.358  40.415  28.964  1.00  0.00     0.137 A 
ATOM     51  C   UNL     1     -43.867  38.565  30.243  1.00  0.00     0.120 A 
ATOM     52  N   UNL     1     -43.126  39.667  30.058  1.00  0.00    -0.219 NA
ATOM     53  H   UNL     1     -43.643  37.984  31.133  1.00  0.00     0.106 H 
BRANCH  46  54
ATOM     54  C   UNL     1     -44.412  41.623  26.036  1.00  0.00     0.095 A 
ATOM     55  C   UNL     1     -45.245  42.550  25.375  1.00  0.00    -0.016 A 
ATOM     56  N   UNL     1     -43.118  41.945  25.926  1.00  0.00    -0.173 NA
ATOM     57  C   UNL     1     -44.381  43.463  24.814  1.00  0.00     0.025 A 
ATOM     58  H   UNL     1     -46.325  42.559  25.319  1.00  0.00     0.066 H 
ATOM     59  N   UNL     1     -43.128  43.061  25.173  1.00  0.00    -0.275 N 
ATOM     60  H   UNL     1     -44.554  44.348  24.218  1.00  0.00     0.084 H 
BRANCH  59  61
ATOM     61  C   UNL     1     -41.880  43.703  24.841  1.00  0.00     0.030 C 
ATOM     62  H   UNL     1     -41.346  43.958  25.760  1.00  0.00     0.048 H 
ATOM     63  H   UNL     1     -42.099  44.610  24.272  1.00  0.00     0.048 H 
ATOM     64  H   UNL     1     -41.284  43.009  24.244  1.00  0.00     0.048 H 
ENDBRANCH  59  61
ENDBRANCH  46  54
BRANCH  50  65
ATOM     65  N   UNL     1     -42.605  41.578  28.857  1.00  0.00    -0.383 N 
ATOM     66  H   UNL     1     -42.168  41.616  27.943  1.00  0.00     0.158 HD
ATOM     67  H   UNL     1     -41.977  41.730  29.637  1.00  0.00     0.158 HD
ENDBRANCH  50  65
ENDBRANCH  39  43
ENDBRANCH  31  34
ENDBRANCH   1  31
TORSDOF 11
ENDMDL
MODEL 3
REMARK VINA RESULT:     -10.1      1.707     12.383
REMARK SMILES CCCc1cc(N)c2ccc(CCc3cncc(-n4cc(-c5ccn(C)n5)c5c(N)ncnc54)c3)cc2n1
REMARK SMILES IDX 12 1 11 4 4 5 5 6 38 7 6 8 37 10 8 11 36 12 9 13 10 15 3 18
REMARK SMILES IDX 2 21 1 24 7 28 13 31 14 34 15 35 35 36 16 37 18 39 17 41
REMARK SMILES IDX 19 43 20 44 34 45 21 46 28 48 33 49 29 50 32 51 31 52 22 54
REMARK SMILES IDX 23 55 27 56 24 57 25 59 26 61 30 65
REMARK H PARENT 12 2 12 3 5 9 36 14 9 16 10 17 3 19 3 20 2 22 2 23 1 25 1 26
REMARK H PARENT 1 27 7 29 7 30 13 32 13 33 15 38 35 40 17 42 20 47 32 53 23 58
REMARK H PARENT 24 60 26 62 26 63 26 64 30 66 30 67
REMARK Flexibility Score: inf
ROOT
ATOM      1  C   UNL     1     -46.591  37.787  26.951  1.00  0.00    -0.024 C 
ATOM      2  H   UNL     1     -46.819  38.069  25.915  1.00  0.00     0.032 H 
ATOM      3  H   UNL     1     -47.521  37.951  27.511  1.00  0.00     0.032 H 
ENDROOT
BRANCH   1   4
ATOM      4  C   UNL     1     -45.517  38.698  27.489  1.00  0.00    -0.045 A 
ATOM      5  C   UNL     1     -42.478  42.272  26.668  1.00  0.00     0.043 A 
ATOM      6  C   UNL     1     -41.934  42.204  27.943  1.00  0.00    -0.017 A 
ATOM      7  N   UNL     1     -43.491  41.472  26.269  1.00  0.00    -0.253 NA
ATOM      8  C   UNL     1     -42.469  41.308  28.867  1.00  0.00     0.043 A 
ATOM      9  H   UNL     1     -41.108  42.852  28.217  1.00  0.00     0.066 H 
ATOM     10  C   UNL     1     -43.963  40.554  27.126  1.00  0.00     0.073 A 
ATOM     11  C   UNL     1     -43.474  40.405  28.441  1.00  0.00     0.023 A 
ATOM     12  C   UNL     1     -44.971  39.707  26.681  1.00  0.00    -0.032 A 
ATOM     13  C   UNL     1     -44.011  39.375  29.250  1.00  0.00    -0.050 A 
ATOM     14  H   UNL     1     -45.336  39.840  25.664  1.00  0.00     0.065 H 
ATOM     15  C   UNL     1     -45.020  38.532  28.779  1.00  0.00    -0.058 A 
ATOM     16  H   UNL     1     -43.639  39.210  30.257  1.00  0.00     0.063 H 
ATOM     17  H   UNL     1     -45.407  37.749  29.427  1.00  0.00     0.063 H 
BRANCH   5  18
ATOM     18  C   UNL     1     -41.948  43.256  25.656  1.00  0.00    -0.011 C 
ATOM     19  H   UNL     1     -41.077  43.789  26.056  1.00  0.00     0.033 H 
ATOM     20  H   UNL     1     -41.585  42.685  24.791  1.00  0.00     0.033 H 
BRANCH  18  21
ATOM     21  C   UNL     1     -43.005  44.257  25.181  1.00  0.00    -0.051 C 
ATOM     22  H   UNL     1     -43.931  44.074  25.740  1.00  0.00     0.027 H 
ATOM     23  H   UNL     1     -42.693  45.283  25.410  1.00  0.00     0.027 H 
BRANCH  21  24
ATOM     24  C   UNL     1     -43.311  44.144  23.695  1.00  0.00    -0.065 C 
ATOM     25  H   UNL     1     -42.472  43.693  23.153  1.00  0.00     0.023 H 
ATOM     26  H   UNL     1     -44.192  43.513  23.539  1.00  0.00     0.023 H 
ATOM     27  H   UNL     1     -43.522  45.123  23.253  1.00  0.00     0.023 H 
ENDBRANCH  21  24
ENDBRANCH  18  21
ENDBRANCH   5  18
BRANCH   8  28
ATOM     28  N   UNL     1     -41.845  41.200  30.129  1.00  0.00    -0.398 N 
ATOM     29  H   UNL     1     -41.391  42.057  30.432  1.00  0.00     0.156 HD
ATOM     30  H   UNL     1     -42.452  40.831  30.852  1.00  0.00     0.156 HD
ENDBRANCH   8  28
ENDBRANCH   1   4
BRANCH   1  31
ATOM     31  C   UNL     1     -46.173  36.316  27.028  1.00  0.00    -0.022 C 
ATOM     32  H   UNL     1     -45.707  36.101  27.998  1.00  0.00     0.032 H 
ATOM     33  H   UNL     1     -45.404  36.094  26.277  1.00  0.00     0.032 H 
BRANCH  31  34
ATOM     34  C   UNL     1     -47.347  35.396  26.824  1.00  0.00    -0.027 A 
ATOM     35  C   UNL     1     -48.629  35.782  27.180  1.00  0.00     0.030 A 
ATOM     36  C   UNL     1     -47.187  34.131  26.240  1.00  0.00    -0.032 A 
ATOM     37  N   UNL     1     -49.721  35.012  27.003  1.00  0.00    -0.262 NA
ATOM     38  H   UNL     1     -48.827  36.752  27.631  1.00  0.00     0.084 H 
ATOM     39  C   UNL     1     -48.295  33.293  26.039  1.00  0.00     0.066 A 
ATOM     40  H   UNL     1     -46.181  33.829  25.965  1.00  0.00     0.065 H 
ATOM     41  C   UNL     1     -49.531  33.789  26.441  1.00  0.00     0.051 A 
ATOM     42  H   UNL     1     -50.461  33.244  26.329  1.00  0.00     0.086 H 
BRANCH  39  43
ATOM     43  N   UNL     1     -48.149  31.998  25.443  1.00  0.00    -0.299 N 
ATOM     44  C   UNL     1     -48.823  30.861  25.850  1.00  0.00     0.021 A 
ATOM     45  C   UNL     1     -47.331  31.625  24.372  1.00  0.00     0.150 A 
ATOM     46  C   UNL     1     -48.427  29.788  25.082  1.00  0.00     0.033 A 
ATOM     47  H   UNL     1     -49.521  30.864  26.674  1.00  0.00     0.083 H 
ATOM     48  C   UNL     1     -47.514  30.265  24.110  1.00  0.00     0.071 A 
ATOM     49  N   UNL     1     -46.511  32.438  23.677  1.00  0.00    -0.218 NA
ATOM     50  C   UNL     1     -46.812  29.735  23.013  1.00  0.00     0.137 A 
ATOM     51  C   UNL     1     -45.873  31.815  22.681  1.00  0.00     0.120 A 
ATOM     52  N   UNL     1     -45.983  30.530  22.313  1.00  0.00    -0.219 NA
ATOM     53  H   UNL     1     -45.189  32.422  22.096  1.00  0.00     0.106 H 
BRANCH  46  54
ATOM     54  C   UNL     1     -48.895  28.417  25.264  1.00  0.00     0.095 A 
ATOM     55  C   UNL     1     -50.086  27.880  24.732  1.00  0.00    -0.016 A 
ATOM     56  N   UNL     1     -48.179  27.497  25.920  1.00  0.00    -0.173 NA
ATOM     57  C   UNL     1     -50.084  26.561  25.127  1.00  0.00     0.025 A 
ATOM     58  H   UNL     1     -50.839  28.378  24.137  1.00  0.00     0.066 H 
ATOM     59  N   UNL     1     -48.928  26.382  25.828  1.00  0.00    -0.275 N 
ATOM     60  H   UNL     1     -50.786  25.756  24.958  1.00  0.00     0.084 H 
BRANCH  59  61
ATOM     61  C   UNL     1     -48.460  25.161  26.437  1.00  0.00     0.030 C 
ATOM     62  H   UNL     1     -49.292  24.667  26.946  1.00  0.00     0.048 H 
ATOM     63  H   UNL     1     -47.679  25.413  27.157  1.00  0.00     0.048 H 
ATOM     64  H   UNL     1     -48.066  24.513  25.651  1.00  0.00     0.048 H 
ENDBRANCH  59  61
ENDBRANCH  46  54
BRANCH  50  65
ATOM     65  N   UNL     1     -46.934  28.431  22.548  1.00  0.00    -0.383 N 
ATOM     66  H   UNL     1     -46.332  28.300  21.742  1.00  0.00     0.158 HD
ATOM     67  H   UNL     1     -47.894  28.135  22.416  1.00  0.00     0.158 HD
ENDBRANCH  50  65
ENDBRANCH  39  43
ENDBRANCH  31  34
ENDBRANCH   1  31
TORSDOF 11
ENDMDL
MODEL 4
REMARK VINA RESULT:      -9.6      2.073      3.632
REMARK SMILES CCCc1cc(N)c2ccc(CCc3cncc(-n4cc(-c5ccn(C)n5)c5c(N)ncnc54)c3)cc2n1
REMARK SMILES IDX 12 1 11 4 4 5 5 6 38 7 6 8 37 10 8 11 36 12 9 13 10 15 3 18
REMARK SMILES IDX 2 21 1 24 7 28 13 31 14 34 15 35 35 36 16 37 18 39 17 41
REMARK SMILES IDX 19 43 20 44 34 45 21 46 28 48 33 49 29 50 32 51 31 52 22 54
REMARK SMILES IDX 23 55 27 56 24 57 25 59 26 61 30 65
REMARK H PARENT 12 2 12 3 5 9 36 14 9 16 10 17 3 19 3 20 2 22 2 23 1 25 1 26
REMARK H PARENT 1 27 7 29 7 30 13 32 13 33 15 38 35 40 17 42 20 47 32 53 23 58
REMARK H PARENT 24 60 26 62 26 63 26 64 30 66 30 67
REMARK Flexibility Score: inf
ROOT
ATOM      1  C   UNL     1     -47.134  33.949  27.044  1.00  0.00    -0.024 C 
ATOM      2  H   UNL     1     -46.142  33.875  27.507  1.00  0.00     0.032 H 
ATOM      3  H   UNL     1     -47.850  33.892  27.874  1.00  0.00     0.032 H 
ENDROOT
BRANCH   1   4
ATOM      4  C   UNL     1     -47.341  32.774  26.122  1.00  0.00    -0.045 A 
ATOM      5  C   UNL     1     -46.448  30.751  21.905  1.00  0.00     0.043 A 
ATOM      6  C   UNL     1     -47.257  29.656  22.172  1.00  0.00    -0.017 A 
ATOM      7  N   UNL     1     -46.247  31.740  22.803  1.00  0.00    -0.253 NA
ATOM      8  C   UNL     1     -47.861  29.542  23.424  1.00  0.00     0.043 A 
ATOM      9  H   UNL     1     -47.407  28.893  21.416  1.00  0.00     0.066 H 
ATOM     10  C   UNL     1     -46.883  31.678  23.983  1.00  0.00     0.073 A 
ATOM     11  C   UNL     1     -47.728  30.609  24.346  1.00  0.00     0.023 A 
ATOM     12  C   UNL     1     -46.703  32.729  24.874  1.00  0.00    -0.032 A 
ATOM     13  C   UNL     1     -48.387  30.663  25.598  1.00  0.00    -0.050 A 
ATOM     14  H   UNL     1     -46.045  33.543  24.575  1.00  0.00     0.065 H 
ATOM     15  C   UNL     1     -48.195  31.733  26.475  1.00  0.00    -0.058 A 
ATOM     16  H   UNL     1     -49.069  29.873  25.900  1.00  0.00     0.063 H 
ATOM     17  H   UNL     1     -48.720  31.743  27.428  1.00  0.00     0.063 H 
BRANCH   5  18
ATOM     18  C   UNL     1     -45.750  30.886  20.575  1.00  0.00    -0.011 C 
ATOM     19  H   UNL     1     -44.675  31.045  20.719  1.00  0.00     0.033 H 
ATOM     20  H   UNL     1     -45.849  29.930  20.046  1.00  0.00     0.033 H 
BRANCH  18  21
ATOM     21  C   UNL     1     -46.334  31.999  19.700  1.00  0.00    -0.051 C 
ATOM     22  H   UNL     1     -46.139  32.962  20.189  1.00  0.00     0.027 H 
ATOM     23  H   UNL     1     -45.828  32.029  18.728  1.00  0.00     0.027 H 
BRANCH  21  24
ATOM     24  C   UNL     1     -47.834  31.866  19.483  1.00  0.00    -0.065 C 
ATOM     25  H   UNL     1     -48.392  32.411  20.251  1.00  0.00     0.023 H 
ATOM     26  H   UNL     1     -48.110  32.280  18.507  1.00  0.00     0.023 H 
ATOM     27  H   UNL     1     -48.151  30.819  19.501  1.00  0.00     0.023 H 
ENDBRANCH  21  24
ENDBRANCH  18  21
ENDBRANCH   5  18
BRANCH   8  28
ATOM     28  N   UNL     1     -48.745  28.462  23.642  1.00  0.00    -0.398 N 
ATOM     29  H   UNL     1     -49.666  28.604  23.236  1.00  0.00     0.156 HD
ATOM     30  H   UNL     1     -48.360  27.563  23.376  1.00  0.00     0.156 HD
ENDBRANCH   8  28
ENDBRANCH   1   4
BRANCH   1  31
ATOM     31  C   UNL     1     -47.282  35.281  26.302  1.00  0.00    -0.022 C 
ATOM     32  H   UNL     1     -48.334  35.461  26.045  1.00  0.00     0.032 H 
ATOM     33  H   UNL     1     -46.748  35.249  25.343  1.00  0.00     0.032 H 
BRANCH  31  34
ATOM     34  C   UNL     1     -46.764  36.432  27.121  1.00  0.00    -0.027 A 
ATOM     35  C   UNL     1     -46.381  36.255  28.441  1.00  0.00     0.030 A 
ATOM     36  C   UNL     1     -46.621  37.712  26.568  1.00  0.00    -0.032 A 
ATOM     37  N   UNL     1     -45.891  37.241  29.218  1.00  0.00    -0.262 NA
ATOM     38  H   UNL     1     -46.458  35.288  28.931  1.00  0.00     0.084 H 
ATOM     39  C   UNL     1     -46.118  38.771  27.341  1.00  0.00     0.066 A 
ATOM     40  H   UNL     1     -46.925  37.849  25.535  1.00  0.00     0.065 H 
ATOM     41  C   UNL     1     -45.772  38.472  28.654  1.00  0.00     0.051 A 
ATOM     42  H   UNL     1     -45.363  39.198  29.346  1.00  0.00     0.086 H 
BRANCH  39  43
ATOM     43  N   UNL     1     -45.966  40.085  26.791  1.00  0.00    -0.299 N 
ATOM     44  C   UNL     1     -44.813  40.565  26.197  1.00  0.00     0.021 A 
ATOM     45  C   UNL     1     -46.908  41.117  26.742  1.00  0.00     0.150 A 
ATOM     46  C   UNL     1     -45.003  41.872  25.805  1.00  0.00     0.033 A 
ATOM     47  H   UNL     1     -43.916  39.970  26.107  1.00  0.00     0.083 H 
ATOM     48  C   UNL     1     -46.342  42.223  26.104  1.00  0.00     0.071 A 
ATOM     49  N   UNL     1     -48.172  41.064  27.207  1.00  0.00    -0.218 NA
ATOM     50  C   UNL     1     -47.180  43.336  25.908  1.00  0.00     0.137 A 
ATOM     51  C   UNL     1     -48.860  42.190  26.995  1.00  0.00     0.120 A 
ATOM     52  N   UNL     1     -48.442  43.302  26.374  1.00  0.00    -0.219 NA
ATOM     53  H   UNL     1     -49.882  42.205  27.362  1.00  0.00     0.106 H 
BRANCH  46  54
ATOM     54  C   UNL     1     -43.981  42.712  25.187  1.00  0.00     0.095 A 
ATOM     55  C   UNL     1     -42.750  43.072  25.775  1.00  0.00    -0.016 A 
ATOM     56  N   UNL     1     -44.096  43.179  23.939  1.00  0.00    -0.173 NA
ATOM     57  C   UNL     1     -42.109  43.826  24.817  1.00  0.00     0.025 A 
ATOM     58  H   UNL     1     -42.375  42.814  26.756  1.00  0.00     0.066 H 
ATOM     59  N   UNL     1     -42.950  43.858  23.743  1.00  0.00    -0.275 N 
ATOM     60  H   UNL     1     -41.146  44.316  24.810  1.00  0.00     0.084 H 
BRANCH  59  61
ATOM     61  C   UNL     1     -42.721  44.513  22.479  1.00  0.00     0.030 C 
ATOM     62  H   UNL     1     -42.842  45.593  22.603  1.00  0.00     0.048 H 
ATOM     63  H   UNL     1     -43.450  44.136  21.758  1.00  0.00     0.048 H 
ATOM     64  H   UNL     1     -41.703  44.287  22.153  1.00  0.00     0.048 H 
ENDBRANCH  59  61
ENDBRANCH  46  54
BRANCH  50  65
ATOM     65  N   UNL     1     -46.821  44.487  25.218  1.00  0.00    -0.383 N 
ATOM     66  H   UNL     1     -47.121  45.303  25.741  1.00  0.00     0.158 HD
ATOM     67  H   UNL     1     -47.096  44.480  24.243  1.00  0.00     0.158 HD
ENDBRANCH  50  65
ENDBRANCH  39  43
ENDBRANCH  31  34
ENDBRANCH   1  31
TORSDOF 11
ENDMDL
MODEL 5
REMARK VINA RESULT:      -9.4      2.037     12.458
REMARK SMILES CCCc1cc(N)c2ccc(CCc3cncc(-n4cc(-c5ccn(C)n5)c5c(N)ncnc54)c3)cc2n1
REMARK SMILES IDX 12 1 11 4 4 5 5 6 38 7 6 8 37 10 8 11 36 12 9 13 10 15 3 18
REMARK SMILES IDX 2 21 1 24 7 28 13 31 14 34 15 35 35 36 16 37 18 39 17 41
REMARK SMILES IDX 19 43 20 44 34 45 21 46 28 48 33 49 29 50 32 51 31 52 22 54
REMARK SMILES IDX 23 55 27 56 24 57 25 59 26 61 30 65
REMARK H PARENT 12 2 12 3 5 9 36 14 9 16 10 17 3 19 3 20 2 22 2 23 1 25 1 26
REMARK H PARENT 1 27 7 29 7 30 13 32 13 33 15 38 35 40 17 42 20 47 32 53 23 58
REMARK H PARENT 24 60 26 62 26 63 26 64 30 66 30 67
REMARK Flexibility Score: inf
ROOT
ATOM      1  C   UNL     1     -47.954  36.150  28.539  1.00  0.00    -0.024 C 
ATOM      2  H   UNL     1     -48.744  36.429  29.248  1.00  0.00     0.032 H 
ATOM      3  H   UNL     1     -47.515  35.226  28.938  1.00  0.00     0.032 H 
ENDROOT
BRANCH   1   4
ATOM      4  C   UNL     1     -46.905  37.232  28.514  1.00  0.00    -0.045 A 
ATOM      5  C   UNL     1     -45.278  41.223  26.486  1.00  0.00     0.043 A 
ATOM      6  C   UNL     1     -44.159  41.274  27.304  1.00  0.00    -0.017 A 
ATOM      7  N   UNL     1     -46.221  40.263  26.607  1.00  0.00    -0.253 NA
ATOM      8  C   UNL     1     -44.009  40.326  28.317  1.00  0.00     0.043 A 
ATOM      9  H   UNL     1     -43.416  42.051  27.162  1.00  0.00     0.066 H 
ATOM     10  C   UNL     1     -46.048  39.302  27.528  1.00  0.00     0.073 A 
ATOM     11  C   UNL     1     -44.943  39.265  28.404  1.00  0.00     0.023 A 
ATOM     12  C   UNL     1     -47.004  38.296  27.604  1.00  0.00    -0.032 A 
ATOM     13  C   UNL     1     -44.834  38.183  29.309  1.00  0.00    -0.050 A 
ATOM     14  H   UNL     1     -47.850  38.345  26.921  1.00  0.00     0.065 H 
ATOM     15  C   UNL     1     -45.803  37.179  29.363  1.00  0.00    -0.058 A 
ATOM     16  H   UNL     1     -43.982  38.103  29.978  1.00  0.00     0.063 H 
ATOM     17  H   UNL     1     -45.685  36.360  30.069  1.00  0.00     0.063 H 
BRANCH   5  18
ATOM     18  C   UNL     1     -45.491  42.254  25.407  1.00  0.00    -0.011 C 
ATOM     19  H   UNL     1     -45.577  41.772  24.426  1.00  0.00     0.033 H 
ATOM     20  H   UNL     1     -46.457  42.740  25.593  1.00  0.00     0.033 H 
BRANCH  18  21
ATOM     21  C   UNL     1     -44.396  43.323  25.373  1.00  0.00    -0.051 C 
ATOM     22  H   UNL     1     -44.875  44.308  25.300  1.00  0.00     0.027 H 
ATOM     23  H   UNL     1     -43.824  43.318  26.309  1.00  0.00     0.027 H 
BRANCH  21  24
ATOM     24  C   UNL     1     -43.440  43.166  24.200  1.00  0.00    -0.065 C 
ATOM     25  H   UNL     1     -43.036  42.148  24.156  1.00  0.00     0.023 H 
ATOM     26  H   UNL     1     -43.964  43.363  23.259  1.00  0.00     0.023 H 
ATOM     27  H   UNL     1     -42.603  43.867  24.267  1.00  0.00     0.023 H 
ENDBRANCH  21  24
ENDBRANCH  18  21
ENDBRANCH   5  18
BRANCH   8  28
ATOM     28  N   UNL     1     -42.822  40.349  29.081  1.00  0.00    -0.398 N 
ATOM     29  H   UNL     1     -42.825  41.051  29.816  1.00  0.00     0.156 HD
ATOM     30  H   UNL     1     -42.554  39.441  29.442  1.00  0.00     0.156 HD
ENDBRANCH   8  28
ENDBRANCH   1   4
BRANCH   1  31
ATOM     31  C   UNL     1     -48.543  35.902  27.148  1.00  0.00    -0.022 C 
ATOM     32  H   UNL     1     -48.463  36.807  26.532  1.00  0.00     0.032 H 
ATOM     33  H   UNL     1     -49.619  35.689  27.217  1.00  0.00     0.032 H 
BRANCH  31  34
ATOM     34  C   UNL     1     -47.855  34.760  26.450  1.00  0.00    -0.027 A 
ATOM     35  C   UNL     1     -46.513  34.834  26.111  1.00  0.00     0.030 A 
ATOM     36  C   UNL     1     -48.538  33.574  26.147  1.00  0.00    -0.032 A 
ATOM     37  N   UNL     1     -45.838  33.838  25.504  1.00  0.00    -0.262 NA
ATOM     38  H   UNL     1     -45.921  35.721  26.323  1.00  0.00     0.084 H 
ATOM     39  C   UNL     1     -47.876  32.512  25.512  1.00  0.00     0.066 A 
ATOM     40  H   UNL     1     -49.590  33.520  26.410  1.00  0.00     0.065 H 
ATOM     41  C   UNL     1     -46.531  32.705  25.217  1.00  0.00     0.051 A 
ATOM     42  H   UNL     1     -45.908  31.958  24.740  1.00  0.00     0.086 H 
BRANCH  39  43
ATOM     43  N   UNL     1     -48.560  31.293  25.196  1.00  0.00    -0.299 N 
ATOM     44  C   UNL     1     -48.362  30.086  25.840  1.00  0.00     0.021 A 
ATOM     45  C   UNL     1     -49.528  31.074  24.211  1.00  0.00     0.150 A 
ATOM     46  C   UNL     1     -49.158  29.118  25.267  1.00  0.00     0.033 A 
ATOM     47  H   UNL     1     -47.653  29.968  26.646  1.00  0.00     0.083 H 
ATOM     48  C   UNL     1     -49.938  29.740  24.261  1.00  0.00     0.071 A 
ATOM     49  N   UNL     1     -50.019  31.996  23.359  1.00  0.00    -0.218 NA
ATOM     50  C   UNL     1     -50.964  29.361  23.377  1.00  0.00     0.137 A 
ATOM     51  C   UNL     1     -50.962  31.512  22.545  1.00  0.00     0.120 A 
ATOM     52  N   UNL     1     -51.459  30.267  22.514  1.00  0.00    -0.219 NA
ATOM     53  H   UNL     1     -51.383  32.211  21.828  1.00  0.00     0.106 H 
BRANCH  46  54
ATOM     54  C   UNL     1     -49.173  27.712  25.661  1.00  0.00     0.095 A 
ATOM     55  C   UNL     1     -50.326  26.912  25.802  1.00  0.00    -0.016 A 
ATOM     56  N   UNL     1     -48.051  27.015  25.869  1.00  0.00    -0.173 NA
ATOM     57  C   UNL     1     -49.851  25.666  26.143  1.00  0.00     0.025 A 
ATOM     58  H   UNL     1     -51.360  27.198  25.667  1.00  0.00     0.066 H 
ATOM     59  N   UNL     1     -48.492  25.779  26.167  1.00  0.00    -0.275 N 
ATOM     60  H   UNL     1     -50.356  24.734  26.352  1.00  0.00     0.084 H 
BRANCH  59  61
ATOM     61  C   UNL     1     -47.538  24.737  26.459  1.00  0.00     0.030 C 
ATOM     62  H   UNL     1     -46.946  25.020  27.333  1.00  0.00     0.048 H 
ATOM     63  H   UNL     1     -46.886  24.613  25.591  1.00  0.00     0.048 H 
ATOM     64  H   UNL     1     -48.086  23.814  26.663  1.00  0.00     0.048 H 
ENDBRANCH  59  61
ENDBRANCH  46  54
BRANCH  50  65
ATOM     65  N   UNL     1     -51.559  28.106  23.343  1.00  0.00    -0.383 N 
ATOM     66  H   UNL     1     -52.528  28.182  23.631  1.00  0.00     0.158 HD
ATOM     67  H   UNL     1     -51.025  27.390  23.822  1.00  0.00     0.158 HD
ENDBRANCH  50  65
ENDBRANCH  39  43
ENDBRANCH  31  34
ENDBRANCH   1  31
TORSDOF 11
ENDMDL
MODEL 6
REMARK VINA RESULT:      -9.3      1.667      2.141
REMARK SMILES CCCc1cc(N)c2ccc(CCc3cncc(-n4cc(-c5ccn(C)n5)c5c(N)ncnc54)c3)cc2n1
REMARK SMILES IDX 12 1 11 4 4 5 5 6 38 7 6 8 37 10 8 11 36 12 9 13 10 15 3 18
REMARK SMILES IDX 2 21 1 24 7 28 13 31 14 34 15 35 35 36 16 37 18 39 17 41
REMARK SMILES IDX 19 43 20 44 34 45 21 46 28 48 33 49 29 50 32 51 31 52 22 54
REMARK SMILES IDX 23 55 27 56 24 57 25 59 26 61 30 65
REMARK H PARENT 12 2 12 3 5 9 36 14 9 16 10 17 3 19 3 20 2 22 2 23 1 25 1 26
REMARK H PARENT 1 27 7 29 7 30 13 32 13 33 15 38 35 40 17 42 20 47 32 53 23 58
REMARK H PARENT 24 60 26 62 26 63 26 64 30 66 30 67
REMARK Flexibility Score: inf
ROOT
ATOM      1  C   UNL     1     -47.878  35.092  27.351  1.00  0.00    -0.024 C 
ATOM      2  H   UNL     1     -47.175  35.063  28.194  1.00  0.00     0.032 H 
ATOM      3  H   UNL     1     -48.868  34.908  27.788  1.00  0.00     0.032 H 
ENDROOT
BRANCH   1   4
ATOM      4  C   UNL     1     -47.542  33.982  26.387  1.00  0.00    -0.045 A 
ATOM      5  C   UNL     1     -48.625  29.681  24.654  1.00  0.00     0.043 A 
ATOM      6  C   UNL     1     -47.524  29.658  23.810  1.00  0.00    -0.017 A 
ATOM      7  N   UNL     1     -48.911  30.738  25.445  1.00  0.00    -0.253 NA
ATOM      8  C   UNL     1     -46.695  30.778  23.739  1.00  0.00     0.043 A 
ATOM      9  H   UNL     1     -47.320  28.781  23.205  1.00  0.00     0.066 H 
ATOM     10  C   UNL     1     -48.078  31.790  25.440  1.00  0.00     0.073 A 
ATOM     11  C   UNL     1     -46.932  31.861  24.621  1.00  0.00     0.023 A 
ATOM     12  C   UNL     1     -48.362  32.847  26.296  1.00  0.00    -0.032 A 
ATOM     13  C   UNL     1     -46.095  32.997  24.726  1.00  0.00    -0.050 A 
ATOM     14  H   UNL     1     -49.252  32.774  26.918  1.00  0.00     0.065 H 
ATOM     15  C   UNL     1     -46.397  34.045  25.598  1.00  0.00    -0.058 A 
ATOM     16  H   UNL     1     -45.187  33.073  24.134  1.00  0.00     0.063 H 
ATOM     17  H   UNL     1     -45.729  34.902  25.655  1.00  0.00     0.063 H 
BRANCH   5  18
ATOM     18  C   UNL     1     -49.563  28.503  24.727  1.00  0.00    -0.011 C 
ATOM     19  H   UNL     1     -50.137  28.524  25.661  1.00  0.00     0.033 H 
ATOM     20  H   UNL     1     -50.296  28.607  23.917  1.00  0.00     0.033 H 
BRANCH  18  21
ATOM     21  C   UNL     1     -48.850  27.156  24.580  1.00  0.00    -0.051 C 
ATOM     22  H   UNL     1     -48.946  26.825  23.538  1.00  0.00     0.027 H 
ATOM     23  H   UNL     1     -47.777  27.265  24.780  1.00  0.00     0.027 H 
BRANCH  21  24
ATOM     24  C   UNL     1     -49.422  26.073  25.482  1.00  0.00    -0.065 C 
ATOM     25  H   UNL     1     -48.638  25.386  25.818  1.00  0.00     0.023 H 
ATOM     26  H   UNL     1     -49.879  26.524  26.369  1.00  0.00     0.023 H 
ATOM     27  H   UNL     1     -50.196  25.491  24.970  1.00  0.00     0.023 H 
ENDBRANCH  21  24
ENDBRANCH  18  21
ENDBRANCH   5  18
BRANCH   8  28
ATOM     28  N   UNL     1     -45.536  30.699  22.937  1.00  0.00    -0.398 N 
ATOM     29  H   UNL     1     -45.539  31.348  22.154  1.00  0.00     0.156 HD
ATOM     30  H   UNL     1     -44.672  30.763  23.464  1.00  0.00     0.156 HD
ENDBRANCH   8  28
ENDBRANCH   1   4
BRANCH   1  31
ATOM     31  C   UNL     1     -47.841  36.462  26.669  1.00  0.00    -0.022 C 
ATOM     32  H   UNL     1     -48.832  36.934  26.704  1.00  0.00     0.032 H 
ATOM     33  H   UNL     1     -47.605  36.355  25.602  1.00  0.00     0.032 H 
BRANCH  31  34
ATOM     34  C   UNL     1     -46.831  37.374  27.311  1.00  0.00    -0.027 A 
ATOM     35  C   UNL     1     -46.105  36.968  28.420  1.00  0.00     0.030 A 
ATOM     36  C   UNL     1     -46.568  38.649  26.793  1.00  0.00    -0.032 A 
ATOM     37  N   UNL     1     -45.173  37.730  29.026  1.00  0.00    -0.262 NA
ATOM     38  H   UNL     1     -46.252  35.989  28.870  1.00  0.00     0.084 H 
ATOM     39  C   UNL     1     -45.608  39.479  27.393  1.00  0.00     0.066 A 
ATOM     40  H   UNL     1     -47.140  38.966  25.926  1.00  0.00     0.065 H 
ATOM     41  C   UNL     1     -44.948  38.964  28.503  1.00  0.00     0.051 A 
ATOM     42  H   UNL     1     -44.179  39.502  29.046  1.00  0.00     0.086 H 
BRANCH  39  43
ATOM     43  N   UNL     1     -45.328  40.786  26.875  1.00  0.00    -0.299 N 
ATOM     44  C   UNL     1     -46.280  41.671  26.404  1.00  0.00     0.021 A 
ATOM     45  C   UNL     1     -44.086  41.416  26.742  1.00  0.00     0.150 A 
ATOM     46  C   UNL     1     -45.665  42.820  25.957  1.00  0.00     0.033 A 
ATOM     47  H   UNL     1     -47.333  41.433  26.384  1.00  0.00     0.083 H 
ATOM     48  C   UNL     1     -44.276  42.692  26.206  1.00  0.00     0.071 A 
ATOM     49  N   UNL     1     -42.891  40.901  27.092  1.00  0.00    -0.218 NA
ATOM     50  C   UNL     1     -43.130  43.494  26.066  1.00  0.00     0.137 A 
ATOM     51  C   UNL     1     -41.873  41.742  26.882  1.00  0.00     0.120 A 
ATOM     52  N   UNL     1     -41.928  42.993  26.403  1.00  0.00    -0.219 NA
ATOM     53  H   UNL     1     -40.885  41.372  27.136  1.00  0.00     0.106 H 
BRANCH  46  54
ATOM     54  C   UNL     1     -46.358  43.951  25.347  1.00  0.00     0.095 A 
ATOM     55  C   UNL     1     -46.142  44.437  24.040  1.00  0.00    -0.016 A 
ATOM     56  N   UNL     1     -47.340  44.611  25.971  1.00  0.00    -0.173 NA
ATOM     57  C   UNL     1     -47.039  45.471  23.896  1.00  0.00     0.025 A 
ATOM     58  H   UNL     1     -45.438  44.081  23.301  1.00  0.00     0.066 H 
ATOM     59  N   UNL     1     -47.730  45.532  25.071  1.00  0.00    -0.275 N 
ATOM     60  H   UNL     1     -47.243  46.140  23.072  1.00  0.00     0.084 H 
BRANCH  59  61
ATOM     61  C   UNL     1     -48.793  46.447  25.407  1.00  0.00     0.030 C 
ATOM     62  H   UNL     1     -49.564  46.408  24.633  1.00  0.00     0.048 H 
ATOM     63  H   UNL     1     -48.376  47.454  25.469  1.00  0.00     0.048 H 
ATOM     64  H   UNL     1     -49.216  46.145  26.369  1.00  0.00     0.048 H 
ENDBRANCH  59  61
ENDBRANCH  46  54
BRANCH  50  65
ATOM     65  N   UNL     1     -43.134  44.815  25.635  1.00  0.00    -0.383 N 
ATOM     66  H   UNL     1     -42.190  45.098  25.398  1.00  0.00     0.158 HD
ATOM     67  H   UNL     1     -43.625  45.445  26.260  1.00  0.00     0.158 HD
ENDBRANCH  50  65
ENDBRANCH  39  43
ENDBRANCH  31  34
ENDBRANCH   1  31
TORSDOF 11
ENDMDL
MODEL 7
REMARK VINA RESULT:      -9.3      1.887      2.785
REMARK SMILES CCCc1cc(N)c2ccc(CCc3cncc(-n4cc(-c5ccn(C)n5)c5c(N)ncnc54)c3)cc2n1
REMARK SMILES IDX 12 1 11 4 4 5 5 6 38 7 6 8 37 10 8 11 36 12 9 13 10 15 3 18
REMARK SMILES IDX 2 21 1 24 7 28 13 31 14 34 15 35 35 36 16 37 18 39 17 41
REMARK SMILES IDX 19 43 20 44 34 45 21 46 28 48 33 49 29 50 32 51 31 52 22 54
REMARK SMILES IDX 23 55 27 56 24 57 25 59 26 61 30 65
REMARK H PARENT 12 2 12 3 5 9 36 14 9 16 10 17 3 19 3 20 2 22 2 23 1 25 1 26
REMARK H PARENT 1 27 7 29 7 30 13 32 13 33 15 38 35 40 17 42 20 47 32 53 23 58
REMARK H PARENT 24 60 26 62 26 63 26 64 30 66 30 67
REMARK Flexibility Score: inf
ROOT
ATOM      1  C   UNL     1     -47.413  34.092  26.902  1.00  0.00    -0.024 C 
ATOM      2  H   UNL     1     -47.726  33.582  27.822  1.00  0.00     0.032 H 
ATOM      3  H   UNL     1     -48.158  34.880  26.734  1.00  0.00     0.032 H 
ENDROOT
BRANCH   1   4
ATOM      4  C   UNL     1     -47.453  33.113  25.755  1.00  0.00    -0.045 A 
ATOM      5  C   UNL     1     -49.964  29.932  23.254  1.00  0.00     0.043 A 
ATOM      6  C   UNL     1     -48.891  29.616  22.433  1.00  0.00    -0.017 A 
ATOM      7  N   UNL     1     -49.884  30.872  24.221  1.00  0.00    -0.253 NA
ATOM      8  C   UNL     1     -47.692  30.314  22.576  1.00  0.00     0.043 A 
ATOM      9  H   UNL     1     -48.991  28.841  21.680  1.00  0.00     0.066 H 
ATOM     10  C   UNL     1     -48.713  31.496  24.417  1.00  0.00     0.073 A 
ATOM     11  C   UNL     1     -47.565  31.243  23.638  1.00  0.00     0.023 A 
ATOM     12  C   UNL     1     -48.636  32.424  25.449  1.00  0.00    -0.032 A 
ATOM     13  C   UNL     1     -46.366  31.924  23.958  1.00  0.00    -0.050 A 
ATOM     14  H   UNL     1     -49.534  32.607  26.037  1.00  0.00     0.065 H 
ATOM     15  C   UNL     1     -46.311  32.848  25.004  1.00  0.00    -0.058 A 
ATOM     16  H   UNL     1     -45.454  31.732  23.400  1.00  0.00     0.063 H 
ATOM     17  H   UNL     1     -45.372  33.350  25.224  1.00  0.00     0.063 H 
BRANCH   5  18
ATOM     18  C   UNL     1     -51.286  29.224  23.100  1.00  0.00    -0.011 C 
ATOM     19  H   UNL     1     -51.819  29.191  24.058  1.00  0.00     0.033 H 
ATOM     20  H   UNL     1     -51.910  29.822  22.424  1.00  0.00     0.033 H 
BRANCH  18  21
ATOM     21  C   UNL     1     -51.148  27.811  22.527  1.00  0.00    -0.051 C 
ATOM     22  H   UNL     1     -52.106  27.526  22.073  1.00  0.00     0.027 H 
ATOM     23  H   UNL     1     -50.400  27.793  21.725  1.00  0.00     0.027 H 
BRANCH  21  24
ATOM     24  C   UNL     1     -50.787  26.771  23.577  1.00  0.00    -0.065 C 
ATOM     25  H   UNL     1     -51.676  26.230  23.917  1.00  0.00     0.023 H 
ATOM     26  H   UNL     1     -50.087  26.041  23.157  1.00  0.00     0.023 H 
ATOM     27  H   UNL     1     -50.306  27.229  24.447  1.00  0.00     0.023 H 
ENDBRANCH  21  24
ENDBRANCH  18  21
ENDBRANCH   5  18
BRANCH   8  28
ATOM     28  N   UNL     1     -46.591  29.917  21.786  1.00  0.00    -0.398 N 
ATOM     29  H   UNL     1     -46.699  30.138  20.800  1.00  0.00     0.156 HD
ATOM     30  H   UNL     1     -45.699  30.243  22.140  1.00  0.00     0.156 HD
ENDBRANCH   8  28
ENDBRANCH   1   4
BRANCH   1  31
ATOM     31  C   UNL     1     -46.020  34.702  27.073  1.00  0.00    -0.022 C 
ATOM     32  H   UNL     1     -45.556  34.879  26.094  1.00  0.00     0.032 H 
ATOM     33  H   UNL     1     -45.352  34.001  27.592  1.00  0.00     0.032 H 
BRANCH  31  34
ATOM     34  C   UNL     1     -46.072  35.996  27.841  1.00  0.00    -0.027 A 
ATOM     35  C   UNL     1     -46.214  36.003  29.220  1.00  0.00     0.030 A 
ATOM     36  C   UNL     1     -45.951  37.233  27.193  1.00  0.00    -0.032 A 
ATOM     37  N   UNL     1     -46.247  37.126  29.964  1.00  0.00    -0.262 NA
ATOM     38  H   UNL     1     -46.307  35.081  29.787  1.00  0.00     0.084 H 
ATOM     39  C   UNL     1     -45.983  38.429  27.927  1.00  0.00     0.066 A 
ATOM     40  H   UNL     1     -45.844  37.225  26.113  1.00  0.00     0.065 H 
ATOM     41  C   UNL     1     -46.134  38.309  29.305  1.00  0.00     0.051 A 
ATOM     42  H   UNL     1     -46.162  39.156  29.980  1.00  0.00     0.086 H 
BRANCH  39  43
ATOM     43  N   UNL     1     -45.860  39.701  27.280  1.00  0.00    -0.299 N 
ATOM     44  C   UNL     1     -44.683  40.216  26.766  1.00  0.00     0.021 A 
ATOM     45  C   UNL     1     -46.857  40.653  27.043  1.00  0.00     0.150 A 
ATOM     46  C   UNL     1     -44.915  41.468  26.241  1.00  0.00     0.033 A 
ATOM     47  H   UNL     1     -43.745  39.684  26.822  1.00  0.00     0.083 H 
ATOM     48  C   UNL     1     -46.299  41.742  26.369  1.00  0.00     0.071 A 
ATOM     49  N   UNL     1     -48.157  40.543  27.380  1.00  0.00    -0.218 NA
ATOM     50  C   UNL     1     -47.182  42.768  25.990  1.00  0.00     0.137 A 
ATOM     51  C   UNL     1     -48.891  41.593  26.999  1.00  0.00     0.120 A 
ATOM     52  N   UNL     1     -48.482  42.679  26.326  1.00  0.00    -0.219 NA
ATOM     53  H   UNL     1     -49.945  41.562  27.257  1.00  0.00     0.106 H 
BRANCH  46  54
ATOM     54  C   UNL     1     -43.890  42.328  25.657  1.00  0.00     0.095 A 
ATOM     55  C   UNL     1     -42.704  42.743  26.300  1.00  0.00    -0.016 A 
ATOM     56  N   UNL     1     -43.953  42.764  24.394  1.00  0.00    -0.173 NA
ATOM     57  C   UNL     1     -42.039  43.497  25.359  1.00  0.00     0.025 A 
ATOM     58  H   UNL     1     -42.373  42.519  27.305  1.00  0.00     0.066 H 
ATOM     59  N   UNL     1     -42.822  43.476  24.243  1.00  0.00    -0.275 N 
ATOM     60  H   UNL     1     -41.093  44.019  25.391  1.00  0.00     0.084 H 
BRANCH  59  61
ATOM     61  C   UNL     1     -42.548  44.111  22.977  1.00  0.00     0.030 C 
ATOM     62  H   UNL     1     -41.696  43.619  22.500  1.00  0.00     0.048 H 
ATOM     63  H   UNL     1     -42.316  45.162  23.162  1.00  0.00     0.048 H 
ATOM     64  H   UNL     1     -43.434  44.017  22.345  1.00  0.00     0.048 H 
ENDBRANCH  59  61
ENDBRANCH  46  54
BRANCH  50  65
ATOM     65  N   UNL     1     -46.828  43.883  25.240  1.00  0.00    -0.383 N 
ATOM     66  H   UNL     1     -47.279  44.707  25.622  1.00  0.00     0.158 HD
ATOM     67  H   UNL     1     -46.945  43.755  24.241  1.00  0.00     0.158 HD
ENDBRANCH  50  65
ENDBRANCH  39  43
ENDBRANCH  31  34
ENDBRANCH   1  31
TORSDOF 11
ENDMDL
