MODEL 1
REMARK VINA RESULT:     -10.6      0.000      0.000
REMARK SMILES Nc1ncnc2c1c([C@H]1CCCO1)cn2-c1cncc(COc2ccc3ccc(N4CCC4)nc3c2)n1
REMARK SMILES IDX 21 1 20 4 16 5 17 6 37 7 18 8 19 10 15 12 2 13 3 14 7 15
REMARK SMILES IDX 4 16 6 17 8 18 5 19 14 21 1 23 9 26 10 27 13 28 11 30 12 33
REMARK SMILES IDX 22 38 23 39 24 40 36 41 25 42 35 44 26 46 34 48 27 49 29 50
REMARK SMILES IDX 28 51 30 54 31 55 33 56 32 57
REMARK H PARENT 21 2 21 3 17 9 19 11 4 20 14 22 1 24 1 25 9 29 10 31 10 32
REMARK H PARENT 11 34 11 35 12 36 12 37 24 43 36 45 25 47 27 52 28 53 31 58
REMARK H PARENT 31 59 33 60 33 61 32 62 32 63
REMARK Flexibility Score: inf
ROOT
ATOM      1  C   UNL     1     -46.635  34.742  26.726  1.00  0.00     0.132 C 
ATOM      2  H   UNL     1     -46.086  34.772  25.777  1.00  0.00     0.078 H 
ATOM      3  H   UNL     1     -45.927  34.313  27.442  1.00  0.00     0.078 H 
ENDROOT
BRANCH   1   4
ATOM      4  C   UNL     1     -47.031  36.146  27.104  1.00  0.00     0.099 A 
ATOM      5  C   UNL     1     -46.455  38.369  27.468  1.00  0.00     0.157 A 
ATOM      6  C   UNL     1     -47.766  38.628  27.845  1.00  0.00     0.070 A 
ATOM      7  N   UNL     1     -46.079  37.115  27.077  1.00  0.00    -0.228 NA
ATOM      8  N   UNL     1     -48.728  37.667  27.868  1.00  0.00    -0.259 NA
ATOM      9  H   UNL     1     -48.120  39.597  28.167  1.00  0.00     0.088 H 
ATOM     10  C   UNL     1     -48.328  36.428  27.507  1.00  0.00     0.052 A 
ATOM     11  H   UNL     1     -49.093  35.661  27.555  1.00  0.00     0.086 H 
BRANCH   5  12
ATOM     12  N   UNL     1     -45.442  39.374  27.506  1.00  0.00    -0.284 N 
ATOM     13  C   UNL     1     -42.582  41.008  28.862  1.00  0.00     0.136 A 
ATOM     14  N   UNL     1     -42.350  40.300  29.981  1.00  0.00    -0.219 NA
ATOM     15  C   UNL     1     -43.665  40.658  28.037  1.00  0.00     0.067 A 
ATOM     16  C   UNL     1     -43.166  39.273  30.260  1.00  0.00     0.120 A 
ATOM     17  C   UNL     1     -44.435  39.569  28.441  1.00  0.00     0.151 A 
ATOM     18  C   UNL     1     -44.216  41.157  26.812  1.00  0.00     0.012 A 
ATOM     19  N   UNL     1     -44.223  38.841  29.558  1.00  0.00    -0.218 NA
ATOM     20  H   UNL     1     -42.943  38.725  31.171  1.00  0.00     0.106 H 
ATOM     21  C   UNL     1     -45.305  40.352  26.531  1.00  0.00     0.019 A 
ATOM     22  H   UNL     1     -45.991  40.373  25.693  1.00  0.00     0.083 H 
BRANCH  13  23
ATOM     23  N   UNL     1     -41.730  42.075  28.602  1.00  0.00    -0.383 N 
ATOM     24  H   UNL     1     -40.942  42.060  29.237  1.00  0.00     0.158 HD
ATOM     25  H   UNL     1     -42.229  42.963  28.542  1.00  0.00     0.158 HD
ENDBRANCH  13  23
BRANCH  18  26
ATOM     26  C   UNL     1     -43.675  42.293  25.998  1.00  0.00     0.085 C 
ATOM     27  C   UNL     1     -44.424  42.597  24.706  1.00  0.00    -0.020 C 
ATOM     28  O   UNL     1     -43.670  43.533  26.750  1.00  0.00    -0.373 OA
ATOM     29  H   UNL     1     -42.626  42.076  25.760  1.00  0.00     0.066 H 
ATOM     30  C   UNL     1     -44.088  44.049  24.481  1.00  0.00    -0.027 C 
ATOM     31  H   UNL     1     -45.509  42.496  24.832  1.00  0.00     0.030 H 
ATOM     32  H   UNL     1     -44.116  41.948  23.882  1.00  0.00     0.030 H 
ATOM     33  C   UNL     1     -44.128  44.587  25.893  1.00  0.00     0.048 C 
ATOM     34  H   UNL     1     -44.777  44.563  23.810  1.00  0.00     0.029 H 
ATOM     35  H   UNL     1     -43.075  44.137  24.072  1.00  0.00     0.029 H 
ATOM     36  H   UNL     1     -43.496  45.470  26.024  1.00  0.00     0.057 H 
ATOM     37  H   UNL     1     -45.151  44.841  26.192  1.00  0.00     0.057 H 
ENDBRANCH  18  26
ENDBRANCH   5  12
ENDBRANCH   1   4
BRANCH   1  38
ATOM     38  O   UNL     1     -47.782  33.916  26.508  1.00  0.00    -0.487 OA
BRANCH  38  39
ATOM     39  C   UNL     1     -47.635  32.774  25.767  1.00  0.00     0.122 A 
ATOM     40  C   UNL     1     -46.704  32.870  24.735  1.00  0.00    -0.019 A 
ATOM     41  C   UNL     1     -48.299  31.562  25.973  1.00  0.00     0.007 A 
ATOM     42  C   UNL     1     -46.455  31.777  23.908  1.00  0.00    -0.049 A 
ATOM     43  H   UNL     1     -46.176  33.806  24.567  1.00  0.00     0.066 H 
ATOM     44  C   UNL     1     -48.059  30.449  25.174  1.00  0.00     0.076 A 
ATOM     45  H   UNL     1     -49.029  31.436  26.765  1.00  0.00     0.069 H 
ATOM     46  C   UNL     1     -47.129  30.566  24.124  1.00  0.00     0.001 A 
ATOM     47  H   UNL     1     -45.733  31.876  23.101  1.00  0.00     0.063 H 
ATOM     48  N   UNL     1     -48.709  29.301  25.434  1.00  0.00    -0.231 NA
ATOM     49  C   UNL     1     -46.907  29.444  23.323  1.00  0.00    -0.049 A 
ATOM     50  C   UNL     1     -48.469  28.211  24.669  1.00  0.00     0.129 A 
ATOM     51  C   UNL     1     -47.586  28.260  23.596  1.00  0.00    -0.019 A 
ATOM     52  H   UNL     1     -46.209  29.481  22.491  1.00  0.00     0.063 H 
ATOM     53  H   UNL     1     -47.419  27.388  22.974  1.00  0.00     0.066 H 
BRANCH  50  54
ATOM     54  N   UNL     1     -49.149  27.017  24.973  1.00  0.00    -0.356 N 
ATOM     55  C   UNL     1     -50.413  26.969  25.656  1.00  0.00     0.021 C 
ATOM     56  C   UNL     1     -48.635  25.902  25.714  1.00  0.00     0.021 C 
ATOM     57  C   UNL     1     -50.095  25.498  25.948  1.00  0.00    -0.018 C 
ATOM     58  H   UNL     1     -50.448  27.617  26.539  1.00  0.00     0.049 H 
ATOM     59  H   UNL     1     -51.270  27.154  25.007  1.00  0.00     0.049 H 
ATOM     60  H   UNL     1     -48.088  26.201  26.615  1.00  0.00     0.049 H 
ATOM     61  H   UNL     1     -48.043  25.211  25.110  1.00  0.00     0.049 H 
ATOM     62  H   UNL     1     -50.338  25.149  26.955  1.00  0.00     0.030 H 
ATOM     63  H   UNL     1     -50.494  24.794  25.210  1.00  0.00     0.030 H 
ENDBRANCH  50  54
ENDBRANCH  38  39
ENDBRANCH   1  38
TORSDOF 7
ENDMDL
MODEL 2
REMARK VINA RESULT:      -9.9      2.573     12.496
REMARK SMILES Nc1ncnc2c1c([C@H]1CCCO1)cn2-c1cncc(COc2ccc3ccc(N4CCC4)nc3c2)n1
REMARK SMILES IDX 21 1 20 4 16 5 17 6 37 7 18 8 19 10 15 12 2 13 3 14 7 15
REMARK SMILES IDX 4 16 6 17 8 18 5 19 14 21 1 23 9 26 10 27 13 28 11 30 12 33
REMARK SMILES IDX 22 38 23 39 24 40 36 41 25 42 35 44 26 46 34 48 27 49 29 50
REMARK SMILES IDX 28 51 30 54 31 55 33 56 32 57
REMARK H PARENT 21 2 21 3 17 9 19 11 4 20 14 22 1 24 1 25 9 29 10 31 10 32
REMARK H PARENT 11 34 11 35 12 36 12 37 24 43 36 45 25 47 27 52 28 53 31 58
REMARK H PARENT 31 59 33 60 33 61 32 62 32 63
REMARK Flexibility Score: inf
ROOT
ATOM      1  C   UNL     1     -48.782  35.185  26.995  1.00  0.00     0.132 C 
ATOM      2  H   UNL     1     -48.768  36.133  26.444  1.00  0.00     0.078 H 
ATOM      3  H   UNL     1     -49.843  34.974  27.160  1.00  0.00     0.078 H 
ENDROOT
BRANCH   1   4
ATOM      4  C   UNL     1     -48.126  34.122  26.151  1.00  0.00     0.099 A 
ATOM      5  C   UNL     1     -48.236  32.078  25.050  1.00  0.00     0.157 A 
ATOM      6  C   UNL     1     -46.900  32.218  24.695  1.00  0.00     0.070 A 
ATOM      7  N   UNL     1     -48.867  33.047  25.775  1.00  0.00    -0.228 NA
ATOM      8  N   UNL     1     -46.152  33.293  25.060  1.00  0.00    -0.259 NA
ATOM      9  H   UNL     1     -46.347  31.483  24.127  1.00  0.00     0.088 H 
ATOM     10  C   UNL     1     -46.788  34.225  25.803  1.00  0.00     0.052 A 
ATOM     11  H   UNL     1     -46.177  35.067  26.114  1.00  0.00     0.086 H 
BRANCH   5  12
ATOM     12  N   UNL     1     -48.992  30.915  24.711  1.00  0.00    -0.284 N 
ATOM     13  C   UNL     1     -51.638  29.157  23.098  1.00  0.00     0.136 A 
ATOM     14  N   UNL     1     -52.325  30.151  22.508  1.00  0.00    -0.219 NA
ATOM     15  C   UNL     1     -50.494  29.466  23.856  1.00  0.00     0.067 A 
ATOM     16  C   UNL     1     -51.879  31.406  22.661  1.00  0.00     0.120 A 
ATOM     17  C   UNL     1     -50.138  30.811  23.935  1.00  0.00     0.151 A 
ATOM     18  C   UNL     1     -49.538  28.712  24.611  1.00  0.00     0.012 A 
ATOM     19  N   UNL     1     -50.809  31.826  23.351  1.00  0.00    -0.218 NA
ATOM     20  H   UNL     1     -52.460  32.179  22.165  1.00  0.00     0.106 H 
ATOM     21  C   UNL     1     -48.647  29.637  25.125  1.00  0.00     0.019 A 
ATOM     22  H   UNL     1     -47.766  29.492  25.738  1.00  0.00     0.083 H 
BRANCH  13  23
ATOM     23  N   UNL     1     -52.127  27.867  22.936  1.00  0.00    -0.383 N 
ATOM     24  H   UNL     1     -51.927  27.309  23.756  1.00  0.00     0.158 HD
ATOM     25  H   UNL     1     -51.845  27.455  22.045  1.00  0.00     0.158 HD
ENDBRANCH  13  23
BRANCH  18  26
ATOM     26  C   UNL     1     -49.508  27.221  24.761  1.00  0.00     0.085 C 
ATOM     27  C   UNL     1     -48.404  26.668  25.653  1.00  0.00    -0.020 C 
ATOM     28  O   UNL     1     -50.750  26.715  25.313  1.00  0.00    -0.373 OA
ATOM     29  H   UNL     1     -49.414  26.778  23.761  1.00  0.00     0.066 H 
ATOM     30  C   UNL     1     -48.985  25.349  26.093  1.00  0.00    -0.027 C 
ATOM     31  H   UNL     1     -48.240  27.299  26.536  1.00  0.00     0.030 H 
ATOM     32  H   UNL     1     -47.450  26.567  25.126  1.00  0.00     0.030 H 
ATOM     33  C   UNL     1     -50.439  25.714  26.292  1.00  0.00     0.048 C 
ATOM     34  H   UNL     1     -48.522  24.940  26.993  1.00  0.00     0.029 H 
ATOM     35  H   UNL     1     -48.887  24.612  25.288  1.00  0.00     0.029 H 
ATOM     36  H   UNL     1     -51.107  24.857  26.169  1.00  0.00     0.057 H 
ATOM     37  H   UNL     1     -50.607  26.151  27.282  1.00  0.00     0.057 H 
ENDBRANCH  18  26
ENDBRANCH   5  12
ENDBRANCH   1   4
BRANCH   1  38
ATOM     38  O   UNL     1     -48.060  35.408  28.209  1.00  0.00    -0.487 OA
BRANCH  38  39
ATOM     39  C   UNL     1     -47.154  36.433  28.253  1.00  0.00     0.122 A 
ATOM     40  C   UNL     1     -46.195  36.313  29.257  1.00  0.00    -0.019 A 
ATOM     41  C   UNL     1     -47.101  37.531  27.391  1.00  0.00     0.007 A 
ATOM     42  C   UNL     1     -45.210  37.287  29.409  1.00  0.00    -0.049 A 
ATOM     43  H   UNL     1     -46.220  35.461  29.933  1.00  0.00     0.066 H 
ATOM     44  C   UNL     1     -46.120  38.509  27.508  1.00  0.00     0.076 A 
ATOM     45  H   UNL     1     -47.822  37.666  26.592  1.00  0.00     0.069 H 
ATOM     46  C   UNL     1     -45.169  38.385  28.537  1.00  0.00     0.001 A 
ATOM     47  H   UNL     1     -44.477  37.181  30.205  1.00  0.00     0.063 H 
ATOM     48  N   UNL     1     -46.104  39.532  26.633  1.00  0.00    -0.231 NA
ATOM     49  C   UNL     1     -44.197  39.382  28.649  1.00  0.00    -0.049 A 
ATOM     50  C   UNL     1     -45.143  40.479  26.733  1.00  0.00     0.129 A 
ATOM     51  C   UNL     1     -44.188  40.438  27.743  1.00  0.00    -0.019 A 
ATOM     52  H   UNL     1     -43.445  39.343  29.433  1.00  0.00     0.063 H 
ATOM     53  H   UNL     1     -43.438  41.215  27.829  1.00  0.00     0.066 H 
BRANCH  50  54
ATOM     54  N   UNL     1     -45.138  41.528  25.795  1.00  0.00    -0.356 N 
ATOM     55  C   UNL     1     -43.987  42.341  25.512  1.00  0.00     0.021 C 
ATOM     56  C   UNL     1     -46.020  42.658  25.768  1.00  0.00     0.021 C 
ATOM     57  C   UNL     1     -44.964  43.350  24.899  1.00  0.00    -0.018 C 
ATOM     58  H   UNL     1     -43.473  42.687  26.415  1.00  0.00     0.049 H 
ATOM     59  H   UNL     1     -43.281  41.877  24.820  1.00  0.00     0.049 H 
ATOM     60  H   UNL     1     -46.173  43.107  26.755  1.00  0.00     0.049 H 
ATOM     61  H   UNL     1     -46.977  42.455  25.281  1.00  0.00     0.049 H 
ATOM     62  H   UNL     1     -44.771  44.400  25.129  1.00  0.00     0.030 H 
ATOM     63  H   UNL     1     -45.119  43.233  23.821  1.00  0.00     0.030 H 
ENDBRANCH  50  54
ENDBRANCH  38  39
ENDBRANCH   1  38
TORSDOF 7
ENDMDL
MODEL 3
REMARK VINA RESULT:      -9.7      2.268     12.237
REMARK SMILES Nc1ncnc2c1c([C@H]1CCCO1)cn2-c1cncc(COc2ccc3ccc(N4CCC4)nc3c2)n1
REMARK SMILES IDX 21 1 20 4 16 5 17 6 37 7 18 8 19 10 15 12 2 13 3 14 7 15
REMARK SMILES IDX 4 16 6 17 8 18 5 19 14 21 1 23 9 26 10 27 13 28 11 30 12 33
REMARK SMILES IDX 22 38 23 39 24 40 36 41 25 42 35 44 26 46 34 48 27 49 29 50
REMARK SMILES IDX 28 51 30 54 31 55 33 56 32 57
REMARK H PARENT 21 2 21 3 17 9 19 11 4 20 14 22 1 24 1 25 9 29 10 31 10 32
REMARK H PARENT 11 34 11 35 12 36 12 37 24 43 36 45 25 47 27 52 28 53 31 58
REMARK H PARENT 31 59 33 60 33 61 32 62 32 63
REMARK Flexibility Score: inf
ROOT
ATOM      1  C   UNL     1     -46.191  35.201  27.569  1.00  0.00     0.132 C 
ATOM      2  H   UNL     1     -45.579  34.498  28.148  1.00  0.00     0.078 H 
ATOM      3  H   UNL     1     -45.538  35.535  26.757  1.00  0.00     0.078 H 
ENDROOT
BRANCH   1   4
ATOM      4  C   UNL     1     -47.404  34.475  27.048  1.00  0.00     0.099 A 
ATOM      5  C   UNL     1     -48.340  32.638  25.973  1.00  0.00     0.157 A 
ATOM      6  C   UNL     1     -49.589  33.238  26.075  1.00  0.00     0.070 A 
ATOM      7  N   UNL     1     -47.231  33.253  26.478  1.00  0.00    -0.228 NA
ATOM      8  N   UNL     1     -49.775  34.456  26.651  1.00  0.00    -0.259 NA
ATOM      9  H   UNL     1     -50.500  32.801  25.692  1.00  0.00     0.088 H 
ATOM     10  C   UNL     1     -48.659  35.061  27.116  1.00  0.00     0.052 A 
ATOM     11  H   UNL     1     -48.811  36.044  27.549  1.00  0.00     0.086 H 
BRANCH   5  12
ATOM     12  N   UNL     1     -48.152  31.386  25.313  1.00  0.00    -0.284 N 
ATOM     13  C   UNL     1     -46.644  29.195  22.944  1.00  0.00     0.136 A 
ATOM     14  N   UNL     1     -45.814  30.018  22.280  1.00  0.00    -0.219 NA
ATOM     15  C   UNL     1     -47.440  29.711  23.982  1.00  0.00     0.067 A 
ATOM     16  C   UNL     1     -45.773  31.307  22.647  1.00  0.00     0.120 A 
ATOM     17  C   UNL     1     -47.300  31.068  24.265  1.00  0.00     0.151 A 
ATOM     18  C   UNL     1     -48.413  29.170  24.884  1.00  0.00     0.012 A 
ATOM     19  N   UNL     1     -46.474  31.914  23.615  1.00  0.00    -0.218 NA
ATOM     20  H   UNL     1     -45.087  31.937  22.088  1.00  0.00     0.106 H 
ATOM     21  C   UNL     1     -48.830  30.229  25.670  1.00  0.00     0.019 A 
ATOM     22  H   UNL     1     -49.543  30.256  26.485  1.00  0.00     0.083 H 
BRANCH  13  23
ATOM     23  N   UNL     1     -46.678  27.867  22.536  1.00  0.00    -0.383 N 
ATOM     24  H   UNL     1     -45.843  27.638  22.012  1.00  0.00     0.158 HD
ATOM     25  H   UNL     1     -47.561  27.622  22.085  1.00  0.00     0.158 HD
ENDBRANCH  13  23
BRANCH  18  26
ATOM     26  C   UNL     1     -48.841  27.736  24.968  1.00  0.00     0.085 C 
ATOM     27  C   UNL     1     -48.124  26.891  26.012  1.00  0.00    -0.020 C 
ATOM     28  O   UNL     1     -50.255  27.619  25.271  1.00  0.00    -0.373 OA
ATOM     29  H   UNL     1     -48.701  27.278  23.980  1.00  0.00     0.066 H 
ATOM     30  C   UNL     1     -49.130  25.802  26.282  1.00  0.00    -0.027 C 
ATOM     31  H   UNL     1     -47.946  27.452  26.938  1.00  0.00     0.030 H 
ATOM     32  H   UNL     1     -47.161  26.513  25.655  1.00  0.00     0.030 H 
ATOM     33  C   UNL     1     -50.427  26.577  26.241  1.00  0.00     0.048 C 
ATOM     34  H   UNL     1     -48.975  25.282  27.229  1.00  0.00     0.029 H 
ATOM     35  H   UNL     1     -49.105  25.063  25.473  1.00  0.00     0.029 H 
ATOM     36  H   UNL     1     -51.281  25.953  25.964  1.00  0.00     0.057 H 
ATOM     37  H   UNL     1     -50.638  27.051  27.206  1.00  0.00     0.057 H 
ENDBRANCH  18  26
ENDBRANCH   5  12
ENDBRANCH   1   4
BRANCH   1  38
ATOM     38  O   UNL     1     -46.557  36.255  28.463  1.00  0.00    -0.487 OA
BRANCH  38  39
ATOM     39  C   UNL     1     -45.727  37.338  28.574  1.00  0.00     0.122 A 
ATOM     40  C   UNL     1     -45.046  37.422  29.787  1.00  0.00    -0.019 A 
ATOM     41  C   UNL     1     -45.497  38.310  27.597  1.00  0.00     0.007 A 
ATOM     42  C   UNL     1     -44.164  38.474  30.028  1.00  0.00    -0.049 A 
ATOM     43  H   UNL     1     -45.210  36.670  30.555  1.00  0.00     0.066 H 
ATOM     44  C   UNL     1     -44.611  39.362  27.803  1.00  0.00     0.076 A 
ATOM     45  H   UNL     1     -45.999  38.286  26.637  1.00  0.00     0.069 H 
ATOM     46  C   UNL     1     -43.944  39.445  29.039  1.00  0.00     0.001 A 
ATOM     47  H   UNL     1     -43.651  38.529  30.985  1.00  0.00     0.063 H 
ATOM     48  N   UNL     1     -44.411  40.255  26.817  1.00  0.00    -0.231 NA
ATOM     49  C   UNL     1     -43.066  40.513  29.235  1.00  0.00    -0.049 A 
ATOM     50  C   UNL     1     -43.539  41.272  27.006  1.00  0.00     0.129 A 
ATOM     51  C   UNL     1     -42.867  41.435  28.212  1.00  0.00    -0.019 A 
ATOM     52  H   UNL     1     -42.534  40.633  30.175  1.00  0.00     0.063 H 
ATOM     53  H   UNL     1     -42.190  42.268  28.362  1.00  0.00     0.066 H 
BRANCH  50  54
ATOM     54  N   UNL     1     -43.335  42.183  25.952  1.00  0.00    -0.356 N 
ATOM     55  C   UNL     1     -42.909  43.543  26.142  1.00  0.00     0.021 C 
ATOM     56  C   UNL     1     -44.286  42.556  24.946  1.00  0.00     0.021 C 
ATOM     57  C   UNL     1     -43.428  43.807  24.725  1.00  0.00    -0.018 C 
ATOM     58  H   UNL     1     -43.458  44.057  26.938  1.00  0.00     0.049 H 
ATOM     59  H   UNL     1     -41.832  43.649  26.286  1.00  0.00     0.049 H 
ATOM     60  H   UNL     1     -45.286  42.747  25.350  1.00  0.00     0.049 H 
ATOM     61  H   UNL     1     -44.332  41.858  24.107  1.00  0.00     0.049 H 
ATOM     62  H   UNL     1     -43.975  44.742  24.585  1.00  0.00     0.030 H 
ATOM     63  H   UNL     1     -42.672  43.703  23.939  1.00  0.00     0.030 H 
ENDBRANCH  50  54
ENDBRANCH  38  39
ENDBRANCH   1  38
TORSDOF 7
ENDMDL
MODEL 4
REMARK VINA RESULT:      -9.3      2.354      3.528
REMARK SMILES Nc1ncnc2c1c([C@H]1CCCO1)cn2-c1cncc(COc2ccc3ccc(N4CCC4)nc3c2)n1
REMARK SMILES IDX 21 1 20 4 16 5 17 6 37 7 18 8 19 10 15 12 2 13 3 14 7 15
REMARK SMILES IDX 4 16 6 17 8 18 5 19 14 21 1 23 9 26 10 27 13 28 11 30 12 33
REMARK SMILES IDX 22 38 23 39 24 40 36 41 25 42 35 44 26 46 34 48 27 49 29 50
REMARK SMILES IDX 28 51 30 54 31 55 33 56 32 57
REMARK H PARENT 21 2 21 3 17 9 19 11 4 20 14 22 1 24 1 25 9 29 10 31 10 32
REMARK H PARENT 11 34 11 35 12 36 12 37 24 43 36 45 25 47 27 52 28 53 31 58
REMARK H PARENT 31 59 33 60 33 61 32 62 32 63
REMARK Flexibility Score: inf
ROOT
ATOM      1  C   UNL     1     -46.830  37.371  28.724  1.00  0.00     0.132 C 
ATOM      2  H   UNL     1     -46.205  37.533  29.611  1.00  0.00     0.078 H 
ATOM      3  H   UNL     1     -47.736  36.891  29.108  1.00  0.00     0.078 H 
ENDROOT
BRANCH   1   4
ATOM      4  C   UNL     1     -47.130  38.704  28.090  1.00  0.00     0.099 A 
ATOM      5  C   UNL     1     -46.394  40.632  27.018  1.00  0.00     0.157 A 
ATOM      6  C   UNL     1     -47.698  41.109  27.021  1.00  0.00     0.070 A 
ATOM      7  N   UNL     1     -46.102  39.406  27.545  1.00  0.00    -0.228 NA
ATOM      8  N   UNL     1     -48.736  40.412  27.556  1.00  0.00    -0.259 NA
ATOM      9  H   UNL     1     -47.989  42.071  26.623  1.00  0.00     0.088 H 
ATOM     10  C   UNL     1     -48.419  39.215  28.100  1.00  0.00     0.052 A 
ATOM     11  H   UNL     1     -49.247  38.677  28.550  1.00  0.00     0.086 H 
BRANCH   5  12
ATOM     12  N   UNL     1     -45.306  41.401  26.507  1.00  0.00    -0.284 N 
ATOM     13  C   UNL     1     -41.932  42.543  26.426  1.00  0.00     0.136 A 
ATOM     14  N   UNL     1     -41.397  41.932  27.497  1.00  0.00    -0.219 NA
ATOM     15  C   UNL     1     -43.290  42.337  26.123  1.00  0.00     0.067 A 
ATOM     16  C   UNL     1     -42.187  41.136  28.233  1.00  0.00     0.120 A 
ATOM     17  C   UNL     1     -43.999  41.485  26.967  1.00  0.00     0.151 A 
ATOM     18  C   UNL     1     -44.188  42.800  25.107  1.00  0.00     0.012 A 
ATOM     19  N   UNL     1     -43.485  40.859  28.046  1.00  0.00    -0.218 NA
ATOM     20  H   UNL     1     -41.715  40.659  29.087  1.00  0.00     0.106 H 
ATOM     21  C   UNL     1     -45.409  42.214  25.387  1.00  0.00     0.019 A 
ATOM     22  H   UNL     1     -46.354  42.284  24.862  1.00  0.00     0.083 H 
BRANCH  13  23
ATOM     23  N   UNL     1     -41.097  43.373  25.688  1.00  0.00    -0.383 N 
ATOM     24  H   UNL     1     -41.601  44.196  25.381  1.00  0.00     0.158 HD
ATOM     25  H   UNL     1     -40.596  42.867  24.957  1.00  0.00     0.158 HD
ENDBRANCH  13  23
BRANCH  18  26
ATOM     26  C   UNL     1     -43.839  43.700  23.961  1.00  0.00     0.085 C 
ATOM     27  C   UNL     1     -44.949  43.940  22.945  1.00  0.00    -0.020 C 
ATOM     28  O   UNL     1     -43.434  45.015  24.419  1.00  0.00    -0.373 OA
ATOM     29  H   UNL     1     -42.969  43.275  23.444  1.00  0.00     0.066 H 
ATOM     30  C   UNL     1     -44.551  45.266  22.351  1.00  0.00    -0.027 C 
ATOM     31  H   UNL     1     -45.928  44.045  23.430  1.00  0.00     0.030 H 
ATOM     32  H   UNL     1     -45.021  43.137  22.206  1.00  0.00     0.030 H 
ATOM     33  C   UNL     1     -44.039  45.999  23.570  1.00  0.00     0.048 C 
ATOM     34  H   UNL     1     -45.368  45.790  21.851  1.00  0.00     0.029 H 
ATOM     35  H   UNL     1     -43.739  45.121  21.628  1.00  0.00     0.029 H 
ATOM     36  H   UNL     1     -43.306  46.771  23.319  1.00  0.00     0.057 H 
ATOM     37  H   UNL     1     -44.859  46.463  24.128  1.00  0.00     0.057 H 
ENDBRANCH  18  26
ENDBRANCH   5  12
ENDBRANCH   1   4
BRANCH   1  38
ATOM     38  O   UNL     1     -46.080  36.530  27.845  1.00  0.00    -0.487 OA
BRANCH  38  39
ATOM     39  C   UNL     1     -46.726  35.503  27.211  1.00  0.00     0.122 A 
ATOM     40  C   UNL     1     -48.112  35.515  27.355  1.00  0.00    -0.019 A 
ATOM     41  C   UNL     1     -46.132  34.501  26.439  1.00  0.00     0.007 A 
ATOM     42  C   UNL     1     -48.891  34.527  26.755  1.00  0.00    -0.049 A 
ATOM     43  H   UNL     1     -48.589  36.292  27.949  1.00  0.00     0.066 H 
ATOM     44  C   UNL     1     -46.885  33.513  25.814  1.00  0.00     0.076 A 
ATOM     45  H   UNL     1     -45.059  34.451  26.293  1.00  0.00     0.069 H 
ATOM     46  C   UNL     1     -48.282  33.526  25.984  1.00  0.00     0.001 A 
ATOM     47  H   UNL     1     -49.970  34.548  26.889  1.00  0.00     0.063 H 
ATOM     48  N   UNL     1     -46.261  32.587  25.064  1.00  0.00    -0.231 NA
ATOM     49  C   UNL     1     -49.023  32.520  25.360  1.00  0.00    -0.049 A 
ATOM     50  C   UNL     1     -46.989  31.632  24.441  1.00  0.00     0.129 A 
ATOM     51  C   UNL     1     -48.370  31.565  24.588  1.00  0.00    -0.019 A 
ATOM     52  H   UNL     1     -50.104  32.475  25.467  1.00  0.00     0.063 H 
ATOM     53  H   UNL     1     -48.942  30.780  24.105  1.00  0.00     0.066 H 
BRANCH  50  54
ATOM     54  N   UNL     1     -46.314  30.686  23.647  1.00  0.00    -0.356 N 
ATOM     55  C   UNL     1     -45.702  30.994  22.384  1.00  0.00     0.021 C 
ATOM     56  C   UNL     1     -46.839  29.444  23.161  1.00  0.00     0.021 C 
ATOM     57  C   UNL     1     -45.725  29.487  22.109  1.00  0.00    -0.018 C 
ATOM     58  H   UNL     1     -46.345  31.592  21.730  1.00  0.00     0.049 H 
ATOM     59  H   UNL     1     -44.714  31.450  22.474  1.00  0.00     0.049 H 
ATOM     60  H   UNL     1     -47.855  29.534  22.762  1.00  0.00     0.049 H 
ATOM     61  H   UNL     1     -46.776  28.628  23.885  1.00  0.00     0.049 H 
ATOM     62  H   UNL     1     -46.013  29.191  21.097  1.00  0.00     0.030 H 
ATOM     63  H   UNL     1     -44.810  28.960  22.398  1.00  0.00     0.030 H 
ENDBRANCH  50  54
ENDBRANCH  38  39
ENDBRANCH   1  38
TORSDOF 7
ENDMDL
MODEL 5
REMARK VINA RESULT:      -9.3      2.042      3.028
REMARK SMILES Nc1ncnc2c1c([C@H]1CCCO1)cn2-c1cncc(COc2ccc3ccc(N4CCC4)nc3c2)n1
REMARK SMILES IDX 21 1 20 4 16 5 17 6 37 7 18 8 19 10 15 12 2 13 3 14 7 15
REMARK SMILES IDX 4 16 6 17 8 18 5 19 14 21 1 23 9 26 10 27 13 28 11 30 12 33
REMARK SMILES IDX 22 38 23 39 24 40 36 41 25 42 35 44 26 46 34 48 27 49 29 50
REMARK SMILES IDX 28 51 30 54 31 55 33 56 32 57
REMARK H PARENT 21 2 21 3 17 9 19 11 4 20 14 22 1 24 1 25 9 29 10 31 10 32
REMARK H PARENT 11 34 11 35 12 36 12 37 24 43 36 45 25 47 27 52 28 53 31 58
REMARK H PARENT 31 59 33 60 33 61 32 62 32 63
REMARK Flexibility Score: inf
ROOT
ATOM      1  C   UNL     1     -47.538  35.443  26.302  1.00  0.00     0.132 C 
ATOM      2  H   UNL     1     -48.600  35.684  26.428  1.00  0.00     0.078 H 
ATOM      3  H   UNL     1     -47.361  35.524  25.225  1.00  0.00     0.078 H 
ENDROOT
BRANCH   1   4
ATOM      4  C   UNL     1     -46.717  36.439  27.079  1.00  0.00     0.099 A 
ATOM      5  C   UNL     1     -45.935  38.609  27.369  1.00  0.00     0.157 A 
ATOM      6  C   UNL     1     -45.190  38.176  28.459  1.00  0.00     0.070 A 
ATOM      7  N   UNL     1     -46.723  37.737  26.675  1.00  0.00    -0.228 NA
ATOM      8  N   UNL     1     -45.184  36.882  28.877  1.00  0.00    -0.259 NA
ATOM      9  H   UNL     1     -44.547  38.818  29.043  1.00  0.00     0.088 H 
ATOM     10  C   UNL     1     -45.946  36.029  28.156  1.00  0.00     0.052 A 
ATOM     11  H   UNL     1     -45.915  34.994  28.478  1.00  0.00     0.086 H 
BRANCH   5  12
ATOM     12  N   UNL     1     -45.885  39.959  26.906  1.00  0.00    -0.284 N 
ATOM     13  C   UNL     1     -47.294  43.108  26.019  1.00  0.00     0.136 A 
ATOM     14  N   UNL     1     -48.610  42.889  26.180  1.00  0.00    -0.219 NA
ATOM     15  C   UNL     1     -46.386  42.065  26.275  1.00  0.00     0.067 A 
ATOM     16  C   UNL     1     -49.004  41.675  26.591  1.00  0.00     0.120 A 
ATOM     17  C   UNL     1     -46.926  40.853  26.699  1.00  0.00     0.151 A 
ATOM     18  C   UNL     1     -44.962  41.917  26.215  1.00  0.00     0.012 A 
ATOM     19  N   UNL     1     -48.242  40.608  26.869  1.00  0.00    -0.218 NA
ATOM     20  H   UNL     1     -50.076  41.541  26.712  1.00  0.00     0.106 H 
ATOM     21  C   UNL     1     -44.702  40.613  26.596  1.00  0.00     0.019 A 
ATOM     22  H   UNL     1     -43.758  40.092  26.701  1.00  0.00     0.083 H 
BRANCH  13  23
ATOM     23  N   UNL     1     -46.911  44.370  25.579  1.00  0.00    -0.383 N 
ATOM     24  H   UNL     1     -45.902  44.437  25.537  1.00  0.00     0.158 HD
ATOM     25  H   UNL     1     -47.380  45.118  26.092  1.00  0.00     0.158 HD
ENDBRANCH  13  23
BRANCH  18  26
ATOM     26  C   UNL     1     -43.975  42.986  25.852  1.00  0.00     0.085 C 
ATOM     27  C   UNL     1     -42.510  42.641  26.085  1.00  0.00    -0.020 C 
ATOM     28  O   UNL     1     -44.076  43.351  24.452  1.00  0.00    -0.373 OA
ATOM     29  H   UNL     1     -44.225  43.890  26.423  1.00  0.00     0.066 H 
ATOM     30  C   UNL     1     -41.813  43.550  25.107  1.00  0.00    -0.027 C 
ATOM     31  H   UNL     1     -42.291  41.598  25.823  1.00  0.00     0.030 H 
ATOM     32  H   UNL     1     -42.202  42.802  27.122  1.00  0.00     0.030 H 
ATOM     33  C   UNL     1     -42.751  43.491  23.923  1.00  0.00     0.048 C 
ATOM     34  H   UNL     1     -40.796  43.239  24.861  1.00  0.00     0.029 H 
ATOM     35  H   UNL     1     -41.775  44.570  25.509  1.00  0.00     0.029 H 
ATOM     36  H   UNL     1     -42.696  44.387  23.298  1.00  0.00     0.057 H 
ATOM     37  H   UNL     1     -42.546  42.615  23.298  1.00  0.00     0.057 H 
ENDBRANCH  18  26
ENDBRANCH   5  12
ENDBRANCH   1   4
BRANCH   1  38
ATOM     38  O   UNL     1     -47.359  34.115  26.801  1.00  0.00    -0.487 OA
BRANCH  38  39
ATOM     39  C   UNL     1     -47.421  33.070  25.920  1.00  0.00     0.122 A 
ATOM     40  C   UNL     1     -46.283  32.911  25.131  1.00  0.00    -0.019 A 
ATOM     41  C   UNL     1     -48.479  32.170  25.774  1.00  0.00     0.007 A 
ATOM     42  C   UNL     1     -46.213  31.881  24.195  1.00  0.00    -0.049 A 
ATOM     43  H   UNL     1     -45.449  33.601  25.237  1.00  0.00     0.066 H 
ATOM     44  C   UNL     1     -48.431  31.122  24.861  1.00  0.00     0.076 A 
ATOM     45  H   UNL     1     -49.383  32.248  26.367  1.00  0.00     0.069 H 
ATOM     46  C   UNL     1     -47.283  30.985  24.058  1.00  0.00     0.001 A 
ATOM     47  H   UNL     1     -45.321  31.781  23.581  1.00  0.00     0.063 H 
ATOM     48  N   UNL     1     -49.470  30.271  24.781  1.00  0.00    -0.231 NA
ATOM     49  C   UNL     1     -47.255  29.935  23.138  1.00  0.00    -0.049 A 
ATOM     50  C   UNL     1     -49.422  29.241  23.905  1.00  0.00     0.129 A 
ATOM     51  C   UNL     1     -48.334  29.061  23.058  1.00  0.00    -0.019 A 
ATOM     52  H   UNL     1     -46.399  29.789  22.483  1.00  0.00     0.063 H 
ATOM     53  H   UNL     1     -48.317  28.247  22.343  1.00  0.00     0.066 H 
BRANCH  50  54
ATOM     54  N   UNL     1     -50.515  28.355  23.854  1.00  0.00    -0.356 N 
ATOM     55  C   UNL     1     -51.882  28.780  23.724  1.00  0.00     0.021 C 
ATOM     56  C   UNL     1     -50.852  27.353  24.823  1.00  0.00     0.021 C 
ATOM     57  C   UNL     1     -52.267  27.386  24.233  1.00  0.00    -0.018 C 
ATOM     58  H   UNL     1     -52.141  29.603  24.398  1.00  0.00     0.049 H 
ATOM     59  H   UNL     1     -52.174  29.013  22.699  1.00  0.00     0.049 H 
ATOM     60  H   UNL     1     -50.773  27.710  25.855  1.00  0.00     0.049 H 
ATOM     61  H   UNL     1     -50.305  26.416  24.691  1.00  0.00     0.049 H 
ATOM     62  H   UNL     1     -53.085  27.351  24.956  1.00  0.00     0.030 H 
ATOM     63  H   UNL     1     -52.444  26.649  23.442  1.00  0.00     0.030 H 
ENDBRANCH  50  54
ENDBRANCH  38  39
ENDBRANCH   1  38
TORSDOF 7
ENDMDL
MODEL 6
REMARK VINA RESULT:      -9.3      1.671      2.578
REMARK SMILES Nc1ncnc2c1c([C@H]1CCCO1)cn2-c1cncc(COc2ccc3ccc(N4CCC4)nc3c2)n1
REMARK SMILES IDX 21 1 20 4 16 5 17 6 37 7 18 8 19 10 15 12 2 13 3 14 7 15
REMARK SMILES IDX 4 16 6 17 8 18 5 19 14 21 1 23 9 26 10 27 13 28 11 30 12 33
REMARK SMILES IDX 22 38 23 39 24 40 36 41 25 42 35 44 26 46 34 48 27 49 29 50
REMARK SMILES IDX 28 51 30 54 31 55 33 56 32 57
REMARK H PARENT 21 2 21 3 17 9 19 11 4 20 14 22 1 24 1 25 9 29 10 31 10 32
REMARK H PARENT 11 34 11 35 12 36 12 37 24 43 36 45 25 47 27 52 28 53 31 58
REMARK H PARENT 31 59 33 60 33 61 32 62 32 63
REMARK Flexibility Score: inf
ROOT
ATOM      1  C   UNL     1     -47.609  36.889  28.121  1.00  0.00     0.132 C 
ATOM      2  H   UNL     1     -46.642  36.626  27.676  1.00  0.00     0.078 H 
ATOM      3  H   UNL     1     -47.482  36.700  29.192  1.00  0.00     0.078 H 
ENDROOT
BRANCH   1   4
ATOM      4  C   UNL     1     -47.894  38.342  27.841  1.00  0.00     0.099 A 
ATOM      5  C   UNL     1     -47.156  40.444  27.175  1.00  0.00     0.157 A 
ATOM      6  C   UNL     1     -48.430  40.946  27.411  1.00  0.00     0.070 A 
ATOM      7  N   UNL     1     -46.882  39.121  27.376  1.00  0.00    -0.228 NA
ATOM      8  N   UNL     1     -49.451  40.173  27.868  1.00  0.00    -0.259 NA
ATOM      9  H   UNL     1     -48.705  41.982  27.273  1.00  0.00     0.088 H 
ATOM     10  C   UNL     1     -49.150  38.874  28.090  1.00  0.00     0.052 A 
ATOM     11  H   UNL     1     -49.962  38.270  28.481  1.00  0.00     0.086 H 
BRANCH   5  12
ATOM     12  N   UNL     1     -46.079  41.280  26.752  1.00  0.00    -0.284 N 
ATOM     13  C   UNL     1     -42.702  42.415  26.745  1.00  0.00     0.136 A 
ATOM     14  N   UNL     1     -42.140  41.651  27.698  1.00  0.00    -0.219 NA
ATOM     15  C   UNL     1     -44.069  42.259  26.454  1.00  0.00     0.067 A 
ATOM     16  C   UNL     1     -42.914  40.755  28.329  1.00  0.00     0.120 A 
ATOM     17  C   UNL     1     -44.759  41.291  27.182  1.00  0.00     0.151 A 
ATOM     18  C   UNL     1     -44.993  42.869  25.545  1.00  0.00     0.012 A 
ATOM     19  N   UNL     1     -44.218  40.511  28.141  1.00  0.00    -0.218 NA
ATOM     20  H   UNL     1     -42.420  40.156  29.088  1.00  0.00     0.106 H 
ATOM     21  C   UNL     1     -46.209  42.250  25.769  1.00  0.00     0.019 A 
ATOM     22  H   UNL     1     -47.168  42.399  25.288  1.00  0.00     0.083 H 
BRANCH  13  23
ATOM     23  N   UNL     1     -41.883  43.345  26.115  1.00  0.00    -0.383 N 
ATOM     24  H   UNL     1     -42.201  44.285  26.313  1.00  0.00     0.158 HD
ATOM     25  H   UNL     1     -41.739  43.128  25.128  1.00  0.00     0.158 HD
ENDBRANCH  13  23
BRANCH  18  26
ATOM     26  C   UNL     1     -44.671  43.929  24.535  1.00  0.00     0.085 C 
ATOM     27  C   UNL     1     -44.067  43.436  23.227  1.00  0.00    -0.020 C 
ATOM     28  O   UNL     1     -45.851  44.687  24.163  1.00  0.00    -0.373 OA
ATOM     29  H   UNL     1     -43.981  44.646  24.999  1.00  0.00     0.066 H 
ATOM     30  C   UNL     1     -44.441  44.540  22.271  1.00  0.00    -0.027 C 
ATOM     31  H   UNL     1     -44.532  42.501  22.892  1.00  0.00     0.030 H 
ATOM     32  H   UNL     1     -42.988  43.272  23.299  1.00  0.00     0.030 H 
ATOM     33  C   UNL     1     -45.835  44.885  22.743  1.00  0.00     0.048 C 
ATOM     34  H   UNL     1     -44.408  44.246  21.221  1.00  0.00     0.029 H 
ATOM     35  H   UNL     1     -43.771  45.396  22.413  1.00  0.00     0.029 H 
ATOM     36  H   UNL     1     -46.114  45.917  22.512  1.00  0.00     0.057 H 
ATOM     37  H   UNL     1     -46.581  44.214  22.304  1.00  0.00     0.057 H 
ENDBRANCH  18  26
ENDBRANCH   5  12
ENDBRANCH   1   4
BRANCH   1  38
ATOM     38  O   UNL     1     -48.583  36.038  27.513  1.00  0.00    -0.487 OA
BRANCH  38  39
ATOM     39  C   UNL     1     -48.151  34.990  26.747  1.00  0.00     0.122 A 
ATOM     40  C   UNL     1     -46.870  35.148  26.221  1.00  0.00    -0.019 A 
ATOM     41  C   UNL     1     -48.852  33.811  26.483  1.00  0.00     0.007 A 
ATOM     42  C   UNL     1     -46.307  34.151  25.427  1.00  0.00    -0.049 A 
ATOM     43  H   UNL     1     -46.309  36.058  26.423  1.00  0.00     0.066 H 
ATOM     44  C   UNL     1     -48.310  32.792  25.708  1.00  0.00     0.076 A 
ATOM     45  H   UNL     1     -49.850  33.639  26.873  1.00  0.00     0.069 H 
ATOM     46  C   UNL     1     -47.023  32.972  25.169  1.00  0.00     0.001 A 
ATOM     47  H   UNL     1     -45.311  34.298  25.017  1.00  0.00     0.063 H 
ATOM     48  N   UNL     1     -49.022  31.668  25.507  1.00  0.00    -0.231 NA
ATOM     49  C   UNL     1     -46.496  31.945  24.383  1.00  0.00    -0.049 A 
ATOM     50  C   UNL     1     -48.493  30.667  24.766  1.00  0.00     0.129 A 
ATOM     51  C   UNL     1     -47.240  30.787  24.177  1.00  0.00    -0.019 A 
ATOM     52  H   UNL     1     -45.512  32.037  23.931  1.00  0.00     0.063 H 
ATOM     53  H   UNL     1     -46.836  29.990  23.564  1.00  0.00     0.066 H 
BRANCH  50  54
ATOM     54  N   UNL     1     -49.252  29.495  24.587  1.00  0.00    -0.356 N 
ATOM     55  C   UNL     1     -48.893  28.218  25.140  1.00  0.00     0.021 C 
ATOM     56  C   UNL     1     -49.646  28.913  23.337  1.00  0.00     0.021 C 
ATOM     57  C   UNL     1     -49.850  27.606  24.112  1.00  0.00    -0.018 C 
ATOM     58  H   UNL     1     -47.837  27.968  24.993  1.00  0.00     0.049 H 
ATOM     59  H   UNL     1     -49.174  28.099  26.188  1.00  0.00     0.049 H 
ATOM     60  H   UNL     1     -48.837  28.891  22.599  1.00  0.00     0.049 H 
ATOM     61  H   UNL     1     -50.549  29.358  22.912  1.00  0.00     0.049 H 
ATOM     62  H   UNL     1     -49.500  26.698  23.616  1.00  0.00     0.030 H 
ATOM     63  H   UNL     1     -50.871  27.453  24.479  1.00  0.00     0.030 H 
ENDBRANCH  50  54
ENDBRANCH  38  39
ENDBRANCH   1  38
TORSDOF 7
ENDMDL
MODEL 7
REMARK VINA RESULT:      -9.1      2.995     12.060
REMARK SMILES Nc1ncnc2c1c([C@H]1CCCO1)cn2-c1cncc(COc2ccc3ccc(N4CCC4)nc3c2)n1
REMARK SMILES IDX 21 1 20 4 16 5 17 6 37 7 18 8 19 10 15 12 2 13 3 14 7 15
REMARK SMILES IDX 4 16 6 17 8 18 5 19 14 21 1 23 9 26 10 27 13 28 11 30 12 33
REMARK SMILES IDX 22 38 23 39 24 40 36 41 25 42 35 44 26 46 34 48 27 49 29 50
REMARK SMILES IDX 28 51 30 54 31 55 33 56 32 57
REMARK H PARENT 21 2 21 3 17 9 19 11 4 20 14 22 1 24 1 25 9 29 10 31 10 32
REMARK H PARENT 11 34 11 35 12 36 12 37 24 43 36 45 25 47 27 52 28 53 31 58
REMARK H PARENT 31 59 33 60 33 61 32 62 32 63
REMARK Flexibility Score: inf
ROOT
ATOM      1  C   UNL     1     -47.874  36.153  27.640  1.00  0.00     0.132 C 
ATOM      2  H   UNL     1     -48.971  36.144  27.645  1.00  0.00     0.078 H 
ATOM      3  H   UNL     1     -47.595  36.476  28.648  1.00  0.00     0.078 H 
ENDROOT
BRANCH   1   4
ATOM      4  C   UNL     1     -47.378  34.762  27.342  1.00  0.00     0.099 A 
ATOM      5  C   UNL     1     -47.443  32.842  26.032  1.00  0.00     0.157 A 
ATOM      6  C   UNL     1     -46.511  32.255  26.878  1.00  0.00     0.070 A 
ATOM      7  N   UNL     1     -47.876  34.118  26.253  1.00  0.00    -0.228 NA
ATOM      8  N   UNL     1     -46.001  32.893  27.965  1.00  0.00    -0.259 NA
ATOM      9  H   UNL     1     -46.136  31.249  26.756  1.00  0.00     0.088 H 
ATOM     10  C   UNL     1     -46.466  34.144  28.183  1.00  0.00     0.052 A 
ATOM     11  H   UNL     1     -46.075  34.636  29.067  1.00  0.00     0.086 H 
BRANCH   5  12
ATOM     12  N   UNL     1     -48.015  32.138  24.929  1.00  0.00    -0.284 N 
ATOM     13  C   UNL     1     -47.898  30.165  21.965  1.00  0.00     0.136 A 
ATOM     14  N   UNL     1     -46.576  30.048  21.750  1.00  0.00    -0.219 NA
ATOM     15  C   UNL     1     -48.353  30.902  23.073  1.00  0.00     0.067 A 
ATOM     16  C   UNL     1     -45.739  30.638  22.616  1.00  0.00     0.120 A 
ATOM     17  C   UNL     1     -47.379  31.463  23.896  1.00  0.00     0.151 A 
ATOM     18  C   UNL     1     -49.636  31.243  23.612  1.00  0.00     0.012 A 
ATOM     19  N   UNL     1     -46.047  31.359  23.703  1.00  0.00    -0.218 NA
ATOM     20  H   UNL     1     -44.680  30.517  22.408  1.00  0.00     0.106 H 
ATOM     21  C   UNL     1     -49.382  32.007  24.737  1.00  0.00     0.019 A 
ATOM     22  H   UNL     1     -50.068  32.456  25.445  1.00  0.00     0.083 H 
BRANCH  13  23
ATOM     23  N   UNL     1     -48.745  29.556  21.047  1.00  0.00    -0.383 N 
ATOM     24  H   UNL     1     -48.949  28.606  21.332  1.00  0.00     0.158 HD
ATOM     25  H   UNL     1     -48.418  29.666  20.086  1.00  0.00     0.158 HD
ENDBRANCH  13  23
BRANCH  18  26
ATOM     26  C   UNL     1     -50.966  30.810  23.073  1.00  0.00     0.085 C 
ATOM     27  C   UNL     1     -51.363  31.409  21.731  1.00  0.00    -0.020 C 
ATOM     28  O   UNL     1     -51.026  29.372  22.895  1.00  0.00    -0.373 OA
ATOM     29  H   UNL     1     -51.734  31.058  23.817  1.00  0.00     0.066 H 
ATOM     30  C   UNL     1     -52.327  30.380  21.199  1.00  0.00    -0.027 C 
ATOM     31  H   UNL     1     -50.507  31.484  21.049  1.00  0.00     0.030 H 
ATOM     32  H   UNL     1     -51.804  32.405  21.831  1.00  0.00     0.030 H 
ATOM     33  C   UNL     1     -51.668  29.095  21.643  1.00  0.00     0.048 C 
ATOM     34  H   UNL     1     -52.477  30.431  20.119  1.00  0.00     0.029 H 
ATOM     35  H   UNL     1     -53.301  30.495  21.690  1.00  0.00     0.029 H 
ATOM     36  H   UNL     1     -52.383  28.277  21.768  1.00  0.00     0.057 H 
ATOM     37  H   UNL     1     -50.895  28.779  20.934  1.00  0.00     0.057 H 
ENDBRANCH  18  26
ENDBRANCH   5  12
ENDBRANCH   1   4
BRANCH   1  38
ATOM     38  O   UNL     1     -47.478  37.079  26.625  1.00  0.00    -0.487 OA
BRANCH  38  39
ATOM     39  C   UNL     1     -46.551  38.036  26.937  1.00  0.00     0.122 A 
ATOM     40  C   UNL     1     -45.689  37.689  27.976  1.00  0.00    -0.019 A 
ATOM     41  C   UNL     1     -46.390  39.271  26.305  1.00  0.00     0.007 A 
ATOM     42  C   UNL     1     -44.694  38.572  28.389  1.00  0.00    -0.049 A 
ATOM     43  H   UNL     1     -45.799  36.728  28.473  1.00  0.00     0.066 H 
ATOM     44  C   UNL     1     -45.396  40.166  26.685  1.00  0.00     0.076 A 
ATOM     45  H   UNL     1     -47.033  39.585  25.490  1.00  0.00     0.069 H 
ATOM     46  C   UNL     1     -44.543  39.810  27.747  1.00  0.00     0.001 A 
ATOM     47  H   UNL     1     -44.038  38.287  29.209  1.00  0.00     0.063 H 
ATOM     48  N   UNL     1     -45.272  41.331  26.024  1.00  0.00    -0.231 NA
ATOM     49  C   UNL     1     -43.558  40.724  28.124  1.00  0.00    -0.049 A 
ATOM     50  C   UNL     1     -44.297  42.199  26.379  1.00  0.00     0.129 A 
ATOM     51  C   UNL     1     -43.438  41.929  27.438  1.00  0.00    -0.019 A 
ATOM     52  H   UNL     1     -42.880  40.507  28.946  1.00  0.00     0.063 H 
ATOM     53  H   UNL     1     -42.676  42.642  27.731  1.00  0.00     0.066 H 
BRANCH  50  54
ATOM     54  N   UNL     1     -44.178  43.404  25.660  1.00  0.00    -0.356 N 
ATOM     55  C   UNL     1     -42.978  44.193  25.616  1.00  0.00     0.021 C 
ATOM     56  C   UNL     1     -45.012  44.563  25.787  1.00  0.00     0.021 C 
ATOM     57  C   UNL     1     -43.865  45.349  25.140  1.00  0.00    -0.018 C 
ATOM     58  H   UNL     1     -42.524  44.338  26.602  1.00  0.00     0.049 H 
ATOM     59  H   UNL     1     -42.239  43.830  24.900  1.00  0.00     0.049 H 
ATOM     60  H   UNL     1     -45.224  44.828  26.828  1.00  0.00     0.049 H 
ATOM     61  H   UNL     1     -45.935  44.505  25.205  1.00  0.00     0.049 H 
ATOM     62  H   UNL     1     -43.650  46.326  25.577  1.00  0.00     0.030 H 
ATOM     63  H   UNL     1     -43.940  45.442  24.051  1.00  0.00     0.030 H 
ENDBRANCH  50  54
ENDBRANCH  38  39
ENDBRANCH   1  38
TORSDOF 7
ENDMDL
