MODEL 1
REMARK VINA RESULT:     -10.5      0.000      0.000
REMARK SMILES C[C@H]1CCN1c1ccc2ccc(OCc3cncc(-n4cc(C5CCCC5)c5c(N)ncnc54)c3)cc2n1
REMARK SMILES IDX 14 1 13 4 12 5 6 6 7 7 38 8 8 9 37 11 9 12 36 14 10 15 11 17
REMARK SMILES IDX 5 20 2 21 3 22 4 24 1 29 15 33 16 34 35 35 17 36 19 38 18 40
REMARK SMILES IDX 20 42 21 43 34 44 22 45 28 47 33 48 29 49 32 50 31 51 23 53
REMARK SMILES IDX 24 54 27 55 25 57 26 60 30 67
REMARK H PARENT 14 2 14 3 7 10 8 13 36 16 10 18 11 19 2 23 3 25 3 26 4 27 4 28
REMARK H PARENT 1 30 1 31 1 32 16 37 35 39 18 41 21 46 32 52 23 56 24 58 24 59
REMARK H PARENT 27 61 27 62 25 63 25 64 26 65 26 66 30 68 30 69
REMARK Flexibility Score: inf
ROOT
ATOM      1  C   UNL     1     -46.858  34.621  27.677  1.00  0.00     0.115 C 
ATOM      2  H   UNL     1     -46.746  34.272  28.711  1.00  0.00     0.076 H 
ATOM      3  H   UNL     1     -45.916  34.374  27.172  1.00  0.00     0.076 H 
ENDROOT
BRANCH   1   4
ATOM      4  O   UNL     1     -47.946  33.880  27.116  1.00  0.00    -0.489 OA
BRANCH   4   5
ATOM      5  C   UNL     1     -47.692  33.001  26.101  1.00  0.00     0.122 A 
ATOM      6  C   UNL     1     -48.512  29.138  23.429  1.00  0.00     0.129 A 
ATOM      7  C   UNL     1     -47.396  29.393  22.642  1.00  0.00    -0.019 A 
ATOM      8  N   UNL     1     -48.844  29.956  24.456  1.00  0.00    -0.231 NA
ATOM      9  C   UNL     1     -46.606  30.508  22.909  1.00  0.00    -0.049 A 
ATOM     10  H   UNL     1     -47.125  28.738  21.823  1.00  0.00     0.066 H 
ATOM     11  C   UNL     1     -48.086  31.034  24.723  1.00  0.00     0.076 A 
ATOM     12  C   UNL     1     -46.945  31.354  23.967  1.00  0.00     0.001 A 
ATOM     13  H   UNL     1     -45.734  30.705  22.294  1.00  0.00     0.063 H 
ATOM     14  C   UNL     1     -48.437  31.864  25.781  1.00  0.00     0.007 A 
ATOM     15  C   UNL     1     -46.183  32.490  24.282  1.00  0.00    -0.049 A 
ATOM     16  H   UNL     1     -49.313  31.578  26.353  1.00  0.00     0.069 H 
ATOM     17  C   UNL     1     -46.560  33.305  25.346  1.00  0.00    -0.019 A 
ATOM     18  H   UNL     1     -45.297  32.743  23.705  1.00  0.00     0.063 H 
ATOM     19  H   UNL     1     -45.967  34.183  25.590  1.00  0.00     0.066 H 
BRANCH   6  20
ATOM     20  N   UNL     1     -49.327  28.012  23.194  1.00  0.00    -0.354 N 
ATOM     21  C   UNL     1     -50.381  27.856  22.227  1.00  0.00     0.029 C 
ATOM     22  C   UNL     1     -50.966  26.774  23.151  1.00  0.00    -0.015 C 
ATOM     23  H   UNL     1     -51.010  28.753  22.152  1.00  0.00     0.053 H 
ATOM     24  C   UNL     1     -50.081  27.375  24.240  1.00  0.00     0.021 C 
ATOM     25  H   UNL     1     -52.042  26.841  23.330  1.00  0.00     0.031 H 
ATOM     26  H   UNL     1     -50.709  25.741  22.890  1.00  0.00     0.031 H 
ATOM     27  H   UNL     1     -49.494  26.663  24.824  1.00  0.00     0.049 H 
ATOM     28  H   UNL     1     -50.590  28.089  24.897  1.00  0.00     0.049 H 
BRANCH  21  29
ATOM     29  C   UNL     1     -49.895  27.332  20.889  1.00  0.00    -0.045 C 
ATOM     30  H   UNL     1     -49.394  28.112  20.309  1.00  0.00     0.025 H 
ATOM     31  H   UNL     1     -49.195  26.497  21.005  1.00  0.00     0.025 H 
ATOM     32  H   UNL     1     -50.741  26.979  20.292  1.00  0.00     0.025 H 
ENDBRANCH  21  29
ENDBRANCH   6  20
ENDBRANCH   4   5
ENDBRANCH   1   4
BRANCH   1  33
ATOM     33  C   UNL     1     -47.111  36.105  27.729  1.00  0.00     0.010 A 
ATOM     34  C   UNL     1     -48.412  36.590  27.798  1.00  0.00     0.034 A 
ATOM     35  C   UNL     1     -46.073  37.046  27.655  1.00  0.00    -0.028 A 
ATOM     36  N   UNL     1     -48.726  37.900  27.822  1.00  0.00    -0.262 NA
ATOM     37  H   UNL     1     -49.266  35.919  27.840  1.00  0.00     0.084 H 
ATOM     38  C   UNL     1     -46.352  38.416  27.685  1.00  0.00     0.066 A 
ATOM     39  H   UNL     1     -45.056  36.671  27.606  1.00  0.00     0.065 H 
ATOM     40  C   UNL     1     -47.694  38.779  27.771  1.00  0.00     0.051 A 
ATOM     41  H   UNL     1     -48.030  39.811  27.780  1.00  0.00     0.086 H 
BRANCH  38  42
ATOM     42  N   UNL     1     -45.324  39.412  27.635  1.00  0.00    -0.299 N 
ATOM     43  C   UNL     1     -45.194  40.370  26.641  1.00  0.00     0.015 A 
ATOM     44  C   UNL     1     -44.284  39.619  28.540  1.00  0.00     0.150 A 
ATOM     45  C   UNL     1     -44.106  41.187  26.892  1.00  0.00    -0.013 A 
ATOM     46  H   UNL     1     -45.899  40.425  25.826  1.00  0.00     0.083 H 
ATOM     47  C   UNL     1     -43.532  40.715  28.117  1.00  0.00     0.065 A 
ATOM     48  N   UNL     1     -44.015  38.878  29.634  1.00  0.00    -0.218 NA
ATOM     49  C   UNL     1     -42.442  41.083  28.929  1.00  0.00     0.136 A 
ATOM     50  C   UNL     1     -42.948  39.311  30.312  1.00  0.00     0.120 A 
ATOM     51  N   UNL     1     -42.165  40.363  30.030  1.00  0.00    -0.219 NA
ATOM     52  H   UNL     1     -42.685  38.748  31.201  1.00  0.00     0.106 H 
BRANCH  45  53
ATOM     53  C   UNL     1     -43.613  42.341  26.052  1.00  0.00    -0.014 C 
ATOM     54  C   UNL     1     -44.308  42.502  24.694  1.00  0.00    -0.046 C 
ATOM     55  C   UNL     1     -43.864  43.698  26.716  1.00  0.00    -0.046 C 
ATOM     56  H   UNL     1     -42.541  42.195  25.876  1.00  0.00     0.035 H 
ATOM     57  C   UNL     1     -45.470  43.472  24.914  1.00  0.00    -0.053 C 
ATOM     58  H   UNL     1     -44.638  41.556  24.251  1.00  0.00     0.027 H 
ATOM     59  H   UNL     1     -43.606  42.958  23.984  1.00  0.00     0.027 H 
ATOM     60  C   UNL     1     -45.285  44.063  26.309  1.00  0.00    -0.053 C 
ATOM     61  H   UNL     1     -43.168  44.442  26.309  1.00  0.00     0.027 H 
ATOM     62  H   UNL     1     -43.744  43.687  27.804  1.00  0.00     0.027 H 
ATOM     63  H   UNL     1     -45.457  44.258  24.151  1.00  0.00     0.027 H 
ATOM     64  H   UNL     1     -46.437  42.962  24.837  1.00  0.00     0.027 H 
ATOM     65  H   UNL     1     -45.450  45.144  26.322  1.00  0.00     0.027 H 
ATOM     66  H   UNL     1     -46.005  43.613  27.002  1.00  0.00     0.027 H 
ENDBRANCH  45  53
BRANCH  49  67
ATOM     67  N   UNL     1     -41.615  42.175  28.692  1.00  0.00    -0.383 N 
ATOM     68  H   UNL     1     -41.451  42.750  29.504  1.00  0.00     0.158 HD
ATOM     69  H   UNL     1     -40.780  41.864  28.206  1.00  0.00     0.158 HD
ENDBRANCH  49  67
ENDBRANCH  38  42
ENDBRANCH   1  33
TORSDOF 8
ENDMDL
MODEL 2
REMARK VINA RESULT:     -10.4      1.822     12.414
REMARK SMILES C[C@H]1CCN1c1ccc2ccc(OCc3cncc(-n4cc(C5CCCC5)c5c(N)ncnc54)c3)cc2n1
REMARK SMILES IDX 14 1 13 4 12 5 6 6 7 7 38 8 8 9 37 11 9 12 36 14 10 15 11 17
REMARK SMILES IDX 5 20 2 21 3 22 4 24 1 29 15 33 16 34 35 35 17 36 19 38 18 40
REMARK SMILES IDX 20 42 21 43 34 44 22 45 28 47 33 48 29 49 32 50 31 51 23 53
REMARK SMILES IDX 24 54 27 55 25 57 26 60 30 67
REMARK H PARENT 14 2 14 3 7 10 8 13 36 16 10 18 11 19 2 23 3 25 3 26 4 27 4 28
REMARK H PARENT 1 30 1 31 1 32 16 37 35 39 18 41 21 46 32 52 23 56 24 58 24 59
REMARK H PARENT 27 61 27 62 25 63 25 64 26 65 26 66 30 68 30 69
REMARK Flexibility Score: inf
ROOT
ATOM      1  C   UNL     1     -48.872  34.650  26.998  1.00  0.00     0.115 C 
ATOM      2  H   UNL     1     -48.658  34.372  28.037  1.00  0.00     0.076 H 
ATOM      3  H   UNL     1     -49.943  34.465  26.851  1.00  0.00     0.076 H 
ENDROOT
BRANCH   1   4
ATOM      4  O   UNL     1     -48.575  36.045  26.885  1.00  0.00    -0.489 OA
BRANCH   4   5
ATOM      5  C   UNL     1     -47.580  36.573  27.658  1.00  0.00     0.122 A 
ATOM      6  C   UNL     1     -44.115  39.676  28.710  1.00  0.00     0.129 A 
ATOM      7  C   UNL     1     -43.845  39.032  29.910  1.00  0.00    -0.019 A 
ATOM      8  N   UNL     1     -45.086  39.227  27.880  1.00  0.00    -0.231 NA
ATOM      9  C   UNL     1     -44.585  37.909  30.270  1.00  0.00    -0.049 A 
ATOM     10  H   UNL     1     -43.066  39.386  30.574  1.00  0.00     0.066 H 
ATOM     11  C   UNL     1     -45.805  38.142  28.218  1.00  0.00     0.076 A 
ATOM     12  C   UNL     1     -45.587  37.442  29.418  1.00  0.00     0.001 A 
ATOM     13  H   UNL     1     -44.371  37.407  31.209  1.00  0.00     0.063 H 
ATOM     14  C   UNL     1     -46.798  37.690  27.356  1.00  0.00     0.007 A 
ATOM     15  C   UNL     1     -46.361  36.314  29.730  1.00  0.00    -0.049 A 
ATOM     16  H   UNL     1     -46.926  38.243  26.432  1.00  0.00     0.069 H 
ATOM     17  C   UNL     1     -47.351  35.886  28.849  1.00  0.00    -0.019 A 
ATOM     18  H   UNL     1     -46.197  35.766  30.654  1.00  0.00     0.063 H 
ATOM     19  H   UNL     1     -47.947  35.010  29.091  1.00  0.00     0.066 H 
BRANCH   6  20
ATOM     20  N   UNL     1     -43.378  40.809  28.309  1.00  0.00    -0.354 N 
ATOM     21  C   UNL     1     -42.875  41.132  27.000  1.00  0.00     0.029 C 
ATOM     22  C   UNL     1     -41.814  41.995  27.704  1.00  0.00    -0.015 C 
ATOM     23  H   UNL     1     -42.457  40.255  26.489  1.00  0.00     0.053 H 
ATOM     24  C   UNL     1     -42.162  41.208  28.965  1.00  0.00     0.021 C 
ATOM     25  H   UNL     1     -40.790  41.871  27.340  1.00  0.00     0.031 H 
ATOM     26  H   UNL     1     -42.044  43.064  27.772  1.00  0.00     0.031 H 
ATOM     27  H   UNL     1     -42.331  41.801  29.866  1.00  0.00     0.049 H 
ATOM     28  H   UNL     1     -41.492  40.366  29.174  1.00  0.00     0.049 H 
BRANCH  21  29
ATOM     29  C   UNL     1     -43.858  41.923  26.159  1.00  0.00    -0.045 C 
ATOM     30  H   UNL     1     -44.553  42.494  26.781  1.00  0.00     0.025 H 
ATOM     31  H   UNL     1     -43.353  42.625  25.487  1.00  0.00     0.025 H 
ATOM     32  H   UNL     1     -44.459  41.246  25.543  1.00  0.00     0.025 H 
ENDBRANCH  21  29
ENDBRANCH   6  20
ENDBRANCH   4   5
ENDBRANCH   1   4
BRANCH   1  33
ATOM     33  C   UNL     1     -48.012  33.784  26.115  1.00  0.00     0.010 A 
ATOM     34  C   UNL     1     -46.746  34.213  25.736  1.00  0.00     0.034 A 
ATOM     35  C   UNL     1     -48.461  32.558  25.601  1.00  0.00    -0.028 A 
ATOM     36  N   UNL     1     -45.925  33.511  24.929  1.00  0.00    -0.262 NA
ATOM     37  H   UNL     1     -46.340  35.160  26.081  1.00  0.00     0.084 H 
ATOM     38  C   UNL     1     -47.640  31.794  24.766  1.00  0.00     0.066 A 
ATOM     39  H   UNL     1     -49.448  32.218  25.899  1.00  0.00     0.065 H 
ATOM     40  C   UNL     1     -46.386  32.321  24.470  1.00  0.00     0.051 A 
ATOM     41  H   UNL     1     -45.673  31.827  23.817  1.00  0.00     0.086 H 
BRANCH  38  42
ATOM     42  N   UNL     1     -48.047  30.526  24.237  1.00  0.00    -0.299 N 
ATOM     43  C   UNL     1     -47.898  29.310  24.886  1.00  0.00     0.015 A 
ATOM     44  C   UNL     1     -48.657  30.263  23.012  1.00  0.00     0.150 A 
ATOM     45  C   UNL     1     -48.404  28.280  24.113  1.00  0.00    -0.013 A 
ATOM     46  H   UNL     1     -47.460  29.255  25.871  1.00  0.00     0.083 H 
ATOM     47  C   UNL     1     -48.904  28.893  22.918  1.00  0.00     0.065 A 
ATOM     48  N   UNL     1     -48.945  31.164  22.051  1.00  0.00    -0.218 NA
ATOM     49  C   UNL     1     -49.539  28.446  21.743  1.00  0.00     0.136 A 
ATOM     50  C   UNL     1     -49.526  30.619  20.978  1.00  0.00     0.120 A 
ATOM     51  N   UNL     1     -49.843  29.331  20.779  1.00  0.00    -0.219 NA
ATOM     52  H   UNL     1     -49.776  31.300  20.171  1.00  0.00     0.106 H 
BRANCH  45  53
ATOM     53  C   UNL     1     -48.427  26.809  24.447  1.00  0.00    -0.014 C 
ATOM     54  C   UNL     1     -47.552  26.397  25.637  1.00  0.00    -0.046 C 
ATOM     55  C   UNL     1     -49.816  26.326  24.875  1.00  0.00    -0.046 C 
ATOM     56  H   UNL     1     -48.088  26.257  23.563  1.00  0.00     0.035 H 
ATOM     57  C   UNL     1     -48.450  26.446  26.874  1.00  0.00    -0.053 C 
ATOM     58  H   UNL     1     -46.651  27.009  25.758  1.00  0.00     0.027 H 
ATOM     59  H   UNL     1     -47.215  25.362  25.495  1.00  0.00     0.027 H 
ATOM     60  C   UNL     1     -49.878  26.624  26.367  1.00  0.00    -0.053 C 
ATOM     61  H   UNL     1     -49.895  25.243  24.718  1.00  0.00     0.027 H 
ATOM     62  H   UNL     1     -50.638  26.804  24.332  1.00  0.00     0.027 H 
ATOM     63  H   UNL     1     -48.352  25.520  27.452  1.00  0.00     0.027 H 
ATOM     64  H   UNL     1     -48.173  27.272  27.538  1.00  0.00     0.027 H 
ATOM     65  H   UNL     1     -50.583  25.968  26.886  1.00  0.00     0.027 H 
ATOM     66  H   UNL     1     -50.208  27.656  26.534  1.00  0.00     0.027 H 
ENDBRANCH  45  53
BRANCH  49  67
ATOM     67  N   UNL     1     -49.907  27.128  21.498  1.00  0.00    -0.383 N 
ATOM     68  H   UNL     1     -49.785  26.839  20.539  1.00  0.00     0.158 HD
ATOM     69  H   UNL     1     -49.474  26.525  22.190  1.00  0.00     0.158 HD
ENDBRANCH  49  67
ENDBRANCH  38  42
ENDBRANCH   1  33
TORSDOF 8
ENDMDL
MODEL 3
REMARK VINA RESULT:     -10.2      1.441      2.088
REMARK SMILES C[C@H]1CCN1c1ccc2ccc(OCc3cncc(-n4cc(C5CCCC5)c5c(N)ncnc54)c3)cc2n1
REMARK SMILES IDX 14 1 13 4 12 5 6 6 7 7 38 8 8 9 37 11 9 12 36 14 10 15 11 17
REMARK SMILES IDX 5 20 2 21 3 22 4 24 1 29 15 33 16 34 35 35 17 36 19 38 18 40
REMARK SMILES IDX 20 42 21 43 34 44 22 45 28 47 33 48 29 49 32 50 31 51 23 53
REMARK SMILES IDX 24 54 27 55 25 57 26 60 30 67
REMARK H PARENT 14 2 14 3 7 10 8 13 36 16 10 18 11 19 2 23 3 25 3 26 4 27 4 28
REMARK H PARENT 1 30 1 31 1 32 16 37 35 39 18 41 21 46 32 52 23 56 24 58 24 59
REMARK H PARENT 27 61 27 62 25 63 25 64 26 65 26 66 30 68 30 69
REMARK Flexibility Score: inf
ROOT
ATOM      1  C   UNL     1     -47.245  34.826  26.206  1.00  0.00     0.115 C 
ATOM      2  H   UNL     1     -46.184  34.552  26.245  1.00  0.00     0.076 H 
ATOM      3  H   UNL     1     -47.515  34.837  25.143  1.00  0.00     0.076 H 
ENDROOT
BRANCH   1   4
ATOM      4  O   UNL     1     -47.954  33.797  26.902  1.00  0.00    -0.489 OA
BRANCH   4   5
ATOM      5  C   UNL     1     -48.434  32.731  26.193  1.00  0.00     0.122 A 
ATOM      6  C   UNL     1     -48.750  28.123  25.011  1.00  0.00     0.129 A 
ATOM      7  C   UNL     1     -49.695  28.396  24.029  1.00  0.00    -0.019 A 
ATOM      8  N   UNL     1     -48.220  29.114  25.765  1.00  0.00    -0.231 NA
ATOM      9  C   UNL     1     -50.109  29.708  23.819  1.00  0.00    -0.049 A 
ATOM     10  H   UNL     1     -50.117  27.605  23.421  1.00  0.00     0.066 H 
ATOM     11  C   UNL     1     -48.612  30.385  25.568  1.00  0.00     0.076 A 
ATOM     12  C   UNL     1     -49.566  30.734  24.595  1.00  0.00     0.001 A 
ATOM     13  H   UNL     1     -50.847  29.919  23.052  1.00  0.00     0.063 H 
ATOM     14  C   UNL     1     -48.060  31.394  26.348  1.00  0.00     0.007 A 
ATOM     15  C   UNL     1     -49.946  32.074  24.424  1.00  0.00    -0.049 A 
ATOM     16  H   UNL     1     -47.315  31.092  27.076  1.00  0.00     0.069 H 
ATOM     17  C   UNL     1     -49.377  33.064  25.222  1.00  0.00    -0.019 A 
ATOM     18  H   UNL     1     -50.680  32.352  23.672  1.00  0.00     0.063 H 
ATOM     19  H   UNL     1     -49.671  34.102  25.086  1.00  0.00     0.066 H 
BRANCH   6  20
ATOM     20  N   UNL     1     -48.299  26.807  25.242  1.00  0.00    -0.354 N 
ATOM     21  C   UNL     1     -48.591  25.944  26.356  1.00  0.00     0.029 C 
ATOM     22  C   UNL     1     -47.273  25.217  26.040  1.00  0.00    -0.015 C 
ATOM     23  H   UNL     1     -48.574  26.483  27.312  1.00  0.00     0.053 H 
ATOM     24  C   UNL     1     -46.904  26.458  25.231  1.00  0.00     0.021 C 
ATOM     25  H   UNL     1     -46.632  25.010  26.902  1.00  0.00     0.031 H 
ATOM     26  H   UNL     1     -47.369  24.307  25.437  1.00  0.00     0.031 H 
ATOM     27  H   UNL     1     -46.512  26.274  24.229  1.00  0.00     0.049 H 
ATOM     28  H   UNL     1     -46.277  27.180  25.766  1.00  0.00     0.049 H 
BRANCH  21  29
ATOM     29  C   UNL     1     -49.832  25.097  26.149  1.00  0.00    -0.045 C 
ATOM     30  H   UNL     1     -49.579  24.044  25.994  1.00  0.00     0.025 H 
ATOM     31  H   UNL     1     -50.518  25.157  27.000  1.00  0.00     0.025 H 
ATOM     32  H   UNL     1     -50.374  25.432  25.259  1.00  0.00     0.025 H 
ENDBRANCH  21  29
ENDBRANCH   6  20
ENDBRANCH   4   5
ENDBRANCH   1   4
BRANCH   1  33
ATOM     33  C   UNL     1     -47.382  36.182  26.848  1.00  0.00     0.010 A 
ATOM     34  C   UNL     1     -48.584  36.560  27.434  1.00  0.00     0.034 A 
ATOM     35  C   UNL     1     -46.343  37.126  26.836  1.00  0.00    -0.028 A 
ATOM     36  N   UNL     1     -48.797  37.762  28.006  1.00  0.00    -0.262 NA
ATOM     37  H   UNL     1     -49.437  35.887  27.464  1.00  0.00     0.084 H 
ATOM     38  C   UNL     1     -46.518  38.383  27.424  1.00  0.00     0.066 A 
ATOM     39  H   UNL     1     -45.402  36.832  26.383  1.00  0.00     0.065 H 
ATOM     40  C   UNL     1     -47.763  38.639  27.993  1.00  0.00     0.051 A 
ATOM     41  H   UNL     1     -48.019  39.585  28.458  1.00  0.00     0.086 H 
BRANCH  38  42
ATOM     42  N   UNL     1     -45.479  39.368  27.455  1.00  0.00    -0.299 N 
ATOM     43  C   UNL     1     -45.294  40.357  26.501  1.00  0.00     0.015 A 
ATOM     44  C   UNL     1     -44.480  39.534  28.413  1.00  0.00     0.150 A 
ATOM     45  C   UNL     1     -44.212  41.154  26.829  1.00  0.00    -0.013 A 
ATOM     46  H   UNL     1     -45.960  40.447  25.657  1.00  0.00     0.083 H 
ATOM     47  C   UNL     1     -43.699  40.635  28.062  1.00  0.00     0.065 A 
ATOM     48  N   UNL     1     -44.269  38.754  29.493  1.00  0.00    -0.218 NA
ATOM     49  C   UNL     1     -42.645  40.964  28.936  1.00  0.00     0.136 A 
ATOM     50  C   UNL     1     -43.230  39.153  30.234  1.00  0.00     0.120 A 
ATOM     51  N   UNL     1     -42.426  40.205  30.023  1.00  0.00    -0.219 NA
ATOM     52  H   UNL     1     -43.014  38.558  31.115  1.00  0.00     0.106 H 
BRANCH  45  53
ATOM     53  C   UNL     1     -43.670  42.329  26.052  1.00  0.00    -0.014 C 
ATOM     54  C   UNL     1     -44.298  42.541  24.669  1.00  0.00    -0.046 C 
ATOM     55  C   UNL     1     -43.940  43.666  26.748  1.00  0.00    -0.046 C 
ATOM     56  H   UNL     1     -42.592  42.178  25.922  1.00  0.00     0.035 H 
ATOM     57  C   UNL     1     -45.460  43.516  24.866  1.00  0.00    -0.053 C 
ATOM     58  H   UNL     1     -44.615  41.614  24.179  1.00  0.00     0.027 H 
ATOM     59  H   UNL     1     -43.560  43.013  24.008  1.00  0.00     0.027 H 
ATOM     60  C   UNL     1     -45.337  44.059  26.286  1.00  0.00    -0.053 C 
ATOM     61  H   UNL     1     -43.218  44.416  26.398  1.00  0.00     0.027 H 
ATOM     62  H   UNL     1     -43.871  43.619  27.839  1.00  0.00     0.027 H 
ATOM     63  H   UNL     1     -45.405  44.326  24.130  1.00  0.00     0.027 H 
ATOM     64  H   UNL     1     -46.427  43.019  24.727  1.00  0.00     0.027 H 
ATOM     65  H   UNL     1     -45.492  45.141  26.328  1.00  0.00     0.027 H 
ATOM     66  H   UNL     1     -46.092  43.594  26.931  1.00  0.00     0.027 H 
ENDBRANCH  45  53
BRANCH  49  67
ATOM     67  N   UNL     1     -41.797  42.054  28.773  1.00  0.00    -0.383 N 
ATOM     68  H   UNL     1     -41.273  42.294  29.601  1.00  0.00     0.158 HD
ATOM     69  H   UNL     1     -41.244  41.926  27.933  1.00  0.00     0.158 HD
ENDBRANCH  49  67
ENDBRANCH  38  42
ENDBRANCH   1  33
TORSDOF 8
ENDMDL
MODEL 4
REMARK VINA RESULT:     -10.1      1.804     12.186
REMARK SMILES C[C@H]1CCN1c1ccc2ccc(OCc3cncc(-n4cc(C5CCCC5)c5c(N)ncnc54)c3)cc2n1
REMARK SMILES IDX 14 1 13 4 12 5 6 6 7 7 38 8 8 9 37 11 9 12 36 14 10 15 11 17
REMARK SMILES IDX 5 20 2 21 3 22 4 24 1 29 15 33 16 34 35 35 17 36 19 38 18 40
REMARK SMILES IDX 20 42 21 43 34 44 22 45 28 47 33 48 29 49 32 50 31 51 23 53
REMARK SMILES IDX 24 54 27 55 25 57 26 60 30 67
REMARK H PARENT 14 2 14 3 7 10 8 13 36 16 10 18 11 19 2 23 3 25 3 26 4 27 4 28
REMARK H PARENT 1 30 1 31 1 32 16 37 35 39 18 41 21 46 32 52 23 56 24 58 24 59
REMARK H PARENT 27 61 27 62 25 63 25 64 26 65 26 66 30 68 30 69
REMARK Flexibility Score: inf
ROOT
ATOM      1  C   UNL     1     -48.712  34.818  27.149  1.00  0.00     0.115 C 
ATOM      2  H   UNL     1     -48.382  34.568  28.164  1.00  0.00     0.076 H 
ATOM      3  H   UNL     1     -49.805  34.727  27.156  1.00  0.00     0.076 H 
ENDROOT
BRANCH   1   4
ATOM      4  O   UNL     1     -48.315  36.173  26.917  1.00  0.00    -0.489 OA
BRANCH   4   5
ATOM      5  C   UNL     1     -47.336  36.717  27.701  1.00  0.00     0.122 A 
ATOM      6  C   UNL     1     -43.864  39.814  28.744  1.00  0.00     0.129 A 
ATOM      7  C   UNL     1     -43.638  39.211  29.975  1.00  0.00    -0.019 A 
ATOM      8  N   UNL     1     -44.815  39.346  27.902  1.00  0.00    -0.231 NA
ATOM      9  C   UNL     1     -44.404  38.112  30.353  1.00  0.00    -0.049 A 
ATOM     10  H   UNL     1     -42.875  39.580  30.649  1.00  0.00     0.066 H 
ATOM     11  C   UNL     1     -45.558  38.283  28.257  1.00  0.00     0.076 A 
ATOM     12  C   UNL     1     -45.386  37.626  29.488  1.00  0.00     0.001 A 
ATOM     13  H   UNL     1     -44.225  37.642  31.316  1.00  0.00     0.063 H 
ATOM     14  C   UNL     1     -46.531  37.812  27.382  1.00  0.00     0.007 A 
ATOM     15  C   UNL     1     -46.185  36.520  29.818  1.00  0.00    -0.049 A 
ATOM     16  H   UNL     1     -46.624  38.332  26.435  1.00  0.00     0.069 H 
ATOM     17  C   UNL     1     -47.153  36.071  28.923  1.00  0.00    -0.019 A 
ATOM     18  H   UNL     1     -46.056  36.004  30.766  1.00  0.00     0.063 H 
ATOM     19  H   UNL     1     -47.768  35.212  29.179  1.00  0.00     0.066 H 
BRANCH   6  20
ATOM     20  N   UNL     1     -43.099  40.922  28.324  1.00  0.00    -0.354 N 
ATOM     21  C   UNL     1     -42.802  41.347  26.982  1.00  0.00     0.029 C 
ATOM     22  C   UNL     1     -41.555  42.038  27.559  1.00  0.00    -0.015 C 
ATOM     23  H   UNL     1     -42.567  40.502  26.323  1.00  0.00     0.053 H 
ATOM     24  C   UNL     1     -41.755  41.146  28.782  1.00  0.00     0.021 C 
ATOM     25  H   UNL     1     -40.627  41.874  27.004  1.00  0.00     0.031 H 
ATOM     26  H   UNL     1     -41.663  43.109  27.769  1.00  0.00     0.031 H 
ATOM     27  H   UNL     1     -41.705  41.648  29.750  1.00  0.00     0.049 H 
ATOM     28  H   UNL     1     -41.145  40.236  28.784  1.00  0.00     0.049 H 
BRANCH  21  29
ATOM     29  C   UNL     1     -43.834  42.302  26.414  1.00  0.00    -0.045 C 
ATOM     30  H   UNL     1     -44.440  41.826  25.639  1.00  0.00     0.025 H 
ATOM     31  H   UNL     1     -44.512  42.681  27.186  1.00  0.00     0.025 H 
ATOM     32  H   UNL     1     -43.338  43.162  25.953  1.00  0.00     0.025 H 
ENDBRANCH  21  29
ENDBRANCH   6  20
ENDBRANCH   4   5
ENDBRANCH   1   4
BRANCH   1  33
ATOM     33  C   UNL     1     -48.060  33.837  26.210  1.00  0.00     0.010 A 
ATOM     34  C   UNL     1     -46.721  33.981  25.869  1.00  0.00     0.034 A 
ATOM     35  C   UNL     1     -48.771  32.789  25.608  1.00  0.00    -0.028 A 
ATOM     36  N   UNL     1     -46.068  33.164  25.019  1.00  0.00    -0.262 NA
ATOM     37  H   UNL     1     -46.112  34.781  26.284  1.00  0.00     0.084 H 
ATOM     38  C   UNL     1     -48.133  31.912  24.724  1.00  0.00     0.066 A 
ATOM     39  H   UNL     1     -49.816  32.670  25.875  1.00  0.00     0.065 H 
ATOM     40  C   UNL     1     -46.785  32.150  24.472  1.00  0.00     0.051 A 
ATOM     41  H   UNL     1     -46.193  31.548  23.790  1.00  0.00     0.086 H 
BRANCH  38  42
ATOM     42  N   UNL     1     -48.814  30.815  24.103  1.00  0.00    -0.299 N 
ATOM     43  C   UNL     1     -49.487  30.882  22.893  1.00  0.00     0.015 A 
ATOM     44  C   UNL     1     -48.934  29.505  24.565  1.00  0.00     0.150 A 
ATOM     45  C   UNL     1     -50.025  29.649  22.566  1.00  0.00    -0.013 A 
ATOM     46  H   UNL     1     -49.523  31.799  22.326  1.00  0.00     0.083 H 
ATOM     47  C   UNL     1     -49.657  28.764  23.631  1.00  0.00     0.065 A 
ATOM     48  N   UNL     1     -48.461  29.022  25.732  1.00  0.00    -0.218 NA
ATOM     49  C   UNL     1     -49.860  27.402  23.929  1.00  0.00     0.136 A 
ATOM     50  C   UNL     1     -48.732  27.725  25.911  1.00  0.00     0.120 A 
ATOM     51  N   UNL     1     -49.386  26.900  25.081  1.00  0.00    -0.219 NA
ATOM     52  H   UNL     1     -48.376  27.286  26.837  1.00  0.00     0.106 H 
BRANCH  45  53
ATOM     53  C   UNL     1     -50.837  29.298  21.343  1.00  0.00    -0.014 C 
ATOM     54  C   UNL     1     -51.379  30.496  20.555  1.00  0.00    -0.046 C 
ATOM     55  C   UNL     1     -50.015  28.552  20.289  1.00  0.00    -0.046 C 
ATOM     56  H   UNL     1     -51.686  28.686  21.668  1.00  0.00     0.035 H 
ATOM     57  C   UNL     1     -50.340  30.813  19.478  1.00  0.00    -0.053 C 
ATOM     58  H   UNL     1     -51.608  31.369  21.177  1.00  0.00     0.027 H 
ATOM     59  H   UNL     1     -52.314  30.207  20.059  1.00  0.00     0.027 H 
ATOM     60  C   UNL     1     -49.348  29.654  19.478  1.00  0.00    -0.053 C 
ATOM     61  H   UNL     1     -50.686  27.978  19.637  1.00  0.00     0.027 H 
ATOM     62  H   UNL     1     -49.281  27.857  20.709  1.00  0.00     0.027 H 
ATOM     63  H   UNL     1     -50.825  30.914  18.501  1.00  0.00     0.027 H 
ATOM     64  H   UNL     1     -49.826  31.759  19.683  1.00  0.00     0.027 H 
ATOM     65  H   UNL     1     -49.101  29.325  18.464  1.00  0.00     0.027 H 
ATOM     66  H   UNL     1     -48.412  29.964  19.958  1.00  0.00     0.027 H 
ENDBRANCH  45  53
BRANCH  49  67
ATOM     67  N   UNL     1     -50.512  26.502  23.094  1.00  0.00    -0.383 N 
ATOM     68  H   UNL     1     -50.658  26.843  22.156  1.00  0.00     0.158 HD
ATOM     69  H   UNL     1     -50.061  25.596  23.160  1.00  0.00     0.158 HD
ENDBRANCH  49  67
ENDBRANCH  38  42
ENDBRANCH   1  33
TORSDOF 8
ENDMDL
MODEL 5
REMARK VINA RESULT:     -10.0      1.709      2.995
REMARK SMILES C[C@H]1CCN1c1ccc2ccc(OCc3cncc(-n4cc(C5CCCC5)c5c(N)ncnc54)c3)cc2n1
REMARK SMILES IDX 14 1 13 4 12 5 6 6 7 7 38 8 8 9 37 11 9 12 36 14 10 15 11 17
REMARK SMILES IDX 5 20 2 21 3 22 4 24 1 29 15 33 16 34 35 35 17 36 19 38 18 40
REMARK SMILES IDX 20 42 21 43 34 44 22 45 28 47 33 48 29 49 32 50 31 51 23 53
REMARK SMILES IDX 24 54 27 55 25 57 26 60 30 67
REMARK H PARENT 14 2 14 3 7 10 8 13 36 16 10 18 11 19 2 23 3 25 3 26 4 27 4 28
REMARK H PARENT 1 30 1 31 1 32 16 37 35 39 18 41 21 46 32 52 23 56 24 58 24 59
REMARK H PARENT 27 61 27 62 25 63 25 64 26 65 26 66 30 68 30 69
REMARK Flexibility Score: inf
ROOT
ATOM      1  C   UNL     1     -48.428  35.160  26.793  1.00  0.00     0.115 C 
ATOM      2  H   UNL     1     -48.257  35.311  25.720  1.00  0.00     0.076 H 
ATOM      3  H   UNL     1     -49.474  35.437  26.973  1.00  0.00     0.076 H 
ENDROOT
BRANCH   1   4
ATOM      4  O   UNL     1     -48.219  33.767  27.042  1.00  0.00    -0.489 OA
BRANCH   4   5
ATOM      5  C   UNL     1     -47.841  32.960  26.006  1.00  0.00     0.122 A 
ATOM      6  C   UNL     1     -48.539  29.697  22.599  1.00  0.00     0.129 A 
ATOM      7  C   UNL     1     -47.205  29.754  22.213  1.00  0.00    -0.019 A 
ATOM      8  N   UNL     1     -49.005  30.463  23.614  1.00  0.00    -0.231 NA
ATOM      9  C   UNL     1     -46.334  30.614  22.875  1.00  0.00    -0.049 A 
ATOM     10  H   UNL     1     -46.829  29.140  21.405  1.00  0.00     0.066 H 
ATOM     11  C   UNL     1     -48.170  31.294  24.261  1.00  0.00     0.076 A 
ATOM     12  C   UNL     1     -46.810  31.406  23.922  1.00  0.00     0.001 A 
ATOM     13  H   UNL     1     -45.292  30.657  22.571  1.00  0.00     0.063 H 
ATOM     14  C   UNL     1     -48.661  32.073  25.303  1.00  0.00     0.007 A 
ATOM     15  C   UNL     1     -45.975  32.288  24.625  1.00  0.00    -0.049 A 
ATOM     16  H   UNL     1     -49.709  31.950  25.549  1.00  0.00     0.069 H 
ATOM     17  C   UNL     1     -46.494  33.058  25.662  1.00  0.00    -0.019 A 
ATOM     18  H   UNL     1     -44.921  32.377  24.371  1.00  0.00     0.063 H 
ATOM     19  H   UNL     1     -45.845  33.738  26.208  1.00  0.00     0.066 H 
BRANCH   6  20
ATOM     20  N   UNL     1     -49.446  28.829  21.958  1.00  0.00    -0.354 N 
ATOM     21  C   UNL     1     -49.721  27.447  22.250  1.00  0.00     0.029 C 
ATOM     22  C   UNL     1     -50.188  27.311  20.790  1.00  0.00    -0.015 C 
ATOM     23  H   UNL     1     -48.807  26.881  22.470  1.00  0.00     0.053 H 
ATOM     24  C   UNL     1     -49.430  28.612  20.537  1.00  0.00     0.021 C 
ATOM     25  H   UNL     1     -49.810  26.435  20.256  1.00  0.00     0.031 H 
ATOM     26  H   UNL     1     -51.269  27.390  20.631  1.00  0.00     0.031 H 
ATOM     27  H   UNL     1     -49.970  29.377  19.976  1.00  0.00     0.049 H 
ATOM     28  H   UNL     1     -48.419  28.478  20.135  1.00  0.00     0.049 H 
BRANCH  21  29
ATOM     29  C   UNL     1     -50.824  27.259  23.273  1.00  0.00    -0.045 C 
ATOM     30  H   UNL     1     -51.327  28.203  23.502  1.00  0.00     0.025 H 
ATOM     31  H   UNL     1     -51.583  26.547  22.933  1.00  0.00     0.025 H 
ATOM     32  H   UNL     1     -50.407  26.879  24.212  1.00  0.00     0.025 H 
ENDBRANCH  21  29
ENDBRANCH   6  20
ENDBRANCH   4   5
ENDBRANCH   1   4
BRANCH   1  33
ATOM     33  C   UNL     1     -47.462  36.049  27.530  1.00  0.00     0.010 A 
ATOM     34  C   UNL     1     -46.895  35.626  28.726  1.00  0.00     0.034 A 
ATOM     35  C   UNL     1     -47.139  37.340  27.082  1.00  0.00    -0.028 A 
ATOM     36  N   UNL     1     -46.042  36.369  29.459  1.00  0.00    -0.262 NA
ATOM     37  H   UNL     1     -47.113  34.645  29.141  1.00  0.00     0.084 H 
ATOM     38  C   UNL     1     -46.253  38.143  27.808  1.00  0.00     0.066 A 
ATOM     39  H   UNL     1     -47.576  37.672  26.146  1.00  0.00     0.065 H 
ATOM     40  C   UNL     1     -45.738  37.602  28.983  1.00  0.00     0.051 A 
ATOM     41  H   UNL     1     -45.060  38.140  29.637  1.00  0.00     0.086 H 
BRANCH  38  42
ATOM     42  N   UNL     1     -45.878  39.456  27.378  1.00  0.00    -0.299 N 
ATOM     43  C   UNL     1     -44.575  39.926  27.305  1.00  0.00     0.015 A 
ATOM     44  C   UNL     1     -46.709  40.493  26.956  1.00  0.00     0.150 A 
ATOM     45  C   UNL     1     -44.552  41.229  26.841  1.00  0.00    -0.013 A 
ATOM     46  H   UNL     1     -43.741  39.295  27.567  1.00  0.00     0.083 H 
ATOM     47  C   UNL     1     -45.919  41.587  26.603  1.00  0.00     0.065 A 
ATOM     48  N   UNL     1     -48.057  40.472  26.916  1.00  0.00    -0.218 NA
ATOM     49  C   UNL     1     -46.598  42.728  26.132  1.00  0.00     0.136 A 
ATOM     50  C   UNL     1     -48.586  41.616  26.472  1.00  0.00     0.120 A 
ATOM     51  N   UNL     1     -47.940  42.722  26.074  1.00  0.00    -0.219 NA
ATOM     52  H   UNL     1     -49.670  41.654  26.422  1.00  0.00     0.106 H 
BRANCH  45  53
ATOM     53  C   UNL     1     -43.342  42.106  26.627  1.00  0.00    -0.014 C 
ATOM     54  C   UNL     1     -43.251  43.326  27.550  1.00  0.00    -0.046 C 
ATOM     55  C   UNL     1     -42.029  41.373  26.915  1.00  0.00    -0.046 C 
ATOM     56  H   UNL     1     -43.362  42.459  25.589  1.00  0.00     0.035 H 
ATOM     57  C   UNL     1     -42.424  42.893  28.762  1.00  0.00    -0.053 C 
ATOM     58  H   UNL     1     -44.225  43.736  27.842  1.00  0.00     0.027 H 
ATOM     59  H   UNL     1     -42.711  44.130  27.033  1.00  0.00     0.027 H 
ATOM     60  C   UNL     1     -41.827  41.532  28.416  1.00  0.00    -0.053 C 
ATOM     61  H   UNL     1     -41.207  41.868  26.384  1.00  0.00     0.027 H 
ATOM     62  H   UNL     1     -42.035  40.320  26.615  1.00  0.00     0.027 H 
ATOM     63  H   UNL     1     -41.635  43.626  28.964  1.00  0.00     0.027 H 
ATOM     64  H   UNL     1     -43.041  42.824  29.664  1.00  0.00     0.027 H 
ATOM     65  H   UNL     1     -40.772  41.462  28.696  1.00  0.00     0.027 H 
ATOM     66  H   UNL     1     -42.363  40.742  28.955  1.00  0.00     0.027 H 
ENDBRANCH  45  53
BRANCH  49  67
ATOM     67  N   UNL     1     -45.974  43.889  25.689  1.00  0.00    -0.383 N 
ATOM     68  H   UNL     1     -46.113  44.081  24.709  1.00  0.00     0.158 HD
ATOM     69  H   UNL     1     -46.204  44.653  26.317  1.00  0.00     0.158 HD
ENDBRANCH  49  67
ENDBRANCH  38  42
ENDBRANCH   1  33
TORSDOF 8
ENDMDL
MODEL 6
REMARK VINA RESULT:      -9.7      2.177      3.504
REMARK SMILES C[C@H]1CCN1c1ccc2ccc(OCc3cncc(-n4cc(C5CCCC5)c5c(N)ncnc54)c3)cc2n1
REMARK SMILES IDX 14 1 13 4 12 5 6 6 7 7 38 8 8 9 37 11 9 12 36 14 10 15 11 17
REMARK SMILES IDX 5 20 2 21 3 22 4 24 1 29 15 33 16 34 35 35 17 36 19 38 18 40
REMARK SMILES IDX 20 42 21 43 34 44 22 45 28 47 33 48 29 49 32 50 31 51 23 53
REMARK SMILES IDX 24 54 27 55 25 57 26 60 30 67
REMARK H PARENT 14 2 14 3 7 10 8 13 36 16 10 18 11 19 2 23 3 25 3 26 4 27 4 28
REMARK H PARENT 1 30 1 31 1 32 16 37 35 39 18 41 21 46 32 52 23 56 24 58 24 59
REMARK H PARENT 27 61 27 62 25 63 25 64 26 65 26 66 30 68 30 69
REMARK Flexibility Score: inf
ROOT
ATOM      1  C   UNL     1     -47.652  34.847  26.255  1.00  0.00     0.115 C 
ATOM      2  H   UNL     1     -46.849  34.508  25.589  1.00  0.00     0.076 H 
ATOM      3  H   UNL     1     -48.427  35.268  25.603  1.00  0.00     0.076 H 
ENDROOT
BRANCH   1   4
ATOM      4  O   UNL     1     -48.134  33.682  26.932  1.00  0.00    -0.489 OA
BRANCH   4   5
ATOM      5  C   UNL     1     -48.553  32.613  26.189  1.00  0.00     0.122 A 
ATOM      6  C   UNL     1     -48.724  28.007  24.968  1.00  0.00     0.129 A 
ATOM      7  C   UNL     1     -49.611  28.272  23.932  1.00  0.00    -0.019 A 
ATOM      8  N   UNL     1     -48.258  29.003  25.759  1.00  0.00    -0.231 NA
ATOM      9  C   UNL     1     -50.031  29.579  23.703  1.00  0.00    -0.049 A 
ATOM     10  H   UNL     1     -49.982  27.478  23.295  1.00  0.00     0.066 H 
ATOM     11  C   UNL     1     -48.656  30.269  25.544  1.00  0.00     0.076 A 
ATOM     12  C   UNL     1     -49.553  30.608  24.516  1.00  0.00     0.001 A 
ATOM     13  H   UNL     1     -50.724  29.783  22.892  1.00  0.00     0.063 H 
ATOM     14  C   UNL     1     -48.168  31.281  26.361  1.00  0.00     0.007 A 
ATOM     15  C   UNL     1     -49.942  31.944  24.328  1.00  0.00    -0.049 A 
ATOM     16  H   UNL     1     -47.466  30.986  27.133  1.00  0.00     0.069 H 
ATOM     17  C   UNL     1     -49.439  32.937  25.164  1.00  0.00    -0.019 A 
ATOM     18  H   UNL     1     -50.632  32.215  23.533  1.00  0.00     0.063 H 
ATOM     19  H   UNL     1     -49.739  33.972  25.015  1.00  0.00     0.066 H 
BRANCH   6  20
ATOM     20  N   UNL     1     -48.269  26.697  25.221  1.00  0.00    -0.354 N 
ATOM     21  C   UNL     1     -48.546  25.857  26.356  1.00  0.00     0.029 C 
ATOM     22  C   UNL     1     -47.230  25.125  26.039  1.00  0.00    -0.015 C 
ATOM     23  H   UNL     1     -48.519  26.415  27.300  1.00  0.00     0.053 H 
ATOM     24  C   UNL     1     -46.874  26.349  25.200  1.00  0.00     0.021 C 
ATOM     25  H   UNL     1     -46.579  24.937  26.896  1.00  0.00     0.031 H 
ATOM     26  H   UNL     1     -47.332  24.203  25.456  1.00  0.00     0.031 H 
ATOM     27  H   UNL     1     -46.494  26.146  24.197  1.00  0.00     0.049 H 
ATOM     28  H   UNL     1     -46.242  27.083  25.713  1.00  0.00     0.049 H 
BRANCH  21  29
ATOM     29  C   UNL     1     -49.788  25.004  26.181  1.00  0.00    -0.045 C 
ATOM     30  H   UNL     1     -49.564  23.939  26.292  1.00  0.00     0.025 H 
ATOM     31  H   UNL     1     -50.568  25.261  26.905  1.00  0.00     0.025 H 
ATOM     32  H   UNL     1     -50.204  25.143  25.178  1.00  0.00     0.025 H 
ENDBRANCH  21  29
ENDBRANCH   6  20
ENDBRANCH   4   5
ENDBRANCH   1   4
BRANCH   1  33
ATOM     33  C   UNL     1     -47.061  35.874  27.185  1.00  0.00     0.010 A 
ATOM     34  C   UNL     1     -46.853  35.568  28.524  1.00  0.00     0.034 A 
ATOM     35  C   UNL     1     -46.752  37.177  26.763  1.00  0.00    -0.028 A 
ATOM     36  N   UNL     1     -46.354  36.436  29.426  1.00  0.00    -0.262 NA
ATOM     37  H   UNL     1     -47.086  34.584  28.924  1.00  0.00     0.084 H 
ATOM     38  C   UNL     1     -46.225  38.108  27.663  1.00  0.00     0.066 A 
ATOM     39  H   UNL     1     -46.909  37.418  25.717  1.00  0.00     0.065 H 
ATOM     40  C   UNL     1     -46.048  37.679  28.976  1.00  0.00     0.051 A 
ATOM     41  H   UNL     1     -45.666  38.320  29.764  1.00  0.00     0.086 H 
BRANCH  38  42
ATOM     42  N   UNL     1     -45.874  39.441  27.273  1.00  0.00    -0.299 N 
ATOM     43  C   UNL     1     -44.580  39.934  27.208  1.00  0.00     0.015 A 
ATOM     44  C   UNL     1     -46.725  40.477  26.889  1.00  0.00     0.150 A 
ATOM     45  C   UNL     1     -44.582  41.252  26.785  1.00  0.00    -0.013 A 
ATOM     46  H   UNL     1     -43.733  39.309  27.446  1.00  0.00     0.083 H 
ATOM     47  C   UNL     1     -45.956  41.594  26.566  1.00  0.00     0.065 A 
ATOM     48  N   UNL     1     -48.073  40.434  26.854  1.00  0.00    -0.218 NA
ATOM     49  C   UNL     1     -46.656  42.738  26.134  1.00  0.00     0.136 A 
ATOM     50  C   UNL     1     -48.623  41.582  26.449  1.00  0.00     0.120 A 
ATOM     51  N   UNL     1     -47.998  42.711  26.083  1.00  0.00    -0.219 NA
ATOM     52  H   UNL     1     -49.708  41.604  26.406  1.00  0.00     0.106 H 
BRANCH  45  53
ATOM     53  C   UNL     1     -43.387  42.155  26.592  1.00  0.00    -0.014 C 
ATOM     54  C   UNL     1     -43.312  43.349  27.552  1.00  0.00    -0.046 C 
ATOM     55  C   UNL     1     -42.061  41.436  26.852  1.00  0.00    -0.046 C 
ATOM     56  H   UNL     1     -43.418  42.539  25.566  1.00  0.00     0.035 H 
ATOM     57  C   UNL     1     -42.472  42.893  28.746  1.00  0.00    -0.053 C 
ATOM     58  H   UNL     1     -44.291  43.732  27.860  1.00  0.00     0.027 H 
ATOM     59  H   UNL     1     -42.789  44.176  27.057  1.00  0.00     0.027 H 
ATOM     60  C   UNL     1     -41.854  41.553  28.357  1.00  0.00    -0.053 C 
ATOM     61  H   UNL     1     -41.249  41.962  26.333  1.00  0.00     0.027 H 
ATOM     62  H   UNL     1     -42.050  40.393  26.521  1.00  0.00     0.027 H 
ATOM     63  H   UNL     1     -41.695  43.632  28.968  1.00  0.00     0.027 H 
ATOM     64  H   UNL     1     -43.083  42.786  29.649  1.00  0.00     0.027 H 
ATOM     65  H   UNL     1     -40.797  41.492  28.630  1.00  0.00     0.027 H 
ATOM     66  H   UNL     1     -42.374  40.738  28.874  1.00  0.00     0.027 H 
ENDBRANCH  45  53
BRANCH  49  67
ATOM     67  N   UNL     1     -46.054  43.922  25.726  1.00  0.00    -0.383 N 
ATOM     68  H   UNL     1     -45.114  43.807  25.377  1.00  0.00     0.158 HD
ATOM     69  H   UNL     1     -46.685  44.424  25.109  1.00  0.00     0.158 HD
ENDBRANCH  49  67
ENDBRANCH  38  42
ENDBRANCH   1  33
TORSDOF 8
ENDMDL
MODEL 7
REMARK VINA RESULT:      -9.6      2.318     12.467
REMARK SMILES C[C@H]1CCN1c1ccc2ccc(OCc3cncc(-n4cc(C5CCCC5)c5c(N)ncnc54)c3)cc2n1
REMARK SMILES IDX 14 1 13 4 12 5 6 6 7 7 38 8 8 9 37 11 9 12 36 14 10 15 11 17
REMARK SMILES IDX 5 20 2 21 3 22 4 24 1 29 15 33 16 34 35 35 17 36 19 38 18 40
REMARK SMILES IDX 20 42 21 43 34 44 22 45 28 47 33 48 29 49 32 50 31 51 23 53
REMARK SMILES IDX 24 54 27 55 25 57 26 60 30 67
REMARK H PARENT 14 2 14 3 7 10 8 13 36 16 10 18 11 19 2 23 3 25 3 26 4 27 4 28
REMARK H PARENT 1 30 1 31 1 32 16 37 35 39 18 41 21 46 32 52 23 56 24 58 24 59
REMARK H PARENT 27 61 27 62 25 63 25 64 26 65 26 66 30 68 30 69
REMARK Flexibility Score: inf
ROOT
ATOM      1  C   UNL     1     -48.557  35.425  27.278  1.00  0.00     0.115 C 
ATOM      2  H   UNL     1     -49.119  34.909  28.065  1.00  0.00     0.076 H 
ATOM      3  H   UNL     1     -49.284  36.055  26.752  1.00  0.00     0.076 H 
ENDROOT
BRANCH   1   4
ATOM      4  O   UNL     1     -47.574  36.225  27.943  1.00  0.00    -0.489 OA
BRANCH   4   5
ATOM      5  C   UNL     1     -47.483  37.553  27.631  1.00  0.00     0.122 A 
ATOM      6  C   UNL     1     -45.302  41.459  25.982  1.00  0.00     0.129 A 
ATOM      7  C   UNL     1     -46.414  42.247  26.256  1.00  0.00    -0.019 A 
ATOM      8  N   UNL     1     -45.302  40.133  26.255  1.00  0.00    -0.231 NA
ATOM      9  C   UNL     1     -47.548  41.665  26.815  1.00  0.00    -0.049 A 
ATOM     10  H   UNL     1     -46.415  43.309  26.043  1.00  0.00     0.066 H 
ATOM     11  C   UNL     1     -46.391  39.563  26.798  1.00  0.00     0.076 A 
ATOM     12  C   UNL     1     -47.552  40.297  27.098  1.00  0.00     0.001 A 
ATOM     13  H   UNL     1     -48.415  42.282  27.028  1.00  0.00     0.063 H 
ATOM     14  C   UNL     1     -46.378  38.200  27.074  1.00  0.00     0.007 A 
ATOM     15  C   UNL     1     -48.667  39.660  27.663  1.00  0.00    -0.049 A 
ATOM     16  H   UNL     1     -45.461  37.668  26.846  1.00  0.00     0.069 H 
ATOM     17  C   UNL     1     -48.625  38.293  27.928  1.00  0.00    -0.019 A 
ATOM     18  H   UNL     1     -49.567  40.222  27.902  1.00  0.00     0.063 H 
ATOM     19  H   UNL     1     -49.489  37.802  28.369  1.00  0.00     0.066 H 
BRANCH   6  20
ATOM     20  N   UNL     1     -44.133  42.018  25.427  1.00  0.00    -0.354 N 
ATOM     21  C   UNL     1     -43.148  42.851  26.065  1.00  0.00     0.029 C 
ATOM     22  C   UNL     1     -42.807  43.390  24.665  1.00  0.00    -0.015 C 
ATOM     23  H   UNL     1     -43.605  43.601  26.723  1.00  0.00     0.053 H 
ATOM     24  C   UNL     1     -44.155  42.818  24.232  1.00  0.00     0.021 C 
ATOM     25  H   UNL     1     -42.712  44.476  24.590  1.00  0.00     0.031 H 
ATOM     26  H   UNL     1     -41.948  42.919  24.175  1.00  0.00     0.031 H 
ATOM     27  H   UNL     1     -44.148  42.225  23.315  1.00  0.00     0.049 H 
ATOM     28  H   UNL     1     -44.974  43.546  24.218  1.00  0.00     0.049 H 
BRANCH  21  29
ATOM     29  C   UNL     1     -42.028  42.063  26.716  1.00  0.00    -0.045 C 
ATOM     30  H   UNL     1     -42.406  41.390  27.491  1.00  0.00     0.025 H 
ATOM     31  H   UNL     1     -41.473  41.460  25.988  1.00  0.00     0.025 H 
ATOM     32  H   UNL     1     -41.317  42.742  27.197  1.00  0.00     0.025 H 
ENDBRANCH  21  29
ENDBRANCH   6  20
ENDBRANCH   4   5
ENDBRANCH   1   4
BRANCH   1  33
ATOM     33  C   UNL     1     -47.960  34.368  26.387  1.00  0.00     0.010 A 
ATOM     34  C   UNL     1     -46.691  34.542  25.848  1.00  0.00     0.034 A 
ATOM     35  C   UNL     1     -48.664  33.210  26.022  1.00  0.00    -0.028 A 
ATOM     36  N   UNL     1     -46.096  33.658  25.023  1.00  0.00    -0.262 NA
ATOM     37  H   UNL     1     -46.095  35.422  26.073  1.00  0.00     0.084 H 
ATOM     38  C   UNL     1     -48.083  32.262  25.174  1.00  0.00     0.066 A 
ATOM     39  H   UNL     1     -49.654  33.069  26.444  1.00  0.00     0.065 H 
ATOM     40  C   UNL     1     -46.800  32.541  24.710  1.00  0.00     0.051 A 
ATOM     41  H   UNL     1     -46.259  31.889  24.032  1.00  0.00     0.086 H 
BRANCH  38  42
ATOM     42  N   UNL     1     -48.755  31.056  24.793  1.00  0.00    -0.299 N 
ATOM     43  C   UNL     1     -48.223  29.781  24.907  1.00  0.00     0.015 A 
ATOM     44  C   UNL     1     -50.034  30.917  24.255  1.00  0.00     0.150 A 
ATOM     45  C   UNL     1     -49.129  28.833  24.465  1.00  0.00    -0.013 A 
ATOM     46  H   UNL     1     -47.238  29.623  25.318  1.00  0.00     0.083 H 
ATOM     47  C   UNL     1     -50.295  29.561  24.061  1.00  0.00     0.065 A 
ATOM     48  N   UNL     1     -50.882  31.918  23.940  1.00  0.00    -0.218 NA
ATOM     49  C   UNL     1     -51.561  29.233  23.536  1.00  0.00     0.136 A 
ATOM     50  C   UNL     1     -52.040  31.483  23.433  1.00  0.00     0.120 A 
ATOM     51  N   UNL     1     -52.424  30.215  23.227  1.00  0.00    -0.219 NA
ATOM     52  H   UNL     1     -52.759  32.248  23.159  1.00  0.00     0.106 H 
BRANCH  45  53
ATOM     53  C   UNL     1     -48.939  27.337  24.411  1.00  0.00    -0.014 C 
ATOM     54  C   UNL     1     -47.502  26.854  24.644  1.00  0.00    -0.046 C 
ATOM     55  C   UNL     1     -49.716  26.607  25.510  1.00  0.00    -0.046 C 
ATOM     56  H   UNL     1     -49.263  26.992  23.422  1.00  0.00     0.035 H 
ATOM     57  C   UNL     1     -47.376  26.574  26.143  1.00  0.00    -0.053 C 
ATOM     58  H   UNL     1     -46.737  27.553  24.289  1.00  0.00     0.027 H 
ATOM     59  H   UNL     1     -47.347  25.912  24.102  1.00  0.00     0.027 H 
ATOM     60  C   UNL     1     -48.788  26.640  26.717  1.00  0.00    -0.053 C 
ATOM     61  H   UNL     1     -49.886  25.565  25.211  1.00  0.00     0.027 H 
ATOM     62  H   UNL     1     -50.690  27.054  25.735  1.00  0.00     0.027 H 
ATOM     63  H   UNL     1     -46.932  25.587  26.308  1.00  0.00     0.027 H 
ATOM     64  H   UNL     1     -46.727  27.308  26.634  1.00  0.00     0.027 H 
ATOM     65  H   UNL     1     -48.989  25.817  27.410  1.00  0.00     0.027 H 
ATOM     66  H   UNL     1     -48.923  27.576  27.272  1.00  0.00     0.027 H 
ENDBRANCH  45  53
BRANCH  49  67
ATOM     67  N   UNL     1     -52.013  27.935  23.324  1.00  0.00    -0.383 N 
ATOM     68  H   UNL     1     -51.696  27.272  24.015  1.00  0.00     0.158 HD
ATOM     69  H   UNL     1     -53.015  27.951  23.167  1.00  0.00     0.158 HD
ENDBRANCH  49  67
ENDBRANCH  38  42
ENDBRANCH   1  33
TORSDOF 8
ENDMDL
