MODEL 1
REMARK VINA RESULT:     -10.5      0.000      0.000
REMARK SMILES CNc1ccc2cc(F)c(CC[C@H]3C[C@@H](n4ccc5c(N)ncnc54)[C@H](O)[C@@H]3O)cc2n1
REMARK SMILES IDX 11 1 10 4 3 5 4 6 32 7 5 8 31 10 6 11 30 13 7 14 8 16 9 18
REMARK SMILES IDX 2 19 1 21 12 25 13 28 14 29 28 30 15 32 26 35 29 39 16 41
REMARK SMILES IDX 17 42 25 43 18 44 19 46 24 47 20 49 23 50 22 51 21 53 27 56
REMARK H PARENT 11 2 11 3 4 9 5 12 30 15 7 17 2 20 1 22 1 23 1 24 12 26 12 27
REMARK H PARENT 13 31 14 33 14 34 28 36 15 37 26 38 29 40 17 45 18 48 23 52
REMARK H PARENT 21 54 21 55 27 57
REMARK Flexibility Score: inf
ROOT
ATOM      1  C   UNL     1     -46.767  35.491  25.928  1.00  0.00    -0.025 C 
ATOM      2  H   UNL     1     -45.682  35.607  25.827  1.00  0.00     0.032 H 
ATOM      3  H   UNL     1     -47.198  36.161  25.172  1.00  0.00     0.032 H 
ENDROOT
BRANCH   1   4
ATOM      4  C   UNL     1     -47.176  34.081  25.590  1.00  0.00    -0.010 A 
ATOM      5  C   UNL     1     -46.354  30.066  23.150  1.00  0.00     0.126 A 
ATOM      6  C   UNL     1     -47.478  29.451  23.689  1.00  0.00    -0.019 A 
ATOM      7  N   UNL     1     -46.008  31.325  23.486  1.00  0.00    -0.231 NA
ATOM      8  C   UNL     1     -48.280  30.155  24.583  1.00  0.00    -0.049 A 
ATOM      9  H   UNL     1     -47.723  28.427  23.430  1.00  0.00     0.066 H 
ATOM     10  C   UNL     1     -46.774  32.009  24.352  1.00  0.00     0.073 A 
ATOM     11  C   UNL     1     -47.935  31.461  24.931  1.00  0.00     0.003 A 
ATOM     12  H   UNL     1     -49.158  29.673  25.005  1.00  0.00     0.063 H 
ATOM     13  C   UNL     1     -46.417  33.308  24.695  1.00  0.00    -0.030 A 
ATOM     14  C   UNL     1     -48.708  32.218  25.826  1.00  0.00    -0.017 A 
ATOM     15  H   UNL     1     -45.514  33.726  24.251  1.00  0.00     0.065 H 
ATOM     16  C   UNL     1     -48.322  33.514  26.144  1.00  0.00     0.127 A 
ATOM     17  H   UNL     1     -49.606  31.811  26.280  1.00  0.00     0.066 H 
ATOM     18  F   UNL     1     -49.082  34.226  26.987  1.00  0.00    -0.207 F 
BRANCH   5  19
ATOM     19  N   UNL     1     -45.551  29.313  22.273  1.00  0.00    -0.373 N 
ATOM     20  H   UNL     1     -44.884  29.931  21.820  1.00  0.00     0.161 HD
BRANCH  19  21
ATOM     21  C   UNL     1     -44.901  28.169  22.888  1.00  0.00     0.005 C 
ATOM     22  H   UNL     1     -44.860  28.323  23.971  1.00  0.00     0.045 H 
ATOM     23  H   UNL     1     -43.868  28.055  22.537  1.00  0.00     0.045 H 
ATOM     24  H   UNL     1     -45.456  27.242  22.707  1.00  0.00     0.045 H 
ENDBRANCH  19  21
ENDBRANCH   5  19
ENDBRANCH   1   4
BRANCH   1  25
ATOM     25  C   UNL     1     -47.234  35.951  27.317  1.00  0.00    -0.044 C 
ATOM     26  H   UNL     1     -47.540  37.001  27.240  1.00  0.00     0.027 H 
ATOM     27  H   UNL     1     -48.137  35.391  27.592  1.00  0.00     0.027 H 
BRANCH  25  28
ATOM     28  C   UNL     1     -46.191  35.789  28.441  1.00  0.00    -0.010 C 
ATOM     29  C   UNL     1     -44.897  36.590  28.188  1.00  0.00    -0.024 C 
ATOM     30  C   UNL     1     -46.711  36.347  29.769  1.00  0.00     0.085 C 
ATOM     31  H   UNL     1     -45.942  34.727  28.556  1.00  0.00     0.033 H 
ATOM     32  C   UNL     1     -44.951  37.835  29.097  1.00  0.00     0.064 C 
ATOM     33  H   UNL     1     -44.752  36.837  27.131  1.00  0.00     0.029 H 
ATOM     34  H   UNL     1     -44.032  35.980  28.480  1.00  0.00     0.029 H 
ATOM     35  C   UNL     1     -46.360  37.837  29.713  1.00  0.00     0.101 C 
ATOM     36  H   UNL     1     -47.779  36.180  29.945  1.00  0.00     0.063 H 
ATOM     37  H   UNL     1     -44.215  37.714  29.902  1.00  0.00     0.056 H 
ATOM     38  H   UNL     1     -47.085  38.378  29.097  1.00  0.00     0.065 H 
BRANCH  30  39
ATOM     39  O   UNL     1     -45.992  35.755  30.860  1.00  0.00    -0.390 OA
ATOM     40  H   UNL     1     -46.645  35.301  31.423  1.00  0.00     0.211 HD
ENDBRANCH  30  39
BRANCH  32  41
ATOM     41  N   UNL     1     -44.609  39.063  28.394  1.00  0.00    -0.327 N 
ATOM     42  C   UNL     1     -45.168  39.508  27.218  1.00  0.00     0.007 A 
ATOM     43  C   UNL     1     -43.625  39.941  28.789  1.00  0.00     0.145 A 
ATOM     44  C   UNL     1     -44.558  40.697  26.878  1.00  0.00    -0.031 A 
ATOM     45  H   UNL     1     -45.949  38.953  26.715  1.00  0.00     0.082 H 
ATOM     46  C   UNL     1     -43.580  40.979  27.868  1.00  0.00     0.061 A 
ATOM     47  N   UNL     1     -42.844  39.811  29.876  1.00  0.00    -0.218 NA
ATOM     48  H   UNL     1     -44.781  41.293  26.003  1.00  0.00     0.065 H 
ATOM     49  C   UNL     1     -42.639  41.991  28.105  1.00  0.00     0.136 A 
ATOM     50  C   UNL     1     -41.986  40.836  29.995  1.00  0.00     0.120 A 
ATOM     51  N   UNL     1     -41.844  41.906  29.187  1.00  0.00    -0.219 NA
ATOM     52  H   UNL     1     -41.321  40.801  30.853  1.00  0.00     0.106 H 
BRANCH  49  53
ATOM     53  N   UNL     1     -42.484  43.104  27.286  1.00  0.00    -0.383 N 
ATOM     54  H   UNL     1     -41.717  43.676  27.621  1.00  0.00     0.158 HD
ATOM     55  H   UNL     1     -43.345  43.589  27.079  1.00  0.00     0.158 HD
ENDBRANCH  49  53
ENDBRANCH  32  41
BRANCH  35  56
ATOM     56  O   UNL     1     -46.385  38.401  31.021  1.00  0.00    -0.388 OA
ATOM     57  H   UNL     1     -45.550  38.110  31.446  1.00  0.00     0.211 HD
ENDBRANCH  35  56
ENDBRANCH  25  28
ENDBRANCH   1  25
TORSDOF 9
ENDMDL
MODEL 2
REMARK VINA RESULT:      -9.9      2.101      9.764
REMARK SMILES CNc1ccc2cc(F)c(CC[C@H]3C[C@@H](n4ccc5c(N)ncnc54)[C@H](O)[C@@H]3O)cc2n1
REMARK SMILES IDX 11 1 10 4 3 5 4 6 32 7 5 8 31 10 6 11 30 13 7 14 8 16 9 18
REMARK SMILES IDX 2 19 1 21 12 25 13 28 14 29 28 30 15 32 26 35 29 39 16 41
REMARK SMILES IDX 17 42 25 43 18 44 19 46 24 47 20 49 23 50 22 51 21 53 27 56
REMARK H PARENT 11 2 11 3 4 9 5 12 30 15 7 17 2 20 1 22 1 23 1 24 12 26 12 27
REMARK H PARENT 13 31 14 33 14 34 28 36 15 37 26 38 29 40 17 45 18 48 23 52
REMARK H PARENT 21 54 21 55 27 57
REMARK Flexibility Score: inf
ROOT
ATOM      1  C   UNL     1     -46.983  38.525  26.966  1.00  0.00    -0.025 C 
ATOM      2  H   UNL     1     -47.811  38.635  27.677  1.00  0.00     0.032 H 
ATOM      3  H   UNL     1     -47.306  39.068  26.067  1.00  0.00     0.032 H 
ENDROOT
BRANCH   1   4
ATOM      4  C   UNL     1     -45.745  39.197  27.498  1.00  0.00    -0.010 A 
ATOM      5  C   UNL     1     -42.092  42.180  26.785  1.00  0.00     0.126 A 
ATOM      6  C   UNL     1     -41.601  41.962  28.068  1.00  0.00    -0.019 A 
ATOM      7  N   UNL     1     -43.213  41.573  26.345  1.00  0.00    -0.231 NA
ATOM      8  C   UNL     1     -42.269  41.083  28.915  1.00  0.00    -0.049 A 
ATOM      9  H   UNL     1     -40.715  42.483  28.414  1.00  0.00     0.066 H 
ATOM     10  C   UNL     1     -43.865  40.725  27.159  1.00  0.00     0.073 A 
ATOM     11  C   UNL     1     -43.424  40.442  28.466  1.00  0.00     0.003 A 
ATOM     12  H   UNL     1     -41.885  40.914  29.918  1.00  0.00     0.063 H 
ATOM     13  C   UNL     1     -45.018  40.098  26.701  1.00  0.00    -0.030 A 
ATOM     14  C   UNL     1     -44.137  39.544  29.277  1.00  0.00    -0.017 A 
ATOM     15  H   UNL     1     -45.360  40.325  25.693  1.00  0.00     0.065 H 
ATOM     16  C   UNL     1     -45.284  38.934  28.787  1.00  0.00     0.127 A 
ATOM     17  H   UNL     1     -43.810  39.314  30.286  1.00  0.00     0.066 H 
ATOM     18  F   UNL     1     -45.939  38.067  29.569  1.00  0.00    -0.207 F 
BRANCH   5  19
ATOM     19  N   UNL     1     -41.408  43.099  25.968  1.00  0.00    -0.373 N 
ATOM     20  H   UNL     1     -40.530  42.686  25.666  1.00  0.00     0.161 HD
BRANCH  19  21
ATOM     21  C   UNL     1     -42.186  43.600  24.848  1.00  0.00     0.005 C 
ATOM     22  H   UNL     1     -42.054  44.685  24.780  1.00  0.00     0.045 H 
ATOM     23  H   UNL     1     -43.257  43.411  24.985  1.00  0.00     0.045 H 
ATOM     24  H   UNL     1     -41.853  43.166  23.899  1.00  0.00     0.045 H 
ENDBRANCH  19  21
ENDBRANCH   5  19
ENDBRANCH   1   4
BRANCH   1  25
ATOM     25  C   UNL     1     -46.775  37.048  26.601  1.00  0.00    -0.044 C 
ATOM     26  H   UNL     1     -47.214  36.879  25.611  1.00  0.00     0.027 H 
ATOM     27  H   UNL     1     -45.699  36.858  26.492  1.00  0.00     0.027 H 
BRANCH  25  28
ATOM     28  C   UNL     1     -47.355  36.039  27.613  1.00  0.00    -0.010 C 
ATOM     29  C   UNL     1     -48.047  34.836  26.940  1.00  0.00    -0.024 C 
ATOM     30  C   UNL     1     -46.248  35.399  28.457  1.00  0.00     0.085 C 
ATOM     31  H   UNL     1     -48.072  36.551  28.266  1.00  0.00     0.033 H 
ATOM     32  C   UNL     1     -47.081  33.638  27.052  1.00  0.00     0.064 C 
ATOM     33  H   UNL     1     -48.352  35.045  25.909  1.00  0.00     0.029 H 
ATOM     34  H   UNL     1     -48.967  34.597  27.488  1.00  0.00     0.029 H 
ATOM     35  C   UNL     1     -45.770  34.215  27.611  1.00  0.00     0.101 C 
ATOM     36  H   UNL     1     -45.430  36.075  28.723  1.00  0.00     0.063 H 
ATOM     37  H   UNL     1     -47.490  32.925  27.780  1.00  0.00     0.056 H 
ATOM     38  H   UNL     1     -45.094  34.557  26.821  1.00  0.00     0.065 H 
BRANCH  30  39
ATOM     39  O   UNL     1     -46.804  34.886  29.676  1.00  0.00    -0.390 OA
ATOM     40  H   UNL     1     -47.683  34.525  29.462  1.00  0.00     0.211 HD
ENDBRANCH  30  39
BRANCH  32  41
ATOM     41  N   UNL     1     -46.927  32.917  25.797  1.00  0.00    -0.327 N 
ATOM     42  C   UNL     1     -46.186  33.327  24.712  1.00  0.00     0.007 A 
ATOM     43  C   UNL     1     -47.551  31.728  25.498  1.00  0.00     0.145 A 
ATOM     44  C   UNL     1     -46.313  32.374  23.724  1.00  0.00    -0.031 A 
ATOM     45  H   UNL     1     -45.630  34.255  24.722  1.00  0.00     0.082 H 
ATOM     46  C   UNL     1     -47.176  31.356  24.213  1.00  0.00     0.061 A 
ATOM     47  N   UNL     1     -48.381  31.049  26.308  1.00  0.00    -0.218 NA
ATOM     48  H   UNL     1     -45.847  32.411  22.748  1.00  0.00     0.065 H 
ATOM     49  C   UNL     1     -47.704  30.153  23.725  1.00  0.00     0.136 A 
ATOM     50  C   UNL     1     -48.822  29.919  25.732  1.00  0.00     0.120 A 
ATOM     51  N   UNL     1     -48.531  29.436  24.508  1.00  0.00    -0.219 NA
ATOM     52  H   UNL     1     -49.498  29.314  26.328  1.00  0.00     0.106 H 
BRANCH  49  53
ATOM     53  N   UNL     1     -47.409  29.638  22.468  1.00  0.00    -0.383 N 
ATOM     54  H   UNL     1     -46.411  29.478  22.384  1.00  0.00     0.158 HD
ATOM     55  H   UNL     1     -47.847  30.132  21.704  1.00  0.00     0.158 HD
ENDBRANCH  49  53
ENDBRANCH  32  41
BRANCH  35  56
ATOM     56  O   UNL     1     -45.063  33.281  28.422  1.00  0.00    -0.388 OA
ATOM     57  H   UNL     1     -45.541  32.431  28.318  1.00  0.00     0.211 HD
ENDBRANCH  35  56
ENDBRANCH  25  28
ENDBRANCH   1  25
TORSDOF 9
ENDMDL
MODEL 3
REMARK VINA RESULT:      -9.8      1.678      2.054
REMARK SMILES CNc1ccc2cc(F)c(CC[C@H]3C[C@@H](n4ccc5c(N)ncnc54)[C@H](O)[C@@H]3O)cc2n1
REMARK SMILES IDX 11 1 10 4 3 5 4 6 32 7 5 8 31 10 6 11 30 13 7 14 8 16 9 18
REMARK SMILES IDX 2 19 1 21 12 25 13 28 14 29 28 30 15 32 26 35 29 39 16 41
REMARK SMILES IDX 17 42 25 43 18 44 19 46 24 47 20 49 23 50 22 51 21 53 27 56
REMARK H PARENT 11 2 11 3 4 9 5 12 30 15 7 17 2 20 1 22 1 23 1 24 12 26 12 27
REMARK H PARENT 13 31 14 33 14 34 28 36 15 37 26 38 29 40 17 45 18 48 23 52
REMARK H PARENT 21 54 21 55 27 57
REMARK Flexibility Score: inf
ROOT
ATOM      1  C   UNL     1     -46.198  35.565  26.780  1.00  0.00    -0.025 C 
ATOM      2  H   UNL     1     -45.971  35.387  27.837  1.00  0.00     0.032 H 
ATOM      3  H   UNL     1     -45.224  35.536  26.271  1.00  0.00     0.032 H 
ENDROOT
BRANCH   1   4
ATOM      4  C   UNL     1     -47.043  34.446  26.231  1.00  0.00    -0.010 A 
ATOM      5  C   UNL     1     -47.437  30.654  23.364  1.00  0.00     0.126 A 
ATOM      6  C   UNL     1     -48.764  30.454  23.730  1.00  0.00    -0.019 A 
ATOM      7  N   UNL     1     -46.703  31.658  23.886  1.00  0.00    -0.231 NA
ATOM      8  C   UNL     1     -49.359  31.321  24.643  1.00  0.00    -0.049 A 
ATOM      9  H   UNL     1     -49.328  29.623  23.322  1.00  0.00     0.066 H 
ATOM     10  C   UNL     1     -47.269  32.495  24.771  1.00  0.00     0.073 A 
ATOM     11  C   UNL     1     -48.611  32.368  25.182  1.00  0.00     0.003 A 
ATOM     12  H   UNL     1     -50.396  31.164  24.929  1.00  0.00     0.063 H 
ATOM     13  C   UNL     1     -46.512  33.531  25.305  1.00  0.00    -0.030 A 
ATOM     14  C   UNL     1     -49.160  33.272  26.105  1.00  0.00    -0.017 A 
ATOM     15  H   UNL     1     -45.474  33.622  24.991  1.00  0.00     0.065 H 
ATOM     16  C   UNL     1     -48.374  34.297  26.617  1.00  0.00     0.127 A 
ATOM     17  H   UNL     1     -50.192  33.189  26.431  1.00  0.00     0.066 H 
ATOM     18  F   UNL     1     -48.921  35.160  27.483  1.00  0.00    -0.207 F 
BRANCH   5  19
ATOM     19  N   UNL     1     -46.861  29.740  22.463  1.00  0.00    -0.373 N 
ATOM     20  H   UNL     1     -47.359  29.787  21.578  1.00  0.00     0.161 HD
BRANCH  19  21
ATOM     21  C   UNL     1     -45.427  29.894  22.287  1.00  0.00     0.005 C 
ATOM     22  H   UNL     1     -45.036  29.015  21.764  1.00  0.00     0.045 H 
ATOM     23  H   UNL     1     -44.908  29.957  23.250  1.00  0.00     0.045 H 
ATOM     24  H   UNL     1     -45.186  30.774  21.680  1.00  0.00     0.045 H 
ENDBRANCH  19  21
ENDBRANCH   5  19
ENDBRANCH   1   4
BRANCH   1  25
ATOM     25  C   UNL     1     -46.815  36.957  26.584  1.00  0.00    -0.044 C 
ATOM     26  H   UNL     1     -46.184  37.511  25.879  1.00  0.00     0.027 H 
ATOM     27  H   UNL     1     -47.792  36.846  26.096  1.00  0.00     0.027 H 
BRANCH  25  28
ATOM     28  C   UNL     1     -46.999  37.774  27.879  1.00  0.00    -0.010 C 
ATOM     29  C   UNL     1     -45.705  38.475  28.342  1.00  0.00    -0.024 C 
ATOM     30  C   UNL     1     -47.986  38.929  27.673  1.00  0.00     0.085 C 
ATOM     31  H   UNL     1     -47.360  37.115  28.677  1.00  0.00     0.033 H 
ATOM     32  C   UNL     1     -45.841  39.966  27.970  1.00  0.00     0.064 C 
ATOM     33  H   UNL     1     -44.802  38.012  27.932  1.00  0.00     0.029 H 
ATOM     34  H   UNL     1     -45.622  38.392  29.434  1.00  0.00     0.029 H 
ATOM     35  C   UNL     1     -47.120  40.067  27.124  1.00  0.00     0.101 C 
ATOM     36  H   UNL     1     -48.828  38.695  27.014  1.00  0.00     0.063 H 
ATOM     37  H   UNL     1     -45.982  40.546  28.892  1.00  0.00     0.056 H 
ATOM     38  H   UNL     1     -46.928  39.922  26.057  1.00  0.00     0.065 H 
BRANCH  30  39
ATOM     39  O   UNL     1     -48.522  39.340  28.938  1.00  0.00    -0.390 OA
ATOM     40  H   UNL     1     -49.039  38.592  29.288  1.00  0.00     0.211 HD
ENDBRANCH  30  39
BRANCH  32  41
ATOM     41  N   UNL     1     -44.653  40.496  27.317  1.00  0.00    -0.327 N 
ATOM     42  C   UNL     1     -44.527  40.795  25.980  1.00  0.00     0.007 A 
ATOM     43  C   UNL     1     -43.452  40.728  27.948  1.00  0.00     0.145 A 
ATOM     44  C   UNL     1     -43.246  41.254  25.763  1.00  0.00    -0.031 A 
ATOM     45  H   UNL     1     -45.349  40.662  25.288  1.00  0.00     0.082 H 
ATOM     46  C   UNL     1     -42.557  41.215  27.005  1.00  0.00     0.061 A 
ATOM     47  N   UNL     1     -43.193  40.516  29.250  1.00  0.00    -0.218 NA
ATOM     48  H   UNL     1     -42.841  41.569  24.810  1.00  0.00     0.065 H 
ATOM     49  C   UNL     1     -41.268  41.526  27.459  1.00  0.00     0.136 A 
ATOM     50  C   UNL     1     -41.931  40.848  29.565  1.00  0.00     0.120 A 
ATOM     51  N   UNL     1     -40.970  41.339  28.758  1.00  0.00    -0.219 NA
ATOM     52  H   UNL     1     -41.647  40.705  30.604  1.00  0.00     0.106 H 
BRANCH  49  53
ATOM     53  N   UNL     1     -40.267  42.039  26.643  1.00  0.00    -0.383 N 
ATOM     54  H   UNL     1     -40.601  42.111  25.688  1.00  0.00     0.158 HD
ATOM     55  H   UNL     1     -39.365  41.603  26.769  1.00  0.00     0.158 HD
ENDBRANCH  49  53
ENDBRANCH  32  41
BRANCH  35  56
ATOM     56  O   UNL     1     -47.786  41.317  27.285  1.00  0.00    -0.388 OA
ATOM     57  H   UNL     1     -48.738  41.123  27.150  1.00  0.00     0.211 HD
ENDBRANCH  35  56
ENDBRANCH  25  28
ENDBRANCH   1  25
TORSDOF 9
ENDMDL
MODEL 4
REMARK VINA RESULT:      -9.7      2.521      9.988
REMARK SMILES CNc1ccc2cc(F)c(CC[C@H]3C[C@@H](n4ccc5c(N)ncnc54)[C@H](O)[C@@H]3O)cc2n1
REMARK SMILES IDX 11 1 10 4 3 5 4 6 32 7 5 8 31 10 6 11 30 13 7 14 8 16 9 18
REMARK SMILES IDX 2 19 1 21 12 25 13 28 14 29 28 30 15 32 26 35 29 39 16 41
REMARK SMILES IDX 17 42 25 43 18 44 19 46 24 47 20 49 23 50 22 51 21 53 27 56
REMARK H PARENT 11 2 11 3 4 9 5 12 30 15 7 17 2 20 1 22 1 23 1 24 12 26 12 27
REMARK H PARENT 13 31 14 33 14 34 28 36 15 37 26 38 29 40 17 45 18 48 23 52
REMARK H PARENT 21 54 21 55 27 57
REMARK Flexibility Score: inf
ROOT
ATOM      1  C   UNL     1     -48.366  36.461  27.352  1.00  0.00    -0.025 C 
ATOM      2  H   UNL     1     -48.896  36.049  28.219  1.00  0.00     0.032 H 
ATOM      3  H   UNL     1     -49.085  37.142  26.876  1.00  0.00     0.032 H 
ENDROOT
BRANCH   1   4
ATOM      4  C   UNL     1     -47.182  37.274  27.802  1.00  0.00    -0.010 A 
ATOM      5  C   UNL     1     -44.216  40.933  27.046  1.00  0.00     0.126 A 
ATOM      6  C   UNL     1     -43.495  40.649  28.201  1.00  0.00    -0.019 A 
ATOM      7  N   UNL     1     -45.282  40.192  26.680  1.00  0.00    -0.231 NA
ATOM      8  C   UNL     1     -43.867  39.565  28.991  1.00  0.00    -0.049 A 
ATOM      9  H   UNL     1     -42.659  41.275  28.495  1.00  0.00     0.066 H 
ATOM     10  C   UNL     1     -45.650  39.147  27.439  1.00  0.00     0.073 A 
ATOM     11  C   UNL     1     -44.963  38.787  28.615  1.00  0.00     0.003 A 
ATOM     12  H   UNL     1     -43.303  39.345  29.894  1.00  0.00     0.063 H 
ATOM     13  C   UNL     1     -46.747  38.383  27.057  1.00  0.00    -0.030 A 
ATOM     14  C   UNL     1     -45.381  37.682  29.373  1.00  0.00    -0.017 A 
ATOM     15  H   UNL     1     -47.279  38.669  26.152  1.00  0.00     0.065 H 
ATOM     16  C   UNL     1     -46.481  36.940  28.960  1.00  0.00     0.127 A 
ATOM     17  H   UNL     1     -44.862  37.391  30.281  1.00  0.00     0.066 H 
ATOM     18  F   UNL     1     -46.854  35.879  29.687  1.00  0.00    -0.207 F 
BRANCH   5  19
ATOM     19  N   UNL     1     -43.830  42.054  26.290  1.00  0.00    -0.373 N 
ATOM     20  H   UNL     1     -42.816  42.086  26.236  1.00  0.00     0.161 HD
BRANCH  19  21
ATOM     21  C   UNL     1     -44.445  42.133  24.976  1.00  0.00     0.005 C 
ATOM     22  H   UNL     1     -45.149  42.971  24.963  1.00  0.00     0.045 H 
ATOM     23  H   UNL     1     -45.015  41.225  24.743  1.00  0.00     0.045 H 
ATOM     24  H   UNL     1     -43.702  42.313  24.192  1.00  0.00     0.045 H 
ENDBRANCH  19  21
ENDBRANCH   5  19
ENDBRANCH   1   4
BRANCH   1  25
ATOM     25  C   UNL     1     -48.008  35.347  26.358  1.00  0.00    -0.044 C 
ATOM     26  H   UNL     1     -48.831  35.259  25.638  1.00  0.00     0.027 H 
ATOM     27  H   UNL     1     -47.129  35.659  25.777  1.00  0.00     0.027 H 
BRANCH  25  28
ATOM     28  C   UNL     1     -47.718  33.974  26.995  1.00  0.00    -0.010 C 
ATOM     29  C   UNL     1     -48.719  32.882  26.565  1.00  0.00    -0.024 C 
ATOM     30  C   UNL     1     -46.361  33.424  26.541  1.00  0.00     0.085 C 
ATOM     31  H   UNL     1     -47.733  34.069  28.087  1.00  0.00     0.033 H 
ATOM     32  C   UNL     1     -48.003  31.996  25.524  1.00  0.00     0.064 C 
ATOM     33  H   UNL     1     -49.664  33.295  26.197  1.00  0.00     0.029 H 
ATOM     34  H   UNL     1     -48.974  32.264  27.435  1.00  0.00     0.029 H 
ATOM     35  C   UNL     1     -46.671  32.704  25.224  1.00  0.00     0.101 C 
ATOM     36  H   UNL     1     -45.580  34.182  26.424  1.00  0.00     0.063 H 
ATOM     37  H   UNL     1     -47.787  31.022  25.982  1.00  0.00     0.056 H 
ATOM     38  H   UNL     1     -46.756  33.424  24.405  1.00  0.00     0.065 H 
BRANCH  30  39
ATOM     39  O   UNL     1     -45.890  32.454  27.485  1.00  0.00    -0.390 OA
ATOM     40  H   UNL     1     -45.976  31.578  27.066  1.00  0.00     0.211 HD
ENDBRANCH  30  39
BRANCH  32  41
ATOM     41  N   UNL     1     -48.817  31.737  24.346  1.00  0.00    -0.327 N 
ATOM     42  C   UNL     1     -50.100  32.186  24.132  1.00  0.00     0.007 A 
ATOM     43  C   UNL     1     -48.428  30.952  23.285  1.00  0.00     0.145 A 
ATOM     44  C   UNL     1     -50.521  31.710  22.908  1.00  0.00    -0.031 A 
ATOM     45  H   UNL     1     -50.614  32.804  24.857  1.00  0.00     0.082 H 
ATOM     46  C   UNL     1     -49.467  30.927  22.364  1.00  0.00     0.061 A 
ATOM     47  N   UNL     1     -47.249  30.318  23.165  1.00  0.00    -0.218 NA
ATOM     48  H   UNL     1     -51.488  31.892  22.459  1.00  0.00     0.065 H 
ATOM     49  C   UNL     1     -49.258  30.181  21.196  1.00  0.00     0.136 A 
ATOM     50  C   UNL     1     -47.166  29.638  22.010  1.00  0.00     0.120 A 
ATOM     51  N   UNL     1     -48.086  29.540  21.031  1.00  0.00    -0.219 NA
ATOM     52  H   UNL     1     -46.238  29.100  21.841  1.00  0.00     0.106 H 
BRANCH  49  53
ATOM     53  N   UNL     1     -50.193  30.074  20.173  1.00  0.00    -0.383 N 
ATOM     54  H   UNL     1     -50.329  30.977  19.731  1.00  0.00     0.158 HD
ATOM     55  H   UNL     1     -51.031  29.572  20.429  1.00  0.00     0.158 HD
ENDBRANCH  49  53
ENDBRANCH  32  41
BRANCH  35  56
ATOM     56  O   UNL     1     -45.626  31.791  24.902  1.00  0.00    -0.388 OA
ATOM     57  H   UNL     1     -44.840  32.112  25.393  1.00  0.00     0.211 HD
ENDBRANCH  35  56
ENDBRANCH  25  28
ENDBRANCH   1  25
TORSDOF 9
ENDMDL
MODEL 5
REMARK VINA RESULT:      -9.5      1.878      2.618
REMARK SMILES CNc1ccc2cc(F)c(CC[C@H]3C[C@@H](n4ccc5c(N)ncnc54)[C@H](O)[C@@H]3O)cc2n1
REMARK SMILES IDX 11 1 10 4 3 5 4 6 32 7 5 8 31 10 6 11 30 13 7 14 8 16 9 18
REMARK SMILES IDX 2 19 1 21 12 25 13 28 14 29 28 30 15 32 26 35 29 39 16 41
REMARK SMILES IDX 17 42 25 43 18 44 19 46 24 47 20 49 23 50 22 51 21 53 27 56
REMARK H PARENT 11 2 11 3 4 9 5 12 30 15 7 17 2 20 1 22 1 23 1 24 12 26 12 27
REMARK H PARENT 13 31 14 33 14 34 28 36 15 37 26 38 29 40 17 45 18 48 23 52
REMARK H PARENT 21 54 21 55 27 57
REMARK Flexibility Score: inf
ROOT
ATOM      1  C   UNL     1     -46.564  36.122  26.250  1.00  0.00    -0.025 C 
ATOM      2  H   UNL     1     -45.701  36.271  25.592  1.00  0.00     0.032 H 
ATOM      3  H   UNL     1     -47.287  36.894  25.952  1.00  0.00     0.032 H 
ENDROOT
BRANCH   1   4
ATOM      4  C   UNL     1     -47.189  34.775  25.997  1.00  0.00    -0.010 A 
ATOM      5  C   UNL     1     -46.917  30.463  23.978  1.00  0.00     0.126 A 
ATOM      6  C   UNL     1     -48.165  30.100  24.471  1.00  0.00    -0.019 A 
ATOM      7  N   UNL     1     -46.380  31.673  24.236  1.00  0.00    -0.231 NA
ATOM      8  C   UNL     1     -48.890  31.011  25.233  1.00  0.00    -0.049 A 
ATOM      9  H   UNL     1     -48.567  29.111  24.278  1.00  0.00     0.066 H 
ATOM     10  C   UNL     1     -47.071  32.556  24.975  1.00  0.00     0.073 A 
ATOM     11  C   UNL     1     -48.347  32.269  25.498  1.00  0.00     0.003 A 
ATOM     12  H   UNL     1     -49.866  30.726  25.619  1.00  0.00     0.063 H 
ATOM     13  C   UNL     1     -46.517  33.803  25.237  1.00  0.00    -0.030 A 
ATOM     14  C   UNL     1     -49.034  33.227  26.260  1.00  0.00    -0.017 A 
ATOM     15  H   UNL     1     -45.528  34.019  24.836  1.00  0.00     0.065 H 
ATOM     16  C   UNL     1     -48.451  34.465  26.500  1.00  0.00     0.127 A 
ATOM     17  H   UNL     1     -50.019  33.022  26.670  1.00  0.00     0.066 H 
ATOM     18  F   UNL     1     -49.130  35.371  27.214  1.00  0.00    -0.207 F 
BRANCH   5  19
ATOM     19  N   UNL     1     -46.200  29.505  23.236  1.00  0.00    -0.373 N 
ATOM     20  H   UNL     1     -45.208  29.713  23.297  1.00  0.00     0.161 HD
BRANCH  19  21
ATOM     21  C   UNL     1     -46.490  28.128  23.596  1.00  0.00     0.005 C 
ATOM     22  H   UNL     1     -47.571  28.015  23.731  1.00  0.00     0.045 H 
ATOM     23  H   UNL     1     -46.014  27.850  24.544  1.00  0.00     0.045 H 
ATOM     24  H   UNL     1     -46.180  27.431  22.810  1.00  0.00     0.045 H 
ENDBRANCH  19  21
ENDBRANCH   5  19
ENDBRANCH   1   4
BRANCH   1  25
ATOM     25  C   UNL     1     -46.173  36.355  27.717  1.00  0.00    -0.044 C 
ATOM     26  H   UNL     1     -46.261  35.399  28.246  1.00  0.00     0.027 H 
ATOM     27  H   UNL     1     -45.111  36.630  27.761  1.00  0.00     0.027 H 
BRANCH  25  28
ATOM     28  C   UNL     1     -46.995  37.437  28.446  1.00  0.00    -0.010 C 
ATOM     29  C   UNL     1     -46.124  38.568  29.030  1.00  0.00    -0.024 C 
ATOM     30  C   UNL     1     -47.939  38.163  27.483  1.00  0.00     0.085 C 
ATOM     31  H   UNL     1     -47.573  36.972  29.253  1.00  0.00     0.033 H 
ATOM     32  C   UNL     1     -46.279  39.786  28.094  1.00  0.00     0.064 C 
ATOM     33  H   UNL     1     -45.081  38.269  29.173  1.00  0.00     0.029 H 
ATOM     34  H   UNL     1     -46.504  38.840  30.023  1.00  0.00     0.029 H 
ATOM     35  C   UNL     1     -47.077  39.278  26.883  1.00  0.00     0.101 C 
ATOM     36  H   UNL     1     -48.383  37.523  26.713  1.00  0.00     0.063 H 
ATOM     37  H   UNL     1     -46.873  40.552  28.611  1.00  0.00     0.056 H 
ATOM     38  H   UNL     1     -46.432  38.881  26.094  1.00  0.00     0.065 H 
BRANCH  30  39
ATOM     39  O   UNL     1     -49.012  38.768  28.218  1.00  0.00    -0.390 OA
ATOM     40  H   UNL     1     -49.760  38.873  27.603  1.00  0.00     0.211 HD
ENDBRANCH  30  39
BRANCH  32  41
ATOM     41  N   UNL     1     -45.005  40.401  27.752  1.00  0.00    -0.327 N 
ATOM     42  C   UNL     1     -43.765  40.001  28.197  1.00  0.00     0.007 A 
ATOM     43  C   UNL     1     -44.864  41.518  26.961  1.00  0.00     0.145 A 
ATOM     44  C   UNL     1     -42.824  40.851  27.657  1.00  0.00    -0.031 A 
ATOM     45  H   UNL     1     -43.645  39.151  28.856  1.00  0.00     0.082 H 
ATOM     46  C   UNL     1     -43.511  41.815  26.872  1.00  0.00     0.061 A 
ATOM     47  N   UNL     1     -45.865  42.202  26.379  1.00  0.00    -0.218 NA
ATOM     48  H   UNL     1     -41.755  40.795  27.822  1.00  0.00     0.065 H 
ATOM     49  C   UNL     1     -43.158  42.925  26.092  1.00  0.00     0.136 A 
ATOM     50  C   UNL     1     -45.406  43.240  25.663  1.00  0.00     0.120 A 
ATOM     51  N   UNL     1     -44.129  43.632  25.483  1.00  0.00    -0.219 NA
ATOM     52  H   UNL     1     -46.158  43.841  25.160  1.00  0.00     0.106 H 
BRANCH  49  53
ATOM     53  N   UNL     1     -41.846  43.339  25.891  1.00  0.00    -0.383 N 
ATOM     54  H   UNL     1     -41.207  42.702  26.353  1.00  0.00     0.158 HD
ATOM     55  H   UNL     1     -41.693  44.323  26.056  1.00  0.00     0.158 HD
ENDBRANCH  49  53
ENDBRANCH  32  41
BRANCH  35  56
ATOM     56  O   UNL     1     -47.904  40.288  26.309  1.00  0.00    -0.388 OA
ATOM     57  H   UNL     1     -47.375  41.112  26.353  1.00  0.00     0.211 HD
ENDBRANCH  35  56
ENDBRANCH  25  28
ENDBRANCH   1  25
TORSDOF 9
ENDMDL
MODEL 6
REMARK VINA RESULT:      -9.5      5.082     11.295
REMARK SMILES CNc1ccc2cc(F)c(CC[C@H]3C[C@@H](n4ccc5c(N)ncnc54)[C@H](O)[C@@H]3O)cc2n1
REMARK SMILES IDX 11 1 10 4 3 5 4 6 32 7 5 8 31 10 6 11 30 13 7 14 8 16 9 18
REMARK SMILES IDX 2 19 1 21 12 25 13 28 14 29 28 30 15 32 26 35 29 39 16 41
REMARK SMILES IDX 17 42 25 43 18 44 19 46 24 47 20 49 23 50 22 51 21 53 27 56
REMARK H PARENT 11 2 11 3 4 9 5 12 30 15 7 17 2 20 1 22 1 23 1 24 12 26 12 27
REMARK H PARENT 13 31 14 33 14 34 28 36 15 37 26 38 29 40 17 45 18 48 23 52
REMARK H PARENT 21 54 21 55 27 57
REMARK Flexibility Score: inf
ROOT
ATOM      1  C   UNL     1     -49.103  31.436  25.267  1.00  0.00    -0.025 C 
ATOM      2  H   UNL     1     -48.381  30.667  24.971  1.00  0.00     0.032 H 
ATOM      3  H   UNL     1     -49.592  31.037  26.166  1.00  0.00     0.032 H 
ENDROOT
BRANCH   1   4
ATOM      4  C   UNL     1     -48.388  32.705  25.649  1.00  0.00    -0.010 A 
ATOM      5  C   UNL     1     -48.509  36.988  27.745  1.00  0.00     0.126 A 
ATOM      6  C   UNL     1     -47.178  37.234  27.427  1.00  0.00    -0.019 A 
ATOM      7  N   UNL     1     -49.116  35.833  27.400  1.00  0.00    -0.231 NA
ATOM      8  C   UNL     1     -46.455  36.278  26.720  1.00  0.00    -0.049 A 
ATOM      9  H   UNL     1     -46.699  38.156  27.740  1.00  0.00     0.066 H 
ATOM     10  C   UNL     1     -48.423  34.904  26.721  1.00  0.00     0.073 A 
ATOM     11  C   UNL     1     -47.077  35.084  26.351  1.00  0.00     0.003 A 
ATOM     12  H   UNL     1     -45.414  36.471  26.473  1.00  0.00     0.063 H 
ATOM     13  C   UNL     1     -49.052  33.716  26.364  1.00  0.00    -0.030 A 
ATOM     14  C   UNL     1     -46.396  34.085  25.635  1.00  0.00    -0.017 A 
ATOM     15  H   UNL     1     -50.091  33.578  26.659  1.00  0.00     0.065 H 
ATOM     16  C   UNL     1     -47.056  32.912  25.293  1.00  0.00     0.127 A 
ATOM     17  H   UNL     1     -45.359  34.209  25.341  1.00  0.00     0.066 H 
ATOM     18  F   UNL     1     -46.396  31.979  24.596  1.00  0.00    -0.207 F 
BRANCH   5  19
ATOM     19  N   UNL     1     -49.199  37.964  28.487  1.00  0.00    -0.373 N 
ATOM     20  H   UNL     1     -49.055  37.792  29.478  1.00  0.00     0.161 HD
BRANCH  19  21
ATOM     21  C   UNL     1     -48.877  39.333  28.122  1.00  0.00     0.005 C 
ATOM     22  H   UNL     1     -49.071  39.985  28.980  1.00  0.00     0.045 H 
ATOM     23  H   UNL     1     -49.505  39.688  27.296  1.00  0.00     0.045 H 
ATOM     24  H   UNL     1     -47.820  39.443  27.856  1.00  0.00     0.045 H 
ENDBRANCH  19  21
ENDBRANCH   5  19
ENDBRANCH   1   4
BRANCH   1  25
ATOM     25  C   UNL     1     -50.165  31.631  24.175  1.00  0.00    -0.044 C 
ATOM     26  H   UNL     1     -51.130  31.305  24.579  1.00  0.00     0.027 H 
ATOM     27  H   UNL     1     -50.269  32.705  23.969  1.00  0.00     0.027 H 
BRANCH  25  28
ATOM     28  C   UNL     1     -49.876  30.900  22.848  1.00  0.00    -0.010 C 
ATOM     29  C   UNL     1     -48.963  29.669  23.021  1.00  0.00    -0.024 C 
ATOM     30  C   UNL     1     -51.158  30.322  22.240  1.00  0.00     0.085 C 
ATOM     31  H   UNL     1     -49.413  31.599  22.141  1.00  0.00     0.033 H 
ATOM     32  C   UNL     1     -49.866  28.421  22.937  1.00  0.00     0.064 C 
ATOM     33  H   UNL     1     -48.370  29.707  23.940  1.00  0.00     0.029 H 
ATOM     34  H   UNL     1     -48.243  29.636  22.193  1.00  0.00     0.029 H 
ATOM     35  C   UNL     1     -51.308  28.954  22.915  1.00  0.00     0.101 C 
ATOM     36  H   UNL     1     -52.046  30.948  22.372  1.00  0.00     0.063 H 
ATOM     37  H   UNL     1     -49.667  27.907  21.988  1.00  0.00     0.056 H 
ATOM     38  H   UNL     1     -51.727  29.067  23.920  1.00  0.00     0.065 H 
BRANCH  30  39
ATOM     39  O   UNL     1     -50.977  30.112  20.833  1.00  0.00    -0.390 OA
ATOM     40  H   UNL     1     -50.036  29.903  20.693  1.00  0.00     0.211 HD
ENDBRANCH  30  39
BRANCH  32  41
ATOM     41  N   UNL     1     -49.604  27.461  23.999  1.00  0.00    -0.327 N 
ATOM     42  C   UNL     1     -50.548  26.848  24.790  1.00  0.00     0.007 A 
ATOM     43  C   UNL     1     -48.349  27.064  24.400  1.00  0.00     0.145 A 
ATOM     44  C   UNL     1     -49.891  26.027  25.681  1.00  0.00    -0.031 A 
ATOM     45  H   UNL     1     -51.606  27.038  24.663  1.00  0.00     0.082 H 
ATOM     46  C   UNL     1     -48.497  26.157  25.442  1.00  0.00     0.061 A 
ATOM     47  N   UNL     1     -47.185  27.485  23.876  1.00  0.00    -0.218 NA
ATOM     48  H   UNL     1     -50.361  25.410  26.436  1.00  0.00     0.065 H 
ATOM     49  C   UNL     1     -47.320  25.622  25.985  1.00  0.00     0.136 A 
ATOM     50  C   UNL     1     -46.133  26.906  24.477  1.00  0.00     0.120 A 
ATOM     51  N   UNL     1     -46.133  26.009  25.482  1.00  0.00    -0.219 NA
ATOM     52  H   UNL     1     -45.154  27.197  24.105  1.00  0.00     0.106 H 
BRANCH  49  53
ATOM     53  N   UNL     1     -47.303  24.691  27.017  1.00  0.00    -0.383 N 
ATOM     54  H   UNL     1     -47.803  23.855  26.737  1.00  0.00     0.158 HD
ATOM     55  H   UNL     1     -47.540  25.071  27.922  1.00  0.00     0.158 HD
ENDBRANCH  49  53
ENDBRANCH  32  41
BRANCH  35  56
ATOM     56  O   UNL     1     -52.188  28.125  22.161  1.00  0.00    -0.388 OA
ATOM     57  H   UNL     1     -52.861  27.811  22.801  1.00  0.00     0.211 HD
ENDBRANCH  35  56
ENDBRANCH  25  28
ENDBRANCH   1  25
TORSDOF 9
ENDMDL
MODEL 7
REMARK VINA RESULT:      -9.4      4.034     11.019
REMARK SMILES CNc1ccc2cc(F)c(CC[C@H]3C[C@@H](n4ccc5c(N)ncnc54)[C@H](O)[C@@H]3O)cc2n1
REMARK SMILES IDX 11 1 10 4 3 5 4 6 32 7 5 8 31 10 6 11 30 13 7 14 8 16 9 18
REMARK SMILES IDX 2 19 1 21 12 25 13 28 14 29 28 30 15 32 26 35 29 39 16 41
REMARK SMILES IDX 17 42 25 43 18 44 19 46 24 47 20 49 23 50 22 51 21 53 27 56
REMARK H PARENT 11 2 11 3 4 9 5 12 30 15 7 17 2 20 1 22 1 23 1 24 12 26 12 27
REMARK H PARENT 13 31 14 33 14 34 28 36 15 37 26 38 29 40 17 45 18 48 23 52
REMARK H PARENT 21 54 21 55 27 57
REMARK Flexibility Score: inf
ROOT
ATOM      1  C   UNL     1     -46.536  32.375  25.485  1.00  0.00    -0.025 C 
ATOM      2  H   UNL     1     -45.462  32.234  25.651  1.00  0.00     0.032 H 
ATOM      3  H   UNL     1     -47.017  31.540  26.012  1.00  0.00     0.032 H 
ENDROOT
BRANCH   1   4
ATOM      4  C   UNL     1     -46.999  33.658  26.124  1.00  0.00    -0.010 A 
ATOM      5  C   UNL     1     -45.909  37.820  28.183  1.00  0.00     0.126 A 
ATOM      6  C   UNL     1     -47.251  38.138  28.360  1.00  0.00    -0.019 A 
ATOM      7  N   UNL     1     -45.528  36.668  27.594  1.00  0.00    -0.231 NA
ATOM      8  C   UNL     1     -48.228  37.242  27.938  1.00  0.00    -0.049 A 
ATOM      9  H   UNL     1     -47.537  39.083  28.809  1.00  0.00     0.066 H 
ATOM     10  C   UNL     1     -46.466  35.799  27.179  1.00  0.00     0.073 A 
ATOM     11  C   UNL     1     -47.844  36.043  27.335  1.00  0.00     0.003 A 
ATOM     12  H   UNL     1     -49.277  37.492  28.076  1.00  0.00     0.063 H 
ATOM     13  C   UNL     1     -46.071  34.611  26.575  1.00  0.00    -0.030 A 
ATOM     14  C   UNL     1     -48.787  35.102  26.891  1.00  0.00    -0.017 A 
ATOM     15  H   UNL     1     -45.005  34.430  26.450  1.00  0.00     0.065 H 
ATOM     16  C   UNL     1     -48.356  33.924  26.294  1.00  0.00     0.127 A 
ATOM     17  H   UNL     1     -49.853  35.274  27.005  1.00  0.00     0.066 H 
ATOM     18  F   UNL     1     -49.271  33.032  25.893  1.00  0.00    -0.207 F 
BRANCH   5  19
ATOM     19  N   UNL     1     -44.950  38.763  28.595  1.00  0.00    -0.373 N 
ATOM     20  H   UNL     1     -44.067  38.290  28.759  1.00  0.00     0.161 HD
BRANCH  19  21
ATOM     21  C   UNL     1     -44.801  39.897  27.699  1.00  0.00     0.005 C 
ATOM     22  H   UNL     1     -45.655  39.924  27.015  1.00  0.00     0.045 H 
ATOM     23  H   UNL     1     -43.896  39.810  27.086  1.00  0.00     0.045 H 
ATOM     24  H   UNL     1     -44.786  40.846  28.247  1.00  0.00     0.045 H 
ENDBRANCH  19  21
ENDBRANCH   5  19
ENDBRANCH   1   4
BRANCH   1  25
ATOM     25  C   UNL     1     -46.871  32.274  23.990  1.00  0.00    -0.044 C 
ATOM     26  H   UNL     1     -47.962  32.231  23.890  1.00  0.00     0.027 H 
ATOM     27  H   UNL     1     -46.556  33.200  23.492  1.00  0.00     0.027 H 
BRANCH  25  28
ATOM     28  C   UNL     1     -46.230  31.077  23.259  1.00  0.00    -0.010 C 
ATOM     29  C   UNL     1     -46.635  29.714  23.855  1.00  0.00    -0.024 C 
ATOM     30  C   UNL     1     -46.704  30.994  21.804  1.00  0.00     0.085 C 
ATOM     31  H   UNL     1     -45.138  31.176  23.289  1.00  0.00     0.033 H 
ATOM     32  C   UNL     1     -47.681  29.097  22.904  1.00  0.00     0.064 C 
ATOM     33  H   UNL     1     -46.989  29.792  24.888  1.00  0.00     0.029 H 
ATOM     34  H   UNL     1     -45.756  29.057  23.882  1.00  0.00     0.029 H 
ATOM     35  C   UNL     1     -48.009  30.197  21.881  1.00  0.00     0.101 C 
ATOM     36  H   UNL     1     -46.839  31.964  21.314  1.00  0.00     0.063 H 
ATOM     37  H   UNL     1     -47.220  28.252  22.376  1.00  0.00     0.056 H 
ATOM     38  H   UNL     1     -48.832  30.839  22.207  1.00  0.00     0.065 H 
BRANCH  30  39
ATOM     39  O   UNL     1     -45.760  30.242  21.028  1.00  0.00    -0.390 OA
ATOM     40  H   UNL     1     -45.200  29.750  21.655  1.00  0.00     0.211 HD
ENDBRANCH  30  39
BRANCH  32  41
ATOM     41  N   UNL     1     -48.843  28.573  23.606  1.00  0.00    -0.327 N 
ATOM     42  C   UNL     1     -50.137  29.028  23.487  1.00  0.00     0.007 A 
ATOM     43  C   UNL     1     -48.802  27.563  24.540  1.00  0.00     0.145 A 
ATOM     44  C   UNL     1     -50.932  28.280  24.328  1.00  0.00    -0.031 A 
ATOM     45  H   UNL     1     -50.394  29.841  22.821  1.00  0.00     0.082 H 
ATOM     46  C   UNL     1     -50.095  27.348  24.999  1.00  0.00     0.061 A 
ATOM     47  N   UNL     1     -47.700  26.904  24.939  1.00  0.00    -0.218 NA
ATOM     48  H   UNL     1     -52.000  28.398  24.459  1.00  0.00     0.065 H 
ATOM     49  C   UNL     1     -50.265  26.340  25.958  1.00  0.00     0.136 A 
ATOM     50  C   UNL     1     -47.988  25.968  25.857  1.00  0.00     0.120 A 
ATOM     51  N   UNL     1     -49.189  25.648  26.377  1.00  0.00    -0.219 NA
ATOM     52  H   UNL     1     -47.145  25.391  26.227  1.00  0.00     0.106 H 
BRANCH  49  53
ATOM     53  N   UNL     1     -51.497  25.994  26.501  1.00  0.00    -0.383 N 
ATOM     54  H   UNL     1     -51.596  24.985  26.520  1.00  0.00     0.158 HD
ATOM     55  H   UNL     1     -52.276  26.512  26.122  1.00  0.00     0.158 HD
ENDBRANCH  49  53
ENDBRANCH  32  41
BRANCH  35  56
ATOM     56  O   UNL     1     -48.343  29.670  20.599  1.00  0.00    -0.388 OA
ATOM     57  H   UNL     1     -48.396  30.448  20.005  1.00  0.00     0.211 HD
ENDBRANCH  35  56
ENDBRANCH  25  28
ENDBRANCH   1  25
TORSDOF 9
ENDMDL
