MODEL 1
REMARK VINA RESULT:     -11.3      0.000      0.000
REMARK SMILES Cn1ccc(-c2cn(-c3cncc(COc4ccc5ccc(N6CCC6=O)nc5c4)c3)c3ncnc(N)c23)n1
REMARK SMILES IDX 9 1 10 2 11 3 12 4 13 5 31 6 8 10 6 11 7 12 38 13 32 15
REMARK SMILES IDX 36 16 33 17 35 18 34 19 5 21 2 22 3 23 39 24 4 25 1 28 37 32
REMARK SMILES IDX 14 35 15 38 16 39 17 40 30 41 18 42 29 44 19 46 28 48 20 49
REMARK SMILES IDX 22 50 21 51 23 54 24 55 26 56 25 57 27 60
REMARK H PARENT 10 7 12 8 31 9 7 14 34 20 3 26 4 27 1 29 1 30 1 31 37 33 37 34
REMARK H PARENT 14 36 14 37 17 43 30 45 18 47 20 52 21 53 24 58 24 59 25 61
REMARK H PARENT 25 62
REMARK Flexibility Score: inf
ROOT
ATOM      1  C   UNL     1     -45.713  38.430  28.194  1.00  0.00     0.066 A 
ATOM      2  C   UNL     1     -45.380  37.845  29.411  1.00  0.00     0.051 A 
ATOM      3  N   UNL     1     -45.950  36.711  29.893  1.00  0.00    -0.262 NA
ATOM      4  C   UNL     1     -46.905  36.128  29.140  1.00  0.00     0.034 A 
ATOM      5  C   UNL     1     -47.330  36.625  27.917  1.00  0.00     0.010 A 
ATOM      6  C   UNL     1     -46.707  37.787  27.439  1.00  0.00    -0.028 A 
ATOM      7  H   UNL     1     -44.621  38.235  30.077  1.00  0.00     0.086 H 
ATOM      8  H   UNL     1     -47.329  35.222  29.565  1.00  0.00     0.084 H 
ATOM      9  H   UNL     1     -47.033  38.174  26.478  1.00  0.00     0.065 H 
ENDROOT
BRANCH   1  10
ATOM     10  N   UNL     1     -45.077  39.625  27.723  1.00  0.00    -0.299 N 
ATOM     11  C   UNL     1     -44.645  41.432  26.442  1.00  0.00     0.033 A 
ATOM     12  C   UNL     1     -45.491  40.359  26.626  1.00  0.00     0.021 A 
ATOM     13  C   UNL     1     -43.692  41.417  27.491  1.00  0.00     0.071 A 
ATOM     14  H   UNL     1     -46.336  40.072  26.020  1.00  0.00     0.083 H 
ATOM     15  C   UNL     1     -43.958  40.275  28.250  1.00  0.00     0.150 A 
ATOM     16  C   UNL     1     -42.631  42.231  27.927  1.00  0.00     0.137 A 
ATOM     17  N   UNL     1     -43.252  39.890  29.332  1.00  0.00    -0.218 NA
ATOM     18  N   UNL     1     -41.911  41.856  28.999  1.00  0.00    -0.219 NA
ATOM     19  C   UNL     1     -42.248  40.722  29.628  1.00  0.00     0.120 A 
ATOM     20  H   UNL     1     -41.637  40.452  30.485  1.00  0.00     0.106 H 
BRANCH  11  21
ATOM     21  C   UNL     1     -44.751  42.395  25.350  1.00  0.00     0.095 A 
ATOM     22  N   UNL     1     -45.480  43.968  24.146  1.00  0.00    -0.275 N 
ATOM     23  C   UNL     1     -44.421  43.469  23.450  1.00  0.00     0.025 A 
ATOM     24  N   UNL     1     -45.712  43.325  25.305  1.00  0.00    -0.173 NA
ATOM     25  C   UNL     1     -43.929  42.429  24.205  1.00  0.00    -0.016 A 
ATOM     26  H   UNL     1     -44.116  43.874  22.494  1.00  0.00     0.084 H 
ATOM     27  H   UNL     1     -43.097  41.784  23.957  1.00  0.00     0.066 H 
BRANCH  22  28
ATOM     28  C   UNL     1     -46.335  45.065  23.760  1.00  0.00     0.030 C 
ATOM     29  H   UNL     1     -46.765  45.501  24.665  1.00  0.00     0.048 H 
ATOM     30  H   UNL     1     -47.130  44.695  23.109  1.00  0.00     0.048 H 
ATOM     31  H   UNL     1     -45.729  45.802  23.228  1.00  0.00     0.048 H 
ENDBRANCH  22  28
ENDBRANCH  11  21
BRANCH  16  32
ATOM     32  N   UNL     1     -42.278  43.446  27.355  1.00  0.00    -0.383 N 
ATOM     33  H   UNL     1     -42.008  43.377  26.381  1.00  0.00     0.158 HD
ATOM     34  H   UNL     1     -42.995  44.136  27.553  1.00  0.00     0.158 HD
ENDBRANCH  16  32
ENDBRANCH   1  10
BRANCH   5  35
ATOM     35  C   UNL     1     -48.377  35.916  27.097  1.00  0.00     0.115 C 
ATOM     36  H   UNL     1     -49.373  36.360  27.223  1.00  0.00     0.076 H 
ATOM     37  H   UNL     1     -48.117  36.054  26.041  1.00  0.00     0.076 H 
BRANCH  35  38
ATOM     38  O   UNL     1     -48.413  34.505  27.325  1.00  0.00    -0.489 OA
BRANCH  38  39
ATOM     39  C   UNL     1     -47.874  33.676  26.380  1.00  0.00     0.122 A 
ATOM     40  C   UNL     1     -46.752  33.940  25.601  1.00  0.00    -0.019 A 
ATOM     41  C   UNL     1     -48.567  32.475  26.196  1.00  0.00     0.007 A 
ATOM     42  C   UNL     1     -46.324  33.000  24.662  1.00  0.00    -0.049 A 
ATOM     43  H   UNL     1     -46.195  34.868  25.682  1.00  0.00     0.066 H 
ATOM     44  C   UNL     1     -48.163  31.521  25.272  1.00  0.00     0.076 A 
ATOM     45  H   UNL     1     -49.451  32.273  26.797  1.00  0.00     0.069 H 
ATOM     46  C   UNL     1     -47.021  31.793  24.496  1.00  0.00     0.001 A 
ATOM     47  H   UNL     1     -45.447  33.218  24.056  1.00  0.00     0.063 H 
ATOM     48  N   UNL     1     -48.864  30.380  25.146  1.00  0.00    -0.230 NA
ATOM     49  C   UNL     1     -46.619  30.831  23.565  1.00  0.00    -0.049 A 
ATOM     50  C   UNL     1     -48.459  29.460  24.239  1.00  0.00     0.135 A 
ATOM     51  C   UNL     1     -47.345  29.651  23.435  1.00  0.00    -0.018 A 
ATOM     52  H   UNL     1     -45.746  30.990  22.938  1.00  0.00     0.063 H 
ATOM     53  H   UNL     1     -47.032  28.906  22.711  1.00  0.00     0.066 H 
BRANCH  50  54
ATOM     54  N   UNL     1     -49.210  28.304  24.143  1.00  0.00    -0.296 N 
ATOM     55  C   UNL     1     -50.468  28.090  23.453  1.00  0.00     0.036 C 
ATOM     56  C   UNL     1     -49.066  27.047  24.609  1.00  0.00     0.229 C 
ATOM     57  C   UNL     1     -50.392  26.628  23.941  1.00  0.00     0.045 C 
ATOM     58  H   UNL     1     -50.403  28.221  22.370  1.00  0.00     0.050 H 
ATOM     59  H   UNL     1     -51.297  28.673  23.864  1.00  0.00     0.050 H 
ATOM     60  O   UNL     1     -48.224  26.499  25.281  1.00  0.00    -0.274 OA
ATOM     61  H   UNL     1     -50.275  25.877  23.156  1.00  0.00     0.039 H 
ATOM     62  H   UNL     1     -51.169  26.328  24.648  1.00  0.00     0.039 H 
ENDBRANCH  50  54
ENDBRANCH  38  39
ENDBRANCH  35  38
ENDBRANCH   5  35
TORSDOF 8
ENDMDL
MODEL 2
REMARK VINA RESULT:     -11.2      2.648     12.632
REMARK SMILES Cn1ccc(-c2cn(-c3cncc(COc4ccc5ccc(N6CCC6=O)nc5c4)c3)c3ncnc(N)c23)n1
REMARK SMILES IDX 9 1 10 2 11 3 12 4 13 5 31 6 8 10 6 11 7 12 38 13 32 15
REMARK SMILES IDX 36 16 33 17 35 18 34 19 5 21 2 22 3 23 39 24 4 25 1 28 37 32
REMARK SMILES IDX 14 35 15 38 16 39 17 40 30 41 18 42 29 44 19 46 28 48 20 49
REMARK SMILES IDX 22 50 21 51 23 54 24 55 26 56 25 57 27 60
REMARK H PARENT 10 7 12 8 31 9 7 14 34 20 3 26 4 27 1 29 1 30 1 31 37 33 37 34
REMARK H PARENT 14 36 14 37 17 43 30 45 18 47 20 52 21 53 24 58 24 59 25 61
REMARK H PARENT 25 62
REMARK Flexibility Score: inf
ROOT
ATOM      1  C   UNL     1     -47.696  32.226  25.135  1.00  0.00     0.066 A 
ATOM      2  C   UNL     1     -46.484  32.784  24.746  1.00  0.00     0.051 A 
ATOM      3  N   UNL     1     -46.066  34.026  25.102  1.00  0.00    -0.262 NA
ATOM      4  C   UNL     1     -46.891  34.759  25.876  1.00  0.00     0.034 A 
ATOM      5  C   UNL     1     -48.130  34.316  26.316  1.00  0.00     0.010 A 
ATOM      6  C   UNL     1     -48.522  33.021  25.945  1.00  0.00    -0.028 A 
ATOM      7  H   UNL     1     -45.754  32.268  24.134  1.00  0.00     0.086 H 
ATOM      8  H   UNL     1     -46.513  35.745  26.137  1.00  0.00     0.084 H 
ATOM      9  H   UNL     1     -49.488  32.669  26.295  1.00  0.00     0.065 H 
ENDROOT
BRANCH   1  10
ATOM     10  N   UNL     1     -48.091  30.906  24.740  1.00  0.00    -0.299 N 
ATOM     11  C   UNL     1     -48.593  28.711  24.886  1.00  0.00     0.033 A 
ATOM     12  C   UNL     1     -48.219  29.830  25.599  1.00  0.00     0.021 A 
ATOM     13  C   UNL     1     -48.767  29.096  23.534  1.00  0.00     0.071 A 
ATOM     14  H   UNL     1     -48.013  29.902  26.656  1.00  0.00     0.083 H 
ATOM     15  C   UNL     1     -48.420  30.448  23.461  1.00  0.00     0.150 A 
ATOM     16  C   UNL     1     -49.192  28.490  22.339  1.00  0.00     0.137 A 
ATOM     17  N   UNL     1     -48.432  31.184  22.332  1.00  0.00    -0.218 NA
ATOM     18  N   UNL     1     -49.201  29.208  21.202  1.00  0.00    -0.219 NA
ATOM     19  C   UNL     1     -48.818  30.491  21.256  1.00  0.00     0.120 A 
ATOM     20  H   UNL     1     -48.834  31.033  20.315  1.00  0.00     0.106 H 
BRANCH  11  21
ATOM     21  C   UNL     1     -48.773  27.382  25.462  1.00  0.00     0.095 A 
ATOM     22  N   UNL     1     -48.324  25.481  26.264  1.00  0.00    -0.275 N 
ATOM     23  C   UNL     1     -49.684  25.500  26.175  1.00  0.00     0.025 A 
ATOM     24  N   UNL     1     -47.741  26.611  25.825  1.00  0.00    -0.173 NA
ATOM     25  C   UNL     1     -50.009  26.726  25.641  1.00  0.00    -0.016 A 
ATOM     26  H   UNL     1     -50.294  24.661  26.478  1.00  0.00     0.084 H 
ATOM     27  H   UNL     1     -51.001  27.090  25.409  1.00  0.00     0.066 H 
BRANCH  22  28
ATOM     28  C   UNL     1     -47.501  24.401  26.754  1.00  0.00     0.030 C 
ATOM     29  H   UNL     1     -47.810  24.170  27.776  1.00  0.00     0.048 H 
ATOM     30  H   UNL     1     -46.453  24.707  26.740  1.00  0.00     0.048 H 
ATOM     31  H   UNL     1     -47.646  23.536  26.103  1.00  0.00     0.048 H 
ENDBRANCH  22  28
ENDBRANCH  11  21
BRANCH  16  32
ATOM     32  N   UNL     1     -49.659  27.186  22.235  1.00  0.00    -0.383 N 
ATOM     33  H   UNL     1     -49.590  26.657  23.096  1.00  0.00     0.158 HD
ATOM     34  H   UNL     1     -50.579  27.188  21.805  1.00  0.00     0.158 HD
ENDBRANCH  16  32
ENDBRANCH   1  10
BRANCH   5  35
ATOM     35  C   UNL     1     -49.000  35.163  27.208  1.00  0.00     0.115 C 
ATOM     36  H   UNL     1     -50.063  35.085  26.945  1.00  0.00     0.076 H 
ATOM     37  H   UNL     1     -48.911  34.765  28.226  1.00  0.00     0.076 H 
BRANCH  35  38
ATOM     38  O   UNL     1     -48.587  36.529  27.269  1.00  0.00    -0.489 OA
BRANCH  38  39
ATOM     39  C   UNL     1     -47.534  36.859  28.078  1.00  0.00     0.122 A 
ATOM     40  C   UNL     1     -47.184  36.226  29.267  1.00  0.00    -0.019 A 
ATOM     41  C   UNL     1     -46.786  37.958  27.642  1.00  0.00     0.007 A 
ATOM     42  C   UNL     1     -46.087  36.684  29.998  1.00  0.00    -0.049 A 
ATOM     43  H   UNL     1     -47.746  35.388  29.665  1.00  0.00     0.066 H 
ATOM     44  C   UNL     1     -45.689  38.433  28.347  1.00  0.00     0.076 A 
ATOM     45  H   UNL     1     -47.067  38.459  26.719  1.00  0.00     0.069 H 
ATOM     46  C   UNL     1     -45.337  37.781  29.543  1.00  0.00     0.001 A 
ATOM     47  H   UNL     1     -45.824  36.185  30.928  1.00  0.00     0.063 H 
ATOM     48  N   UNL     1     -45.003  39.489  27.875  1.00  0.00    -0.230 NA
ATOM     49  C   UNL     1     -44.233  38.264  30.251  1.00  0.00    -0.049 A 
ATOM     50  C   UNL     1     -43.936  39.943  28.574  1.00  0.00     0.135 A 
ATOM     51  C   UNL     1     -43.524  39.357  29.760  1.00  0.00    -0.018 A 
ATOM     52  H   UNL     1     -43.918  37.800  31.182  1.00  0.00     0.063 H 
ATOM     53  H   UNL     1     -42.668  39.731  30.312  1.00  0.00     0.066 H 
BRANCH  50  54
ATOM     54  N   UNL     1     -43.263  41.031  28.051  1.00  0.00    -0.296 N 
ATOM     55  C   UNL     1     -43.697  41.968  27.033  1.00  0.00     0.036 C 
ATOM     56  C   UNL     1     -42.054  41.584  28.275  1.00  0.00     0.229 C 
ATOM     57  C   UNL     1     -42.336  42.672  27.218  1.00  0.00     0.045 C 
ATOM     58  H   UNL     1     -44.569  42.560  27.325  1.00  0.00     0.050 H 
ATOM     59  H   UNL     1     -43.852  41.510  26.052  1.00  0.00     0.050 H 
ATOM     60  O   UNL     1     -41.137  41.313  29.014  1.00  0.00    -0.274 OA
ATOM     61  H   UNL     1     -42.384  43.685  27.626  1.00  0.00     0.039 H 
ATOM     62  H   UNL     1     -41.669  42.637  26.355  1.00  0.00     0.039 H 
ENDBRANCH  50  54
ENDBRANCH  38  39
ENDBRANCH  35  38
ENDBRANCH   5  35
TORSDOF 8
ENDMDL
MODEL 3
REMARK VINA RESULT:     -11.2      1.701      2.412
REMARK SMILES Cn1ccc(-c2cn(-c3cncc(COc4ccc5ccc(N6CCC6=O)nc5c4)c3)c3ncnc(N)c23)n1
REMARK SMILES IDX 9 1 10 2 11 3 12 4 13 5 31 6 8 10 6 11 7 12 38 13 32 15
REMARK SMILES IDX 36 16 33 17 35 18 34 19 5 21 2 22 3 23 39 24 4 25 1 28 37 32
REMARK SMILES IDX 14 35 15 38 16 39 17 40 30 41 18 42 29 44 19 46 28 48 20 49
REMARK SMILES IDX 22 50 21 51 23 54 24 55 26 56 25 57 27 60
REMARK H PARENT 10 7 12 8 31 9 7 14 34 20 3 26 4 27 1 29 1 30 1 31 37 33 37 34
REMARK H PARENT 14 36 14 37 17 43 30 45 18 47 20 52 21 53 24 58 24 59 25 61
REMARK H PARENT 25 62
REMARK Flexibility Score: inf
ROOT
ATOM      1  C   UNL     1     -47.044  38.031  27.454  1.00  0.00     0.066 A 
ATOM      2  C   UNL     1     -48.289  38.204  28.048  1.00  0.00     0.051 A 
ATOM      3  N   UNL     1     -49.270  37.265  28.052  1.00  0.00    -0.262 NA
ATOM      4  C   UNL     1     -49.012  36.097  27.429  1.00  0.00     0.034 A 
ATOM      5  C   UNL     1     -47.814  35.814  26.790  1.00  0.00     0.010 A 
ATOM      6  C   UNL     1     -46.815  36.799  26.821  1.00  0.00    -0.028 A 
ATOM      7  H   UNL     1     -48.582  39.102  28.578  1.00  0.00     0.086 H 
ATOM      8  H   UNL     1     -49.825  35.376  27.460  1.00  0.00     0.084 H 
ATOM      9  H   UNL     1     -45.874  36.576  26.329  1.00  0.00     0.065 H 
ENDROOT
BRANCH   1  10
ATOM     10  N   UNL     1     -46.037  39.050  27.483  1.00  0.00    -0.299 N 
ATOM     11  C   UNL     1     -44.857  40.882  26.895  1.00  0.00     0.033 A 
ATOM     12  C   UNL     1     -45.955  40.105  26.592  1.00  0.00     0.021 A 
ATOM     13  C   UNL     1     -44.248  40.339  28.053  1.00  0.00     0.071 A 
ATOM     14  H   UNL     1     -46.653  40.235  25.780  1.00  0.00     0.083 H 
ATOM     15  C   UNL     1     -44.974  39.190  28.380  1.00  0.00     0.150 A 
ATOM     16  C   UNL     1     -43.176  40.669  28.901  1.00  0.00     0.137 A 
ATOM     17  N   UNL     1     -44.694  38.374  29.415  1.00  0.00    -0.218 NA
ATOM     18  N   UNL     1     -42.878  39.860  29.933  1.00  0.00    -0.219 NA
ATOM     19  C   UNL     1     -43.634  38.770  30.126  1.00  0.00     0.120 A 
ATOM     20  H   UNL     1     -43.355  38.140  30.966  1.00  0.00     0.106 H 
BRANCH  11  21
ATOM     21  C   UNL     1     -44.433  42.053  26.133  1.00  0.00     0.095 A 
ATOM     22  N   UNL     1     -43.961  44.055  25.658  1.00  0.00    -0.275 N 
ATOM     23  C   UNL     1     -43.831  43.385  24.479  1.00  0.00     0.025 A 
ATOM     24  N   UNL     1     -44.338  43.270  26.683  1.00  0.00    -0.173 NA
ATOM     25  C   UNL     1     -44.146  42.074  24.753  1.00  0.00    -0.016 A 
ATOM     26  H   UNL     1     -43.545  43.882  23.561  1.00  0.00     0.084 H 
ATOM     27  H   UNL     1     -44.171  41.252  24.050  1.00  0.00     0.066 H 
BRANCH  22  28
ATOM     28  C   UNL     1     -43.748  45.464  25.885  1.00  0.00     0.030 C 
ATOM     29  H   UNL     1     -42.764  45.594  26.342  1.00  0.00     0.048 H 
ATOM     30  H   UNL     1     -44.523  45.847  26.552  1.00  0.00     0.048 H 
ATOM     31  H   UNL     1     -43.797  45.979  24.922  1.00  0.00     0.048 H 
ENDBRANCH  22  28
ENDBRANCH  11  21
BRANCH  16  32
ATOM     32  N   UNL     1     -42.400  41.816  28.788  1.00  0.00    -0.383 N 
ATOM     33  H   UNL     1     -42.420  42.234  27.866  1.00  0.00     0.158 HD
ATOM     34  H   UNL     1     -42.618  42.449  29.551  1.00  0.00     0.158 HD
ENDBRANCH  16  32
ENDBRANCH   1  10
BRANCH   5  35
ATOM     35  C   UNL     1     -47.564  34.479  26.137  1.00  0.00     0.115 C 
ATOM     36  H   UNL     1     -47.715  34.514  25.050  1.00  0.00     0.076 H 
ATOM     37  H   UNL     1     -46.505  34.234  26.286  1.00  0.00     0.076 H 
BRANCH  35  38
ATOM     38  O   UNL     1     -48.314  33.414  26.724  1.00  0.00    -0.489 OA
BRANCH  38  39
ATOM     39  C   UNL     1     -48.772  32.412  25.912  1.00  0.00     0.122 A 
ATOM     40  C   UNL     1     -49.627  32.563  24.825  1.00  0.00    -0.019 A 
ATOM     41  C   UNL     1     -48.333  31.131  26.264  1.00  0.00     0.007 A 
ATOM     42  C   UNL     1     -50.023  31.442  24.094  1.00  0.00    -0.049 A 
ATOM     43  H   UNL     1     -50.020  33.529  24.527  1.00  0.00     0.066 H 
ATOM     44  C   UNL     1     -48.708  29.999  25.554  1.00  0.00     0.076 A 
ATOM     45  H   UNL     1     -47.674  31.012  27.121  1.00  0.00     0.069 H 
ATOM     46  C   UNL     1     -49.566  30.163  24.451  1.00  0.00     0.001 A 
ATOM     47  H   UNL     1     -50.694  31.571  23.248  1.00  0.00     0.063 H 
ATOM     48  N   UNL     1     -48.248  28.794  25.935  1.00  0.00    -0.230 NA
ATOM     49  C   UNL     1     -49.943  29.020  23.740  1.00  0.00    -0.049 A 
ATOM     50  C   UNL     1     -48.623  27.698  25.234  1.00  0.00     0.135 A 
ATOM     51  C   UNL     1     -49.465  27.773  24.136  1.00  0.00    -0.018 A 
ATOM     52  H   UNL     1     -50.605  29.088  22.881  1.00  0.00     0.063 H 
ATOM     53  H   UNL     1     -49.760  26.888  23.582  1.00  0.00     0.066 H 
BRANCH  50  54
ATOM     54  N   UNL     1     -48.127  26.481  25.662  1.00  0.00    -0.296 N 
ATOM     55  C   UNL     1     -48.811  25.419  26.375  1.00  0.00     0.036 C 
ATOM     56  C   UNL     1     -46.926  25.874  25.581  1.00  0.00     0.229 C 
ATOM     57  C   UNL     1     -47.477  24.645  26.333  1.00  0.00     0.045 C 
ATOM     58  H   UNL     1     -49.628  24.965  25.808  1.00  0.00     0.050 H 
ATOM     59  H   UNL     1     -49.148  25.708  27.374  1.00  0.00     0.050 H 
ATOM     60  O   UNL     1     -45.862  26.192  25.106  1.00  0.00    -0.274 OA
ATOM     61  H   UNL     1     -47.485  23.728  25.738  1.00  0.00     0.039 H 
ATOM     62  H   UNL     1     -47.006  24.469  27.302  1.00  0.00     0.039 H 
ENDBRANCH  50  54
ENDBRANCH  38  39
ENDBRANCH  35  38
ENDBRANCH   5  35
TORSDOF 8
ENDMDL
MODEL 4
REMARK VINA RESULT:     -11.0      2.648     12.237
REMARK SMILES Cn1ccc(-c2cn(-c3cncc(COc4ccc5ccc(N6CCC6=O)nc5c4)c3)c3ncnc(N)c23)n1
REMARK SMILES IDX 9 1 10 2 11 3 12 4 13 5 31 6 8 10 6 11 7 12 38 13 32 15
REMARK SMILES IDX 36 16 33 17 35 18 34 19 5 21 2 22 3 23 39 24 4 25 1 28 37 32
REMARK SMILES IDX 14 35 15 38 16 39 17 40 30 41 18 42 29 44 19 46 28 48 20 49
REMARK SMILES IDX 22 50 21 51 23 54 24 55 26 56 25 57 27 60
REMARK H PARENT 10 7 12 8 31 9 7 14 34 20 3 26 4 27 1 29 1 30 1 31 37 33 37 34
REMARK H PARENT 14 36 14 37 17 43 30 45 18 47 20 52 21 53 24 58 24 59 25 61
REMARK H PARENT 25 62
REMARK Flexibility Score: inf
ROOT
ATOM      1  C   UNL     1     -47.281  32.737  25.905  1.00  0.00     0.066 A 
ATOM      2  C   UNL     1     -46.618  32.238  27.022  1.00  0.00     0.051 A 
ATOM      3  N   UNL     1     -46.116  33.011  28.019  1.00  0.00    -0.262 NA
ATOM      4  C   UNL     1     -46.267  34.346  27.904  1.00  0.00     0.034 A 
ATOM      5  C   UNL     1     -46.897  34.960  26.832  1.00  0.00     0.010 A 
ATOM      6  C   UNL     1     -47.422  34.131  25.829  1.00  0.00    -0.028 A 
ATOM      7  H   UNL     1     -46.458  31.183  27.203  1.00  0.00     0.086 H 
ATOM      8  H   UNL     1     -45.851  34.923  28.727  1.00  0.00     0.084 H 
ATOM      9  H   UNL     1     -47.922  34.609  24.993  1.00  0.00     0.065 H 
ENDROOT
BRANCH   1  10
ATOM     10  N   UNL     1     -47.801  31.880  24.882  1.00  0.00    -0.299 N 
ATOM     11  C   UNL     1     -49.199  30.477  23.800  1.00  0.00     0.033 A 
ATOM     12  C   UNL     1     -49.023  31.234  24.938  1.00  0.00     0.021 A 
ATOM     13  C   UNL     1     -48.079  30.691  22.959  1.00  0.00     0.071 A 
ATOM     14  H   UNL     1     -49.686  31.319  25.785  1.00  0.00     0.083 H 
ATOM     15  C   UNL     1     -47.213  31.534  23.661  1.00  0.00     0.150 A 
ATOM     16  C   UNL     1     -47.670  30.298  21.672  1.00  0.00     0.137 A 
ATOM     17  N   UNL     1     -46.018  31.958  23.206  1.00  0.00    -0.218 NA
ATOM     18  N   UNL     1     -46.475  30.704  21.208  1.00  0.00    -0.219 NA
ATOM     19  C   UNL     1     -45.722  31.491  21.989  1.00  0.00     0.120 A 
ATOM     20  H   UNL     1     -44.762  31.791  21.579  1.00  0.00     0.106 H 
BRANCH  11  21
ATOM     21  C   UNL     1     -50.355  29.623  23.541  1.00  0.00     0.095 A 
ATOM     22  N   UNL     1     -51.520  28.007  22.844  1.00  0.00    -0.275 N 
ATOM     23  C   UNL     1     -52.424  28.867  23.392  1.00  0.00     0.025 A 
ATOM     24  N   UNL     1     -50.251  28.448  22.910  1.00  0.00    -0.173 NA
ATOM     25  C   UNL     1     -51.695  29.942  23.846  1.00  0.00    -0.016 A 
ATOM     26  H   UNL     1     -53.486  28.659  23.405  1.00  0.00     0.084 H 
ATOM     27  H   UNL     1     -52.080  30.832  24.324  1.00  0.00     0.066 H 
BRANCH  22  28
ATOM     28  C   UNL     1     -51.799  26.735  22.221  1.00  0.00     0.030 C 
ATOM     29  H   UNL     1     -52.832  26.460  22.448  1.00  0.00     0.048 H 
ATOM     30  H   UNL     1     -51.115  25.980  22.615  1.00  0.00     0.048 H 
ATOM     31  H   UNL     1     -51.657  26.842  21.143  1.00  0.00     0.048 H 
ENDBRANCH  22  28
ENDBRANCH  11  21
BRANCH  16  32
ATOM     32  N   UNL     1     -48.434  29.539  20.795  1.00  0.00    -0.383 N 
ATOM     33  H   UNL     1     -48.419  28.546  20.994  1.00  0.00     0.158 HD
ATOM     34  H   UNL     1     -49.360  29.946  20.712  1.00  0.00     0.158 HD
ENDBRANCH  16  32
ENDBRANCH   1  10
BRANCH   5  35
ATOM     35  C   UNL     1     -47.070  36.456  26.769  1.00  0.00     0.115 C 
ATOM     36  H   UNL     1     -46.309  36.935  26.140  1.00  0.00     0.076 H 
ATOM     37  H   UNL     1     -48.033  36.654  26.282  1.00  0.00     0.076 H 
BRANCH  35  38
ATOM     38  O   UNL     1     -47.132  37.072  28.057  1.00  0.00    -0.489 OA
BRANCH  38  39
ATOM     39  C   UNL     1     -46.053  37.794  28.488  1.00  0.00     0.122 A 
ATOM     40  C   UNL     1     -45.257  37.500  29.590  1.00  0.00    -0.019 A 
ATOM     41  C   UNL     1     -45.781  38.941  27.735  1.00  0.00     0.007 A 
ATOM     42  C   UNL     1     -44.193  38.341  29.920  1.00  0.00    -0.049 A 
ATOM     43  H   UNL     1     -45.441  36.640  30.226  1.00  0.00     0.066 H 
ATOM     44  C   UNL     1     -44.728  39.794  28.038  1.00  0.00     0.076 A 
ATOM     45  H   UNL     1     -46.411  39.177  26.880  1.00  0.00     0.069 H 
ATOM     46  C   UNL     1     -43.923  39.483  29.148  1.00  0.00     0.001 A 
ATOM     47  H   UNL     1     -43.578  38.103  30.786  1.00  0.00     0.063 H 
ATOM     48  N   UNL     1     -44.510  40.878  27.272  1.00  0.00    -0.230 NA
ATOM     49  C   UNL     1     -42.865  40.345  29.452  1.00  0.00    -0.049 A 
ATOM     50  C   UNL     1     -43.481  41.701  27.580  1.00  0.00     0.135 A 
ATOM     51  C   UNL     1     -42.641  41.466  28.658  1.00  0.00    -0.018 A 
ATOM     52  H   UNL     1     -42.213  40.154  30.299  1.00  0.00     0.063 H 
ATOM     53  H   UNL     1     -41.819  42.134  28.895  1.00  0.00     0.066 H 
BRANCH  50  54
ATOM     54  N   UNL     1     -43.295  42.803  26.767  1.00  0.00    -0.296 N 
ATOM     55  C   UNL     1     -42.303  43.013  25.731  1.00  0.00     0.036 C 
ATOM     56  C   UNL     1     -43.917  43.992  26.639  1.00  0.00     0.229 C 
ATOM     57  C   UNL     1     -42.948  44.398  25.509  1.00  0.00     0.045 C 
ATOM     58  H   UNL     1     -42.393  42.321  24.889  1.00  0.00     0.050 H 
ATOM     59  H   UNL     1     -41.276  43.035  26.105  1.00  0.00     0.050 H 
ATOM     60  O   UNL     1     -44.856  44.507  27.200  1.00  0.00    -0.274 OA
ATOM     61  H   UNL     1     -43.432  44.540  24.540  1.00  0.00     0.039 H 
ATOM     62  H   UNL     1     -42.316  45.254  25.753  1.00  0.00     0.039 H 
ENDBRANCH  50  54
ENDBRANCH  38  39
ENDBRANCH  35  38
ENDBRANCH   5  35
TORSDOF 8
ENDMDL
MODEL 5
REMARK VINA RESULT:     -10.6      1.809      2.627
REMARK SMILES Cn1ccc(-c2cn(-c3cncc(COc4ccc5ccc(N6CCC6=O)nc5c4)c3)c3ncnc(N)c23)n1
REMARK SMILES IDX 9 1 10 2 11 3 12 4 13 5 31 6 8 10 6 11 7 12 38 13 32 15
REMARK SMILES IDX 36 16 33 17 35 18 34 19 5 21 2 22 3 23 39 24 4 25 1 28 37 32
REMARK SMILES IDX 14 35 15 38 16 39 17 40 30 41 18 42 29 44 19 46 28 48 20 49
REMARK SMILES IDX 22 50 21 51 23 54 24 55 26 56 25 57 27 60
REMARK H PARENT 10 7 12 8 31 9 7 14 34 20 3 26 4 27 1 29 1 30 1 31 37 33 37 34
REMARK H PARENT 14 36 14 37 17 43 30 45 18 47 20 52 21 53 24 58 24 59 25 61
REMARK H PARENT 25 62
REMARK Flexibility Score: inf
ROOT
ATOM      1  C   UNL     1     -45.941  38.741  27.341  1.00  0.00     0.066 A 
ATOM      2  C   UNL     1     -45.293  38.363  28.512  1.00  0.00     0.051 A 
ATOM      3  N   UNL     1     -45.387  37.130  29.071  1.00  0.00    -0.262 NA
ATOM      4  C   UNL     1     -46.167  36.224  28.448  1.00  0.00     0.034 A 
ATOM      5  C   UNL     1     -46.872  36.488  27.283  1.00  0.00     0.010 A 
ATOM      6  C   UNL     1     -46.738  37.766  26.721  1.00  0.00    -0.028 A 
ATOM      7  H   UNL     1     -44.640  39.018  29.075  1.00  0.00     0.086 H 
ATOM      8  H   UNL     1     -46.209  35.250  28.931  1.00  0.00     0.084 H 
ATOM      9  H   UNL     1     -47.282  37.973  25.805  1.00  0.00     0.065 H 
ENDROOT
BRANCH   1  10
ATOM     10  N   UNL     1     -45.804  40.055  26.784  1.00  0.00    -0.299 N 
ATOM     11  C   UNL     1     -44.878  41.832  25.747  1.00  0.00     0.033 A 
ATOM     12  C   UNL     1     -44.677  40.525  26.136  1.00  0.00     0.021 A 
ATOM     13  C   UNL     1     -46.200  42.192  26.105  1.00  0.00     0.071 A 
ATOM     14  H   UNL     1     -43.787  39.927  26.011  1.00  0.00     0.083 H 
ATOM     15  C   UNL     1     -46.743  41.091  26.773  1.00  0.00     0.150 A 
ATOM     16  C   UNL     1     -47.041  43.308  25.943  1.00  0.00     0.137 A 
ATOM     17  N   UNL     1     -47.984  41.045  27.295  1.00  0.00    -0.218 NA
ATOM     18  N   UNL     1     -48.280  43.281  26.466  1.00  0.00    -0.219 NA
ATOM     19  C   UNL     1     -48.675  42.174  27.111  1.00  0.00     0.120 A 
ATOM     20  H   UNL     1     -49.679  42.197  27.523  1.00  0.00     0.106 H 
BRANCH  11  21
ATOM     21  C   UNL     1     -43.880  42.661  25.079  1.00  0.00     0.095 A 
ATOM     22  N   UNL     1     -42.926  43.824  23.597  1.00  0.00    -0.275 N 
ATOM     23  C   UNL     1     -42.011  43.738  24.604  1.00  0.00     0.025 A 
ATOM     24  N   UNL     1     -44.071  43.166  23.854  1.00  0.00    -0.173 NA
ATOM     25  C   UNL     1     -42.600  42.972  25.584  1.00  0.00    -0.016 A 
ATOM     26  H   UNL     1     -41.038  44.205  24.541  1.00  0.00     0.084 H 
ATOM     27  H   UNL     1     -42.162  42.677  26.527  1.00  0.00     0.066 H 
BRANCH  22  28
ATOM     28  C   UNL     1     -42.771  44.515  22.339  1.00  0.00     0.030 C 
ATOM     29  H   UNL     1     -42.006  45.286  22.463  1.00  0.00     0.048 H 
ATOM     30  H   UNL     1     -43.721  44.973  22.056  1.00  0.00     0.048 H 
ATOM     31  H   UNL     1     -42.466  43.788  21.583  1.00  0.00     0.048 H 
ENDBRANCH  22  28
ENDBRANCH  11  21
BRANCH  16  32
ATOM     32  N   UNL     1     -46.709  44.453  25.232  1.00  0.00    -0.383 N 
ATOM     33  H   UNL     1     -45.724  44.689  25.272  1.00  0.00     0.158 HD
ATOM     34  H   UNL     1     -47.098  44.397  24.296  1.00  0.00     0.158 HD
ENDBRANCH  16  32
ENDBRANCH   1  10
BRANCH   5  35
ATOM     35  C   UNL     1     -47.704  35.429  26.606  1.00  0.00     0.115 C 
ATOM     36  H   UNL     1     -48.780  35.634  26.685  1.00  0.00     0.076 H 
ATOM     37  H   UNL     1     -47.469  35.461  25.536  1.00  0.00     0.076 H 
BRANCH  35  38
ATOM     38  O   UNL     1     -47.402  34.104  27.049  1.00  0.00    -0.489 OA
BRANCH  38  39
ATOM     39  C   UNL     1     -47.263  33.117  26.112  1.00  0.00     0.122 A 
ATOM     40  C   UNL     1     -46.492  33.187  24.956  1.00  0.00    -0.019 A 
ATOM     41  C   UNL     1     -48.005  31.960  26.371  1.00  0.00     0.007 A 
ATOM     42  C   UNL     1     -46.458  32.100  24.081  1.00  0.00    -0.049 A 
ATOM     43  H   UNL     1     -45.921  34.070  24.693  1.00  0.00     0.066 H 
ATOM     44  C   UNL     1     -47.988  30.863  25.520  1.00  0.00     0.076 A 
ATOM     45  H   UNL     1     -48.617  31.911  27.270  1.00  0.00     0.069 H 
ATOM     46  C   UNL     1     -47.198  30.939  24.359  1.00  0.00     0.001 A 
ATOM     47  H   UNL     1     -45.854  32.166  23.178  1.00  0.00     0.063 H 
ATOM     48  N   UNL     1     -48.716  29.774  25.826  1.00  0.00    -0.230 NA
ATOM     49  C   UNL     1     -47.185  29.834  23.503  1.00  0.00    -0.049 A 
ATOM     50  C   UNL     1     -48.690  28.713  24.986  1.00  0.00     0.135 A 
ATOM     51  C   UNL     1     -47.939  28.707  23.821  1.00  0.00    -0.018 A 
ATOM     52  H   UNL     1     -46.594  29.839  22.591  1.00  0.00     0.063 H 
ATOM     53  H   UNL     1     -47.928  27.851  23.155  1.00  0.00     0.066 H 
BRANCH  50  54
ATOM     54  N   UNL     1     -49.455  27.617  25.339  1.00  0.00    -0.296 N 
ATOM     55  C   UNL     1     -50.772  27.236  24.867  1.00  0.00     0.036 C 
ATOM     56  C   UNL     1     -49.276  26.578  26.179  1.00  0.00     0.229 C 
ATOM     57  C   UNL     1     -50.661  26.012  25.801  1.00  0.00     0.045 C 
ATOM     58  H   UNL     1     -50.806  27.002  23.799  1.00  0.00     0.050 H 
ATOM     59  H   UNL     1     -51.556  27.950  25.131  1.00  0.00     0.050 H 
ATOM     60  O   UNL     1     -48.380  26.249  26.920  1.00  0.00    -0.274 OA
ATOM     61  H   UNL     1     -50.621  25.042  25.300  1.00  0.00     0.039 H 
ATOM     62  H   UNL     1     -51.372  25.988  26.629  1.00  0.00     0.039 H 
ENDBRANCH  50  54
ENDBRANCH  38  39
ENDBRANCH  35  38
ENDBRANCH   5  35
TORSDOF 8
ENDMDL
MODEL 6
REMARK VINA RESULT:     -10.6      2.633     12.277
REMARK SMILES Cn1ccc(-c2cn(-c3cncc(COc4ccc5ccc(N6CCC6=O)nc5c4)c3)c3ncnc(N)c23)n1
REMARK SMILES IDX 9 1 10 2 11 3 12 4 13 5 31 6 8 10 6 11 7 12 38 13 32 15
REMARK SMILES IDX 36 16 33 17 35 18 34 19 5 21 2 22 3 23 39 24 4 25 1 28 37 32
REMARK SMILES IDX 14 35 15 38 16 39 17 40 30 41 18 42 29 44 19 46 28 48 20 49
REMARK SMILES IDX 22 50 21 51 23 54 24 55 26 56 25 57 27 60
REMARK H PARENT 10 7 12 8 31 9 7 14 34 20 3 26 4 27 1 29 1 30 1 31 37 33 37 34
REMARK H PARENT 14 36 14 37 17 43 30 45 18 47 20 52 21 53 24 58 24 59 25 61
REMARK H PARENT 25 62
REMARK Flexibility Score: inf
ROOT
ATOM      1  C   UNL     1     -48.081  33.627  26.282  1.00  0.00     0.066 A 
ATOM      2  C   UNL     1     -49.286  34.265  26.555  1.00  0.00     0.051 A 
ATOM      3  N   UNL     1     -49.391  35.451  27.207  1.00  0.00    -0.262 NA
ATOM      4  C   UNL     1     -48.248  36.035  27.620  1.00  0.00     0.034 A 
ATOM      5  C   UNL     1     -46.989  35.489  27.419  1.00  0.00     0.010 A 
ATOM      6  C   UNL     1     -46.915  34.272  26.724  1.00  0.00    -0.028 A 
ATOM      7  H   UNL     1     -50.252  33.878  26.254  1.00  0.00     0.086 H 
ATOM      8  H   UNL     1     -48.381  36.983  28.135  1.00  0.00     0.084 H 
ATOM      9  H   UNL     1     -45.930  33.847  26.558  1.00  0.00     0.065 H 
ENDROOT
BRANCH   1  10
ATOM     10  N   UNL     1     -48.020  32.378  25.582  1.00  0.00    -0.299 N 
ATOM     11  C   UNL     1     -48.448  30.230  25.038  1.00  0.00     0.033 A 
ATOM     12  C   UNL     1     -48.769  31.259  25.897  1.00  0.00     0.021 A 
ATOM     13  C   UNL     1     -47.503  30.724  24.104  1.00  0.00     0.071 A 
ATOM     14  H   UNL     1     -49.463  31.239  26.723  1.00  0.00     0.083 H 
ATOM     15  C   UNL     1     -47.229  32.042  24.479  1.00  0.00     0.150 A 
ATOM     16  C   UNL     1     -46.839  30.243  22.963  1.00  0.00     0.137 A 
ATOM     17  N   UNL     1     -46.357  32.854  23.850  1.00  0.00    -0.218 NA
ATOM     18  N   UNL     1     -45.958  31.037  22.328  1.00  0.00    -0.219 NA
ATOM     19  C   UNL     1     -45.761  32.275  22.803  1.00  0.00     0.120 A 
ATOM     20  H   UNL     1     -45.037  32.881  22.265  1.00  0.00     0.106 H 
BRANCH  11  21
ATOM     21  C   UNL     1     -49.009  28.885  25.108  1.00  0.00     0.095 A 
ATOM     22  N   UNL     1     -50.159  27.179  24.629  1.00  0.00    -0.275 N 
ATOM     23  C   UNL     1     -49.548  26.860  25.805  1.00  0.00     0.025 A 
ATOM     24  N   UNL     1     -49.858  28.413  24.186  1.00  0.00    -0.173 NA
ATOM     25  C   UNL     1     -48.798  27.961  26.152  1.00  0.00    -0.016 A 
ATOM     26  H   UNL     1     -49.699  25.907  26.294  1.00  0.00     0.084 H 
ATOM     27  H   UNL     1     -48.191  28.079  27.039  1.00  0.00     0.066 H 
BRANCH  22  28
ATOM     28  C   UNL     1     -51.062  26.352  23.867  1.00  0.00     0.030 C 
ATOM     29  H   UNL     1     -52.053  26.414  24.323  1.00  0.00     0.048 H 
ATOM     30  H   UNL     1     -50.709  25.319  23.880  1.00  0.00     0.048 H 
ATOM     31  H   UNL     1     -51.087  26.725  22.840  1.00  0.00     0.048 H 
ENDBRANCH  22  28
ENDBRANCH  11  21
BRANCH  16  32
ATOM     32  N   UNL     1     -47.050  28.995  22.390  1.00  0.00    -0.383 N 
ATOM     33  H   UNL     1     -48.027  28.737  22.320  1.00  0.00     0.158 HD
ATOM     34  H   UNL     1     -46.525  28.926  21.524  1.00  0.00     0.158 HD
ENDBRANCH  16  32
ENDBRANCH   1  10
BRANCH   5  35
ATOM     35  C   UNL     1     -45.739  36.198  27.871  1.00  0.00     0.115 C 
ATOM     36  H   UNL     1     -44.981  35.501  28.251  1.00  0.00     0.076 H 
ATOM     37  H   UNL     1     -45.295  36.675  26.989  1.00  0.00     0.076 H 
BRANCH  35  38
ATOM     38  O   UNL     1     -45.991  37.243  28.813  1.00  0.00    -0.489 OA
BRANCH  38  39
ATOM     39  C   UNL     1     -45.023  38.187  29.017  1.00  0.00     0.122 A 
ATOM     40  C   UNL     1     -44.165  38.259  30.110  1.00  0.00    -0.019 A 
ATOM     41  C   UNL     1     -44.945  39.166  28.021  1.00  0.00     0.007 A 
ATOM     42  C   UNL     1     -43.231  39.294  30.190  1.00  0.00    -0.049 A 
ATOM     43  H   UNL     1     -44.202  37.543  30.924  1.00  0.00     0.066 H 
ATOM     44  C   UNL     1     -44.025  40.205  28.073  1.00  0.00     0.076 A 
ATOM     45  H   UNL     1     -45.624  39.116  27.172  1.00  0.00     0.069 H 
ATOM     46  C   UNL     1     -43.155  40.263  29.177  1.00  0.00     0.001 A 
ATOM     47  H   UNL     1     -42.567  39.342  31.050  1.00  0.00     0.063 H 
ATOM     48  N   UNL     1     -43.991  41.113  27.081  1.00  0.00    -0.230 NA
ATOM     49  C   UNL     1     -42.232  41.312  29.228  1.00  0.00    -0.049 A 
ATOM     50  C   UNL     1     -43.090  42.120  27.147  1.00  0.00     0.135 A 
ATOM     51  C   UNL     1     -42.198  42.250  28.200  1.00  0.00    -0.018 A 
ATOM     52  H   UNL     1     -41.538  41.407  30.058  1.00  0.00     0.063 H 
ATOM     53  H   UNL     1     -41.481  43.063  28.242  1.00  0.00     0.066 H 
BRANCH  50  54
ATOM     54  N   UNL     1     -43.092  43.030  26.106  1.00  0.00    -0.296 N 
ATOM     55  C   UNL     1     -44.195  43.815  25.586  1.00  0.00     0.036 C 
ATOM     56  C   UNL     1     -42.150  43.494  25.261  1.00  0.00     0.229 C 
ATOM     57  C   UNL     1     -43.189  44.405  24.575  1.00  0.00     0.045 C 
ATOM     58  H   UNL     1     -44.603  44.531  26.304  1.00  0.00     0.050 H 
ATOM     59  H   UNL     1     -44.994  43.211  25.146  1.00  0.00     0.050 H 
ATOM     60  O   UNL     1     -40.972  43.267  25.120  1.00  0.00    -0.274 OA
ATOM     61  H   UNL     1     -42.984  45.472  24.685  1.00  0.00     0.039 H 
ATOM     62  H   UNL     1     -43.375  44.155  23.528  1.00  0.00     0.039 H 
ENDBRANCH  50  54
ENDBRANCH  38  39
ENDBRANCH  35  38
ENDBRANCH   5  35
TORSDOF 8
ENDMDL
MODEL 7
REMARK VINA RESULT:     -10.1      2.004      3.322
REMARK SMILES Cn1ccc(-c2cn(-c3cncc(COc4ccc5ccc(N6CCC6=O)nc5c4)c3)c3ncnc(N)c23)n1
REMARK SMILES IDX 9 1 10 2 11 3 12 4 13 5 31 6 8 10 6 11 7 12 38 13 32 15
REMARK SMILES IDX 36 16 33 17 35 18 34 19 5 21 2 22 3 23 39 24 4 25 1 28 37 32
REMARK SMILES IDX 14 35 15 38 16 39 17 40 30 41 18 42 29 44 19 46 28 48 20 49
REMARK SMILES IDX 22 50 21 51 23 54 24 55 26 56 25 57 27 60
REMARK H PARENT 10 7 12 8 31 9 7 14 34 20 3 26 4 27 1 29 1 30 1 31 37 33 37 34
REMARK H PARENT 14 36 14 37 17 43 30 45 18 47 20 52 21 53 24 58 24 59 25 61
REMARK H PARENT 25 62
REMARK Flexibility Score: inf
ROOT
ATOM      1  C   UNL     1     -46.397  37.389  27.442  1.00  0.00     0.066 A 
ATOM      2  C   UNL     1     -45.965  36.901  28.670  1.00  0.00     0.051 A 
ATOM      3  N   UNL     1     -45.976  35.588  29.015  1.00  0.00    -0.262 NA
ATOM      4  C   UNL     1     -46.446  34.711  28.104  1.00  0.00     0.034 A 
ATOM      5  C   UNL     1     -46.916  35.080  26.853  1.00  0.00     0.010 A 
ATOM      6  C   UNL     1     -46.872  36.443  26.521  1.00  0.00    -0.028 A 
ATOM      7  H   UNL     1     -45.564  37.526  29.458  1.00  0.00     0.086 H 
ATOM      8  H   UNL     1     -46.433  33.672  28.424  1.00  0.00     0.084 H 
ATOM      9  H   UNL     1     -47.232  36.733  25.539  1.00  0.00     0.065 H 
ENDROOT
BRANCH   1  10
ATOM     10  N   UNL     1     -46.358  38.785  27.120  1.00  0.00    -0.299 N 
ATOM     11  C   UNL     1     -45.553  40.787  26.458  1.00  0.00     0.033 A 
ATOM     12  C   UNL     1     -45.248  39.455  26.640  1.00  0.00     0.021 A 
ATOM     13  C   UNL     1     -46.922  40.965  26.777  1.00  0.00     0.071 A 
ATOM     14  H   UNL     1     -44.299  38.966  26.481  1.00  0.00     0.083 H 
ATOM     15  C   UNL     1     -47.391  39.724  27.215  1.00  0.00     0.150 A 
ATOM     16  C   UNL     1     -47.856  42.015  26.742  1.00  0.00     0.137 A 
ATOM     17  N   UNL     1     -48.649  39.482  27.633  1.00  0.00    -0.218 NA
ATOM     18  N   UNL     1     -49.114  41.793  27.165  1.00  0.00    -0.219 NA
ATOM     19  C   UNL     1     -49.435  40.562  27.589  1.00  0.00     0.120 A 
ATOM     20  H   UNL     1     -50.458  40.427  27.928  1.00  0.00     0.106 H 
BRANCH  11  21
ATOM     21  C   UNL     1     -44.605  41.801  26.008  1.00  0.00     0.095 A 
ATOM     22  N   UNL     1     -43.718  43.318  24.837  1.00  0.00    -0.275 N 
ATOM     23  C   UNL     1     -42.804  43.065  25.816  1.00  0.00     0.025 A 
ATOM     24  N   UNL     1     -44.822  42.554  24.922  1.00  0.00    -0.173 NA
ATOM     25  C   UNL     1     -43.349  42.067  26.591  1.00  0.00    -0.016 A 
ATOM     26  H   UNL     1     -41.860  43.590  25.875  1.00  0.00     0.084 H 
ATOM     27  H   UNL     1     -42.897  41.595  27.453  1.00  0.00     0.066 H 
BRANCH  22  28
ATOM     28  C   UNL     1     -43.602  44.280  23.768  1.00  0.00     0.030 C 
ATOM     29  H   UNL     1     -42.578  44.664  23.761  1.00  0.00     0.048 H 
ATOM     30  H   UNL     1     -44.306  45.098  23.935  1.00  0.00     0.048 H 
ATOM     31  H   UNL     1     -43.830  43.776  22.826  1.00  0.00     0.048 H 
ENDBRANCH  22  28
ENDBRANCH  11  21
BRANCH  16  32
ATOM     32  N   UNL     1     -47.599  43.290  26.255  1.00  0.00    -0.383 N 
ATOM     33  H   UNL     1     -48.361  43.943  26.393  1.00  0.00     0.158 HD
ATOM     34  H   UNL     1     -46.696  43.607  26.594  1.00  0.00     0.158 HD
ENDBRANCH  16  32
ENDBRANCH   1  10
BRANCH   5  35
ATOM     35  C   UNL     1     -47.399  34.057  25.857  1.00  0.00     0.115 C 
ATOM     36  H   UNL     1     -47.391  34.442  24.830  1.00  0.00     0.076 H 
ATOM     37  H   UNL     1     -46.686  33.223  25.872  1.00  0.00     0.076 H 
BRANCH  35  38
ATOM     38  O   UNL     1     -48.675  33.506  26.188  1.00  0.00    -0.489 OA
BRANCH  38  39
ATOM     39  C   UNL     1     -49.115  32.413  25.493  1.00  0.00     0.122 A 
ATOM     40  C   UNL     1     -50.048  32.418  24.461  1.00  0.00    -0.019 A 
ATOM     41  C   UNL     1     -48.568  31.196  25.914  1.00  0.00     0.007 A 
ATOM     42  C   UNL     1     -50.413  31.216  23.852  1.00  0.00    -0.049 A 
ATOM     43  H   UNL     1     -50.526  33.329  24.115  1.00  0.00     0.066 H 
ATOM     44  C   UNL     1     -48.910  29.987  25.324  1.00  0.00     0.076 A 
ATOM     45  H   UNL     1     -47.846  31.192  26.728  1.00  0.00     0.069 H 
ATOM     46  C   UNL     1     -49.847  30.003  24.275  1.00  0.00     0.001 A 
ATOM     47  H   UNL     1     -51.146  31.231  23.048  1.00  0.00     0.063 H 
ATOM     48  N   UNL     1     -48.343  28.849  25.766  1.00  0.00    -0.230 NA
ATOM     49  C   UNL     1     -50.191  28.783  23.686  1.00  0.00    -0.049 A 
ATOM     50  C   UNL     1     -48.688  27.678  25.183  1.00  0.00     0.135 A 
ATOM     51  C   UNL     1     -49.603  27.607  24.144  1.00  0.00    -0.018 A 
ATOM     52  H   UNL     1     -50.910  28.737  22.874  1.00  0.00     0.063 H 
ATOM     53  H   UNL     1     -49.872  26.661  23.686  1.00  0.00     0.066 H 
BRANCH  50  54
ATOM     54  N   UNL     1     -48.082  26.535  25.670  1.00  0.00    -0.296 N 
ATOM     55  C   UNL     1     -48.627  25.521  26.553  1.00  0.00     0.036 C 
ATOM     56  C   UNL     1     -46.864  25.978  25.517  1.00  0.00     0.229 C 
ATOM     57  C   UNL     1     -47.263  24.808  26.440  1.00  0.00     0.045 C 
ATOM     58  H   UNL     1     -49.472  24.975  26.125  1.00  0.00     0.050 H 
ATOM     59  H   UNL     1     -48.873  25.895  27.550  1.00  0.00     0.050 H 
ATOM     60  O   UNL     1     -45.875  26.293  24.899  1.00  0.00    -0.274 OA
ATOM     61  H   UNL     1     -47.282  23.836  25.940  1.00  0.00     0.039 H 
ATOM     62  H   UNL     1     -46.684  24.754  27.364  1.00  0.00     0.039 H 
ENDBRANCH  50  54
ENDBRANCH  38  39
ENDBRANCH  35  38
ENDBRANCH   5  35
TORSDOF 8
ENDMDL
