MODEL 1
REMARK VINA RESULT:     -10.2      0.000      0.000
REMARK SMILES CCNc1ccc2ccc(CCc3cncc(-n4cc([C@H]5CCCO5)c5c(N)ncnc54)n3)cc2n1
REMARK SMILES IDX 11 1 10 4 4 5 5 6 36 7 6 8 35 10 7 11 34 13 8 14 9 16 3 19
REMARK SMILES IDX 2 21 1 24 12 28 13 31 14 32 33 33 15 34 17 36 16 37 18 39
REMARK SMILES IDX 19 40 32 41 20 42 26 44 31 45 27 46 30 47 29 48 21 50 22 51
REMARK SMILES IDX 25 52 23 54 24 57 28 62
REMARK H PARENT 11 2 11 3 5 9 6 12 34 15 8 17 9 18 3 20 2 22 2 23 1 25 1 26
REMARK H PARENT 1 27 12 29 12 30 14 35 16 38 19 43 30 49 21 53 22 55 22 56
REMARK H PARENT 23 58 23 59 24 60 24 61 28 63 28 64
REMARK Flexibility Score: inf
ROOT
ATOM      1  C   UNL     1     -46.649  37.264  27.097  1.00  0.00    -0.022 C 
ATOM      2  H   UNL     1     -47.616  37.347  27.612  1.00  0.00     0.032 H 
ATOM      3  H   UNL     1     -46.805  37.719  26.110  1.00  0.00     0.032 H 
ENDROOT
BRANCH   1   4
ATOM      4  C   UNL     1     -45.627  38.062  27.874  1.00  0.00    -0.045 A 
ATOM      5  C   UNL     1     -42.650  41.789  27.946  1.00  0.00     0.126 A 
ATOM      6  C   UNL     1     -42.158  41.432  29.197  1.00  0.00    -0.019 A 
ATOM      7  N   UNL     1     -43.600  41.060  27.334  1.00  0.00    -0.231 NA
ATOM      8  C   UNL     1     -42.669  40.307  29.838  1.00  0.00    -0.049 A 
ATOM      9  H   UNL     1     -41.374  42.017  29.665  1.00  0.00     0.066 H 
ATOM     10  C   UNL     1     -44.097  39.970  27.945  1.00  0.00     0.073 A 
ATOM     11  C   UNL     1     -43.661  39.548  29.212  1.00  0.00     0.000 A 
ATOM     12  H   UNL     1     -42.284  40.027  30.814  1.00  0.00     0.063 H 
ATOM     13  C   UNL     1     -45.074  39.223  27.307  1.00  0.00    -0.032 A 
ATOM     14  C   UNL     1     -44.212  38.395  29.803  1.00  0.00    -0.053 A 
ATOM     15  H   UNL     1     -45.400  39.548  26.319  1.00  0.00     0.065 H 
ATOM     16  C   UNL     1     -45.189  37.656  29.135  1.00  0.00    -0.058 A 
ATOM     17  H   UNL     1     -43.876  38.067  30.784  1.00  0.00     0.063 H 
ATOM     18  H   UNL     1     -45.599  36.764  29.603  1.00  0.00     0.063 H 
BRANCH   5  19
ATOM     19  N   UNL     1     -42.098  42.921  27.316  1.00  0.00    -0.370 N 
ATOM     20  H   UNL     1     -41.916  43.617  28.033  1.00  0.00     0.162 HD
BRANCH  19  21
ATOM     21  C   UNL     1     -42.895  43.485  26.225  1.00  0.00     0.013 C 
ATOM     22  H   UNL     1     -43.811  42.912  26.037  1.00  0.00     0.049 H 
ATOM     23  H   UNL     1     -43.222  44.484  26.539  1.00  0.00     0.049 H 
BRANCH  21  24
ATOM     24  C   UNL     1     -42.069  43.644  24.958  1.00  0.00    -0.048 C 
ATOM     25  H   UNL     1     -42.662  44.040  24.128  1.00  0.00     0.025 H 
ATOM     26  H   UNL     1     -41.653  42.682  24.640  1.00  0.00     0.025 H 
ATOM     27  H   UNL     1     -41.236  44.331  25.135  1.00  0.00     0.025 H 
ENDBRANCH  21  24
ENDBRANCH  19  21
ENDBRANCH   5  19
ENDBRANCH   1   4
BRANCH   1  28
ATOM     28  C   UNL     1     -46.290  35.779  26.947  1.00  0.00    -0.005 C 
ATOM     29  H   UNL     1     -45.823  35.428  27.875  1.00  0.00     0.034 H 
ATOM     30  H   UNL     1     -45.540  35.673  26.153  1.00  0.00     0.034 H 
BRANCH  28  31
ATOM     31  C   UNL     1     -47.461  34.877  26.650  1.00  0.00     0.061 A 
ATOM     32  C   UNL     1     -48.751  35.250  27.002  1.00  0.00     0.049 A 
ATOM     33  N   UNL     1     -47.227  33.704  26.013  1.00  0.00    -0.232 NA
ATOM     34  N   UNL     1     -49.827  34.467  26.773  1.00  0.00    -0.259 NA
ATOM     35  H   UNL     1     -48.959  36.196  27.490  1.00  0.00     0.086 H 
ATOM     36  C   UNL     1     -48.280  32.870  25.818  1.00  0.00     0.157 A 
ATOM     37  C   UNL     1     -49.560  33.270  26.192  1.00  0.00     0.070 A 
ATOM     38  H   UNL     1     -50.442  32.659  26.050  1.00  0.00     0.088 H 
BRANCH  36  39
ATOM     39  N   UNL     1     -48.052  31.571  25.262  1.00  0.00    -0.284 N 
ATOM     40  C   UNL     1     -48.586  30.376  25.725  1.00  0.00     0.019 A 
ATOM     41  C   UNL     1     -47.229  31.267  24.180  1.00  0.00     0.151 A 
ATOM     42  C   UNL     1     -48.109  29.315  24.973  1.00  0.00     0.012 A 
ATOM     43  H   UNL     1     -49.250  30.351  26.575  1.00  0.00     0.083 H 
ATOM     44  C   UNL     1     -47.236  29.887  23.993  1.00  0.00     0.067 A 
ATOM     45  N   UNL     1     -46.529  32.142  23.430  1.00  0.00    -0.218 NA
ATOM     46  C   UNL     1     -46.432  29.384  22.955  1.00  0.00     0.136 A 
ATOM     47  C   UNL     1     -45.802  31.547  22.479  1.00  0.00     0.120 A 
ATOM     48  N   UNL     1     -45.719  30.237  22.200  1.00  0.00    -0.219 NA
ATOM     49  H   UNL     1     -45.205  32.205  21.855  1.00  0.00     0.106 H 
BRANCH  42  50
ATOM     50  C   UNL     1     -48.390  27.852  25.156  1.00  0.00     0.085 C 
ATOM     51  C   UNL     1     -49.122  27.478  26.439  1.00  0.00    -0.020 C 
ATOM     52  O   UNL     1     -49.202  27.326  24.078  1.00  0.00    -0.373 OA
ATOM     53  H   UNL     1     -47.435  27.311  25.116  1.00  0.00     0.066 H 
ATOM     54  C   UNL     1     -49.771  26.172  26.060  1.00  0.00    -0.027 C 
ATOM     55  H   UNL     1     -49.905  28.206  26.686  1.00  0.00     0.030 H 
ATOM     56  H   UNL     1     -48.454  27.396  27.302  1.00  0.00     0.030 H 
ATOM     57  C   UNL     1     -50.188  26.445  24.634  1.00  0.00     0.048 C 
ATOM     58  H   UNL     1     -49.029  25.365  26.088  1.00  0.00     0.029 H 
ATOM     59  H   UNL     1     -50.610  25.892  26.704  1.00  0.00     0.029 H 
ATOM     60  H   UNL     1     -50.251  25.535  24.031  1.00  0.00     0.057 H 
ATOM     61  H   UNL     1     -51.155  26.958  24.594  1.00  0.00     0.057 H 
ENDBRANCH  42  50
BRANCH  46  62
ATOM     62  N   UNL     1     -46.343  28.033  22.637  1.00  0.00    -0.383 N 
ATOM     63  H   UNL     1     -45.388  27.715  22.757  1.00  0.00     0.158 HD
ATOM     64  H   UNL     1     -46.761  27.823  21.730  1.00  0.00     0.158 HD
ENDBRANCH  46  62
ENDBRANCH  36  39
ENDBRANCH  28  31
ENDBRANCH   1  28
TORSDOF 9
ENDMDL
MODEL 2
REMARK VINA RESULT:     -10.1      1.827      2.234
REMARK SMILES CCNc1ccc2ccc(CCc3cncc(-n4cc([C@H]5CCCO5)c5c(N)ncnc54)n3)cc2n1
REMARK SMILES IDX 11 1 10 4 4 5 5 6 36 7 6 8 35 10 7 11 34 13 8 14 9 16 3 19
REMARK SMILES IDX 2 21 1 24 12 28 13 31 14 32 33 33 15 34 17 36 16 37 18 39
REMARK SMILES IDX 19 40 32 41 20 42 26 44 31 45 27 46 30 47 29 48 21 50 22 51
REMARK SMILES IDX 25 52 23 54 24 57 28 62
REMARK H PARENT 11 2 11 3 5 9 6 12 34 15 8 17 9 18 3 20 2 22 2 23 1 25 1 26
REMARK H PARENT 1 27 12 29 12 30 14 35 16 38 19 43 30 49 21 53 22 55 22 56
REMARK H PARENT 23 58 23 59 24 60 24 61 28 63 28 64
REMARK Flexibility Score: inf
ROOT
ATOM      1  C   UNL     1     -47.076  37.428  27.740  1.00  0.00    -0.022 C 
ATOM      2  H   UNL     1     -47.488  36.752  28.500  1.00  0.00     0.032 H 
ATOM      3  H   UNL     1     -47.882  38.138  27.512  1.00  0.00     0.032 H 
ENDROOT
BRANCH   1   4
ATOM      4  C   UNL     1     -45.901  38.162  28.344  1.00  0.00    -0.045 A 
ATOM      5  C   UNL     1     -42.943  41.898  28.105  1.00  0.00     0.126 A 
ATOM      6  C   UNL     1     -42.194  41.434  29.180  1.00  0.00    -0.019 A 
ATOM      7  N   UNL     1     -44.011  41.218  27.651  1.00  0.00    -0.231 NA
ATOM      8  C   UNL     1     -42.564  40.249  29.813  1.00  0.00    -0.049 A 
ATOM      9  H   UNL     1     -41.321  41.981  29.518  1.00  0.00     0.066 H 
ATOM     10  C   UNL     1     -44.373  40.072  28.253  1.00  0.00     0.073 A 
ATOM     11  C   UNL     1     -43.676  39.540  29.351  1.00  0.00     0.000 A 
ATOM     12  H   UNL     1     -41.978  39.886  30.651  1.00  0.00     0.063 H 
ATOM     13  C   UNL     1     -45.473  39.376  27.778  1.00  0.00    -0.032 A 
ATOM     14  C   UNL     1     -44.096  38.333  29.941  1.00  0.00    -0.053 A 
ATOM     15  H   UNL     1     -46.003  39.786  26.919  1.00  0.00     0.065 H 
ATOM     16  C   UNL     1     -45.202  37.647  29.437  1.00  0.00    -0.058 A 
ATOM     17  H   UNL     1     -43.557  37.920  30.790  1.00  0.00     0.063 H 
ATOM     18  H   UNL     1     -45.509  36.713  29.900  1.00  0.00     0.063 H 
BRANCH   5  19
ATOM     19  N   UNL     1     -42.530  43.088  27.475  1.00  0.00    -0.370 N 
ATOM     20  H   UNL     1     -42.982  43.863  27.952  1.00  0.00     0.162 HD
BRANCH  19  21
ATOM     21  C   UNL     1     -42.766  43.150  26.032  1.00  0.00     0.013 C 
ATOM     22  H   UNL     1     -43.461  42.374  25.688  1.00  0.00     0.049 H 
ATOM     23  H   UNL     1     -43.255  44.109  25.819  1.00  0.00     0.049 H 
BRANCH  21  24
ATOM     24  C   UNL     1     -41.460  43.112  25.254  1.00  0.00    -0.048 C 
ATOM     25  H   UNL     1     -40.888  44.039  25.366  1.00  0.00     0.025 H 
ATOM     26  H   UNL     1     -41.646  42.964  24.185  1.00  0.00     0.025 H 
ATOM     27  H   UNL     1     -40.835  42.286  25.607  1.00  0.00     0.025 H 
ENDBRANCH  21  24
ENDBRANCH  19  21
ENDBRANCH   5  19
ENDBRANCH   1   4
BRANCH   1  28
ATOM     28  C   UNL     1     -46.718  36.612  26.489  1.00  0.00    -0.005 C 
ATOM     29  H   UNL     1     -45.702  36.873  26.169  1.00  0.00     0.034 H 
ATOM     30  H   UNL     1     -47.392  36.900  25.672  1.00  0.00     0.034 H 
BRANCH  28  31
ATOM     31  C   UNL     1     -46.773  35.118  26.678  1.00  0.00     0.061 A 
ATOM     32  C   UNL     1     -46.164  34.518  27.771  1.00  0.00     0.049 A 
ATOM     33  N   UNL     1     -47.450  34.377  25.767  1.00  0.00    -0.232 NA
ATOM     34  N   UNL     1     -46.171  33.182  27.971  1.00  0.00    -0.259 NA
ATOM     35  H   UNL     1     -45.639  35.097  28.523  1.00  0.00     0.086 H 
ATOM     36  C   UNL     1     -47.429  33.027  25.910  1.00  0.00     0.157 A 
ATOM     37  C   UNL     1     -46.800  32.455  27.012  1.00  0.00     0.070 A 
ATOM     38  H   UNL     1     -46.761  31.389  27.192  1.00  0.00     0.088 H 
BRANCH  36  39
ATOM     39  N   UNL     1     -48.025  32.206  24.900  1.00  0.00    -0.284 N 
ATOM     40  C   UNL     1     -49.377  31.917  24.771  1.00  0.00     0.019 A 
ATOM     41  C   UNL     1     -47.356  31.523  23.887  1.00  0.00     0.151 A 
ATOM     42  C   UNL     1     -49.583  31.054  23.708  1.00  0.00     0.012 A 
ATOM     43  H   UNL     1     -50.105  32.324  25.457  1.00  0.00     0.083 H 
ATOM     44  C   UNL     1     -48.290  30.796  23.152  1.00  0.00     0.067 A 
ATOM     45  N   UNL     1     -46.030  31.541  23.643  1.00  0.00    -0.218 NA
ATOM     46  C   UNL     1     -47.793  30.013  22.095  1.00  0.00     0.136 A 
ATOM     47  C   UNL     1     -45.679  30.757  22.620  1.00  0.00     0.120 A 
ATOM     48  N   UNL     1     -46.474  30.009  21.839  1.00  0.00    -0.219 NA
ATOM     49  H   UNL     1     -44.618  30.721  22.390  1.00  0.00     0.106 H 
BRANCH  42  50
ATOM     50  C   UNL     1     -50.878  30.451  23.245  1.00  0.00     0.085 C 
ATOM     51  C   UNL     1     -51.335  30.864  21.851  1.00  0.00    -0.020 C 
ATOM     52  O   UNL     1     -50.813  29.004  23.219  1.00  0.00    -0.373 OA
ATOM     53  H   UNL     1     -51.659  30.712  23.971  1.00  0.00     0.066 H 
ATOM     54  C   UNL     1     -52.220  29.710  21.456  1.00  0.00    -0.027 C 
ATOM     55  H   UNL     1     -50.493  30.924  21.150  1.00  0.00     0.030 H 
ATOM     56  H   UNL     1     -51.851  31.830  21.842  1.00  0.00     0.030 H 
ATOM     57  C   UNL     1     -51.456  28.537  22.025  1.00  0.00     0.048 C 
ATOM     58  H   UNL     1     -53.194  29.802  21.951  1.00  0.00     0.029 H 
ATOM     59  H   UNL     1     -52.385  29.630  20.378  1.00  0.00     0.029 H 
ATOM     60  H   UNL     1     -52.104  27.688  22.264  1.00  0.00     0.057 H 
ATOM     61  H   UNL     1     -50.676  28.199  21.335  1.00  0.00     0.057 H 
ENDBRANCH  42  50
BRANCH  46  62
ATOM     62  N   UNL     1     -48.600  29.242  21.265  1.00  0.00    -0.383 N 
ATOM     63  H   UNL     1     -49.568  29.333  21.547  1.00  0.00     0.158 HD
ATOM     64  H   UNL     1     -48.259  28.284  21.181  1.00  0.00     0.158 HD
ENDBRANCH  46  62
ENDBRANCH  36  39
ENDBRANCH  28  31
ENDBRANCH   1  28
TORSDOF 9
ENDMDL
MODEL 3
REMARK VINA RESULT:      -9.8      1.726      2.417
REMARK SMILES CCNc1ccc2ccc(CCc3cncc(-n4cc([C@H]5CCCO5)c5c(N)ncnc54)n3)cc2n1
REMARK SMILES IDX 11 1 10 4 4 5 5 6 36 7 6 8 35 10 7 11 34 13 8 14 9 16 3 19
REMARK SMILES IDX 2 21 1 24 12 28 13 31 14 32 33 33 15 34 17 36 16 37 18 39
REMARK SMILES IDX 19 40 32 41 20 42 26 44 31 45 27 46 30 47 29 48 21 50 22 51
REMARK SMILES IDX 25 52 23 54 24 57 28 62
REMARK H PARENT 11 2 11 3 5 9 6 12 34 15 8 17 9 18 3 20 2 22 2 23 1 25 1 26
REMARK H PARENT 1 27 12 29 12 30 14 35 16 38 19 43 30 49 21 53 22 55 22 56
REMARK H PARENT 23 58 23 59 24 60 24 61 28 63 28 64
REMARK Flexibility Score: inf
ROOT
ATOM      1  C   UNL     1     -46.124  35.701  28.124  1.00  0.00    -0.022 C 
ATOM      2  H   UNL     1     -45.318  35.530  28.849  1.00  0.00     0.032 H 
ATOM      3  H   UNL     1     -47.056  35.612  28.698  1.00  0.00     0.032 H 
ENDROOT
BRANCH   1   4
ATOM      4  C   UNL     1     -45.987  37.107  27.583  1.00  0.00    -0.045 A 
ATOM      5  C   UNL     1     -43.700  41.288  27.794  1.00  0.00     0.126 A 
ATOM      6  C   UNL     1     -44.551  41.855  26.850  1.00  0.00    -0.019 A 
ATOM      7  N   UNL     1     -43.848  40.012  28.192  1.00  0.00    -0.231 NA
ATOM      8  C   UNL     1     -45.566  41.082  26.292  1.00  0.00    -0.049 A 
ATOM      9  H   UNL     1     -44.433  42.892  26.559  1.00  0.00     0.066 H 
ATOM     10  C   UNL     1     -44.828  39.260  27.661  1.00  0.00     0.073 A 
ATOM     11  C   UNL     1     -45.723  39.754  26.696  1.00  0.00     0.000 A 
ATOM     12  H   UNL     1     -46.231  41.524  25.557  1.00  0.00     0.063 H 
ATOM     13  C   UNL     1     -44.975  37.947  28.078  1.00  0.00    -0.032 A 
ATOM     14  C   UNL     1     -46.734  38.923  26.177  1.00  0.00    -0.053 A 
ATOM     15  H   UNL     1     -44.287  37.573  28.836  1.00  0.00     0.065 H 
ATOM     16  C   UNL     1     -46.866  37.607  26.621  1.00  0.00    -0.058 A 
ATOM     17  H   UNL     1     -47.427  39.303  25.430  1.00  0.00     0.063 H 
ATOM     18  H   UNL     1     -47.657  36.982  26.215  1.00  0.00     0.063 H 
BRANCH   5  19
ATOM     19  N   UNL     1     -42.697  42.102  28.353  1.00  0.00    -0.370 N 
ATOM     20  H   UNL     1     -42.501  42.849  27.693  1.00  0.00     0.162 HD
BRANCH  19  21
ATOM     21  C   UNL     1     -41.468  41.408  28.741  1.00  0.00     0.013 C 
ATOM     22  H   UNL     1     -41.184  40.628  28.024  1.00  0.00     0.049 H 
ATOM     23  H   UNL     1     -40.655  42.144  28.724  1.00  0.00     0.049 H 
BRANCH  21  24
ATOM     24  C   UNL     1     -41.565  40.856  30.155  1.00  0.00    -0.048 C 
ATOM     25  H   UNL     1     -41.455  41.640  30.910  1.00  0.00     0.025 H 
ATOM     26  H   UNL     1     -40.785  40.108  30.336  1.00  0.00     0.025 H 
ATOM     27  H   UNL     1     -42.536  40.376  30.306  1.00  0.00     0.025 H 
ENDBRANCH  21  24
ENDBRANCH  19  21
ENDBRANCH   5  19
ENDBRANCH   1   4
BRANCH   1  28
ATOM     28  C   UNL     1     -46.060  34.614  27.041  1.00  0.00    -0.005 C 
ATOM     29  H   UNL     1     -45.432  33.790  27.398  1.00  0.00     0.034 H 
ATOM     30  H   UNL     1     -45.569  35.027  26.151  1.00  0.00     0.034 H 
BRANCH  28  31
ATOM     31  C   UNL     1     -47.398  34.040  26.651  1.00  0.00     0.061 A 
ATOM     32  C   UNL     1     -48.573  34.721  26.935  1.00  0.00     0.049 A 
ATOM     33  N   UNL     1     -47.425  32.853  25.996  1.00  0.00    -0.232 NA
ATOM     34  N   UNL     1     -49.795  34.237  26.622  1.00  0.00    -0.259 NA
ATOM     35  H   UNL     1     -48.570  35.683  27.437  1.00  0.00     0.086 H 
ATOM     36  C   UNL     1     -48.639  32.314  25.716  1.00  0.00     0.157 A 
ATOM     37  C   UNL     1     -49.799  33.017  26.024  1.00  0.00     0.070 A 
ATOM     38  H   UNL     1     -50.795  32.651  25.814  1.00  0.00     0.088 H 
BRANCH  36  39
ATOM     39  N   UNL     1     -48.707  31.005  25.138  1.00  0.00    -0.284 N 
ATOM     40  C   UNL     1     -48.453  29.807  25.792  1.00  0.00     0.019 A 
ATOM     41  C   UNL     1     -49.008  30.700  23.813  1.00  0.00     0.151 A 
ATOM     42  C   UNL     1     -48.570  28.746  24.909  1.00  0.00     0.012 A 
ATOM     43  H   UNL     1     -48.181  29.784  26.836  1.00  0.00     0.083 H 
ATOM     44  C   UNL     1     -48.915  29.321  23.644  1.00  0.00     0.067 A 
ATOM     45  N   UNL     1     -49.332  31.575  22.839  1.00  0.00    -0.218 NA
ATOM     46  C   UNL     1     -49.159  28.824  22.352  1.00  0.00     0.136 A 
ATOM     47  C   UNL     1     -49.536  30.986  21.657  1.00  0.00     0.120 A 
ATOM     48  N   UNL     1     -49.474  29.678  21.364  1.00  0.00    -0.219 NA
ATOM     49  H   UNL     1     -49.784  31.647  20.832  1.00  0.00     0.106 H 
BRANCH  42  50
ATOM     50  C   UNL     1     -48.335  27.289  25.179  1.00  0.00     0.085 C 
ATOM     51  C   UNL     1     -47.960  26.937  26.614  1.00  0.00    -0.020 C 
ATOM     52  O   UNL     1     -49.510  26.496  24.879  1.00  0.00    -0.373 OA
ATOM     53  H   UNL     1     -47.544  26.936  24.504  1.00  0.00     0.066 H 
ATOM     54  C   UNL     1     -48.393  25.496  26.707  1.00  0.00    -0.027 C 
ATOM     55  H   UNL     1     -48.534  27.528  27.339  1.00  0.00     0.030 H 
ATOM     56  H   UNL     1     -46.896  27.085  26.823  1.00  0.00     0.030 H 
ATOM     57  C   UNL     1     -49.679  25.516  25.914  1.00  0.00     0.048 C 
ATOM     58  H   UNL     1     -47.655  24.853  26.213  1.00  0.00     0.029 H 
ATOM     59  H   UNL     1     -48.529  25.142  27.732  1.00  0.00     0.029 H 
ATOM     60  H   UNL     1     -49.914  24.546  25.467  1.00  0.00     0.057 H 
ATOM     61  H   UNL     1     -50.525  25.829  26.535  1.00  0.00     0.057 H 
ENDBRANCH  42  50
BRANCH  46  62
ATOM     62  N   UNL     1     -49.114  27.471  22.028  1.00  0.00    -0.383 N 
ATOM     63  H   UNL     1     -48.172  27.121  22.149  1.00  0.00     0.158 HD
ATOM     64  H   UNL     1     -49.537  27.281  21.119  1.00  0.00     0.158 HD
ENDBRANCH  46  62
ENDBRANCH  36  39
ENDBRANCH  28  31
ENDBRANCH   1  28
TORSDOF 9
ENDMDL
MODEL 4
REMARK VINA RESULT:      -9.8      3.414     11.861
REMARK SMILES CCNc1ccc2ccc(CCc3cncc(-n4cc([C@H]5CCCO5)c5c(N)ncnc54)n3)cc2n1
REMARK SMILES IDX 11 1 10 4 4 5 5 6 36 7 6 8 35 10 7 11 34 13 8 14 9 16 3 19
REMARK SMILES IDX 2 21 1 24 12 28 13 31 14 32 33 33 15 34 17 36 16 37 18 39
REMARK SMILES IDX 19 40 32 41 20 42 26 44 31 45 27 46 30 47 29 48 21 50 22 51
REMARK SMILES IDX 25 52 23 54 24 57 28 62
REMARK H PARENT 11 2 11 3 5 9 6 12 34 15 8 17 9 18 3 20 2 22 2 23 1 25 1 26
REMARK H PARENT 1 27 12 29 12 30 14 35 16 38 19 43 30 49 21 53 22 55 22 56
REMARK H PARENT 23 58 23 59 24 60 24 61 28 63 28 64
REMARK Flexibility Score: inf
ROOT
ATOM      1  C   UNL     1     -46.945  34.325  25.683  1.00  0.00    -0.022 C 
ATOM      2  H   UNL     1     -45.926  34.474  26.063  1.00  0.00     0.032 H 
ATOM      3  H   UNL     1     -47.100  35.122  24.942  1.00  0.00     0.032 H 
ENDROOT
BRANCH   1   4
ATOM      4  C   UNL     1     -47.007  32.975  25.005  1.00  0.00    -0.045 A 
ATOM      5  C   UNL     1     -49.071  28.680  24.783  1.00  0.00     0.126 A 
ATOM      6  C   UNL     1     -48.190  28.255  23.795  1.00  0.00    -0.019 A 
ATOM      7  N   UNL     1     -48.992  29.917  25.306  1.00  0.00    -0.231 NA
ATOM      8  C   UNL     1     -47.215  29.131  23.324  1.00  0.00    -0.049 A 
ATOM      9  H   UNL     1     -48.252  27.247  23.401  1.00  0.00     0.066 H 
ATOM     10  C   UNL     1     -48.051  30.767  24.861  1.00  0.00     0.073 A 
ATOM     11  C   UNL     1     -47.130  30.419  23.859  1.00  0.00     0.000 A 
ATOM     12  H   UNL     1     -46.525  28.799  22.554  1.00  0.00     0.063 H 
ATOM     13  C   UNL     1     -47.975  32.038  25.407  1.00  0.00    -0.032 A 
ATOM     14  C   UNL     1     -46.161  31.348  23.432  1.00  0.00    -0.053 A 
ATOM     15  H   UNL     1     -48.683  32.299  26.192  1.00  0.00     0.065 H 
ATOM     16  C   UNL     1     -46.101  32.619  24.005  1.00  0.00    -0.058 A 
ATOM     17  H   UNL     1     -45.448  31.081  22.657  1.00  0.00     0.063 H 
ATOM     18  H   UNL     1     -45.342  33.322  23.670  1.00  0.00     0.063 H 
BRANCH   5  19
ATOM     19  N   UNL     1     -50.032  27.764  25.251  1.00  0.00    -0.370 N 
ATOM     20  H   UNL     1     -50.866  28.290  25.500  1.00  0.00     0.162 HD
BRANCH  19  21
ATOM     21  C   UNL     1     -49.600  26.909  26.358  1.00  0.00     0.013 C 
ATOM     22  H   UNL     1     -48.711  27.301  26.867  1.00  0.00     0.049 H 
ATOM     23  H   UNL     1     -50.401  26.909  27.106  1.00  0.00     0.049 H 
BRANCH  21  24
ATOM     24  C   UNL     1     -49.391  25.473  25.901  1.00  0.00    -0.048 C 
ATOM     25  H   UNL     1     -48.426  25.338  25.400  1.00  0.00     0.025 H 
ATOM     26  H   UNL     1     -50.175  25.168  25.200  1.00  0.00     0.025 H 
ATOM     27  H   UNL     1     -49.422  24.797  26.760  1.00  0.00     0.025 H 
ENDBRANCH  21  24
ENDBRANCH  19  21
ENDBRANCH   5  19
ENDBRANCH   1   4
BRANCH   1  28
ATOM     28  C   UNL     1     -47.939  34.480  26.844  1.00  0.00    -0.005 C 
ATOM     29  H   UNL     1     -47.570  33.917  27.709  1.00  0.00     0.034 H 
ATOM     30  H   UNL     1     -48.896  34.028  26.554  1.00  0.00     0.034 H 
BRANCH  28  31
ATOM     31  C   UNL     1     -48.172  35.902  27.284  1.00  0.00     0.061 A 
ATOM     32  C   UNL     1     -49.454  36.360  27.557  1.00  0.00     0.049 A 
ATOM     33  N   UNL     1     -47.099  36.718  27.428  1.00  0.00    -0.232 NA
ATOM     34  N   UNL     1     -49.712  37.630  27.935  1.00  0.00    -0.259 NA
ATOM     35  H   UNL     1     -50.322  35.715  27.470  1.00  0.00     0.086 H 
ATOM     36  C   UNL     1     -47.330  38.015  27.753  1.00  0.00     0.157 A 
ATOM     37  C   UNL     1     -48.629  38.445  28.010  1.00  0.00     0.070 A 
ATOM     38  H   UNL     1     -48.879  39.460  28.288  1.00  0.00     0.088 H 
BRANCH  36  39
ATOM     39  N   UNL     1     -46.234  38.935  27.791  1.00  0.00    -0.284 N 
ATOM     40  C   UNL     1     -45.983  39.950  26.878  1.00  0.00     0.019 A 
ATOM     41  C   UNL     1     -45.204  38.956  28.729  1.00  0.00     0.151 A 
ATOM     42  C   UNL     1     -44.809  40.608  27.204  1.00  0.00     0.012 A 
ATOM     43  H   UNL     1     -46.641  40.125  26.040  1.00  0.00     0.083 H 
ATOM     44  C   UNL     1     -44.309  39.965  28.380  1.00  0.00     0.067 A 
ATOM     45  N   UNL     1     -45.071  38.144  29.797  1.00  0.00    -0.218 NA
ATOM     46  C   UNL     1     -43.179  40.120  29.202  1.00  0.00     0.136 A 
ATOM     47  C   UNL     1     -43.958  38.384  30.498  1.00  0.00     0.120 A 
ATOM     48  N   UNL     1     -43.021  39.317  30.267  1.00  0.00    -0.219 NA
ATOM     49  H   UNL     1     -43.793  37.747  31.361  1.00  0.00     0.106 H 
BRANCH  42  50
ATOM     50  C   UNL     1     -44.144  41.732  26.464  1.00  0.00     0.085 C 
ATOM     51  C   UNL     1     -44.838  42.180  25.183  1.00  0.00    -0.020 C 
ATOM     52  O   UNL     1     -44.038  42.921  27.284  1.00  0.00    -0.373 OA
ATOM     53  H   UNL     1     -43.116  41.427  26.227  1.00  0.00     0.066 H 
ATOM     54  C   UNL     1     -44.351  43.599  25.042  1.00  0.00    -0.027 C 
ATOM     55  H   UNL     1     -45.930  42.188  25.297  1.00  0.00     0.030 H 
ATOM     56  H   UNL     1     -44.592  41.549  24.323  1.00  0.00     0.030 H 
ATOM     57  C   UNL     1     -44.358  44.064  26.479  1.00  0.00     0.048 C 
ATOM     58  H   UNL     1     -43.327  43.603  24.649  1.00  0.00     0.029 H 
ATOM     59  H   UNL     1     -44.974  44.216  24.390  1.00  0.00     0.029 H 
ATOM     60  H   UNL     1     -43.633  44.862  26.668  1.00  0.00     0.057 H 
ATOM     61  H   UNL     1     -45.351  44.416  26.779  1.00  0.00     0.057 H 
ENDBRANCH  42  50
BRANCH  46  62
ATOM     62  N   UNL     1     -42.203  41.088  28.991  1.00  0.00    -0.383 N 
ATOM     63  H   UNL     1     -42.345  41.863  29.627  1.00  0.00     0.158 HD
ATOM     64  H   UNL     1     -42.122  41.343  28.006  1.00  0.00     0.158 HD
ENDBRANCH  46  62
ENDBRANCH  36  39
ENDBRANCH  28  31
ENDBRANCH   1  28
TORSDOF 9
ENDMDL
MODEL 5
REMARK VINA RESULT:      -9.6      2.159      2.775
REMARK SMILES CCNc1ccc2ccc(CCc3cncc(-n4cc([C@H]5CCCO5)c5c(N)ncnc54)n3)cc2n1
REMARK SMILES IDX 11 1 10 4 4 5 5 6 36 7 6 8 35 10 7 11 34 13 8 14 9 16 3 19
REMARK SMILES IDX 2 21 1 24 12 28 13 31 14 32 33 33 15 34 17 36 16 37 18 39
REMARK SMILES IDX 19 40 32 41 20 42 26 44 31 45 27 46 30 47 29 48 21 50 22 51
REMARK SMILES IDX 25 52 23 54 24 57 28 62
REMARK H PARENT 11 2 11 3 5 9 6 12 34 15 8 17 9 18 3 20 2 22 2 23 1 25 1 26
REMARK H PARENT 1 27 12 29 12 30 14 35 16 38 19 43 30 49 21 53 22 55 22 56
REMARK H PARENT 23 58 23 59 24 60 24 61 28 63 28 64
REMARK Flexibility Score: inf
ROOT
ATOM      1  C   UNL     1     -47.921  36.351  26.879  1.00  0.00    -0.022 C 
ATOM      2  H   UNL     1     -48.859  36.919  26.937  1.00  0.00     0.032 H 
ATOM      3  H   UNL     1     -47.615  36.401  25.825  1.00  0.00     0.032 H 
ENDROOT
BRANCH   1   4
ATOM      4  C   UNL     1     -46.893  37.043  27.745  1.00  0.00    -0.045 A 
ATOM      5  C   UNL     1     -43.563  40.442  28.091  1.00  0.00     0.126 A 
ATOM      6  C   UNL     1     -43.221  40.042  29.378  1.00  0.00    -0.019 A 
ATOM      7  N   UNL     1     -44.527  39.813  27.396  1.00  0.00    -0.231 NA
ATOM      8  C   UNL     1     -43.900  38.979  29.968  1.00  0.00    -0.049 A 
ATOM      9  H   UNL     1     -42.424  40.544  29.915  1.00  0.00     0.066 H 
ATOM     10  C   UNL     1     -45.185  38.783  27.956  1.00  0.00     0.073 A 
ATOM     11  C   UNL     1     -44.907  38.323  29.255  1.00  0.00     0.000 A 
ATOM     12  H   UNL     1     -43.632  38.665  30.973  1.00  0.00     0.063 H 
ATOM     13  C   UNL     1     -46.175  38.138  27.233  1.00  0.00    -0.032 A 
ATOM     14  C   UNL     1     -45.624  37.237  29.791  1.00  0.00    -0.053 A 
ATOM     15  H   UNL     1     -46.379  38.490  26.222  1.00  0.00     0.065 H 
ATOM     16  C   UNL     1     -46.611  36.600  29.037  1.00  0.00    -0.058 A 
ATOM     17  H   UNL     1     -45.410  36.880  30.796  1.00  0.00     0.063 H 
ATOM     18  H   UNL     1     -47.150  35.758  29.464  1.00  0.00     0.063 H 
BRANCH   5  19
ATOM     19  N   UNL     1     -42.844  41.507  27.516  1.00  0.00    -0.370 N 
ATOM     20  H   UNL     1     -42.181  41.842  28.209  1.00  0.00     0.162 HD
BRANCH  19  21
ATOM     21  C   UNL     1     -43.658  42.606  26.994  1.00  0.00     0.013 C 
ATOM     22  H   UNL     1     -43.477  42.791  25.928  1.00  0.00     0.049 H 
ATOM     23  H   UNL     1     -44.710  42.303  27.073  1.00  0.00     0.049 H 
BRANCH  21  24
ATOM     24  C   UNL     1     -43.476  43.872  27.816  1.00  0.00    -0.048 C 
ATOM     25  H   UNL     1     -43.021  43.667  28.790  1.00  0.00     0.025 H 
ATOM     26  H   UNL     1     -44.439  44.363  27.996  1.00  0.00     0.025 H 
ATOM     27  H   UNL     1     -42.830  44.577  27.285  1.00  0.00     0.025 H 
ENDBRANCH  21  24
ENDBRANCH  19  21
ENDBRANCH   5  19
ENDBRANCH   1   4
BRANCH   1  28
ATOM     28  C   UNL     1     -48.193  34.896  27.286  1.00  0.00    -0.005 C 
ATOM     29  H   UNL     1     -49.274  34.752  27.402  1.00  0.00     0.034 H 
ATOM     30  H   UNL     1     -47.740  34.711  28.268  1.00  0.00     0.034 H 
BRANCH  28  31
ATOM     31  C   UNL     1     -47.693  33.867  26.304  1.00  0.00     0.061 A 
ATOM     32  C   UNL     1     -46.443  33.996  25.716  1.00  0.00     0.049 A 
ATOM     33  N   UNL     1     -48.484  32.802  26.026  1.00  0.00    -0.232 NA
ATOM     34  N   UNL     1     -45.961  33.110  24.818  1.00  0.00    -0.259 NA
ATOM     35  H   UNL     1     -45.786  34.829  25.945  1.00  0.00     0.086 H 
ATOM     36  C   UNL     1     -48.053  31.923  25.086  1.00  0.00     0.157 A 
ATOM     37  C   UNL     1     -46.798  32.087  24.507  1.00  0.00     0.070 A 
ATOM     38  H   UNL     1     -46.390  31.414  23.765  1.00  0.00     0.088 H 
BRANCH  36  39
ATOM     39  N   UNL     1     -48.915  30.856  24.676  1.00  0.00    -0.284 N 
ATOM     40  C   UNL     1     -48.907  29.559  25.171  1.00  0.00     0.019 A 
ATOM     41  C   UNL     1     -49.893  30.917  23.685  1.00  0.00     0.151 A 
ATOM     42  C   UNL     1     -49.847  28.788  24.508  1.00  0.00     0.012 A 
ATOM     43  H   UNL     1     -48.218  29.259  25.946  1.00  0.00     0.083 H 
ATOM     44  C   UNL     1     -50.467  29.656  23.553  1.00  0.00     0.067 A 
ATOM     45  N   UNL     1     -50.238  32.000  22.960  1.00  0.00    -0.218 NA
ATOM     46  C   UNL     1     -51.464  29.514  22.572  1.00  0.00     0.136 A 
ATOM     47  C   UNL     1     -51.190  31.741  22.058  1.00  0.00     0.120 A 
ATOM     48  N   UNL     1     -51.818  30.577  21.831  1.00  0.00    -0.219 NA
ATOM     49  H   UNL     1     -51.495  32.576  21.434  1.00  0.00     0.106 H 
BRANCH  42  50
ATOM     50  C   UNL     1     -50.139  27.327  24.691  1.00  0.00     0.085 C 
ATOM     51  C   UNL     1     -49.149  26.561  25.561  1.00  0.00    -0.020 C 
ATOM     52  O   UNL     1     -51.436  27.117  25.301  1.00  0.00    -0.373 OA
ATOM     53  H   UNL     1     -50.185  26.858  23.700  1.00  0.00     0.066 H 
ATOM     54  C   UNL     1     -49.985  25.404  26.043  1.00  0.00    -0.027 C 
ATOM     55  H   UNL     1     -48.828  27.154  26.427  1.00  0.00     0.030 H 
ATOM     56  H   UNL     1     -48.254  26.251  25.013  1.00  0.00     0.030 H 
ATOM     57  C   UNL     1     -51.319  26.074  26.281  1.00  0.00     0.048 C 
ATOM     58  H   UNL     1     -50.077  24.654  25.249  1.00  0.00     0.029 H 
ATOM     59  H   UNL     1     -49.588  24.915  26.937  1.00  0.00     0.029 H 
ATOM     60  H   UNL     1     -52.161  25.383  26.185  1.00  0.00     0.057 H 
ATOM     61  H   UNL     1     -51.359  26.540  27.271  1.00  0.00     0.057 H 
ENDBRANCH  42  50
BRANCH  46  62
ATOM     62  N   UNL     1     -52.138  28.321  22.328  1.00  0.00    -0.383 N 
ATOM     63  H   UNL     1     -52.592  28.363  21.424  1.00  0.00     0.158 HD
ATOM     64  H   UNL     1     -52.742  28.056  23.107  1.00  0.00     0.158 HD
ENDBRANCH  46  62
ENDBRANCH  36  39
ENDBRANCH  28  31
ENDBRANCH   1  28
TORSDOF 9
ENDMDL
MODEL 6
REMARK VINA RESULT:      -9.6      3.556     11.800
REMARK SMILES CCNc1ccc2ccc(CCc3cncc(-n4cc([C@H]5CCCO5)c5c(N)ncnc54)n3)cc2n1
REMARK SMILES IDX 11 1 10 4 4 5 5 6 36 7 6 8 35 10 7 11 34 13 8 14 9 16 3 19
REMARK SMILES IDX 2 21 1 24 12 28 13 31 14 32 33 33 15 34 17 36 16 37 18 39
REMARK SMILES IDX 19 40 32 41 20 42 26 44 31 45 27 46 30 47 29 48 21 50 22 51
REMARK SMILES IDX 25 52 23 54 24 57 28 62
REMARK H PARENT 11 2 11 3 5 9 6 12 34 15 8 17 9 18 3 20 2 22 2 23 1 25 1 26
REMARK H PARENT 1 27 12 29 12 30 14 35 16 38 19 43 30 49 21 53 22 55 22 56
REMARK H PARENT 23 58 23 59 24 60 24 61 28 63 28 64
REMARK Flexibility Score: inf
ROOT
ATOM      1  C   UNL     1     -46.049  34.210  26.025  1.00  0.00    -0.022 C 
ATOM      2  H   UNL     1     -44.988  34.028  25.809  1.00  0.00     0.032 H 
ATOM      3  H   UNL     1     -46.341  35.041  25.369  1.00  0.00     0.032 H 
ENDROOT
BRANCH   1   4
ATOM      4  C   UNL     1     -46.829  32.968  25.659  1.00  0.00    -0.045 A 
ATOM      5  C   UNL     1     -48.150  29.913  22.241  1.00  0.00     0.126 A 
ATOM      6  C   UNL     1     -48.973  29.215  23.118  1.00  0.00    -0.019 A 
ATOM      7  N   UNL     1     -47.441  30.981  22.648  1.00  0.00    -0.231 NA
ATOM      8  C   UNL     1     -49.056  29.618  24.448  1.00  0.00    -0.049 A 
ATOM      9  H   UNL     1     -49.557  28.372  22.767  1.00  0.00     0.066 H 
ATOM     10  C   UNL     1     -47.517  31.380  23.930  1.00  0.00     0.073 A 
ATOM     11  C   UNL     1     -48.318  30.723  24.880  1.00  0.00     0.000 A 
ATOM     12  H   UNL     1     -49.700  29.074  25.132  1.00  0.00     0.063 H 
ATOM     13  C   UNL     1     -46.786  32.482  24.341  1.00  0.00    -0.032 A 
ATOM     14  C   UNL     1     -48.364  31.186  26.209  1.00  0.00    -0.053 A 
ATOM     15  H   UNL     1     -46.176  32.995  23.598  1.00  0.00     0.065 H 
ATOM     16  C   UNL     1     -47.624  32.304  26.595  1.00  0.00    -0.058 A 
ATOM     17  H   UNL     1     -48.983  30.679  26.946  1.00  0.00     0.063 H 
ATOM     18  H   UNL     1     -47.677  32.653  27.623  1.00  0.00     0.063 H 
BRANCH   5  19
ATOM     19  N   UNL     1     -48.105  29.493  20.898  1.00  0.00    -0.370 N 
ATOM     20  H   UNL     1     -47.228  29.820  20.501  1.00  0.00     0.162 HD
BRANCH  19  21
ATOM     21  C   UNL     1     -49.242  29.902  20.072  1.00  0.00     0.013 C 
ATOM     22  H   UNL     1     -49.483  29.164  19.298  1.00  0.00     0.049 H 
ATOM     23  H   UNL     1     -50.121  29.953  20.726  1.00  0.00     0.049 H 
BRANCH  21  24
ATOM     24  C   UNL     1     -49.025  31.284  19.476  1.00  0.00    -0.048 C 
ATOM     25  H   UNL     1     -49.740  31.502  18.676  1.00  0.00     0.025 H 
ATOM     26  H   UNL     1     -48.018  31.375  19.056  1.00  0.00     0.025 H 
ATOM     27  H   UNL     1     -49.141  32.050  20.248  1.00  0.00     0.025 H 
ENDBRANCH  21  24
ENDBRANCH  19  21
ENDBRANCH   5  19
ENDBRANCH   1   4
BRANCH   1  28
ATOM     28  C   UNL     1     -46.195  34.620  27.498  1.00  0.00    -0.005 C 
ATOM     29  H   UNL     1     -45.228  34.503  28.000  1.00  0.00     0.034 H 
ATOM     30  H   UNL     1     -46.895  33.933  27.990  1.00  0.00     0.034 H 
BRANCH  28  31
ATOM     31  C   UNL     1     -46.656  36.039  27.710  1.00  0.00     0.061 A 
ATOM     32  C   UNL     1     -47.998  36.326  27.918  1.00  0.00     0.049 A 
ATOM     33  N   UNL     1     -45.727  37.026  27.716  1.00  0.00    -0.232 NA
ATOM     34  N   UNL     1     -48.460  37.583  28.093  1.00  0.00    -0.259 NA
ATOM     35  H   UNL     1     -48.752  35.546  27.941  1.00  0.00     0.086 H 
ATOM     36  C   UNL     1     -46.165  38.305  27.835  1.00  0.00     0.157 A 
ATOM     37  C   UNL     1     -47.519  38.560  28.031  1.00  0.00     0.070 A 
ATOM     38  H   UNL     1     -47.930  39.554  28.148  1.00  0.00     0.088 H 
BRANCH  36  39
ATOM     39  N   UNL     1     -45.227  39.381  27.719  1.00  0.00    -0.284 N 
ATOM     40  C   UNL     1     -45.176  40.317  26.695  1.00  0.00     0.019 A 
ATOM     41  C   UNL     1     -44.179  39.662  28.592  1.00  0.00     0.151 A 
ATOM     42  C   UNL     1     -44.109  41.179  26.888  1.00  0.00     0.012 A 
ATOM     43  H   UNL     1     -45.884  40.297  25.881  1.00  0.00     0.083 H 
ATOM     44  C   UNL     1     -43.469  40.752  28.095  1.00  0.00     0.067 A 
ATOM     45  N   UNL     1     -43.878  39.002  29.729  1.00  0.00    -0.218 NA
ATOM     46  C   UNL     1     -42.347  41.168  28.833  1.00  0.00     0.136 A 
ATOM     47  C   UNL     1     -42.792  39.485  30.339  1.00  0.00     0.120 A 
ATOM     48  N   UNL     1     -42.024  40.519  29.964  1.00  0.00    -0.219 NA
ATOM     49  H   UNL     1     -42.495  38.979  31.253  1.00  0.00     0.106 H 
BRANCH  42  50
ATOM     50  C   UNL     1     -43.659  42.305  26.002  1.00  0.00     0.085 C 
ATOM     51  C   UNL     1     -44.450  42.485  24.712  1.00  0.00    -0.020 C 
ATOM     52  O   UNL     1     -43.731  43.580  26.684  1.00  0.00    -0.373 OA
ATOM     53  H   UNL     1     -42.601  42.146  25.755  1.00  0.00     0.066 H 
ATOM     54  C   UNL     1     -44.209  43.939  24.397  1.00  0.00    -0.027 C 
ATOM     55  H   UNL     1     -45.525  42.328  24.872  1.00  0.00     0.030 H 
ATOM     56  H   UNL     1     -44.125  41.808  23.916  1.00  0.00     0.030 H 
ATOM     57  C   UNL     1     -44.257  44.558  25.775  1.00  0.00     0.048 C 
ATOM     58  H   UNL     1     -43.211  44.065  23.962  1.00  0.00     0.029 H 
ATOM     59  H   UNL     1     -44.943  44.369  23.710  1.00  0.00     0.029 H 
ATOM     60  H   UNL     1     -43.671  45.478  25.844  1.00  0.00     0.057 H 
ATOM     61  H   UNL     1     -45.287  44.775  26.077  1.00  0.00     0.057 H 
ENDBRANCH  42  50
BRANCH  46  62
ATOM     62  N   UNL     1     -41.545  42.246  28.472  1.00  0.00    -0.383 N 
ATOM     63  H   UNL     1     -40.656  41.909  28.123  1.00  0.00     0.158 HD
ATOM     64  H   UNL     1     -41.486  42.945  29.213  1.00  0.00     0.158 HD
ENDBRANCH  46  62
ENDBRANCH  36  39
ENDBRANCH  28  31
ENDBRANCH   1  28
TORSDOF 9
ENDMDL
MODEL 7
REMARK VINA RESULT:      -9.6      3.886     11.685
REMARK SMILES CCNc1ccc2ccc(CCc3cncc(-n4cc([C@H]5CCCO5)c5c(N)ncnc54)n3)cc2n1
REMARK SMILES IDX 11 1 10 4 4 5 5 6 36 7 6 8 35 10 7 11 34 13 8 14 9 16 3 19
REMARK SMILES IDX 2 21 1 24 12 28 13 31 14 32 33 33 15 34 17 36 16 37 18 39
REMARK SMILES IDX 19 40 32 41 20 42 26 44 31 45 27 46 30 47 29 48 21 50 22 51
REMARK SMILES IDX 25 52 23 54 24 57 28 62
REMARK H PARENT 11 2 11 3 5 9 6 12 34 15 8 17 9 18 3 20 2 22 2 23 1 25 1 26
REMARK H PARENT 1 27 12 29 12 30 14 35 16 38 19 43 30 49 21 53 22 55 22 56
REMARK H PARENT 23 58 23 59 24 60 24 61 28 63 28 64
REMARK Flexibility Score: inf
ROOT
ATOM      1  C   UNL     1     -47.099  34.063  27.010  1.00  0.00    -0.022 C 
ATOM      2  H   UNL     1     -47.901  34.092  27.759  1.00  0.00     0.032 H 
ATOM      3  H   UNL     1     -46.175  33.887  27.577  1.00  0.00     0.032 H 
ENDROOT
BRANCH   1   4
ATOM      4  C   UNL     1     -47.359  32.899  26.080  1.00  0.00    -0.045 A 
ATOM      5  C   UNL     1     -46.447  30.827  21.881  1.00  0.00     0.126 A 
ATOM      6  C   UNL     1     -47.373  29.818  22.124  1.00  0.00    -0.019 A 
ATOM      7  N   UNL     1     -46.227  31.805  22.777  1.00  0.00    -0.231 NA
ATOM      8  C   UNL     1     -48.078  29.810  23.326  1.00  0.00    -0.049 A 
ATOM      9  H   UNL     1     -47.556  29.051  21.381  1.00  0.00     0.066 H 
ATOM     10  C   UNL     1     -46.906  31.807  23.938  1.00  0.00     0.073 A 
ATOM     11  C   UNL     1     -47.851  30.820  24.264  1.00  0.00     0.000 A 
ATOM     12  H   UNL     1     -48.802  29.024  23.515  1.00  0.00     0.063 H 
ATOM     13  C   UNL     1     -46.675  32.820  24.855  1.00  0.00    -0.032 A 
ATOM     14  C   UNL     1     -48.537  30.873  25.493  1.00  0.00    -0.053 A 
ATOM     15  H   UNL     1     -45.951  33.590  24.593  1.00  0.00     0.065 H 
ATOM     16  C   UNL     1     -48.292  31.909  26.395  1.00  0.00    -0.058 A 
ATOM     17  H   UNL     1     -49.268  30.110  25.747  1.00  0.00     0.063 H 
ATOM     18  H   UNL     1     -48.835  31.939  27.336  1.00  0.00     0.063 H 
BRANCH   5  19
ATOM     19  N   UNL     1     -45.766  30.817  20.649  1.00  0.00    -0.370 N 
ATOM     20  H   UNL     1     -44.771  30.864  20.845  1.00  0.00     0.162 HD
BRANCH  19  21
ATOM     21  C   UNL     1     -46.165  31.860  19.702  1.00  0.00     0.013 C 
ATOM     22  H   UNL     1     -45.803  32.853  19.997  1.00  0.00     0.049 H 
ATOM     23  H   UNL     1     -45.683  31.635  18.743  1.00  0.00     0.049 H 
BRANCH  21  24
ATOM     24  C   UNL     1     -47.669  31.860  19.478  1.00  0.00    -0.048 C 
ATOM     25  H   UNL     1     -48.019  30.920  19.041  1.00  0.00     0.025 H 
ATOM     26  H   UNL     1     -47.963  32.671  18.802  1.00  0.00     0.025 H 
ATOM     27  H   UNL     1     -48.192  32.005  20.428  1.00  0.00     0.025 H 
ENDBRANCH  21  24
ENDBRANCH  19  21
ENDBRANCH   5  19
ENDBRANCH   1   4
BRANCH   1  28
ATOM     28  C   UNL     1     -47.034  35.421  26.296  1.00  0.00    -0.005 C 
ATOM     29  H   UNL     1     -48.002  35.625  25.825  1.00  0.00     0.034 H 
ATOM     30  H   UNL     1     -46.293  35.362  25.487  1.00  0.00     0.034 H 
BRANCH  28  31
ATOM     31  C   UNL     1     -46.701  36.585  27.193  1.00  0.00     0.061 A 
ATOM     32  C   UNL     1     -46.605  36.417  28.567  1.00  0.00     0.049 A 
ATOM     33  N   UNL     1     -46.478  37.795  26.624  1.00  0.00    -0.232 NA
ATOM     34  N   UNL     1     -46.329  37.435  29.411  1.00  0.00    -0.259 NA
ATOM     35  H   UNL     1     -46.757  35.452  29.037  1.00  0.00     0.086 H 
ATOM     36  C   UNL     1     -46.252  38.849  27.449  1.00  0.00     0.157 A 
ATOM     37  C   UNL     1     -46.172  38.649  28.824  1.00  0.00     0.070 A 
ATOM     38  H   UNL     1     -45.980  39.443  29.534  1.00  0.00     0.088 H 
BRANCH  36  39
ATOM     39  N   UNL     1     -46.136  40.163  26.892  1.00  0.00    -0.284 N 
ATOM     40  C   UNL     1     -44.957  40.794  26.520  1.00  0.00     0.019 A 
ATOM     41  C   UNL     1     -47.178  41.056  26.656  1.00  0.00     0.151 A 
ATOM     42  C   UNL     1     -45.222  42.075  26.065  1.00  0.00     0.012 A 
ATOM     43  H   UNL     1     -44.001  40.303  26.623  1.00  0.00     0.083 H 
ATOM     44  C   UNL     1     -46.640  42.242  26.163  1.00  0.00     0.067 A 
ATOM     45  N   UNL     1     -48.492  40.835  26.866  1.00  0.00    -0.218 NA
ATOM     46  C   UNL     1     -47.546  43.282  25.889  1.00  0.00     0.136 A 
ATOM     47  C   UNL     1     -49.251  41.896  26.576  1.00  0.00     0.120 A 
ATOM     48  N   UNL     1     -48.859  43.088  26.100  1.00  0.00    -0.219 NA
ATOM     49  H   UNL     1     -50.317  41.778  26.742  1.00  0.00     0.106 H 
BRANCH  42  50
ATOM     50  C   UNL     1     -44.241  43.115  25.609  1.00  0.00     0.085 C 
ATOM     51  C   UNL     1     -42.772  42.781  25.838  1.00  0.00    -0.020 C 
ATOM     52  O   UNL     1     -44.364  43.377  24.190  1.00  0.00    -0.373 OA
ATOM     53  H   UNL     1     -44.479  44.059  26.119  1.00  0.00     0.066 H 
ATOM     54  C   UNL     1     -42.091  43.626  24.792  1.00  0.00    -0.027 C 
ATOM     55  H   UNL     1     -42.562  41.723  25.634  1.00  0.00     0.030 H 
ATOM     56  H   UNL     1     -42.440  43.001  26.858  1.00  0.00     0.030 H 
ATOM     57  C   UNL     1     -43.048  43.495  23.630  1.00  0.00     0.048 C 
ATOM     58  H   UNL     1     -42.047  44.669  25.128  1.00  0.00     0.029 H 
ATOM     59  H   UNL     1     -41.077  43.296  24.551  1.00  0.00     0.029 H 
ATOM     60  H   UNL     1     -43.011  44.354  22.954  1.00  0.00     0.057 H 
ATOM     61  H   UNL     1     -42.849  42.586  23.052  1.00  0.00     0.057 H 
ENDBRANCH  42  50
BRANCH  46  62
ATOM     62  N   UNL     1     -47.164  44.521  25.383  1.00  0.00    -0.383 N 
ATOM     63  H   UNL     1     -47.986  45.074  25.173  1.00  0.00     0.158 HD
ATOM     64  H   UNL     1     -46.492  44.432  24.620  1.00  0.00     0.158 HD
ENDBRANCH  46  62
ENDBRANCH  36  39
ENDBRANCH  28  31
ENDBRANCH   1  28
TORSDOF 9
ENDMDL
