MODEL 1
REMARK VINA RESULT:     -11.2      0.000      0.000
REMARK SMILES Nc1ncnc2c1ccn2[C@@H]1O[C@H](COc2ccc3ccc(N4CC(N)C4)nc3c2)[C@@H](O)[C@@H]1F
REMARK SMILES IDX 14 1 13 4 11 5 12 6 33 7 31 9 34 10 10 14 2 15 3 16 7 17
REMARK SMILES IDX 4 18 6 19 8 20 5 21 9 23 1 26 32 29 15 31 16 32 17 33 30 34
REMARK SMILES IDX 18 35 29 37 19 39 28 41 20 42 22 43 21 44 23 47 24 48 27 49
REMARK SMILES IDX 25 50 26 56
REMARK H PARENT 14 2 14 3 11 8 33 11 13 12 31 13 4 22 8 24 9 25 1 27 1 28
REMARK H PARENT 32 30 17 36 30 38 18 40 20 45 21 46 24 51 24 52 27 53 27 54
REMARK H PARENT 25 55 26 57 26 58
REMARK Flexibility Score: inf
ROOT
ATOM      1  C   UNL     1     -47.580  36.247  27.234  1.00  0.00     0.117 C 
ATOM      2  H   UNL     1     -47.144  36.335  26.232  1.00  0.00     0.073 H 
ATOM      3  H   UNL     1     -48.194  37.129  27.455  1.00  0.00     0.073 H 
ENDROOT
BRANCH   1   4
ATOM      4  C   UNL     1     -46.431  36.162  28.254  1.00  0.00     0.123 C 
ATOM      5  C   UNL     1     -45.025  37.951  28.776  1.00  0.00     0.169 C 
ATOM      6  O   UNL     1     -45.306  36.942  27.788  1.00  0.00    -0.345 OA
ATOM      7  C   UNL     1     -46.216  38.057  29.716  1.00  0.00     0.173 C 
ATOM      8  H   UNL     1     -44.159  37.572  29.333  1.00  0.00     0.088 H 
ATOM      9  C   UNL     1     -46.779  36.653  29.665  1.00  0.00     0.119 C 
ATOM     10  F   UNL     1     -47.145  38.945  29.285  1.00  0.00    -0.239 F 
ATOM     11  H   UNL     1     -45.906  38.371  30.718  1.00  0.00     0.074 H 
ATOM     12  H   UNL     1     -46.078  35.124  28.274  1.00  0.00     0.067 H 
ATOM     13  H   UNL     1     -47.848  36.610  29.893  1.00  0.00     0.066 H 
BRANCH   5  14
ATOM     14  N   UNL     1     -44.611  39.198  28.155  1.00  0.00    -0.303 N 
ATOM     15  C   UNL     1     -42.631  42.128  27.993  1.00  0.00     0.136 A 
ATOM     16  N   UNL     1     -41.890  42.035  29.114  1.00  0.00    -0.219 NA
ATOM     17  C   UNL     1     -43.562  41.121  27.704  1.00  0.00     0.061 A 
ATOM     18  C   UNL     1     -42.092  40.972  29.917  1.00  0.00     0.120 A 
ATOM     19  C   UNL     1     -43.661  40.077  28.616  1.00  0.00     0.147 A 
ATOM     20  C   UNL     1     -44.498  40.858  26.666  1.00  0.00    -0.031 A 
ATOM     21  N   UNL     1     -42.947  39.954  29.745  1.00  0.00    -0.218 NA
ATOM     22  H   UNL     1     -41.483  40.934  30.815  1.00  0.00     0.106 H 
ATOM     23  C   UNL     1     -45.128  39.668  26.965  1.00  0.00     0.009 A 
ATOM     24  H   UNL     1     -44.691  41.474  25.799  1.00  0.00     0.065 H 
ATOM     25  H   UNL     1     -45.900  39.125  26.435  1.00  0.00     0.082 H 
BRANCH  15  26
ATOM     26  N   UNL     1     -42.402  43.225  27.171  1.00  0.00    -0.383 N 
ATOM     27  H   UNL     1     -43.241  43.652  26.805  1.00  0.00     0.158 HD
ATOM     28  H   UNL     1     -41.676  43.010  26.498  1.00  0.00     0.158 HD
ENDBRANCH  15  26
ENDBRANCH   5  14
BRANCH   9  29
ATOM     29  O   UNL     1     -46.094  35.857  30.648  1.00  0.00    -0.387 OA
ATOM     30  H   UNL     1     -45.156  36.118  30.634  1.00  0.00     0.211 HD
ENDBRANCH   9  29
ENDBRANCH   1   4
BRANCH   1  31
ATOM     31  O   UNL     1     -48.373  35.063  27.269  1.00  0.00    -0.491 OA
BRANCH  31  32
ATOM     32  C   UNL     1     -48.018  34.042  26.435  1.00  0.00     0.121 A 
ATOM     33  C   UNL     1     -46.823  34.246  25.748  1.00  0.00    -0.019 A 
ATOM     34  C   UNL     1     -48.740  32.867  26.225  1.00  0.00     0.007 A 
ATOM     35  C   UNL     1     -46.349  33.277  24.868  1.00  0.00    -0.049 A 
ATOM     36  H   UNL     1     -46.256  35.159  25.915  1.00  0.00     0.066 H 
ATOM     37  C   UNL     1     -48.291  31.883  25.352  1.00  0.00     0.076 A 
ATOM     38  H   UNL     1     -49.680  32.682  26.734  1.00  0.00     0.069 H 
ATOM     39  C   UNL     1     -47.077  32.096  24.668  1.00  0.00     0.001 A 
ATOM     40  H   UNL     1     -45.411  33.449  24.345  1.00  0.00     0.063 H 
ATOM     41  N   UNL     1     -49.023  30.767  25.189  1.00  0.00    -0.231 NA
ATOM     42  C   UNL     1     -46.639  31.098  23.794  1.00  0.00    -0.049 A 
ATOM     43  C   UNL     1     -48.586  29.802  24.347  1.00  0.00     0.129 A 
ATOM     44  C   UNL     1     -47.402  29.945  23.632  1.00  0.00    -0.019 A 
ATOM     45  H   UNL     1     -45.714  31.210  23.236  1.00  0.00     0.063 H 
ATOM     46  H   UNL     1     -47.072  29.173  22.946  1.00  0.00     0.066 H 
BRANCH  43  47
ATOM     47  N   UNL     1     -49.370  28.647  24.184  1.00  0.00    -0.353 N 
ATOM     48  C   UNL     1     -49.138  27.647  23.173  1.00  0.00     0.036 C 
ATOM     49  C   UNL     1     -50.798  28.603  23.992  1.00  0.00     0.036 C 
ATOM     50  C   UNL     1     -50.599  27.198  23.386  1.00  0.00     0.040 C 
ATOM     51  H   UNL     1     -48.349  26.937  23.437  1.00  0.00     0.051 H 
ATOM     52  H   UNL     1     -48.938  28.082  22.187  1.00  0.00     0.051 H 
ATOM     53  H   UNL     1     -51.367  28.673  24.922  1.00  0.00     0.051 H 
ATOM     54  H   UNL     1     -51.147  29.358  23.279  1.00  0.00     0.051 H 
ATOM     55  H   UNL     1     -51.176  26.966  22.488  1.00  0.00     0.050 H 
BRANCH  50  56
ATOM     56  N   UNL     1     -50.671  26.179  24.451  1.00  0.00    -0.325 NA
ATOM     57  H   UNL     1     -51.060  25.292  24.132  1.00  0.00     0.119 HD
ATOM     58  H   UNL     1     -49.744  25.945  24.816  1.00  0.00     0.119 HD
ENDBRANCH  50  56
ENDBRANCH  43  47
ENDBRANCH  31  32
ENDBRANCH   1  31
TORSDOF 8
ENDMDL
MODEL 2
REMARK VINA RESULT:     -10.2      2.631     10.677
REMARK SMILES Nc1ncnc2c1ccn2[C@@H]1O[C@H](COc2ccc3ccc(N4CC(N)C4)nc3c2)[C@@H](O)[C@@H]1F
REMARK SMILES IDX 14 1 13 4 11 5 12 6 33 7 31 9 34 10 10 14 2 15 3 16 7 17
REMARK SMILES IDX 4 18 6 19 8 20 5 21 9 23 1 26 32 29 15 31 16 32 17 33 30 34
REMARK SMILES IDX 18 35 29 37 19 39 28 41 20 42 22 43 21 44 23 47 24 48 27 49
REMARK SMILES IDX 25 50 26 56
REMARK H PARENT 14 2 14 3 11 8 33 11 13 12 31 13 4 22 8 24 9 25 1 27 1 28
REMARK H PARENT 32 30 17 36 30 38 18 40 20 45 21 46 24 51 24 52 27 53 27 54
REMARK H PARENT 25 55 26 57 26 58
REMARK Flexibility Score: inf
ROOT
ATOM      1  C   UNL     1     -48.323  35.841  27.078  1.00  0.00     0.117 C 
ATOM      2  H   UNL     1     -49.374  35.554  26.960  1.00  0.00     0.073 H 
ATOM      3  H   UNL     1     -47.925  36.212  26.126  1.00  0.00     0.073 H 
ENDROOT
BRANCH   1   4
ATOM      4  C   UNL     1     -47.528  34.595  27.507  1.00  0.00     0.123 C 
ATOM      5  C   UNL     1     -47.290  32.688  26.182  1.00  0.00     0.169 C 
ATOM      6  O   UNL     1     -48.199  33.403  27.040  1.00  0.00    -0.345 OA
ATOM      7  C   UNL     1     -46.150  33.618  25.797  1.00  0.00     0.173 C 
ATOM      8  H   UNL     1     -46.896  31.872  26.800  1.00  0.00     0.088 H 
ATOM      9  C   UNL     1     -46.083  34.540  26.996  1.00  0.00     0.119 C 
ATOM     10  F   UNL     1     -46.415  34.335  24.677  1.00  0.00    -0.239 F 
ATOM     11  H   UNL     1     -45.226  33.062  25.616  1.00  0.00     0.074 H 
ATOM     12  H   UNL     1     -47.560  34.538  28.602  1.00  0.00     0.067 H 
ATOM     13  H   UNL     1     -45.663  35.522  26.760  1.00  0.00     0.066 H 
BRANCH   5  14
ATOM     14  N   UNL     1     -47.991  32.070  25.068  1.00  0.00    -0.303 N 
ATOM     15  C   UNL     1     -48.095  30.208  22.059  1.00  0.00     0.136 A 
ATOM     16  N   UNL     1     -46.790  29.971  21.824  1.00  0.00    -0.219 NA
ATOM     17  C   UNL     1     -48.463  30.942  23.196  1.00  0.00     0.061 A 
ATOM     18  C   UNL     1     -45.891  30.468  22.697  1.00  0.00     0.120 A 
ATOM     19  C   UNL     1     -47.432  31.387  24.015  1.00  0.00     0.147 A 
ATOM     20  C   UNL     1     -49.680  31.387  23.778  1.00  0.00    -0.031 A 
ATOM     21  N   UNL     1     -46.122  31.178  23.810  1.00  0.00    -0.218 NA
ATOM     22  H   UNL     1     -44.849  30.265  22.471  1.00  0.00     0.106 H 
ATOM     23  C   UNL     1     -49.364  32.076  24.930  1.00  0.00     0.009 A 
ATOM     24  H   UNL     1     -50.677  31.225  23.394  1.00  0.00     0.065 H 
ATOM     25  H   UNL     1     -49.998  32.571  25.654  1.00  0.00     0.082 H 
BRANCH  15  26
ATOM     26  N   UNL     1     -49.009  29.680  21.155  1.00  0.00    -0.383 N 
ATOM     27  H   UNL     1     -49.090  28.674  21.186  1.00  0.00     0.158 HD
ATOM     28  H   UNL     1     -48.873  30.093  20.241  1.00  0.00     0.158 HD
ENDBRANCH  15  26
ENDBRANCH   5  14
BRANCH   9  29
ATOM     29  O   UNL     1     -45.232  33.932  27.983  1.00  0.00    -0.387 OA
ATOM     30  H   UNL     1     -45.065  33.015  27.701  1.00  0.00     0.211 HD
ENDBRANCH   9  29
ENDBRANCH   1   4
BRANCH   1  31
ATOM     31  O   UNL     1     -48.250  36.853  28.079  1.00  0.00    -0.491 OA
BRANCH  31  32
ATOM     32  C   UNL     1     -47.208  37.734  28.010  1.00  0.00     0.121 A 
ATOM     33  C   UNL     1     -46.282  37.616  29.044  1.00  0.00    -0.019 A 
ATOM     34  C   UNL     1     -47.019  38.705  27.025  1.00  0.00     0.007 A 
ATOM     35  C   UNL     1     -45.171  38.454  29.087  1.00  0.00    -0.049 A 
ATOM     36  H   UNL     1     -46.424  36.856  29.809  1.00  0.00     0.066 H 
ATOM     37  C   UNL     1     -45.920  39.555  27.043  1.00  0.00     0.076 A 
ATOM     38  H   UNL     1     -47.728  38.831  26.213  1.00  0.00     0.069 H 
ATOM     39  C   UNL     1     -44.986  39.422  28.089  1.00  0.00     0.001 A 
ATOM     40  H   UNL     1     -44.454  38.344  29.897  1.00  0.00     0.063 H 
ATOM     41  N   UNL     1     -45.784  40.471  26.068  1.00  0.00    -0.231 NA
ATOM     42  C   UNL     1     -43.887  40.284  28.093  1.00  0.00    -0.049 A 
ATOM     43  C   UNL     1     -44.711  41.295  26.075  1.00  0.00     0.129 A 
ATOM     44  C   UNL     1     -43.752  41.228  27.080  1.00  0.00    -0.019 A 
ATOM     45  H   UNL     1     -43.138  40.231  28.878  1.00  0.00     0.063 H 
ATOM     46  H   UNL     1     -42.907  41.907  27.085  1.00  0.00     0.066 H 
BRANCH  43  47
ATOM     47  N   UNL     1     -44.592  42.251  25.052  1.00  0.00    -0.353 N 
ATOM     48  C   UNL     1     -43.390  42.998  24.778  1.00  0.00     0.036 C 
ATOM     49  C   UNL     1     -45.431  43.406  24.859  1.00  0.00     0.036 C 
ATOM     50  C   UNL     1     -44.280  44.014  24.030  1.00  0.00     0.040 C 
ATOM     51  H   UNL     1     -42.656  42.441  24.189  1.00  0.00     0.051 H 
ATOM     52  H   UNL     1     -42.922  43.392  25.687  1.00  0.00     0.051 H 
ATOM     53  H   UNL     1     -46.365  43.186  24.335  1.00  0.00     0.051 H 
ATOM     54  H   UNL     1     -45.641  43.933  25.797  1.00  0.00     0.051 H 
ATOM     55  H   UNL     1     -44.063  45.071  24.197  1.00  0.00     0.050 H 
BRANCH  50  56
ATOM     56  N   UNL     1     -44.422  43.624  22.614  1.00  0.00    -0.325 NA
ATOM     57  H   UNL     1     -44.451  44.422  21.980  1.00  0.00     0.119 HD
ATOM     58  H   UNL     1     -43.629  43.061  22.294  1.00  0.00     0.119 HD
ENDBRANCH  50  56
ENDBRANCH  43  47
ENDBRANCH  31  32
ENDBRANCH   1  31
TORSDOF 8
ENDMDL
MODEL 3
REMARK VINA RESULT:      -9.8      3.471     11.235
REMARK SMILES Nc1ncnc2c1ccn2[C@@H]1O[C@H](COc2ccc3ccc(N4CC(N)C4)nc3c2)[C@@H](O)[C@@H]1F
REMARK SMILES IDX 14 1 13 4 11 5 12 6 33 7 31 9 34 10 10 14 2 15 3 16 7 17
REMARK SMILES IDX 4 18 6 19 8 20 5 21 9 23 1 26 32 29 15 31 16 32 17 33 30 34
REMARK SMILES IDX 18 35 29 37 19 39 28 41 20 42 22 43 21 44 23 47 24 48 27 49
REMARK SMILES IDX 25 50 26 56
REMARK H PARENT 14 2 14 3 11 8 33 11 13 12 31 13 4 22 8 24 9 25 1 27 1 28
REMARK H PARENT 32 30 17 36 30 38 18 40 20 45 21 46 24 51 24 52 27 53 27 54
REMARK H PARENT 25 55 26 57 26 58
REMARK Flexibility Score: inf
ROOT
ATOM      1  C   UNL     1     -46.010  31.716  22.888  1.00  0.00     0.117 C 
ATOM      2  H   UNL     1     -46.342  32.721  22.602  1.00  0.00     0.073 H 
ATOM      3  H   UNL     1     -44.920  31.699  23.005  1.00  0.00     0.073 H 
ENDROOT
BRANCH   1   4
ATOM      4  C   UNL     1     -46.414  30.738  21.771  1.00  0.00     0.123 C 
ATOM      5  C   UNL     1     -47.978  29.027  22.048  1.00  0.00     0.169 C 
ATOM      6  O   UNL     1     -46.621  29.420  22.328  1.00  0.00    -0.345 OA
ATOM      7  C   UNL     1     -48.764  30.259  21.627  1.00  0.00     0.173 C 
ATOM      8  H   UNL     1     -47.905  28.338  21.197  1.00  0.00     0.088 H 
ATOM      9  C   UNL     1     -47.686  31.119  21.004  1.00  0.00     0.119 C 
ATOM     10  F   UNL     1     -49.323  30.906  22.680  1.00  0.00    -0.239 F 
ATOM     11  H   UNL     1     -49.574  29.999  20.939  1.00  0.00     0.074 H 
ATOM     12  H   UNL     1     -45.560  30.637  21.090  1.00  0.00     0.067 H 
ATOM     13  H   UNL     1     -47.916  32.188  21.039  1.00  0.00     0.066 H 
BRANCH   5  14
ATOM     14  N   UNL     1     -48.547  28.272  23.151  1.00  0.00    -0.303 N 
ATOM     15  C   UNL     1     -48.296  26.149  25.973  1.00  0.00     0.136 A 
ATOM     16  N   UNL     1     -46.973  25.904  26.030  1.00  0.00    -0.219 NA
ATOM     17  C   UNL     1     -48.795  26.975  24.956  1.00  0.00     0.061 A 
ATOM     18  C   UNL     1     -46.187  26.462  25.088  1.00  0.00     0.120 A 
ATOM     19  C   UNL     1     -47.870  27.490  24.056  1.00  0.00     0.147 A 
ATOM     20  C   UNL     1     -50.073  27.460  24.565  1.00  0.00    -0.031 A 
ATOM     21  N   UNL     1     -46.548  27.263  24.076  1.00  0.00    -0.218 NA
ATOM     22  H   UNL     1     -45.128  26.236  25.160  1.00  0.00     0.106 H 
ATOM     23  C   UNL     1     -49.893  28.258  23.455  1.00  0.00     0.009 A 
ATOM     24  H   UNL     1     -51.019  27.245  25.041  1.00  0.00     0.065 H 
ATOM     25  H   UNL     1     -50.609  28.808  22.857  1.00  0.00     0.082 H 
BRANCH  15  26
ATOM     26  N   UNL     1     -49.090  25.574  26.958  1.00  0.00    -0.383 N 
ATOM     27  H   UNL     1     -50.056  25.869  26.938  1.00  0.00     0.158 HD
ATOM     28  H   UNL     1     -48.623  25.624  27.855  1.00  0.00     0.158 HD
ENDBRANCH  15  26
ENDBRANCH   5  14
BRANCH   9  29
ATOM     29  O   UNL     1     -47.559  30.748  19.620  1.00  0.00    -0.387 OA
ATOM     30  H   UNL     1     -48.129  31.346  19.104  1.00  0.00     0.211 HD
ENDBRANCH   9  29
ENDBRANCH   1   4
BRANCH   1  31
ATOM     31  O   UNL     1     -46.651  31.371  24.115  1.00  0.00    -0.491 OA
BRANCH  31  32
ATOM     32  C   UNL     1     -47.155  32.391  24.870  1.00  0.00     0.121 A 
ATOM     33  C   UNL     1     -48.427  32.154  25.386  1.00  0.00    -0.019 A 
ATOM     34  C   UNL     1     -46.518  33.603  25.142  1.00  0.00     0.007 A 
ATOM     35  C   UNL     1     -49.052  33.115  26.177  1.00  0.00    -0.049 A 
ATOM     36  H   UNL     1     -48.923  31.208  25.180  1.00  0.00     0.066 H 
ATOM     37  C   UNL     1     -47.118  34.580  25.927  1.00  0.00     0.076 A 
ATOM     38  H   UNL     1     -45.532  33.824  24.745  1.00  0.00     0.069 H 
ATOM     39  C   UNL     1     -48.401  34.327  26.450  1.00  0.00     0.001 A 
ATOM     40  H   UNL     1     -50.042  32.910  26.577  1.00  0.00     0.063 H 
ATOM     41  N   UNL     1     -46.459  35.728  26.161  1.00  0.00    -0.231 NA
ATOM     42  C   UNL     1     -48.991  35.318  27.237  1.00  0.00    -0.049 A 
ATOM     43  C   UNL     1     -47.034  36.679  26.932  1.00  0.00     0.129 A 
ATOM     44  C   UNL     1     -48.302  36.503  27.476  1.00  0.00    -0.019 A 
ATOM     45  H   UNL     1     -49.981  35.180  27.662  1.00  0.00     0.063 H 
ATOM     46  H   UNL     1     -48.760  37.282  28.077  1.00  0.00     0.066 H 
BRANCH  43  47
ATOM     47  N   UNL     1     -46.332  37.876  27.158  1.00  0.00    -0.353 N 
ATOM     48  C   UNL     1     -45.225  38.006  28.071  1.00  0.00     0.036 C 
ATOM     49  C   UNL     1     -46.900  39.137  27.565  1.00  0.00     0.036 C 
ATOM     50  C   UNL     1     -45.493  39.526  28.064  1.00  0.00     0.040 C 
ATOM     51  H   UNL     1     -44.275  37.659  27.656  1.00  0.00     0.051 H 
ATOM     52  H   UNL     1     -45.415  37.519  29.035  1.00  0.00     0.051 H 
ATOM     53  H   UNL     1     -47.318  39.717  26.738  1.00  0.00     0.051 H 
ATOM     54  H   UNL     1     -47.647  39.023  28.359  1.00  0.00     0.051 H 
ATOM     55  H   UNL     1     -45.440  40.038  29.028  1.00  0.00     0.050 H 
BRANCH  50  56
ATOM     56  N   UNL     1     -44.736  40.174  26.975  1.00  0.00    -0.325 NA
ATOM     57  H   UNL     1     -43.830  40.531  27.274  1.00  0.00     0.119 HD
ATOM     58  H   UNL     1     -44.525  39.517  26.218  1.00  0.00     0.119 HD
ENDBRANCH  50  56
ENDBRANCH  43  47
ENDBRANCH  31  32
ENDBRANCH   1  31
TORSDOF 8
ENDMDL
MODEL 4
REMARK VINA RESULT:      -9.6      2.242      2.986
REMARK SMILES Nc1ncnc2c1ccn2[C@@H]1O[C@H](COc2ccc3ccc(N4CC(N)C4)nc3c2)[C@@H](O)[C@@H]1F
REMARK SMILES IDX 14 1 13 4 11 5 12 6 33 7 31 9 34 10 10 14 2 15 3 16 7 17
REMARK SMILES IDX 4 18 6 19 8 20 5 21 9 23 1 26 32 29 15 31 16 32 17 33 30 34
REMARK SMILES IDX 18 35 29 37 19 39 28 41 20 42 22 43 21 44 23 47 24 48 27 49
REMARK SMILES IDX 25 50 26 56
REMARK H PARENT 14 2 14 3 11 8 33 11 13 12 31 13 4 22 8 24 9 25 1 27 1 28
REMARK H PARENT 32 30 17 36 30 38 18 40 20 45 21 46 24 51 24 52 27 53 27 54
REMARK H PARENT 25 55 26 57 26 58
REMARK Flexibility Score: inf
ROOT
ATOM      1  C   UNL     1     -46.265  36.869  28.350  1.00  0.00     0.117 C 
ATOM      2  H   UNL     1     -46.810  36.070  28.867  1.00  0.00     0.073 H 
ATOM      3  H   UNL     1     -45.204  36.841  28.627  1.00  0.00     0.073 H 
ENDROOT
BRANCH   1   4
ATOM      4  C   UNL     1     -46.864  38.219  28.781  1.00  0.00     0.123 C 
ATOM      5  C   UNL     1     -46.188  40.275  27.908  1.00  0.00     0.169 C 
ATOM      6  O   UNL     1     -45.825  39.223  28.821  1.00  0.00    -0.345 OA
ATOM      7  C   UNL     1     -47.292  39.768  26.994  1.00  0.00     0.173 C 
ATOM      8  H   UNL     1     -46.585  41.079  28.541  1.00  0.00     0.088 H 
ATOM      9  C   UNL     1     -47.983  38.750  27.876  1.00  0.00     0.119 C 
ATOM     10  F   UNL     1     -46.812  39.164  25.879  1.00  0.00    -0.239 F 
ATOM     11  H   UNL     1     -47.945  40.583  26.667  1.00  0.00     0.074 H 
ATOM     12  H   UNL     1     -47.211  38.116  29.816  1.00  0.00     0.067 H 
ATOM     13  H   UNL     1     -48.497  37.969  27.309  1.00  0.00     0.066 H 
BRANCH   5  14
ATOM     14  N   UNL     1     -45.020  40.814  27.231  1.00  0.00    -0.303 N 
ATOM     15  C   UNL     1     -41.610  41.760  27.111  1.00  0.00     0.136 A 
ATOM     16  N   UNL     1     -41.195  41.495  28.365  1.00  0.00    -0.219 NA
ATOM     17  C   UNL     1     -42.946  41.509  26.766  1.00  0.00     0.061 A 
ATOM     18  C   UNL     1     -42.098  41.006  29.238  1.00  0.00     0.120 A 
ATOM     19  C   UNL     1     -43.766  40.997  27.764  1.00  0.00     0.147 A 
ATOM     20  C   UNL     1     -43.745  41.646  25.598  1.00  0.00    -0.031 A 
ATOM     21  N   UNL     1     -43.391  40.728  29.024  1.00  0.00    -0.218 NA
ATOM     22  H   UNL     1     -41.731  40.812  30.241  1.00  0.00     0.106 H 
ATOM     23  C   UNL     1     -45.015  41.209  25.909  1.00  0.00     0.009 A 
ATOM     24  H   UNL     1     -43.426  42.027  24.638  1.00  0.00     0.065 H 
ATOM     25  H   UNL     1     -45.911  41.152  25.304  1.00  0.00     0.082 H 
BRANCH  15  26
ATOM     26  N   UNL     1     -40.664  42.253  26.221  1.00  0.00    -0.383 N 
ATOM     27  H   UNL     1     -40.043  41.552  25.844  1.00  0.00     0.158 HD
ATOM     28  H   UNL     1     -40.228  43.084  26.601  1.00  0.00     0.158 HD
ENDBRANCH  15  26
ENDBRANCH   5  14
BRANCH   9  29
ATOM     29  O   UNL     1     -48.972  39.435  28.664  1.00  0.00    -0.387 OA
ATOM     30  H   UNL     1     -48.690  40.364  28.745  1.00  0.00     0.211 HD
ENDBRANCH   9  29
ENDBRANCH   1   4
BRANCH   1  31
ATOM     31  O   UNL     1     -46.421  36.674  26.946  1.00  0.00    -0.491 OA
BRANCH  31  32
ATOM     32  C   UNL     1     -46.965  35.492  26.531  1.00  0.00     0.121 A 
ATOM     33  C   UNL     1     -48.292  35.301  26.910  1.00  0.00    -0.019 A 
ATOM     34  C   UNL     1     -46.311  34.502  25.796  1.00  0.00     0.007 A 
ATOM     35  C   UNL     1     -48.962  34.136  26.546  1.00  0.00    -0.049 A 
ATOM     36  H   UNL     1     -48.805  36.073  27.479  1.00  0.00     0.066 H 
ATOM     37  C   UNL     1     -46.955  33.330  25.420  1.00  0.00     0.076 A 
ATOM     38  H   UNL     1     -45.274  34.614  25.495  1.00  0.00     0.069 H 
ATOM     39  C   UNL     1     -48.299  33.150  25.801  1.00  0.00     0.001 A 
ATOM     40  H   UNL     1     -50.000  34.006  26.844  1.00  0.00     0.063 H 
ATOM     41  N   UNL     1     -46.280  32.410  24.708  1.00  0.00    -0.231 NA
ATOM     42  C   UNL     1     -48.933  31.967  25.416  1.00  0.00    -0.049 A 
ATOM     43  C   UNL     1     -46.905  31.271  24.331  1.00  0.00     0.129 A 
ATOM     44  C   UNL     1     -48.228  31.021  24.678  1.00  0.00    -0.019 A 
ATOM     45  H   UNL     1     -49.967  31.772  25.687  1.00  0.00     0.063 H 
ATOM     46  H   UNL     1     -48.712  30.095  24.386  1.00  0.00     0.066 H 
BRANCH  43  47
ATOM     47  N   UNL     1     -46.179  30.319  23.594  1.00  0.00    -0.353 N 
ATOM     48  C   UNL     1     -45.618  30.560  22.289  1.00  0.00     0.036 C 
ATOM     49  C   UNL     1     -46.626  28.998  23.230  1.00  0.00     0.036 C 
ATOM     50  C   UNL     1     -45.565  29.028  22.109  1.00  0.00     0.040 C 
ATOM     51  H   UNL     1     -44.667  31.098  22.317  1.00  0.00     0.051 H 
ATOM     52  H   UNL     1     -46.319  31.069  21.616  1.00  0.00     0.051 H 
ATOM     53  H   UNL     1     -46.497  28.258  24.024  1.00  0.00     0.051 H 
ATOM     54  H   UNL     1     -47.661  28.990  22.873  1.00  0.00     0.051 H 
ATOM     55  H   UNL     1     -45.870  28.638  21.137  1.00  0.00     0.050 H 
BRANCH  50  56
ATOM     56  N   UNL     1     -44.285  28.498  22.618  1.00  0.00    -0.325 NA
ATOM     57  H   UNL     1     -43.856  29.095  23.324  1.00  0.00     0.119 HD
ATOM     58  H   UNL     1     -44.405  27.591  23.076  1.00  0.00     0.119 HD
ENDBRANCH  50  56
ENDBRANCH  43  47
ENDBRANCH  31  32
ENDBRANCH   1  31
TORSDOF 8
ENDMDL
MODEL 5
REMARK VINA RESULT:      -9.5      1.572      2.287
REMARK SMILES Nc1ncnc2c1ccn2[C@@H]1O[C@H](COc2ccc3ccc(N4CC(N)C4)nc3c2)[C@@H](O)[C@@H]1F
REMARK SMILES IDX 14 1 13 4 11 5 12 6 33 7 31 9 34 10 10 14 2 15 3 16 7 17
REMARK SMILES IDX 4 18 6 19 8 20 5 21 9 23 1 26 32 29 15 31 16 32 17 33 30 34
REMARK SMILES IDX 18 35 29 37 19 39 28 41 20 42 22 43 21 44 23 47 24 48 27 49
REMARK SMILES IDX 25 50 26 56
REMARK H PARENT 14 2 14 3 11 8 33 11 13 12 31 13 4 22 8 24 9 25 1 27 1 28
REMARK H PARENT 32 30 17 36 30 38 18 40 20 45 21 46 24 51 24 52 27 53 27 54
REMARK H PARENT 25 55 26 57 26 58
REMARK Flexibility Score: inf
ROOT
ATOM      1  C   UNL     1     -46.840  34.826  27.702  1.00  0.00     0.117 C 
ATOM      2  H   UNL     1     -47.032  33.855  28.173  1.00  0.00     0.073 H 
ATOM      3  H   UNL     1     -45.768  35.057  27.738  1.00  0.00     0.073 H 
ENDROOT
BRANCH   1   4
ATOM      4  C   UNL     1     -47.615  35.902  28.482  1.00  0.00     0.123 C 
ATOM      5  C   UNL     1     -46.835  38.076  28.817  1.00  0.00     0.169 C 
ATOM      6  O   UNL     1     -46.693  36.710  29.248  1.00  0.00    -0.345 OA
ATOM      7  C   UNL     1     -47.595  38.095  27.501  1.00  0.00     0.173 C 
ATOM      8  H   UNL     1     -47.445  38.558  29.592  1.00  0.00     0.088 H 
ATOM      9  C   UNL     1     -48.452  36.853  27.617  1.00  0.00     0.119 C 
ATOM     10  F   UNL     1     -46.777  37.994  26.423  1.00  0.00    -0.239 F 
ATOM     11  H   UNL     1     -48.170  39.019  27.386  1.00  0.00     0.074 H 
ATOM     12  H   UNL     1     -48.242  35.392  29.224  1.00  0.00     0.067 H 
ATOM     13  H   UNL     1     -48.733  36.432  26.648  1.00  0.00     0.066 H 
BRANCH   5  14
ATOM     14  N   UNL     1     -45.554  38.762  28.806  1.00  0.00    -0.303 N 
ATOM     15  C   UNL     1     -43.342  41.280  27.664  1.00  0.00     0.136 A 
ATOM     16  N   UNL     1     -44.086  41.917  26.740  1.00  0.00    -0.219 NA
ATOM     17  C   UNL     1     -43.893  40.190  28.353  1.00  0.00     0.061 A 
ATOM     18  C   UNL     1     -45.335  41.463  26.513  1.00  0.00     0.120 A 
ATOM     19  C   UNL     1     -45.196  39.835  28.024  1.00  0.00     0.147 A 
ATOM     20  C   UNL     1     -43.456  39.288  29.360  1.00  0.00    -0.031 A 
ATOM     21  N   UNL     1     -45.965  40.439  27.106  1.00  0.00    -0.218 NA
ATOM     22  H   UNL     1     -45.903  41.996  25.757  1.00  0.00     0.106 H 
ATOM     23  C   UNL     1     -44.496  38.422  29.623  1.00  0.00     0.009 A 
ATOM     24  H   UNL     1     -42.486  39.272  29.837  1.00  0.00     0.065 H 
ATOM     25  H   UNL     1     -44.567  37.594  30.318  1.00  0.00     0.082 H 
BRANCH  15  26
ATOM     26  N   UNL     1     -42.061  41.767  27.893  1.00  0.00    -0.383 N 
ATOM     27  H   UNL     1     -41.737  42.428  27.201  1.00  0.00     0.158 HD
ATOM     28  H   UNL     1     -41.433  41.005  28.115  1.00  0.00     0.158 HD
ENDBRANCH  15  26
ENDBRANCH   5  14
BRANCH   9  29
ATOM     29  O   UNL     1     -49.666  37.207  28.304  1.00  0.00    -0.387 OA
ATOM     30  H   UNL     1     -50.308  36.491  28.151  1.00  0.00     0.211 HD
ENDBRANCH   9  29
ENDBRANCH   1   4
BRANCH   1  31
ATOM     31  O   UNL     1     -47.292  34.760  26.351  1.00  0.00    -0.491 OA
BRANCH  31  32
ATOM     32  C   UNL     1     -47.277  33.538  25.742  1.00  0.00     0.121 A 
ATOM     33  C   UNL     1     -46.374  33.429  24.687  1.00  0.00    -0.019 A 
ATOM     34  C   UNL     1     -48.074  32.444  26.080  1.00  0.00     0.007 A 
ATOM     35  C   UNL     1     -46.260  32.232  23.984  1.00  0.00    -0.049 A 
ATOM     36  H   UNL     1     -45.748  34.279  24.425  1.00  0.00     0.066 H 
ATOM     37  C   UNL     1     -47.982  31.238  25.396  1.00  0.00     0.076 A 
ATOM     38  H   UNL     1     -48.796  32.499  26.888  1.00  0.00     0.069 H 
ATOM     39  C   UNL     1     -47.060  31.136  24.335  1.00  0.00     0.001 A 
ATOM     40  H   UNL     1     -45.545  32.163  23.168  1.00  0.00     0.063 H 
ATOM     41  N   UNL     1     -48.771  30.213  25.765  1.00  0.00    -0.231 NA
ATOM     42  C   UNL     1     -46.980  29.918  23.658  1.00  0.00    -0.049 A 
ATOM     43  C   UNL     1     -48.679  29.034  25.108  1.00  0.00     0.129 A 
ATOM     44  C   UNL     1     -47.798  28.861  24.046  1.00  0.00    -0.019 A 
ATOM     45  H   UNL     1     -46.291  29.784  22.828  1.00  0.00     0.063 H 
ATOM     46  H   UNL     1     -47.748  27.917  23.516  1.00  0.00     0.066 H 
BRANCH  43  47
ATOM     47  N   UNL     1     -49.519  27.978  25.504  1.00  0.00    -0.353 N 
ATOM     48  C   UNL     1     -49.162  26.984  26.485  1.00  0.00     0.036 C 
ATOM     49  C   UNL     1     -50.127  26.999  24.638  1.00  0.00     0.036 C 
ATOM     50  C   UNL     1     -50.272  26.097  25.882  1.00  0.00     0.040 C 
ATOM     51  H   UNL     1     -49.292  27.324  27.516  1.00  0.00     0.051 H 
ATOM     52  H   UNL     1     -48.147  26.595  26.342  1.00  0.00     0.051 H 
ATOM     53  H   UNL     1     -51.047  27.348  24.161  1.00  0.00     0.051 H 
ATOM     54  H   UNL     1     -49.432  26.619  23.882  1.00  0.00     0.051 H 
ATOM     55  H   UNL     1     -50.037  25.039  25.749  1.00  0.00     0.050 H 
BRANCH  50  56
ATOM     56  N   UNL     1     -51.561  26.367  26.549  1.00  0.00    -0.325 NA
ATOM     57  H   UNL     1     -52.277  26.716  25.912  1.00  0.00     0.119 HD
ATOM     58  H   UNL     1     -51.962  25.519  26.958  1.00  0.00     0.119 HD
ENDBRANCH  50  56
ENDBRANCH  43  47
ENDBRANCH  31  32
ENDBRANCH   1  31
TORSDOF 8
ENDMDL
MODEL 6
REMARK VINA RESULT:      -9.3      1.886      2.885
REMARK SMILES Nc1ncnc2c1ccn2[C@@H]1O[C@H](COc2ccc3ccc(N4CC(N)C4)nc3c2)[C@@H](O)[C@@H]1F
REMARK SMILES IDX 14 1 13 4 11 5 12 6 33 7 31 9 34 10 10 14 2 15 3 16 7 17
REMARK SMILES IDX 4 18 6 19 8 20 5 21 9 23 1 26 32 29 15 31 16 32 17 33 30 34
REMARK SMILES IDX 18 35 29 37 19 39 28 41 20 42 22 43 21 44 23 47 24 48 27 49
REMARK SMILES IDX 25 50 26 56
REMARK H PARENT 14 2 14 3 11 8 33 11 13 12 31 13 4 22 8 24 9 25 1 27 1 28
REMARK H PARENT 32 30 17 36 30 38 18 40 20 45 21 46 24 51 24 52 27 53 27 54
REMARK H PARENT 25 55 26 57 26 58
REMARK Flexibility Score: inf
ROOT
ATOM      1  C   UNL     1     -46.533  36.623  27.016  1.00  0.00     0.117 C 
ATOM      2  H   UNL     1     -46.048  36.073  26.200  1.00  0.00     0.073 H 
ATOM      3  H   UNL     1     -46.515  37.699  26.807  1.00  0.00     0.073 H 
ENDROOT
BRANCH   1   4
ATOM      4  C   UNL     1     -45.753  36.347  28.313  1.00  0.00     0.123 C 
ATOM      5  C   UNL     1     -44.506  37.964  29.445  1.00  0.00     0.169 C 
ATOM      6  O   UNL     1     -44.511  37.088  28.302  1.00  0.00    -0.345 OA
ATOM      7  C   UNL     1     -45.921  38.056  29.994  1.00  0.00     0.173 C 
ATOM      8  H   UNL     1     -43.865  37.466  30.183  1.00  0.00     0.088 H 
ATOM      9  C   UNL     1     -46.495  36.710  29.605  1.00  0.00     0.119 C 
ATOM     10  F   UNL     1     -46.642  39.050  29.418  1.00  0.00    -0.239 F 
ATOM     11  H   UNL     1     -45.919  38.239  31.073  1.00  0.00     0.074 H 
ATOM     12  H   UNL     1     -45.462  35.289  28.310  1.00  0.00     0.067 H 
ATOM     13  H   UNL     1     -47.583  36.721  29.498  1.00  0.00     0.066 H 
BRANCH   5  14
ATOM     14  N   UNL     1     -43.877  39.236  29.133  1.00  0.00    -0.303 N 
ATOM     15  C   UNL     1     -43.464  42.141  27.152  1.00  0.00     0.136 A 
ATOM     16  N   UNL     1     -44.349  41.937  26.157  1.00  0.00    -0.219 NA
ATOM     17  C   UNL     1     -43.335  41.175  28.160  1.00  0.00     0.061 A 
ATOM     18  C   UNL     1     -45.066  40.796  26.174  1.00  0.00     0.120 A 
ATOM     19  C   UNL     1     -44.143  40.049  28.057  1.00  0.00     0.147 A 
ATOM     20  C   UNL     1     -42.550  41.020  29.335  1.00  0.00    -0.031 A 
ATOM     21  N   UNL     1     -45.029  39.808  27.079  1.00  0.00    -0.218 NA
ATOM     22  H   UNL     1     -45.763  40.661  25.353  1.00  0.00     0.106 H 
ATOM     23  C   UNL     1     -42.904  39.821  29.916  1.00  0.00     0.009 A 
ATOM     24  H   UNL     1     -41.805  41.708  29.710  1.00  0.00     0.065 H 
ATOM     25  H   UNL     1     -42.542  39.338  30.815  1.00  0.00     0.082 H 
BRANCH  15  26
ATOM     26  N   UNL     1     -42.742  43.327  27.124  1.00  0.00    -0.383 N 
ATOM     27  H   UNL     1     -41.763  43.223  27.351  1.00  0.00     0.158 HD
ATOM     28  H   UNL     1     -43.244  44.053  27.620  1.00  0.00     0.158 HD
ENDBRANCH  15  26
ENDBRANCH   5  14
BRANCH   9  29
ATOM     29  O   UNL     1     -46.171  35.767  30.642  1.00  0.00    -0.387 OA
ATOM     30  H   UNL     1     -46.425  34.882  30.322  1.00  0.00     0.211 HD
ENDBRANCH   9  29
ENDBRANCH   1   4
BRANCH   1  31
ATOM     31  O   UNL     1     -47.875  36.156  27.127  1.00  0.00    -0.491 OA
BRANCH  31  32
ATOM     32  C   UNL     1     -48.172  34.951  26.558  1.00  0.00     0.121 A 
ATOM     33  C   UNL     1     -49.498  34.551  26.710  1.00  0.00    -0.019 A 
ATOM     34  C   UNL     1     -47.280  34.125  25.874  1.00  0.00     0.007 A 
ATOM     35  C   UNL     1     -49.930  33.341  26.172  1.00  0.00    -0.049 A 
ATOM     36  H   UNL     1     -50.197  35.196  27.238  1.00  0.00     0.066 H 
ATOM     37  C   UNL     1     -47.683  32.912  25.327  1.00  0.00     0.076 A 
ATOM     38  H   UNL     1     -46.238  34.401  25.748  1.00  0.00     0.069 H 
ATOM     39  C   UNL     1     -49.028  32.521  25.480  1.00  0.00     0.001 A 
ATOM     40  H   UNL     1     -50.970  33.048  26.294  1.00  0.00     0.063 H 
ATOM     41  N   UNL     1     -46.783  32.156  24.674  1.00  0.00    -0.231 NA
ATOM     42  C   UNL     1     -49.418  31.300  24.925  1.00  0.00    -0.049 A 
ATOM     43  C   UNL     1     -47.173  30.979  24.132  1.00  0.00     0.129 A 
ATOM     44  C   UNL     1     -48.481  30.524  24.250  1.00  0.00    -0.019 A 
ATOM     45  H   UNL     1     -50.440  30.946  25.017  1.00  0.00     0.063 H 
ATOM     46  H   UNL     1     -48.776  29.570  23.827  1.00  0.00     0.066 H 
BRANCH  43  47
ATOM     47  N   UNL     1     -46.214  30.199  23.461  1.00  0.00    -0.353 N 
ATOM     48  C   UNL     1     -45.664  30.527  22.170  1.00  0.00     0.036 C 
ATOM     49  C   UNL     1     -46.329  28.802  23.130  1.00  0.00     0.036 C 
ATOM     50  C   UNL     1     -45.253  29.044  22.051  1.00  0.00     0.040 C 
ATOM     51  H   UNL     1     -44.864  31.270  22.213  1.00  0.00     0.051 H 
ATOM     52  H   UNL     1     -46.431  30.841  21.452  1.00  0.00     0.051 H 
ATOM     53  H   UNL     1     -46.071  28.134  23.956  1.00  0.00     0.051 H 
ATOM     54  H   UNL     1     -47.318  28.545  22.734  1.00  0.00     0.051 H 
ATOM     55  H   UNL     1     -45.416  28.566  21.083  1.00  0.00     0.050 H 
BRANCH  50  56
ATOM     56  N   UNL     1     -43.910  28.838  22.628  1.00  0.00    -0.325 NA
ATOM     57  H   UNL     1     -43.439  29.709  22.869  1.00  0.00     0.119 HD
ATOM     58  H   UNL     1     -43.951  28.308  23.503  1.00  0.00     0.119 HD
ENDBRANCH  50  56
ENDBRANCH  43  47
ENDBRANCH  31  32
ENDBRANCH   1  31
TORSDOF 8
ENDMDL
MODEL 7
REMARK VINA RESULT:      -9.3      2.512     10.987
REMARK SMILES Nc1ncnc2c1ccn2[C@@H]1O[C@H](COc2ccc3ccc(N4CC(N)C4)nc3c2)[C@@H](O)[C@@H]1F
REMARK SMILES IDX 14 1 13 4 11 5 12 6 33 7 31 9 34 10 10 14 2 15 3 16 7 17
REMARK SMILES IDX 4 18 6 19 8 20 5 21 9 23 1 26 32 29 15 31 16 32 17 33 30 34
REMARK SMILES IDX 18 35 29 37 19 39 28 41 20 42 22 43 21 44 23 47 24 48 27 49
REMARK SMILES IDX 25 50 26 56
REMARK H PARENT 14 2 14 3 11 8 33 11 13 12 31 13 4 22 8 24 9 25 1 27 1 28
REMARK H PARENT 32 30 17 36 30 38 18 40 20 45 21 46 24 51 24 52 27 53 27 54
REMARK H PARENT 25 55 26 57 26 58
REMARK Flexibility Score: inf
ROOT
ATOM      1  C   UNL     1     -48.010  34.989  26.211  1.00  0.00     0.117 C 
ATOM      2  H   UNL     1     -48.834  35.012  25.488  1.00  0.00     0.073 H 
ATOM      3  H   UNL     1     -47.080  35.319  25.732  1.00  0.00     0.073 H 
ENDROOT
BRANCH   1   4
ATOM      4  C   UNL     1     -47.840  33.542  26.703  1.00  0.00     0.123 C 
ATOM      5  C   UNL     1     -47.866  31.681  25.294  1.00  0.00     0.169 C 
ATOM      6  O   UNL     1     -48.697  32.663  25.940  1.00  0.00    -0.345 OA
ATOM      7  C   UNL     1     -46.423  32.156  25.345  1.00  0.00     0.173 C 
ATOM      8  H   UNL     1     -47.969  30.774  25.904  1.00  0.00     0.088 H 
ATOM      9  C   UNL     1     -46.413  32.988  26.609  1.00  0.00     0.119 C 
ATOM     10  F   UNL     1     -46.088  32.927  24.280  1.00  0.00    -0.239 F 
ATOM     11  H   UNL     1     -45.726  31.313  25.366  1.00  0.00     0.074 H 
ATOM     12  H   UNL     1     -48.213  33.492  27.733  1.00  0.00     0.067 H 
ATOM     13  H   UNL     1     -45.641  33.763  26.607  1.00  0.00     0.066 H 
BRANCH   5  14
ATOM     14  N   UNL     1     -48.367  31.354  23.969  1.00  0.00    -0.303 N 
ATOM     15  C   UNL     1     -50.927  31.167  21.530  1.00  0.00     0.136 A 
ATOM     16  N   UNL     1     -51.999  31.623  22.206  1.00  0.00    -0.219 NA
ATOM     17  C   UNL     1     -49.689  31.090  22.185  1.00  0.00     0.061 A 
ATOM     18  C   UNL     1     -51.829  31.976  23.495  1.00  0.00     0.120 A 
ATOM     19  C   UNL     1     -49.656  31.495  23.514  1.00  0.00     0.147 A 
ATOM     20  C   UNL     1     -48.372  30.683  21.840  1.00  0.00    -0.031 A 
ATOM     21  N   UNL     1     -50.703  31.947  24.221  1.00  0.00    -0.218 NA
ATOM     22  H   UNL     1     -52.716  32.332  24.010  1.00  0.00     0.106 H 
ATOM     23  C   UNL     1     -47.577  30.857  22.953  1.00  0.00     0.009 A 
ATOM     24  H   UNL     1     -48.043  30.299  20.884  1.00  0.00     0.065 H 
ATOM     25  H   UNL     1     -46.522  30.665  23.105  1.00  0.00     0.082 H 
BRANCH  15  26
ATOM     26  N   UNL     1     -51.117  30.817  20.199  1.00  0.00    -0.383 N 
ATOM     27  H   UNL     1     -50.465  31.247  19.559  1.00  0.00     0.158 HD
ATOM     28  H   UNL     1     -52.098  30.888  19.957  1.00  0.00     0.158 HD
ENDBRANCH  15  26
ENDBRANCH   5  14
BRANCH   9  29
ATOM     29  O   UNL     1     -46.147  32.115  27.720  1.00  0.00    -0.387 OA
ATOM     30  H   UNL     1     -45.464  31.480  27.437  1.00  0.00     0.211 HD
ENDBRANCH   9  29
ENDBRANCH   1   4
BRANCH   1  31
ATOM     31  O   UNL     1     -48.348  35.853  27.294  1.00  0.00    -0.491 OA
BRANCH  31  32
ATOM     32  C   UNL     1     -47.334  36.552  27.882  1.00  0.00     0.121 A 
ATOM     33  C   UNL     1     -46.897  36.025  29.096  1.00  0.00    -0.019 A 
ATOM     34  C   UNL     1     -46.737  37.709  27.381  1.00  0.00     0.007 A 
ATOM     35  C   UNL     1     -45.864  36.644  29.796  1.00  0.00    -0.049 A 
ATOM     36  H   UNL     1     -47.357  35.120  29.486  1.00  0.00     0.066 H 
ATOM     37  C   UNL     1     -45.705  38.348  28.058  1.00  0.00     0.076 A 
ATOM     38  H   UNL     1     -47.061  38.151  26.444  1.00  0.00     0.069 H 
ATOM     39  C   UNL     1     -45.266  37.803  29.281  1.00  0.00     0.001 A 
ATOM     40  H   UNL     1     -45.532  36.216  30.738  1.00  0.00     0.063 H 
ATOM     41  N   UNL     1     -45.161  39.458  27.528  1.00  0.00    -0.231 NA
ATOM     42  C   UNL     1     -44.228  38.456  29.949  1.00  0.00    -0.049 A 
ATOM     43  C   UNL     1     -44.150  40.078  28.179  1.00  0.00     0.129 A 
ATOM     44  C   UNL     1     -43.670  39.603  29.394  1.00  0.00    -0.019 A 
ATOM     45  H   UNL     1     -43.853  38.084  30.899  1.00  0.00     0.063 H 
ATOM     46  H   UNL     1     -42.872  40.121  29.915  1.00  0.00     0.066 H 
BRANCH  43  47
ATOM     47  N   UNL     1     -43.602  41.242  27.613  1.00  0.00    -0.353 N 
ATOM     48  C   UNL     1     -43.740  41.611  26.226  1.00  0.00     0.036 C 
ATOM     49  C   UNL     1     -42.217  41.640  27.648  1.00  0.00     0.036 C 
ATOM     50  C   UNL     1     -42.518  42.533  26.426  1.00  0.00     0.040 C 
ATOM     51  H   UNL     1     -44.697  42.085  25.995  1.00  0.00     0.051 H 
ATOM     52  H   UNL     1     -43.563  40.769  25.546  1.00  0.00     0.051 H 
ATOM     53  H   UNL     1     -41.929  42.140  28.576  1.00  0.00     0.051 H 
ATOM     54  H   UNL     1     -41.537  40.806  27.442  1.00  0.00     0.051 H 
ATOM     55  H   UNL     1     -41.772  42.538  25.629  1.00  0.00     0.050 H 
BRANCH  50  56
ATOM     56  N   UNL     1     -42.954  43.869  26.878  1.00  0.00    -0.325 NA
ATOM     57  H   UNL     1     -42.610  44.624  26.286  1.00  0.00     0.119 HD
ATOM     58  H   UNL     1     -43.974  43.961  26.859  1.00  0.00     0.119 HD
ENDBRANCH  50  56
ENDBRANCH  43  47
ENDBRANCH  31  32
ENDBRANCH   1  31
TORSDOF 8
ENDMDL
