MODEL 1
REMARK VINA RESULT:     -10.2      0.000      0.000
REMARK SMILES CNc1nc2cc(OC[C@H]3O[C@@H](n4cc(-c5ccn(C)n5)c5c(N)ncnc54)[C@@H](F)[C@@H]3O)ccc2s1
REMARK SMILES IDX 9 1 8 4 7 5 3 6 4 7 36 8 5 9 35 10 6 11 34 12 33 14 2 17
REMARK SMILES IDX 1 19 10 23 11 24 31 25 12 27 29 28 30 31 32 33 13 35 14 36
REMARK SMILES IDX 28 37 15 38 22 40 27 41 23 42 26 43 25 44 16 46 17 47 21 48
REMARK SMILES IDX 18 49 19 51 20 53 24 57
REMARK H PARENT 9 2 9 3 6 13 34 15 33 16 2 18 1 20 1 21 1 22 10 26 31 29 12 30
REMARK H PARENT 29 32 32 34 14 39 26 45 17 50 18 52 20 54 20 55 20 56 24 58
REMARK H PARENT 24 59
REMARK Flexibility Score: inf
ROOT
ATOM      1  C   UNL     1     -47.562  36.470  27.253  1.00  0.00     0.117 C 
ATOM      2  H   UNL     1     -47.194  36.764  26.262  1.00  0.00     0.073 H 
ATOM      3  H   UNL     1     -48.146  37.337  27.583  1.00  0.00     0.073 H 
ENDROOT
BRANCH   1   4
ATOM      4  O   UNL     1     -48.468  35.368  27.193  1.00  0.00    -0.491 OA
BRANCH   4   5
ATOM      5  C   UNL     1     -48.138  34.284  26.427  1.00  0.00     0.121 A 
ATOM      6  C   UNL     1     -48.394  30.136  24.370  1.00  0.00     0.183 A 
ATOM      7  N   UNL     1     -49.091  30.891  25.184  1.00  0.00    -0.220 NA
ATOM      8  S   UNL     1     -46.903  30.824  23.849  1.00  0.00    -0.097 S 
ATOM      9  C   UNL     1     -48.435  32.085  25.430  1.00  0.00     0.087 A 
ATOM     10  C   UNL     1     -47.211  32.233  24.784  1.00  0.00     0.057 A 
ATOM     11  C   UNL     1     -48.903  33.126  26.262  1.00  0.00     0.007 A 
ATOM     12  C   UNL     1     -46.429  33.387  24.934  1.00  0.00    -0.039 A 
ATOM     13  H   UNL     1     -49.861  32.977  26.745  1.00  0.00     0.069 H 
ATOM     14  C   UNL     1     -46.917  34.402  25.764  1.00  0.00    -0.018 A 
ATOM     15  H   UNL     1     -45.477  33.492  24.425  1.00  0.00     0.064 H 
ATOM     16  H   UNL     1     -46.323  35.306  25.895  1.00  0.00     0.066 H 
BRANCH   6  17
ATOM     17  N   UNL     1     -48.859  28.924  23.981  1.00  0.00    -0.365 N 
ATOM     18  H   UNL     1     -49.453  28.493  24.684  1.00  0.00     0.162 HD
BRANCH  17  19
ATOM     19  C   UNL     1     -48.019  27.989  23.267  1.00  0.00     0.006 C 
ATOM     20  H   UNL     1     -46.981  28.335  23.218  1.00  0.00     0.045 H 
ATOM     21  H   UNL     1     -48.378  27.892  22.238  1.00  0.00     0.045 H 
ATOM     22  H   UNL     1     -48.050  26.995  23.728  1.00  0.00     0.045 H 
ENDBRANCH  17  19
ENDBRANCH   6  17
ENDBRANCH   4   5
ENDBRANCH   1   4
BRANCH   1  23
ATOM     23  C   UNL     1     -46.415  36.218  28.240  1.00  0.00     0.123 C 
ATOM     24  O   UNL     1     -45.282  37.014  27.825  1.00  0.00    -0.345 OA
ATOM     25  C   UNL     1     -46.758  36.618  29.681  1.00  0.00     0.119 C 
ATOM     26  H   UNL     1     -46.110  35.167  28.204  1.00  0.00     0.067 H 
ATOM     27  C   UNL     1     -45.018  37.979  28.872  1.00  0.00     0.169 C 
ATOM     28  C   UNL     1     -46.260  38.043  29.749  1.00  0.00     0.173 C 
ATOM     29  H   UNL     1     -47.823  36.515  29.907  1.00  0.00     0.066 H 
ATOM     30  H   UNL     1     -44.154  37.599  29.430  1.00  0.00     0.088 H 
ATOM     31  F   UNL     1     -47.210  38.852  29.202  1.00  0.00    -0.239 F 
ATOM     32  H   UNL     1     -46.046  38.398  30.761  1.00  0.00     0.074 H 
BRANCH  25  33
ATOM     33  O   UNL     1     -46.024  35.808  30.607  1.00  0.00    -0.387 OA
ATOM     34  H   UNL     1     -45.958  34.912  30.227  1.00  0.00     0.211 HD
ENDBRANCH  25  33
BRANCH  27  35
ATOM     35  N   UNL     1     -44.639  39.259  28.298  1.00  0.00    -0.302 N 
ATOM     36  C   UNL     1     -45.203  39.888  27.218  1.00  0.00     0.019 A 
ATOM     37  C   UNL     1     -43.615  40.027  28.793  1.00  0.00     0.148 A 
ATOM     38  C   UNL     1     -44.526  41.078  27.013  1.00  0.00     0.033 A 
ATOM     39  H   UNL     1     -46.020  39.432  26.674  1.00  0.00     0.083 H 
ATOM     40  C   UNL     1     -43.524  41.186  28.029  1.00  0.00     0.071 A 
ATOM     41  N   UNL     1     -42.851  39.692  29.848  1.00  0.00    -0.218 NA
ATOM     42  C   UNL     1     -42.535  42.105  28.423  1.00  0.00     0.137 A 
ATOM     43  C   UNL     1     -41.928  40.634  30.103  1.00  0.00     0.120 A 
ATOM     44  N   UNL     1     -41.728  41.796  29.459  1.00  0.00    -0.219 NA
ATOM     45  H   UNL     1     -41.260  40.434  30.935  1.00  0.00     0.106 H 
BRANCH  38  46
ATOM     46  C   UNL     1     -44.783  42.041  25.936  1.00  0.00     0.095 A 
ATOM     47  C   UNL     1     -44.008  42.147  24.759  1.00  0.00    -0.016 A 
ATOM     48  N   UNL     1     -45.769  42.948  25.962  1.00  0.00    -0.173 NA
ATOM     49  C   UNL     1     -44.584  43.172  24.043  1.00  0.00     0.025 A 
ATOM     50  H   UNL     1     -43.152  41.557  24.466  1.00  0.00     0.066 H 
ATOM     51  N   UNL     1     -45.628  43.612  24.799  1.00  0.00    -0.275 N 
ATOM     52  H   UNL     1     -44.340  43.608  23.085  1.00  0.00     0.084 H 
BRANCH  51  53
ATOM     53  C   UNL     1     -46.546  44.677  24.474  1.00  0.00     0.030 C 
ATOM     54  H   UNL     1     -47.292  44.288  23.777  1.00  0.00     0.048 H 
ATOM     55  H   UNL     1     -47.035  45.027  25.387  1.00  0.00     0.048 H 
ATOM     56  H   UNL     1     -45.979  45.492  24.018  1.00  0.00     0.048 H 
ENDBRANCH  51  53
ENDBRANCH  38  46
BRANCH  42  57
ATOM     57  N   UNL     1     -42.324  43.331  27.811  1.00  0.00    -0.383 N 
ATOM     58  H   UNL     1     -41.329  43.573  27.760  1.00  0.00     0.158 HD
ATOM     59  H   UNL     1     -42.949  44.039  28.167  1.00  0.00     0.158 HD
ENDBRANCH  42  57
ENDBRANCH  27  35
ENDBRANCH   1  23
TORSDOF 10
ENDMDL
MODEL 2
REMARK VINA RESULT:      -8.9      1.672      2.301
REMARK SMILES CNc1nc2cc(OC[C@H]3O[C@@H](n4cc(-c5ccn(C)n5)c5c(N)ncnc54)[C@@H](F)[C@@H]3O)ccc2s1
REMARK SMILES IDX 9 1 8 4 7 5 3 6 4 7 36 8 5 9 35 10 6 11 34 12 33 14 2 17
REMARK SMILES IDX 1 19 10 23 11 24 31 25 12 27 29 28 30 31 32 33 13 35 14 36
REMARK SMILES IDX 28 37 15 38 22 40 27 41 23 42 26 43 25 44 16 46 17 47 21 48
REMARK SMILES IDX 18 49 19 51 20 53 24 57
REMARK H PARENT 9 2 9 3 6 13 34 15 33 16 2 18 1 20 1 21 1 22 10 26 31 29 12 30
REMARK H PARENT 29 32 32 34 14 39 26 45 17 50 18 52 20 54 20 55 20 56 24 58
REMARK H PARENT 24 59
REMARK Flexibility Score: inf
ROOT
ATOM      1  C   UNL     1     -46.074  34.624  27.671  1.00  0.00     0.117 C 
ATOM      2  H   UNL     1     -45.075  34.876  28.050  1.00  0.00     0.073 H 
ATOM      3  H   UNL     1     -46.031  34.908  26.613  1.00  0.00     0.073 H 
ENDROOT
BRANCH   1   4
ATOM      4  O   UNL     1     -46.332  33.220  27.706  1.00  0.00    -0.491 OA
BRANCH   4   5
ATOM      5  C   UNL     1     -46.795  32.606  26.576  1.00  0.00     0.121 A 
ATOM      6  C   UNL     1     -49.393  29.985  23.768  1.00  0.00     0.183 A 
ATOM      7  N   UNL     1     -49.321  30.324  25.033  1.00  0.00    -0.220 NA
ATOM      8  S   UNL     1     -48.185  30.690  22.763  1.00  0.00    -0.097 S 
ATOM      9  C   UNL     1     -48.259  31.187  25.250  1.00  0.00     0.087 A 
ATOM     10  C   UNL     1     -47.514  31.506  24.118  1.00  0.00     0.057 A 
ATOM     11  C   UNL     1     -47.893  31.746  26.494  1.00  0.00     0.007 A 
ATOM     12  C   UNL     1     -46.409  32.367  24.178  1.00  0.00    -0.039 A 
ATOM     13  H   UNL     1     -48.500  31.479  27.351  1.00  0.00     0.069 H 
ATOM     14  C   UNL     1     -46.068  32.907  25.424  1.00  0.00    -0.018 A 
ATOM     15  H   UNL     1     -45.835  32.609  23.290  1.00  0.00     0.064 H 
ATOM     16  H   UNL     1     -45.212  33.577  25.491  1.00  0.00     0.066 H 
BRANCH   6  17
ATOM     17  N   UNL     1     -50.371  29.156  23.330  1.00  0.00    -0.365 N 
ATOM     18  H   UNL     1     -50.212  28.838  22.378  1.00  0.00     0.162 HD
BRANCH  17  19
ATOM     19  C   UNL     1     -51.760  29.400  23.645  1.00  0.00     0.006 C 
ATOM     20  H   UNL     1     -52.116  28.741  24.444  1.00  0.00     0.045 H 
ATOM     21  H   UNL     1     -52.373  29.199  22.761  1.00  0.00     0.045 H 
ATOM     22  H   UNL     1     -51.924  30.444  23.935  1.00  0.00     0.045 H 
ENDBRANCH  17  19
ENDBRANCH   6  17
ENDBRANCH   4   5
ENDBRANCH   1   4
BRANCH   1  23
ATOM     23  C   UNL     1     -47.174  35.430  28.375  1.00  0.00     0.123 C 
ATOM     24  O   UNL     1     -46.569  36.609  28.951  1.00  0.00    -0.345 OA
ATOM     25  C   UNL     1     -48.284  35.895  27.424  1.00  0.00     0.119 C 
ATOM     26  H   UNL     1     -47.603  34.845  29.196  1.00  0.00     0.067 H 
ATOM     27  C   UNL     1     -47.142  37.762  28.289  1.00  0.00     0.169 C 
ATOM     28  C   UNL     1     -47.801  37.265  27.009  1.00  0.00     0.173 C 
ATOM     29  H   UNL     1     -48.437  35.213  26.584  1.00  0.00     0.066 H 
ATOM     30  H   UNL     1     -47.882  38.179  28.982  1.00  0.00     0.088 H 
ATOM     31  F   UNL     1     -46.887  37.110  26.011  1.00  0.00    -0.239 F 
ATOM     32  H   UNL     1     -48.591  37.933  26.653  1.00  0.00     0.074 H 
BRANCH  25  33
ATOM     33  O   UNL     1     -49.523  36.017  28.133  1.00  0.00    -0.387 OA
ATOM     34  H   UNL     1     -50.237  35.743  27.528  1.00  0.00     0.211 HD
ENDBRANCH  25  33
BRANCH  27  35
ATOM     35  N   UNL     1     -46.127  38.778  28.069  1.00  0.00    -0.302 N 
ATOM     36  C   UNL     1     -46.087  39.712  27.066  1.00  0.00     0.019 A 
ATOM     37  C   UNL     1     -45.029  38.927  28.878  1.00  0.00     0.148 A 
ATOM     38  C   UNL     1     -44.941  40.471  27.232  1.00  0.00     0.033 A 
ATOM     39  H   UNL     1     -46.860  39.749  26.309  1.00  0.00     0.083 H 
ATOM     40  C   UNL     1     -44.270  39.990  28.400  1.00  0.00     0.071 A 
ATOM     41  N   UNL     1     -44.763  38.161  29.952  1.00  0.00    -0.218 NA
ATOM     42  C   UNL     1     -43.114  40.299  29.139  1.00  0.00     0.137 A 
ATOM     43  C   UNL     1     -43.621  38.536  30.550  1.00  0.00     0.120 A 
ATOM     44  N   UNL     1     -42.795  39.539  30.207  1.00  0.00    -0.219 NA
ATOM     45  H   UNL     1     -43.327  37.960  31.422  1.00  0.00     0.106 H 
BRANCH  38  46
ATOM     46  C   UNL     1     -44.492  41.557  26.353  1.00  0.00     0.095 A 
ATOM     47  C   UNL     1     -45.356  42.368  25.582  1.00  0.00    -0.016 A 
ATOM     48  N   UNL     1     -43.207  41.885  26.163  1.00  0.00    -0.173 NA
ATOM     49  C   UNL     1     -44.526  43.233  24.907  1.00  0.00     0.025 A 
ATOM     50  H   UNL     1     -46.434  42.333  25.527  1.00  0.00     0.066 H 
ATOM     51  N   UNL     1     -43.259  42.908  25.290  1.00  0.00    -0.275 N 
ATOM     52  H   UNL     1     -44.731  44.031  24.209  1.00  0.00     0.084 H 
BRANCH  51  53
ATOM     53  C   UNL     1     -42.034  43.535  24.857  1.00  0.00     0.030 C 
ATOM     54  H   UNL     1     -41.777  44.320  25.573  1.00  0.00     0.048 H 
ATOM     55  H   UNL     1     -41.236  42.789  24.819  1.00  0.00     0.048 H 
ATOM     56  H   UNL     1     -42.197  43.959  23.863  1.00  0.00     0.048 H 
ENDBRANCH  51  53
ENDBRANCH  38  46
BRANCH  42  57
ATOM     57  N   UNL     1     -42.258  41.349  28.842  1.00  0.00    -0.383 N 
ATOM     58  H   UNL     1     -41.882  41.287  27.891  1.00  0.00     0.158 HD
ATOM     59  H   UNL     1     -41.594  41.512  29.586  1.00  0.00     0.158 HD
ENDBRANCH  42  57
ENDBRANCH  27  35
ENDBRANCH   1  23
TORSDOF 10
ENDMDL
MODEL 3
REMARK VINA RESULT:      -8.5      2.767      3.575
REMARK SMILES CNc1nc2cc(OC[C@H]3O[C@@H](n4cc(-c5ccn(C)n5)c5c(N)ncnc54)[C@@H](F)[C@@H]3O)ccc2s1
REMARK SMILES IDX 9 1 8 4 7 5 3 6 4 7 36 8 5 9 35 10 6 11 34 12 33 14 2 17
REMARK SMILES IDX 1 19 10 23 11 24 31 25 12 27 29 28 30 31 32 33 13 35 14 36
REMARK SMILES IDX 28 37 15 38 22 40 27 41 23 42 26 43 25 44 16 46 17 47 21 48
REMARK SMILES IDX 18 49 19 51 20 53 24 57
REMARK H PARENT 9 2 9 3 6 13 34 15 33 16 2 18 1 20 1 21 1 22 10 26 31 29 12 30
REMARK H PARENT 29 32 32 34 14 39 26 45 17 50 18 52 20 54 20 55 20 56 24 58
REMARK H PARENT 24 59
REMARK Flexibility Score: inf
ROOT
ATOM      1  C   UNL     1     -46.245  35.159  26.923  1.00  0.00     0.117 C 
ATOM      2  H   UNL     1     -45.441  35.026  26.188  1.00  0.00     0.073 H 
ATOM      3  H   UNL     1     -46.921  35.878  26.444  1.00  0.00     0.073 H 
ENDROOT
BRANCH   1   4
ATOM      4  O   UNL     1     -46.998  33.964  27.129  1.00  0.00    -0.491 OA
BRANCH   4   5
ATOM      5  C   UNL     1     -47.118  33.074  26.098  1.00  0.00     0.121 A 
ATOM      6  C   UNL     1     -46.469  31.015  21.994  1.00  0.00     0.183 A 
ATOM      7  N   UNL     1     -46.049  32.061  22.663  1.00  0.00    -0.220 NA
ATOM      8  S   UNL     1     -47.623  30.044  22.826  1.00  0.00    -0.097 S 
ATOM      9  C   UNL     1     -46.657  32.127  23.906  1.00  0.00     0.087 A 
ATOM     10  C   UNL     1     -47.559  31.102  24.179  1.00  0.00     0.057 A 
ATOM     11  C   UNL     1     -46.435  33.125  24.880  1.00  0.00     0.007 A 
ATOM     12  C   UNL     1     -48.254  31.032  25.394  1.00  0.00    -0.039 A 
ATOM     13  H   UNL     1     -45.723  33.903  24.634  1.00  0.00     0.069 H 
ATOM     14  C   UNL     1     -48.014  32.034  26.342  1.00  0.00    -0.018 A 
ATOM     15  H   UNL     1     -48.954  30.229  25.597  1.00  0.00     0.064 H 
ATOM     16  H   UNL     1     -48.545  31.998  27.292  1.00  0.00     0.066 H 
BRANCH   6  17
ATOM     17  N   UNL     1     -45.990  30.749  20.754  1.00  0.00    -0.365 N 
ATOM     18  H   UNL     1     -45.131  30.206  20.779  1.00  0.00     0.162 HD
BRANCH  17  19
ATOM     19  C   UNL     1     -46.030  31.741  19.704  1.00  0.00     0.006 C 
ATOM     20  H   UNL     1     -45.052  32.206  19.549  1.00  0.00     0.045 H 
ATOM     21  H   UNL     1     -46.728  32.536  19.984  1.00  0.00     0.045 H 
ATOM     22  H   UNL     1     -46.380  31.305  18.761  1.00  0.00     0.045 H 
ENDBRANCH  17  19
ENDBRANCH   6  17
ENDBRANCH   4   5
ENDBRANCH   1   4
BRANCH   1  23
ATOM     23  C   UNL     1     -45.724  35.746  28.242  1.00  0.00     0.123 C 
ATOM     24  O   UNL     1     -45.442  37.147  28.031  1.00  0.00    -0.345 OA
ATOM     25  C   UNL     1     -46.738  35.646  29.390  1.00  0.00     0.119 C 
ATOM     26  H   UNL     1     -44.785  35.259  28.527  1.00  0.00     0.067 H 
ATOM     27  C   UNL     1     -46.338  37.907  28.876  1.00  0.00     0.169 C 
ATOM     28  C   UNL     1     -47.461  36.969  29.300  1.00  0.00     0.173 C 
ATOM     29  H   UNL     1     -47.398  34.779  29.298  1.00  0.00     0.066 H 
ATOM     30  H   UNL     1     -45.745  38.234  29.739  1.00  0.00     0.088 H 
ATOM     31  F   UNL     1     -48.412  36.869  28.330  1.00  0.00    -0.239 F 
ATOM     32  H   UNL     1     -47.946  37.282  30.228  1.00  0.00     0.074 H 
BRANCH  25  33
ATOM     33  O   UNL     1     -46.054  35.556  30.646  1.00  0.00    -0.387 OA
ATOM     34  H   UNL     1     -45.112  35.392  30.458  1.00  0.00     0.211 HD
ENDBRANCH  25  33
BRANCH  27  35
ATOM     35  N   UNL     1     -46.800  39.099  28.185  1.00  0.00    -0.302 N 
ATOM     36  C   UNL     1     -48.071  39.612  28.169  1.00  0.00     0.019 A 
ATOM     37  C   UNL     1     -45.976  39.888  27.423  1.00  0.00     0.148 A 
ATOM     38  C   UNL     1     -48.064  40.750  27.379  1.00  0.00     0.033 A 
ATOM     39  H   UNL     1     -48.876  39.121  28.700  1.00  0.00     0.083 H 
ATOM     40  C   UNL     1     -46.725  40.945  26.916  1.00  0.00     0.071 A 
ATOM     41  N   UNL     1     -44.666  39.656  27.225  1.00  0.00    -0.218 NA
ATOM     42  C   UNL     1     -46.020  41.874  26.130  1.00  0.00     0.137 A 
ATOM     43  C   UNL     1     -44.117  40.593  26.435  1.00  0.00     0.120 A 
ATOM     44  N   UNL     1     -44.710  41.665  25.883  1.00  0.00    -0.219 NA
ATOM     45  H   UNL     1     -43.061  40.473  26.216  1.00  0.00     0.106 H 
BRANCH  38  46
ATOM     46  C   UNL     1     -49.227  41.586  27.063  1.00  0.00     0.095 A 
ATOM     47  C   UNL     1     -50.343  41.756  27.915  1.00  0.00    -0.016 A 
ATOM     48  N   UNL     1     -49.374  42.263  25.916  1.00  0.00    -0.173 NA
ATOM     49  C   UNL     1     -51.191  42.596  27.230  1.00  0.00     0.025 A 
ATOM     50  H   UNL     1     -50.507  41.332  28.894  1.00  0.00     0.066 H 
ATOM     51  N   UNL     1     -50.568  42.871  26.050  1.00  0.00    -0.275 N 
ATOM     52  H   UNL     1     -52.157  43.007  27.483  1.00  0.00     0.084 H 
BRANCH  51  53
ATOM     53  C   UNL     1     -51.058  43.714  24.987  1.00  0.00     0.030 C 
ATOM     54  H   UNL     1     -51.146  43.110  24.080  1.00  0.00     0.048 H 
ATOM     55  H   UNL     1     -52.036  44.117  25.263  1.00  0.00     0.048 H 
ATOM     56  H   UNL     1     -50.346  44.530  24.839  1.00  0.00     0.048 H 
ENDBRANCH  51  53
ENDBRANCH  38  46
BRANCH  42  57
ATOM     57  N   UNL     1     -46.585  43.013  25.575  1.00  0.00    -0.383 N 
ATOM     58  H   UNL     1     -47.506  42.829  25.165  1.00  0.00     0.158 HD
ATOM     59  H   UNL     1     -45.923  43.519  25.005  1.00  0.00     0.158 HD
ENDBRANCH  42  57
ENDBRANCH  27  35
ENDBRANCH   1  23
TORSDOF 10
ENDMDL
MODEL 4
REMARK VINA RESULT:      -8.4      4.454      6.957
REMARK SMILES CNc1nc2cc(OC[C@H]3O[C@@H](n4cc(-c5ccn(C)n5)c5c(N)ncnc54)[C@@H](F)[C@@H]3O)ccc2s1
REMARK SMILES IDX 9 1 8 4 7 5 3 6 4 7 36 8 5 9 35 10 6 11 34 12 33 14 2 17
REMARK SMILES IDX 1 19 10 23 11 24 31 25 12 27 29 28 30 31 32 33 13 35 14 36
REMARK SMILES IDX 28 37 15 38 22 40 27 41 23 42 26 43 25 44 16 46 17 47 21 48
REMARK SMILES IDX 18 49 19 51 20 53 24 57
REMARK H PARENT 9 2 9 3 6 13 34 15 33 16 2 18 1 20 1 21 1 22 10 26 31 29 12 30
REMARK H PARENT 29 32 32 34 14 39 26 45 17 50 18 52 20 54 20 55 20 56 24 58
REMARK H PARENT 24 59
REMARK Flexibility Score: inf
ROOT
ATOM      1  C   UNL     1     -48.656  37.190  27.909  1.00  0.00     0.117 C 
ATOM      2  H   UNL     1     -49.281  37.121  28.809  1.00  0.00     0.073 H 
ATOM      3  H   UNL     1     -49.260  36.706  27.132  1.00  0.00     0.073 H 
ENDROOT
BRANCH   1   4
ATOM      4  O   UNL     1     -48.454  38.539  27.489  1.00  0.00    -0.491 OA
BRANCH   4   5
ATOM      5  C   UNL     1     -49.165  39.534  28.101  1.00  0.00     0.121 A 
ATOM      6  C   UNL     1     -50.205  43.621  30.031  1.00  0.00     0.183 A 
ATOM      7  N   UNL     1     -49.185  43.008  29.481  1.00  0.00    -0.220 NA
ATOM      8  S   UNL     1     -51.654  42.692  30.094  1.00  0.00    -0.097 S 
ATOM      9  C   UNL     1     -49.537  41.729  29.080  1.00  0.00     0.087 A 
ATOM     10  C   UNL     1     -50.858  41.372  29.335  1.00  0.00     0.057 A 
ATOM     11  C   UNL     1     -48.681  40.797  28.455  1.00  0.00     0.007 A 
ATOM     12  C   UNL     1     -51.364  40.111  28.987  1.00  0.00    -0.039 A 
ATOM     13  H   UNL     1     -47.661  41.112  28.269  1.00  0.00     0.069 H 
ATOM     14  C   UNL     1     -50.494  39.207  28.368  1.00  0.00    -0.018 A 
ATOM     15  H   UNL     1     -52.395  39.843  29.189  1.00  0.00     0.064 H 
ATOM     16  H   UNL     1     -50.867  38.222  28.091  1.00  0.00     0.066 H 
BRANCH   6  17
ATOM     17  N   UNL     1     -50.086  44.893  30.482  1.00  0.00    -0.365 N 
ATOM     18  H   UNL     1     -50.889  45.187  31.031  1.00  0.00     0.162 HD
BRANCH  17  19
ATOM     19  C   UNL     1     -49.527  45.936  29.651  1.00  0.00     0.006 C 
ATOM     20  H   UNL     1     -49.322  46.845  30.226  1.00  0.00     0.045 H 
ATOM     21  H   UNL     1     -50.246  46.200  28.870  1.00  0.00     0.045 H 
ATOM     22  H   UNL     1     -48.607  45.600  29.159  1.00  0.00     0.045 H 
ENDBRANCH  17  19
ENDBRANCH   6  17
ENDBRANCH   4   5
ENDBRANCH   1   4
BRANCH   1  23
ATOM     23  C   UNL     1     -47.330  36.434  28.073  1.00  0.00     0.123 C 
ATOM     24  O   UNL     1     -46.307  37.157  27.352  1.00  0.00    -0.345 OA
ATOM     25  C   UNL     1     -46.875  36.322  29.534  1.00  0.00     0.119 C 
ATOM     26  H   UNL     1     -47.407  35.437  27.626  1.00  0.00     0.067 H 
ATOM     27  C   UNL     1     -45.337  37.622  28.320  1.00  0.00     0.169 C 
ATOM     28  C   UNL     1     -45.990  37.536  29.692  1.00  0.00     0.173 C 
ATOM     29  H   UNL     1     -47.712  36.296  30.238  1.00  0.00     0.066 H 
ATOM     30  H   UNL     1     -44.477  36.945  28.244  1.00  0.00     0.088 H 
ATOM     31  F   UNL     1     -46.787  38.616  29.928  1.00  0.00    -0.239 F 
ATOM     32  H   UNL     1     -45.262  37.460  30.504  1.00  0.00     0.074 H 
BRANCH  25  33
ATOM     33  O   UNL     1     -46.098  35.133  29.720  1.00  0.00    -0.387 OA
ATOM     34  H   UNL     1     -46.332  34.760  30.590  1.00  0.00     0.211 HD
ENDBRANCH  25  33
BRANCH  27  35
ATOM     35  N   UNL     1     -44.874  38.956  27.974  1.00  0.00    -0.302 N 
ATOM     36  C   UNL     1     -45.313  39.749  26.945  1.00  0.00     0.019 A 
ATOM     37  C   UNL     1     -43.889  39.611  28.669  1.00  0.00     0.148 A 
ATOM     38  C   UNL     1     -44.594  40.931  26.978  1.00  0.00     0.033 A 
ATOM     39  H   UNL     1     -46.081  39.403  26.265  1.00  0.00     0.083 H 
ATOM     40  C   UNL     1     -43.697  40.860  28.090  1.00  0.00     0.071 A 
ATOM     41  N   UNL     1     -43.242  39.105  29.735  1.00  0.00    -0.218 NA
ATOM     42  C   UNL     1     -42.733  41.680  28.706  1.00  0.00     0.137 A 
ATOM     43  C   UNL     1     -42.330  39.968  30.210  1.00  0.00     0.120 A 
ATOM     44  N   UNL     1     -42.041  41.201  29.760  1.00  0.00    -0.219 NA
ATOM     45  H   UNL     1     -41.754  39.631  31.065  1.00  0.00     0.106 H 
BRANCH  38  46
ATOM     46  C   UNL     1     -44.720  42.043  26.030  1.00  0.00     0.095 A 
ATOM     47  C   UNL     1     -45.923  42.742  25.774  1.00  0.00    -0.016 A 
ATOM     48  N   UNL     1     -43.712  42.505  25.277  1.00  0.00    -0.173 NA
ATOM     49  C   UNL     1     -45.597  43.679  24.822  1.00  0.00     0.025 A 
ATOM     50  H   UNL     1     -46.893  42.589  26.224  1.00  0.00     0.066 H 
ATOM     51  N   UNL     1     -44.271  43.500  24.563  1.00  0.00    -0.275 N 
ATOM     52  H   UNL     1     -46.185  44.437  24.325  1.00  0.00     0.084 H 
BRANCH  51  53
ATOM     53  C   UNL     1     -43.460  44.248  23.633  1.00  0.00     0.030 C 
ATOM     54  H   UNL     1     -44.124  44.781  22.948  1.00  0.00     0.048 H 
ATOM     55  H   UNL     1     -42.841  44.963  24.183  1.00  0.00     0.048 H 
ATOM     56  H   UNL     1     -42.826  43.546  23.087  1.00  0.00     0.048 H 
ENDBRANCH  51  53
ENDBRANCH  38  46
BRANCH  42  57
ATOM     57  N   UNL     1     -42.435  42.971  28.297  1.00  0.00    -0.383 N 
ATOM     58  H   UNL     1     -43.186  43.632  28.519  1.00  0.00     0.158 HD
ATOM     59  H   UNL     1     -42.072  42.991  27.355  1.00  0.00     0.158 HD
ENDBRANCH  42  57
ENDBRANCH  27  35
ENDBRANCH   1  23
TORSDOF 10
ENDMDL
MODEL 5
REMARK VINA RESULT:      -8.2      2.041      2.603
REMARK SMILES CNc1nc2cc(OC[C@H]3O[C@@H](n4cc(-c5ccn(C)n5)c5c(N)ncnc54)[C@@H](F)[C@@H]3O)ccc2s1
REMARK SMILES IDX 9 1 8 4 7 5 3 6 4 7 36 8 5 9 35 10 6 11 34 12 33 14 2 17
REMARK SMILES IDX 1 19 10 23 11 24 31 25 12 27 29 28 30 31 32 33 13 35 14 36
REMARK SMILES IDX 28 37 15 38 22 40 27 41 23 42 26 43 25 44 16 46 17 47 21 48
REMARK SMILES IDX 18 49 19 51 20 53 24 57
REMARK H PARENT 9 2 9 3 6 13 34 15 33 16 2 18 1 20 1 21 1 22 10 26 31 29 12 30
REMARK H PARENT 29 32 32 34 14 39 26 45 17 50 18 52 20 54 20 55 20 56 24 58
REMARK H PARENT 24 59
REMARK Flexibility Score: inf
ROOT
ATOM      1  C   UNL     1     -46.166  37.028  26.890  1.00  0.00     0.117 C 
ATOM      2  H   UNL     1     -45.249  37.375  26.397  1.00  0.00     0.073 H 
ATOM      3  H   UNL     1     -46.902  36.992  26.079  1.00  0.00     0.073 H 
ENDROOT
BRANCH   1   4
ATOM      4  O   UNL     1     -46.045  35.697  27.391  1.00  0.00    -0.491 OA
BRANCH   4   5
ATOM      5  C   UNL     1     -46.666  34.680  26.719  1.00  0.00     0.121 A 
ATOM      6  C   UNL     1     -47.306  30.978  24.000  1.00  0.00     0.183 A 
ATOM      7  N   UNL     1     -46.335  31.754  24.418  1.00  0.00    -0.220 NA
ATOM      8  S   UNL     1     -48.866  31.391  24.603  1.00  0.00    -0.097 S 
ATOM      9  C   UNL     1     -46.821  32.739  25.262  1.00  0.00     0.087 A 
ATOM     10  C   UNL     1     -48.195  32.704  25.485  1.00  0.00     0.057 A 
ATOM     11  C   UNL     1     -46.048  33.741  25.889  1.00  0.00     0.007 A 
ATOM     12  C   UNL     1     -48.834  33.635  26.314  1.00  0.00    -0.039 A 
ATOM     13  H   UNL     1     -44.982  33.734  25.696  1.00  0.00     0.069 H 
ATOM     14  C   UNL     1     -48.044  34.617  26.923  1.00  0.00    -0.018 A 
ATOM     15  H   UNL     1     -49.905  33.599  26.482  1.00  0.00     0.064 H 
ATOM     16  H   UNL     1     -48.522  35.351  27.571  1.00  0.00     0.066 H 
BRANCH   6  17
ATOM     17  N   UNL     1     -47.051  29.935  23.174  1.00  0.00    -0.365 N 
ATOM     18  H   UNL     1     -46.592  29.165  23.652  1.00  0.00     0.162 HD
BRANCH  17  19
ATOM     19  C   UNL     1     -46.593  30.144  21.819  1.00  0.00     0.006 C 
ATOM     20  H   UNL     1     -45.914  29.349  21.494  1.00  0.00     0.045 H 
ATOM     21  H   UNL     1     -46.040  31.087  21.765  1.00  0.00     0.045 H 
ATOM     22  H   UNL     1     -47.436  30.211  21.121  1.00  0.00     0.045 H 
ENDBRANCH  17  19
ENDBRANCH   6  17
ENDBRANCH   4   5
ENDBRANCH   1   4
BRANCH   1  23
ATOM     23  C   UNL     1     -46.641  38.009  27.971  1.00  0.00     0.123 C 
ATOM     24  O   UNL     1     -45.649  39.051  28.100  1.00  0.00    -0.345 OA
ATOM     25  C   UNL     1     -47.978  38.681  27.630  1.00  0.00     0.119 C 
ATOM     26  H   UNL     1     -46.712  37.499  28.938  1.00  0.00     0.067 H 
ATOM     27  C   UNL     1     -46.270  40.298  27.707  1.00  0.00     0.169 C 
ATOM     28  C   UNL     1     -47.535  39.947  26.935  1.00  0.00     0.173 C 
ATOM     29  H   UNL     1     -48.626  38.050  27.018  1.00  0.00     0.066 H 
ATOM     30  H   UNL     1     -46.504  40.832  28.635  1.00  0.00     0.088 H 
ATOM     31  F   UNL     1     -47.253  39.644  25.637  1.00  0.00    -0.239 F 
ATOM     32  H   UNL     1     -48.276  40.752  26.949  1.00  0.00     0.074 H 
BRANCH  25  33
ATOM     33  O   UNL     1     -48.683  39.014  28.832  1.00  0.00    -0.387 OA
ATOM     34  H   UNL     1     -49.203  38.233  29.095  1.00  0.00     0.211 HD
ENDBRANCH  25  33
BRANCH  27  35
ATOM     35  N   UNL     1     -45.334  41.117  26.955  1.00  0.00    -0.302 N 
ATOM     36  C   UNL     1     -45.587  41.842  25.819  1.00  0.00     0.019 A 
ATOM     37  C   UNL     1     -44.017  41.265  27.310  1.00  0.00     0.148 A 
ATOM     38  C   UNL     1     -44.409  42.462  25.436  1.00  0.00     0.033 A 
ATOM     39  H   UNL     1     -46.570  41.842  25.367  1.00  0.00     0.083 H 
ATOM     40  C   UNL     1     -43.406  42.116  26.395  1.00  0.00     0.071 A 
ATOM     41  N   UNL     1     -43.443  40.677  28.376  1.00  0.00    -0.218 NA
ATOM     42  C   UNL     1     -42.049  42.400  26.632  1.00  0.00     0.137 A 
ATOM     43  C   UNL     1     -42.143  41.001  28.473  1.00  0.00     0.120 A 
ATOM     44  N   UNL     1     -41.427  41.810  27.674  1.00  0.00    -0.219 NA
ATOM     45  H   UNL     1     -41.601  40.558  29.303  1.00  0.00     0.106 H 
BRANCH  38  46
ATOM     46  C   UNL     1     -44.227  43.305  24.249  1.00  0.00     0.095 A 
ATOM     47  C   UNL     1     -45.248  44.088  23.661  1.00  0.00    -0.016 A 
ATOM     48  N   UNL     1     -43.076  43.406  23.571  1.00  0.00    -0.173 NA
ATOM     49  C   UNL     1     -44.654  44.695  22.579  1.00  0.00     0.025 A 
ATOM     50  H   UNL     1     -46.273  44.200  23.982  1.00  0.00     0.066 H 
ATOM     51  N   UNL     1     -43.362  44.260  22.571  1.00  0.00    -0.275 N 
ATOM     52  H   UNL     1     -45.037  45.382  21.838  1.00  0.00     0.084 H 
BRANCH  51  53
ATOM     53  C   UNL     1     -42.332  44.620  21.627  1.00  0.00     0.030 C 
ATOM     54  H   UNL     1     -41.450  44.007  21.830  1.00  0.00     0.048 H 
ATOM     55  H   UNL     1     -42.689  44.435  20.610  1.00  0.00     0.048 H 
ATOM     56  H   UNL     1     -42.103  45.680  21.756  1.00  0.00     0.048 H 
ENDBRANCH  51  53
ENDBRANCH  38  46
BRANCH  42  57
ATOM     57  N   UNL     1     -41.287  43.259  25.855  1.00  0.00    -0.383 N 
ATOM     58  H   UNL     1     -40.389  42.845  25.584  1.00  0.00     0.158 HD
ATOM     59  H   UNL     1     -41.262  44.191  26.243  1.00  0.00     0.158 HD
ENDBRANCH  42  57
ENDBRANCH  27  35
ENDBRANCH   1  23
TORSDOF 10
ENDMDL
MODEL 6
REMARK VINA RESULT:      -8.2      2.031      3.402
REMARK SMILES CNc1nc2cc(OC[C@H]3O[C@@H](n4cc(-c5ccn(C)n5)c5c(N)ncnc54)[C@@H](F)[C@@H]3O)ccc2s1
REMARK SMILES IDX 9 1 8 4 7 5 3 6 4 7 36 8 5 9 35 10 6 11 34 12 33 14 2 17
REMARK SMILES IDX 1 19 10 23 11 24 31 25 12 27 29 28 30 31 32 33 13 35 14 36
REMARK SMILES IDX 28 37 15 38 22 40 27 41 23 42 26 43 25 44 16 46 17 47 21 48
REMARK SMILES IDX 18 49 19 51 20 53 24 57
REMARK H PARENT 9 2 9 3 6 13 34 15 33 16 2 18 1 20 1 21 1 22 10 26 31 29 12 30
REMARK H PARENT 29 32 32 34 14 39 26 45 17 50 18 52 20 54 20 55 20 56 24 58
REMARK H PARENT 24 59
REMARK Flexibility Score: inf
ROOT
ATOM      1  C   UNL     1     -45.895  35.410  27.663  1.00  0.00     0.117 C 
ATOM      2  H   UNL     1     -45.572  34.419  28.009  1.00  0.00     0.073 H 
ATOM      3  H   UNL     1     -44.957  35.968  27.554  1.00  0.00     0.073 H 
ENDROOT
BRANCH   1   4
ATOM      4  O   UNL     1     -46.497  35.365  26.370  1.00  0.00    -0.491 OA
BRANCH   4   5
ATOM      5  C   UNL     1     -46.896  34.157  25.869  1.00  0.00     0.121 A 
ATOM      6  C   UNL     1     -46.844  30.161  23.515  1.00  0.00     0.183 A 
ATOM      7  N   UNL     1     -46.080  31.206  23.725  1.00  0.00    -0.220 NA
ATOM      8  S   UNL     1     -48.360  30.202  24.334  1.00  0.00    -0.097 S 
ATOM      9  C   UNL     1     -46.701  32.107  24.574  1.00  0.00     0.087 A 
ATOM     10  C   UNL     1     -47.967  31.730  25.016  1.00  0.00     0.057 A 
ATOM     11  C   UNL     1     -46.160  33.337  25.008  1.00  0.00     0.007 A 
ATOM     12  C   UNL     1     -48.720  32.537  25.879  1.00  0.00    -0.039 A 
ATOM     13  H   UNL     1     -45.171  33.595  24.648  1.00  0.00     0.069 H 
ATOM     14  C   UNL     1     -48.160  33.751  26.293  1.00  0.00    -0.018 A 
ATOM     15  H   UNL     1     -49.705  32.234  26.217  1.00  0.00     0.064 H 
ATOM     16  H   UNL     1     -48.731  34.393  26.963  1.00  0.00     0.066 H 
BRANCH   6  17
ATOM     17  N   UNL     1     -46.424  29.145  22.724  1.00  0.00    -0.365 N 
ATOM     18  H   UNL     1     -46.875  28.264  22.952  1.00  0.00     0.162 HD
BRANCH  17  19
ATOM     19  C   UNL     1     -45.037  29.015  22.341  1.00  0.00     0.006 C 
ATOM     20  H   UNL     1     -44.827  29.534  21.399  1.00  0.00     0.045 H 
ATOM     21  H   UNL     1     -44.800  27.958  22.189  1.00  0.00     0.045 H 
ATOM     22  H   UNL     1     -44.372  29.398  23.123  1.00  0.00     0.045 H 
ENDBRANCH  17  19
ENDBRANCH   6  17
ENDBRANCH   4   5
ENDBRANCH   1   4
BRANCH   1  23
ATOM     23  C   UNL     1     -46.792  36.111  28.692  1.00  0.00     0.123 C 
ATOM     24  O   UNL     1     -46.250  37.428  28.939  1.00  0.00    -0.345 OA
ATOM     25  C   UNL     1     -48.238  36.288  28.212  1.00  0.00     0.119 C 
ATOM     26  H   UNL     1     -46.776  35.565  29.641  1.00  0.00     0.067 H 
ATOM     27  C   UNL     1     -47.228  38.395  28.489  1.00  0.00     0.169 C 
ATOM     28  C   UNL     1     -48.204  37.660  27.580  1.00  0.00     0.173 C 
ATOM     29  H   UNL     1     -48.557  35.499  27.526  1.00  0.00     0.066 H 
ATOM     30  H   UNL     1     -47.728  38.770  29.391  1.00  0.00     0.088 H 
ATOM     31  F   UNL     1     -47.704  37.535  26.318  1.00  0.00    -0.239 F 
ATOM     32  H   UNL     1     -49.178  38.153  27.518  1.00  0.00     0.074 H 
BRANCH  25  33
ATOM     33  O   UNL     1     -49.133  36.297  29.331  1.00  0.00    -0.387 OA
ATOM     34  H   UNL     1     -49.292  37.228  29.574  1.00  0.00     0.211 HD
ENDBRANCH  25  33
BRANCH  27  35
ATOM     35  N   UNL     1     -46.571  39.524  27.852  1.00  0.00    -0.302 N 
ATOM     36  C   UNL     1     -45.223  39.723  27.696  1.00  0.00     0.019 A 
ATOM     37  C   UNL     1     -47.257  40.581  27.311  1.00  0.00     0.148 A 
ATOM     38  C   UNL     1     -45.042  40.932  27.045  1.00  0.00     0.033 A 
ATOM     39  H   UNL     1     -44.508  39.005  28.074  1.00  0.00     0.083 H 
ATOM     40  C   UNL     1     -46.337  41.477  26.776  1.00  0.00     0.071 A 
ATOM     41  N   UNL     1     -48.597  40.699  27.306  1.00  0.00    -0.218 NA
ATOM     42  C   UNL     1     -46.879  42.613  26.149  1.00  0.00     0.137 A 
ATOM     43  C   UNL     1     -48.987  41.837  26.709  1.00  0.00     0.120 A 
ATOM     44  N   UNL     1     -48.217  42.785  26.146  1.00  0.00    -0.219 NA
ATOM     45  H   UNL     1     -50.057  42.016  26.672  1.00  0.00     0.106 H 
BRANCH  38  46
ATOM     46  C   UNL     1     -43.751  41.545  26.712  1.00  0.00     0.095 A 
ATOM     47  C   UNL     1     -42.587  41.437  27.508  1.00  0.00    -0.016 A 
ATOM     48  N   UNL     1     -43.538  42.301  25.626  1.00  0.00    -0.173 NA
ATOM     49  C   UNL     1     -41.629  42.165  26.840  1.00  0.00     0.025 A 
ATOM     50  H   UNL     1     -42.459  40.901  28.436  1.00  0.00     0.066 H 
ATOM     51  N   UNL     1     -42.243  42.655  25.727  1.00  0.00    -0.275 N 
ATOM     52  H   UNL     1     -40.591  42.365  27.063  1.00  0.00     0.084 H 
BRANCH  51  53
ATOM     53  C   UNL     1     -41.651  43.479  24.702  1.00  0.00     0.030 C 
ATOM     54  H   UNL     1     -41.693  42.935  23.755  1.00  0.00     0.048 H 
ATOM     55  H   UNL     1     -42.210  44.415  24.619  1.00  0.00     0.048 H 
ATOM     56  H   UNL     1     -40.616  43.686  24.982  1.00  0.00     0.048 H 
ENDBRANCH  51  53
ENDBRANCH  38  46
BRANCH  42  57
ATOM     57  N   UNL     1     -46.122  43.592  25.523  1.00  0.00    -0.383 N 
ATOM     58  H   UNL     1     -45.360  43.933  26.116  1.00  0.00     0.158 HD
ATOM     59  H   UNL     1     -46.705  44.289  25.082  1.00  0.00     0.158 HD
ENDBRANCH  42  57
ENDBRANCH  27  35
ENDBRANCH   1  23
TORSDOF 10
ENDMDL
MODEL 7
REMARK VINA RESULT:      -8.1      2.677      3.571
REMARK SMILES CNc1nc2cc(OC[C@H]3O[C@@H](n4cc(-c5ccn(C)n5)c5c(N)ncnc54)[C@@H](F)[C@@H]3O)ccc2s1
REMARK SMILES IDX 9 1 8 4 7 5 3 6 4 7 36 8 5 9 35 10 6 11 34 12 33 14 2 17
REMARK SMILES IDX 1 19 10 23 11 24 31 25 12 27 29 28 30 31 32 33 13 35 14 36
REMARK SMILES IDX 28 37 15 38 22 40 27 41 23 42 26 43 25 44 16 46 17 47 21 48
REMARK SMILES IDX 18 49 19 51 20 53 24 57
REMARK H PARENT 9 2 9 3 6 13 34 15 33 16 2 18 1 20 1 21 1 22 10 26 31 29 12 30
REMARK H PARENT 29 32 32 34 14 39 26 45 17 50 18 52 20 54 20 55 20 56 24 58
REMARK H PARENT 24 59
REMARK Flexibility Score: inf
ROOT
ATOM      1  C   UNL     1     -46.953  34.888  25.969  1.00  0.00     0.117 C 
ATOM      2  H   UNL     1     -47.336  35.775  25.448  1.00  0.00     0.073 H 
ATOM      3  H   UNL     1     -47.856  34.311  26.201  1.00  0.00     0.073 H 
ENDROOT
BRANCH   1   4
ATOM      4  O   UNL     1     -46.148  34.066  25.124  1.00  0.00    -0.491 OA
BRANCH   4   5
ATOM      5  C   UNL     1     -46.602  32.820  24.790  1.00  0.00     0.121 A 
ATOM      6  C   UNL     1     -48.952  28.825  24.958  1.00  0.00     0.183 A 
ATOM      7  N   UNL     1     -48.819  29.935  25.645  1.00  0.00    -0.220 NA
ATOM      8  S   UNL     1     -47.993  28.743  23.530  1.00  0.00    -0.097 S 
ATOM      9  C   UNL     1     -47.912  30.785  25.034  1.00  0.00     0.087 A 
ATOM     10  C   UNL     1     -47.349  30.302  23.855  1.00  0.00     0.057 A 
ATOM     11  C   UNL     1     -47.533  32.061  25.505  1.00  0.00     0.007 A 
ATOM     12  C   UNL     1     -46.415  31.048  23.123  1.00  0.00    -0.039 A 
ATOM     13  H   UNL     1     -47.995  32.404  26.422  1.00  0.00     0.069 H 
ATOM     14  C   UNL     1     -46.057  32.309  23.612  1.00  0.00    -0.018 A 
ATOM     15  H   UNL     1     -45.983  30.663  22.205  1.00  0.00     0.064 H 
ATOM     16  H   UNL     1     -45.332  32.903  23.058  1.00  0.00     0.066 H 
BRANCH   6  17
ATOM     17  N   UNL     1     -49.805  27.856  25.370  1.00  0.00    -0.365 N 
ATOM     18  H   UNL     1     -49.743  27.684  26.370  1.00  0.00     0.162 HD
BRANCH  17  19
ATOM     19  C   UNL     1     -50.028  26.666  24.580  1.00  0.00     0.006 C 
ATOM     20  H   UNL     1     -49.208  26.487  23.877  1.00  0.00     0.045 H 
ATOM     21  H   UNL     1     -50.941  26.790  23.989  1.00  0.00     0.045 H 
ATOM     22  H   UNL     1     -50.160  25.785  25.219  1.00  0.00     0.045 H 
ENDBRANCH  17  19
ENDBRANCH   6  17
ENDBRANCH   4   5
ENDBRANCH   1   4
BRANCH   1  23
ATOM     23  C   UNL     1     -46.230  35.256  27.272  1.00  0.00     0.123 C 
ATOM     24  O   UNL     1     -45.871  36.654  27.208  1.00  0.00    -0.345 OA
ATOM     25  C   UNL     1     -47.099  35.056  28.521  1.00  0.00     0.119 C 
ATOM     26  H   UNL     1     -45.302  34.681  27.363  1.00  0.00     0.067 H 
ATOM     27  C   UNL     1     -46.597  37.340  28.257  1.00  0.00     0.169 C 
ATOM     28  C   UNL     1     -47.725  36.419  28.700  1.00  0.00     0.173 C 
ATOM     29  H   UNL     1     -47.828  34.251  28.406  1.00  0.00     0.066 H 
ATOM     30  H   UNL     1     -45.879  37.510  29.068  1.00  0.00     0.088 H 
ATOM     31  F   UNL     1     -48.795  36.509  27.860  1.00  0.00    -0.239 F 
ATOM     32  H   UNL     1     -48.067  36.628  29.718  1.00  0.00     0.074 H 
BRANCH  25  33
ATOM     33  O   UNL     1     -46.274  34.755  29.653  1.00  0.00    -0.387 OA
ATOM     34  H   UNL     1     -46.860  34.462  30.375  1.00  0.00     0.211 HD
ENDBRANCH  25  33
BRANCH  27  35
ATOM     35  N   UNL     1     -47.049  38.641  27.793  1.00  0.00    -0.302 N 
ATOM     36  C   UNL     1     -48.320  39.151  27.856  1.00  0.00     0.019 A 
ATOM     37  C   UNL     1     -46.216  39.557  27.203  1.00  0.00     0.148 A 
ATOM     38  C   UNL     1     -48.303  40.415  27.291  1.00  0.00     0.033 A 
ATOM     39  H   UNL     1     -49.132  38.571  28.274  1.00  0.00     0.083 H 
ATOM     40  C   UNL     1     -46.957  40.691  26.892  1.00  0.00     0.071 A 
ATOM     41  N   UNL     1     -44.903  39.363  26.984  1.00  0.00    -0.218 NA
ATOM     42  C   UNL     1     -46.242  41.749  26.302  1.00  0.00     0.137 A 
ATOM     43  C   UNL     1     -44.342  40.430  26.390  1.00  0.00     0.120 A 
ATOM     44  N   UNL     1     -44.928  41.587  26.039  1.00  0.00    -0.219 NA
ATOM     45  H   UNL     1     -43.283  40.351  26.167  1.00  0.00     0.106 H 
BRANCH  38  46
ATOM     46  C   UNL     1     -49.462  41.298  27.121  1.00  0.00     0.095 A 
ATOM     47  C   UNL     1     -50.493  41.456  28.076  1.00  0.00    -0.016 A 
ATOM     48  N   UNL     1     -49.687  42.037  26.025  1.00  0.00    -0.173 NA
ATOM     49  C   UNL     1     -51.370  42.352  27.510  1.00  0.00     0.025 A 
ATOM     50  H   UNL     1     -50.584  40.987  29.044  1.00  0.00     0.066 H 
ATOM     51  N   UNL     1     -50.844  42.669  26.294  1.00  0.00    -0.275 N 
ATOM     52  H   UNL     1     -52.298  42.776  27.867  1.00  0.00     0.084 H 
BRANCH  51  53
ATOM     53  C   UNL     1     -51.398  43.579  25.320  1.00  0.00     0.030 C 
ATOM     54  H   UNL     1     -52.243  44.100  25.777  1.00  0.00     0.048 H 
ATOM     55  H   UNL     1     -50.634  44.300  25.019  1.00  0.00     0.048 H 
ATOM     56  H   UNL     1     -51.726  42.998  24.454  1.00  0.00     0.048 H 
ENDBRANCH  51  53
ENDBRANCH  38  46
BRANCH  42  57
ATOM     57  N   UNL     1     -46.800  42.972  25.962  1.00  0.00    -0.383 N 
ATOM     58  H   UNL     1     -46.101  43.720  25.920  1.00  0.00     0.158 HD
ATOM     59  H   UNL     1     -47.639  43.160  26.493  1.00  0.00     0.158 HD
ENDBRANCH  42  57
ENDBRANCH  27  35
ENDBRANCH   1  23
TORSDOF 10
ENDMDL
