MODEL 1
REMARK VINA RESULT:      -9.2      0.000      0.000
REMARK SMILES CNc1ccc2ccc(OC[C@H]3O[C@@H](n4cc(C5CCCCC5)c5c(N)ncnc54)[C@H](O)[C@@H]3O)cc2n1
REMARK SMILES IDX 11 1 10 4 9 5 3 6 4 7 37 8 5 9 36 11 6 12 35 14 7 15 8 17
REMARK SMILES IDX 2 20 1 22 12 26 13 27 33 28 14 30 31 31 34 35 15 37 16 38
REMARK SMILES IDX 30 39 17 40 24 42 29 43 25 44 28 45 27 46 18 48 19 49 23 50
REMARK SMILES IDX 20 52 22 55 21 58 26 65 32 68
REMARK H PARENT 11 2 11 3 4 10 5 13 35 16 7 18 8 19 2 21 1 23 1 24 1 25 12 29
REMARK H PARENT 33 32 14 33 31 34 34 36 16 41 28 47 18 51 19 53 19 54 23 56
REMARK H PARENT 23 57 20 59 20 60 22 61 22 62 21 63 21 64 26 66 26 67 32 69
REMARK Flexibility Score: inf
ROOT
ATOM      1  C   UNL     1     -46.788  36.277  26.415  1.00  0.00     0.117 C 
ATOM      2  H   UNL     1     -47.659  36.093  25.773  1.00  0.00     0.073 H 
ATOM      3  H   UNL     1     -46.091  36.929  25.882  1.00  0.00     0.073 H 
ENDROOT
BRANCH   1   4
ATOM      4  O   UNL     1     -46.204  34.998  26.724  1.00  0.00    -0.491 OA
BRANCH   4   5
ATOM      5  C   UNL     1     -46.851  33.987  26.068  1.00  0.00     0.121 A 
ATOM      6  C   UNL     1     -46.791  30.475  22.876  1.00  0.00     0.126 A 
ATOM      7  C   UNL     1     -48.126  30.171  23.121  1.00  0.00    -0.019 A 
ATOM      8  N   UNL     1     -46.162  31.469  23.534  1.00  0.00    -0.231 NA
ATOM      9  C   UNL     1     -48.831  30.900  24.076  1.00  0.00    -0.049 A 
ATOM     10  H   UNL     1     -48.621  29.383  22.564  1.00  0.00     0.066 H 
ATOM     11  C   UNL     1     -46.834  32.173  24.462  1.00  0.00     0.076 A 
ATOM     12  C   UNL     1     -48.188  31.929  24.768  1.00  0.00     0.001 A 
ATOM     13  H   UNL     1     -49.874  30.666  24.262  1.00  0.00     0.063 H 
ATOM     14  C   UNL     1     -46.181  33.186  25.145  1.00  0.00     0.007 A 
ATOM     15  C   UNL     1     -48.851  32.704  25.736  1.00  0.00    -0.049 A 
ATOM     16  H   UNL     1     -45.126  33.354  24.952  1.00  0.00     0.069 H 
ATOM     17  C   UNL     1     -48.178  33.735  26.390  1.00  0.00    -0.019 A 
ATOM     18  H   UNL     1     -49.893  32.510  25.982  1.00  0.00     0.063 H 
ATOM     19  H   UNL     1     -48.686  34.335  27.139  1.00  0.00     0.066 H 
BRANCH   6  20
ATOM     20  N   UNL     1     -46.121  29.741  21.881  1.00  0.00    -0.373 N 
ATOM     21  H   UNL     1     -46.787  29.129  21.421  1.00  0.00     0.161 HD
BRANCH  20  22
ATOM     22  C   UNL     1     -44.958  29.010  22.362  1.00  0.00     0.005 C 
ATOM     23  H   UNL     1     -44.616  28.332  21.573  1.00  0.00     0.045 H 
ATOM     24  H   UNL     1     -45.194  28.403  23.242  1.00  0.00     0.045 H 
ATOM     25  H   UNL     1     -44.129  29.688  22.588  1.00  0.00     0.045 H 
ENDBRANCH  20  22
ENDBRANCH   6  20
ENDBRANCH   4   5
ENDBRANCH   1   4
BRANCH   1  26
ATOM     26  C   UNL     1     -47.236  36.940  27.722  1.00  0.00     0.123 C 
ATOM     27  O   UNL     1     -46.140  37.710  28.277  1.00  0.00    -0.345 OA
ATOM     28  C   UNL     1     -48.392  37.917  27.506  1.00  0.00     0.114 C 
ATOM     29  H   UNL     1     -47.487  36.174  28.463  1.00  0.00     0.067 H 
ATOM     30  C   UNL     1     -46.510  39.107  28.244  1.00  0.00     0.164 C 
ATOM     31  C   UNL     1     -47.691  39.247  27.282  1.00  0.00     0.128 C 
ATOM     32  H   UNL     1     -49.075  37.646  26.696  1.00  0.00     0.066 H 
ATOM     33  H   UNL     1     -46.824  39.377  29.261  1.00  0.00     0.088 H 
ATOM     34  H   UNL     1     -47.380  39.342  26.239  1.00  0.00     0.068 H 
BRANCH  28  35
ATOM     35  O   UNL     1     -49.185  38.044  28.704  1.00  0.00    -0.387 OA
ATOM     36  H   UNL     1     -49.531  38.956  28.733  1.00  0.00     0.211 HD
ENDBRANCH  28  35
BRANCH  30  37
ATOM     37  N   UNL     1     -45.338  39.914  27.942  1.00  0.00    -0.303 N 
ATOM     38  C   UNL     1     -45.251  40.758  26.858  1.00  0.00     0.013 A 
ATOM     39  C   UNL     1     -44.169  39.976  28.656  1.00  0.00     0.147 A 
ATOM     40  C   UNL     1     -44.007  41.366  26.853  1.00  0.00    -0.014 A 
ATOM     41  H   UNL     1     -46.081  40.848  26.169  1.00  0.00     0.082 H 
ATOM     42  C   UNL     1     -43.322  40.884  28.026  1.00  0.00     0.065 A 
ATOM     43  N   UNL     1     -43.895  39.278  29.774  1.00  0.00    -0.218 NA
ATOM     44  C   UNL     1     -42.074  41.099  28.641  1.00  0.00     0.136 A 
ATOM     45  C   UNL     1     -42.678  39.568  30.260  1.00  0.00     0.120 A 
ATOM     46  N   UNL     1     -41.768  40.424  29.765  1.00  0.00    -0.219 NA
ATOM     47  H   UNL     1     -42.394  39.054  31.175  1.00  0.00     0.106 H 
BRANCH  40  48
ATOM     48  C   UNL     1     -43.478  42.350  25.830  1.00  0.00    -0.014 C 
ATOM     49  C   UNL     1     -44.212  42.297  24.470  1.00  0.00    -0.046 C 
ATOM     50  C   UNL     1     -43.417  43.776  26.400  1.00  0.00    -0.046 C 
ATOM     51  H   UNL     1     -42.446  42.044  25.614  1.00  0.00     0.035 H 
ATOM     52  C   UNL     1     -44.913  43.602  24.089  1.00  0.00    -0.053 C 
ATOM     53  H   UNL     1     -44.936  41.474  24.434  1.00  0.00     0.027 H 
ATOM     54  H   UNL     1     -43.483  42.068  23.683  1.00  0.00     0.027 H 
ATOM     55  C   UNL     1     -44.784  44.458  26.479  1.00  0.00    -0.053 C 
ATOM     56  H   UNL     1     -42.765  44.379  25.756  1.00  0.00     0.027 H 
ATOM     57  H   UNL     1     -42.952  43.784  27.393  1.00  0.00     0.027 H 
ATOM     58  C   UNL     1     -45.674  44.203  25.262  1.00  0.00    -0.053 C 
ATOM     59  H   UNL     1     -44.171  44.324  23.727  1.00  0.00     0.027 H 
ATOM     60  H   UNL     1     -45.599  43.417  23.254  1.00  0.00     0.027 H 
ATOM     61  H   UNL     1     -45.313  44.133  27.383  1.00  0.00     0.027 H 
ATOM     62  H   UNL     1     -44.628  45.538  26.597  1.00  0.00     0.027 H 
ATOM     63  H   UNL     1     -46.490  43.529  25.546  1.00  0.00     0.027 H 
ATOM     64  H   UNL     1     -46.151  45.141  24.954  1.00  0.00     0.027 H 
ENDBRANCH  40  48
BRANCH  44  65
ATOM     65  N   UNL     1     -41.115  42.002  28.194  1.00  0.00    -0.383 N 
ATOM     66  H   UNL     1     -40.205  41.711  28.531  1.00  0.00     0.158 HD
ATOM     67  H   UNL     1     -41.356  42.965  28.382  1.00  0.00     0.158 HD
ENDBRANCH  44  65
ENDBRANCH  30  37
BRANCH  31  68
ATOM     68  O   UNL     1     -48.559  40.336  27.598  1.00  0.00    -0.386 OA
ATOM     69  H   UNL     1     -49.411  40.125  27.161  1.00  0.00     0.211 HD
ENDBRANCH  31  68
ENDBRANCH   1  26
TORSDOF 10
ENDMDL
MODEL 2
REMARK VINA RESULT:      -9.1      2.985     11.239
REMARK SMILES CNc1ccc2ccc(OC[C@H]3O[C@@H](n4cc(C5CCCCC5)c5c(N)ncnc54)[C@H](O)[C@@H]3O)cc2n1
REMARK SMILES IDX 11 1 10 4 9 5 3 6 4 7 37 8 5 9 36 11 6 12 35 14 7 15 8 17
REMARK SMILES IDX 2 20 1 22 12 26 13 27 33 28 14 30 31 31 34 35 15 37 16 38
REMARK SMILES IDX 30 39 17 40 24 42 29 43 25 44 28 45 27 46 18 48 19 49 23 50
REMARK SMILES IDX 20 52 22 55 21 58 26 65 32 68
REMARK H PARENT 11 2 11 3 4 10 5 13 35 16 7 18 8 19 2 21 1 23 1 24 1 25 12 29
REMARK H PARENT 33 32 14 33 31 34 34 36 16 41 28 47 18 51 19 53 19 54 23 56
REMARK H PARENT 23 57 20 59 20 60 22 61 22 62 21 63 21 64 26 66 26 67 32 69
REMARK Flexibility Score: inf
ROOT
ATOM      1  C   UNL     1     -48.644  34.606  26.491  1.00  0.00     0.117 C 
ATOM      2  H   UNL     1     -48.348  35.365  25.755  1.00  0.00     0.073 H 
ATOM      3  H   UNL     1     -49.582  34.148  26.167  1.00  0.00     0.073 H 
ENDROOT
BRANCH   1   4
ATOM      4  O   UNL     1     -48.778  35.269  27.762  1.00  0.00    -0.491 OA
BRANCH   4   5
ATOM      5  C   UNL     1     -47.739  36.131  27.983  1.00  0.00     0.121 A 
ATOM      6  C   UNL     1     -45.324  40.031  26.763  1.00  0.00     0.126 A 
ATOM      7  C   UNL     1     -44.417  39.846  27.801  1.00  0.00    -0.019 A 
ATOM      8  N   UNL     1     -46.348  39.179  26.562  1.00  0.00    -0.231 NA
ATOM      9  C   UNL     1     -44.571  38.762  28.661  1.00  0.00    -0.049 A 
ATOM     10  H   UNL     1     -43.585  40.530  27.932  1.00  0.00     0.066 H 
ATOM     11  C   UNL     1     -46.508  38.133  27.393  1.00  0.00     0.076 A 
ATOM     12  C   UNL     1     -45.632  37.874  28.466  1.00  0.00     0.001 A 
ATOM     13  H   UNL     1     -43.859  38.614  29.468  1.00  0.00     0.063 H 
ATOM     14  C   UNL     1     -47.569  37.265  27.189  1.00  0.00     0.007 A 
ATOM     15  C   UNL     1     -45.833  36.758  29.298  1.00  0.00    -0.049 A 
ATOM     16  H   UNL     1     -48.277  37.479  26.395  1.00  0.00     0.069 H 
ATOM     17  C   UNL     1     -46.892  35.886  29.055  1.00  0.00    -0.019 A 
ATOM     18  H   UNL     1     -45.164  36.562  30.132  1.00  0.00     0.063 H 
ATOM     19  H   UNL     1     -47.052  35.023  29.695  1.00  0.00     0.066 H 
BRANCH   6  20
ATOM     20  N   UNL     1     -45.117  41.117  25.894  1.00  0.00    -0.373 N 
ATOM     21  H   UNL     1     -44.205  41.519  26.084  1.00  0.00     0.161 HD
BRANCH  20  22
ATOM     22  C   UNL     1     -46.169  42.122  25.935  1.00  0.00     0.005 C 
ATOM     23  H   UNL     1     -45.759  43.077  25.591  1.00  0.00     0.045 H 
ATOM     24  H   UNL     1     -46.550  42.271  26.950  1.00  0.00     0.045 H 
ATOM     25  H   UNL     1     -46.993  41.862  25.262  1.00  0.00     0.045 H 
ENDBRANCH  20  22
ENDBRANCH   6  20
ENDBRANCH   4   5
ENDBRANCH   1   4
BRANCH   1  26
ATOM     26  C   UNL     1     -47.550  33.539  26.607  1.00  0.00     0.123 C 
ATOM     27  O   UNL     1     -48.154  32.222  26.634  1.00  0.00    -0.345 OA
ATOM     28  C   UNL     1     -46.597  33.559  25.412  1.00  0.00     0.114 C 
ATOM     29  H   UNL     1     -47.012  33.657  27.555  1.00  0.00     0.067 H 
ATOM     30  C   UNL     1     -47.754  31.519  25.436  1.00  0.00     0.164 C 
ATOM     31  C   UNL     1     -47.218  32.558  24.451  1.00  0.00     0.128 C 
ATOM     32  H   UNL     1     -46.441  34.546  24.967  1.00  0.00     0.066 H 
ATOM     33  H   UNL     1     -46.949  30.830  25.726  1.00  0.00     0.088 H 
ATOM     34  H   UNL     1     -48.007  33.035  23.864  1.00  0.00     0.068 H 
BRANCH  28  35
ATOM     35  O   UNL     1     -45.299  33.052  25.783  1.00  0.00    -0.387 OA
ATOM     36  H   UNL     1     -44.738  33.066  24.985  1.00  0.00     0.211 HD
ENDBRANCH  28  35
BRANCH  30  37
ATOM     37  N   UNL     1     -48.857  30.696  24.964  1.00  0.00    -0.303 N 
ATOM     38  C   UNL     1     -49.809  31.135  24.071  1.00  0.00     0.013 A 
ATOM     39  C   UNL     1     -49.125  29.395  25.306  1.00  0.00     0.147 A 
ATOM     40  C   UNL     1     -50.718  30.117  23.840  1.00  0.00    -0.014 A 
ATOM     41  H   UNL     1     -49.767  32.144  23.682  1.00  0.00     0.082 H 
ATOM     42  C   UNL     1     -50.263  28.990  24.613  1.00  0.00     0.065 A 
ATOM     43  N   UNL     1     -48.408  28.647  26.164  1.00  0.00    -0.218 NA
ATOM     44  C   UNL     1     -50.674  27.659  24.820  1.00  0.00     0.136 A 
ATOM     45  C   UNL     1     -48.903  27.404  26.279  1.00  0.00     0.120 A 
ATOM     46  N   UNL     1     -49.977  26.878  25.666  1.00  0.00    -0.219 NA
ATOM     47  H   UNL     1     -48.362  26.734  26.942  1.00  0.00     0.106 H 
BRANCH  40  48
ATOM     48  C   UNL     1     -51.939  30.173  22.944  1.00  0.00    -0.014 C 
ATOM     49  C   UNL     1     -52.425  31.608  22.634  1.00  0.00    -0.046 C 
ATOM     50  C   UNL     1     -51.738  29.341  21.667  1.00  0.00    -0.046 C 
ATOM     51  H   UNL     1     -52.756  29.706  23.508  1.00  0.00     0.035 H 
ATOM     52  C   UNL     1     -52.386  31.972  21.148  1.00  0.00    -0.053 C 
ATOM     53  H   UNL     1     -51.862  32.357  23.204  1.00  0.00     0.027 H 
ATOM     54  H   UNL     1     -53.463  31.712  22.975  1.00  0.00     0.027 H 
ATOM     55  C   UNL     1     -50.840  30.021  20.634  1.00  0.00    -0.053 C 
ATOM     56  H   UNL     1     -52.720  29.164  21.211  1.00  0.00     0.027 H 
ATOM     57  H   UNL     1     -51.331  28.350  21.902  1.00  0.00     0.027 H 
ATOM     58  C   UNL     1     -51.091  31.522  20.486  1.00  0.00    -0.053 C 
ATOM     59  H   UNL     1     -53.238  31.509  20.636  1.00  0.00     0.027 H 
ATOM     60  H   UNL     1     -52.507  33.055  21.035  1.00  0.00     0.027 H 
ATOM     61  H   UNL     1     -49.785  29.860  20.890  1.00  0.00     0.027 H 
ATOM     62  H   UNL     1     -50.989  29.530  19.664  1.00  0.00     0.027 H 
ATOM     63  H   UNL     1     -50.252  32.075  20.924  1.00  0.00     0.027 H 
ATOM     64  H   UNL     1     -51.106  31.789  19.423  1.00  0.00     0.027 H 
ENDBRANCH  40  48
BRANCH  44  65
ATOM     65  N   UNL     1     -51.752  27.055  24.181  1.00  0.00    -0.383 N 
ATOM     66  H   UNL     1     -52.447  26.802  24.874  1.00  0.00     0.158 HD
ATOM     67  H   UNL     1     -51.478  26.310  23.556  1.00  0.00     0.158 HD
ENDBRANCH  44  65
ENDBRANCH  30  37
BRANCH  31  68
ATOM     68  O   UNL     1     -46.234  32.041  23.554  1.00  0.00    -0.386 OA
ATOM     69  H   UNL     1     -45.533  31.664  24.126  1.00  0.00     0.211 HD
ENDBRANCH  31  68
ENDBRANCH   1  26
TORSDOF 10
ENDMDL
MODEL 3
REMARK VINA RESULT:      -8.9      2.576      4.127
REMARK SMILES CNc1ccc2ccc(OC[C@H]3O[C@@H](n4cc(C5CCCCC5)c5c(N)ncnc54)[C@H](O)[C@@H]3O)cc2n1
REMARK SMILES IDX 11 1 10 4 9 5 3 6 4 7 37 8 5 9 36 11 6 12 35 14 7 15 8 17
REMARK SMILES IDX 2 20 1 22 12 26 13 27 33 28 14 30 31 31 34 35 15 37 16 38
REMARK SMILES IDX 30 39 17 40 24 42 29 43 25 44 28 45 27 46 18 48 19 49 23 50
REMARK SMILES IDX 20 52 22 55 21 58 26 65 32 68
REMARK H PARENT 11 2 11 3 4 10 5 13 35 16 7 18 8 19 2 21 1 23 1 24 1 25 12 29
REMARK H PARENT 33 32 14 33 31 34 34 36 16 41 28 47 18 51 19 53 19 54 23 56
REMARK H PARENT 23 57 20 59 20 60 22 61 22 62 21 63 21 64 26 66 26 67 32 69
REMARK Flexibility Score: inf
ROOT
ATOM      1  C   UNL     1     -48.053  35.846  26.917  1.00  0.00     0.117 C 
ATOM      2  H   UNL     1     -48.818  36.476  27.388  1.00  0.00     0.073 H 
ATOM      3  H   UNL     1     -48.130  35.951  25.832  1.00  0.00     0.073 H 
ENDROOT
BRANCH   1   4
ATOM      4  O   UNL     1     -48.288  34.491  27.346  1.00  0.00    -0.491 OA
BRANCH   4   5
ATOM      5  C   UNL     1     -47.850  33.594  26.411  1.00  0.00     0.121 A 
ATOM      6  C   UNL     1     -48.239  29.362  24.297  1.00  0.00     0.126 A 
ATOM      7  C   UNL     1     -47.163  29.633  23.459  1.00  0.00    -0.019 A 
ATOM      8  N   UNL     1     -48.666  30.258  25.209  1.00  0.00    -0.231 NA
ATOM      9  C   UNL     1     -46.513  30.861  23.554  1.00  0.00    -0.049 A 
ATOM     10  H   UNL     1     -46.819  28.889  22.748  1.00  0.00     0.066 H 
ATOM     11  C   UNL     1     -48.048  31.449  25.301  1.00  0.00     0.076 A 
ATOM     12  C   UNL     1     -46.950  31.800  24.491  1.00  0.00     0.001 A 
ATOM     13  H   UNL     1     -45.669  31.070  22.904  1.00  0.00     0.063 H 
ATOM     14  C   UNL     1     -48.497  32.372  26.232  1.00  0.00     0.007 A 
ATOM     15  C   UNL     1     -46.328  33.053  24.637  1.00  0.00    -0.049 A 
ATOM     16  H   UNL     1     -49.371  32.132  26.830  1.00  0.00     0.069 H 
ATOM     17  C   UNL     1     -46.782  33.953  25.599  1.00  0.00    -0.019 A 
ATOM     18  H   UNL     1     -45.487  33.330  24.006  1.00  0.00     0.063 H 
ATOM     19  H   UNL     1     -46.306  34.922  25.715  1.00  0.00     0.066 H 
BRANCH   6  20
ATOM     20  N   UNL     1     -48.848  28.098  24.197  1.00  0.00    -0.373 N 
ATOM     21  H   UNL     1     -49.844  28.225  24.048  1.00  0.00     0.161 HD
BRANCH  20  22
ATOM     22  C   UNL     1     -48.580  27.217  25.324  1.00  0.00     0.005 C 
ATOM     23  H   UNL     1     -49.473  26.616  25.524  1.00  0.00     0.045 H 
ATOM     24  H   UNL     1     -48.349  27.779  26.235  1.00  0.00     0.045 H 
ATOM     25  H   UNL     1     -47.765  26.521  25.099  1.00  0.00     0.045 H 
ENDBRANCH  20  22
ENDBRANCH   6  20
ENDBRANCH   4   5
ENDBRANCH   1   4
BRANCH   1  26
ATOM     26  C   UNL     1     -46.660  36.276  27.391  1.00  0.00     0.123 C 
ATOM     27  O   UNL     1     -46.309  37.544  26.784  1.00  0.00    -0.345 OA
ATOM     28  C   UNL     1     -46.607  36.485  28.904  1.00  0.00     0.114 C 
ATOM     29  H   UNL     1     -45.911  35.549  27.056  1.00  0.00     0.067 H 
ATOM     30  C   UNL     1     -46.219  38.535  27.832  1.00  0.00     0.164 C 
ATOM     31  C   UNL     1     -46.920  37.964  29.066  1.00  0.00     0.128 C 
ATOM     32  H   UNL     1     -47.273  35.837  29.481  1.00  0.00     0.066 H 
ATOM     33  H   UNL     1     -45.151  38.678  28.043  1.00  0.00     0.088 H 
ATOM     34  H   UNL     1     -48.000  38.127  29.055  1.00  0.00     0.068 H 
BRANCH  28  35
ATOM     35  O   UNL     1     -45.270  36.270  29.404  1.00  0.00    -0.387 OA
ATOM     36  H   UNL     1     -45.192  36.749  30.250  1.00  0.00     0.211 HD
ENDBRANCH  28  35
BRANCH  30  37
ATOM     37  N   UNL     1     -46.721  39.809  27.341  1.00  0.00    -0.303 N 
ATOM     38  C   UNL     1     -48.008  40.252  27.546  1.00  0.00     0.013 A 
ATOM     39  C   UNL     1     -46.028  40.752  26.626  1.00  0.00     0.147 A 
ATOM     40  C   UNL     1     -48.164  41.489  26.945  1.00  0.00    -0.014 A 
ATOM     41  H   UNL     1     -48.714  39.642  28.095  1.00  0.00     0.082 H 
ATOM     42  C   UNL     1     -46.883  41.823  26.377  1.00  0.00     0.065 A 
ATOM     43  N   UNL     1     -44.744  40.653  26.237  1.00  0.00    -0.218 NA
ATOM     44  C   UNL     1     -46.328  42.908  25.671  1.00  0.00     0.136 A 
ATOM     45  C   UNL     1     -44.336  41.745  25.571  1.00  0.00     0.120 A 
ATOM     46  N   UNL     1     -45.045  42.848  25.272  1.00  0.00    -0.219 NA
ATOM     47  H   UNL     1     -43.300  41.746  25.241  1.00  0.00     0.106 H 
BRANCH  40  48
ATOM     48  C   UNL     1     -49.425  42.329  26.903  1.00  0.00    -0.014 C 
ATOM     49  C   UNL     1     -50.730  41.501  26.885  1.00  0.00    -0.046 C 
ATOM     50  C   UNL     1     -49.429  43.392  28.014  1.00  0.00    -0.046 C 
ATOM     51  H   UNL     1     -49.407  42.864  25.945  1.00  0.00     0.035 H 
ATOM     52  C   UNL     1     -51.641  41.746  28.090  1.00  0.00    -0.053 C 
ATOM     53  H   UNL     1     -50.526  40.427  26.799  1.00  0.00     0.027 H 
ATOM     54  H   UNL     1     -51.298  41.756  25.981  1.00  0.00     0.027 H 
ATOM     55  C   UNL     1     -49.747  42.824  29.397  1.00  0.00    -0.053 C 
ATOM     56  H   UNL     1     -50.185  44.148  27.767  1.00  0.00     0.027 H 
ATOM     57  H   UNL     1     -48.471  43.924  28.054  1.00  0.00     0.027 H 
ATOM     58  C   UNL     1     -50.860  41.776  29.396  1.00  0.00    -0.053 C 
ATOM     59  H   UNL     1     -52.172  42.696  27.960  1.00  0.00     0.027 H 
ATOM     60  H   UNL     1     -52.409  40.964  28.132  1.00  0.00     0.027 H 
ATOM     61  H   UNL     1     -48.844  42.385  29.839  1.00  0.00     0.027 H 
ATOM     62  H   UNL     1     -50.028  43.654  30.058  1.00  0.00     0.027 H 
ATOM     63  H   UNL     1     -50.426  40.787  29.580  1.00  0.00     0.027 H 
ATOM     64  H   UNL     1     -51.543  41.966  30.233  1.00  0.00     0.027 H 
ENDBRANCH  40  48
BRANCH  44  65
ATOM     65  N   UNL     1     -47.004  44.086  25.372  1.00  0.00    -0.383 N 
ATOM     66  H   UNL     1     -46.455  44.873  25.698  1.00  0.00     0.158 HD
ATOM     67  H   UNL     1     -47.968  44.081  25.674  1.00  0.00     0.158 HD
ENDBRANCH  44  65
ENDBRANCH  30  37
BRANCH  31  68
ATOM     68  O   UNL     1     -46.398  38.460  30.300  1.00  0.00    -0.386 OA
ATOM     69  H   UNL     1     -46.403  37.693  30.911  1.00  0.00     0.211 HD
ENDBRANCH  31  68
ENDBRANCH   1  26
TORSDOF 10
ENDMDL
MODEL 4
REMARK VINA RESULT:      -8.8      2.885     11.482
REMARK SMILES CNc1ccc2ccc(OC[C@H]3O[C@@H](n4cc(C5CCCCC5)c5c(N)ncnc54)[C@H](O)[C@@H]3O)cc2n1
REMARK SMILES IDX 11 1 10 4 9 5 3 6 4 7 37 8 5 9 36 11 6 12 35 14 7 15 8 17
REMARK SMILES IDX 2 20 1 22 12 26 13 27 33 28 14 30 31 31 34 35 15 37 16 38
REMARK SMILES IDX 30 39 17 40 24 42 29 43 25 44 28 45 27 46 18 48 19 49 23 50
REMARK SMILES IDX 20 52 22 55 21 58 26 65 32 68
REMARK H PARENT 11 2 11 3 4 10 5 13 35 16 7 18 8 19 2 21 1 23 1 24 1 25 12 29
REMARK H PARENT 33 32 14 33 31 34 34 36 16 41 28 47 18 51 19 53 19 54 23 56
REMARK H PARENT 23 57 20 59 20 60 22 61 22 62 21 63 21 64 26 66 26 67 32 69
REMARK Flexibility Score: inf
ROOT
ATOM      1  C   UNL     1     -49.021  34.739  26.671  1.00  0.00     0.117 C 
ATOM      2  H   UNL     1     -48.949  35.368  25.775  1.00  0.00     0.073 H 
ATOM      3  H   UNL     1     -49.858  34.046  26.547  1.00  0.00     0.073 H 
ENDROOT
BRANCH   1   4
ATOM      4  O   UNL     1     -49.209  35.615  27.798  1.00  0.00    -0.491 OA
BRANCH   4   5
ATOM      5  C   UNL     1     -48.113  36.410  27.995  1.00  0.00     0.121 A 
ATOM      6  C   UNL     1     -45.379  40.033  26.608  1.00  0.00     0.126 A 
ATOM      7  C   UNL     1     -44.514  39.848  27.681  1.00  0.00    -0.019 A 
ATOM      8  N   UNL     1     -46.460  39.249  26.430  1.00  0.00    -0.231 NA
ATOM      9  C   UNL     1     -44.771  38.835  28.601  1.00  0.00    -0.049 A 
ATOM     10  H   UNL     1     -43.636  40.475  27.793  1.00  0.00     0.066 H 
ATOM     11  C   UNL     1     -46.719  38.273  27.319  1.00  0.00     0.076 A 
ATOM     12  C   UNL     1     -45.891  38.018  28.430  1.00  0.00     0.001 A 
ATOM     13  H   UNL     1     -44.092  38.686  29.435  1.00  0.00     0.063 H 
ATOM     14  C   UNL     1     -47.837  37.476  27.139  1.00  0.00     0.007 A 
ATOM     15  C   UNL     1     -46.197  36.975  29.323  1.00  0.00    -0.049 A 
ATOM     16  H   UNL     1     -48.508  37.690  26.312  1.00  0.00     0.069 H 
ATOM     17  C   UNL     1     -47.313  36.170  29.104  1.00  0.00    -0.019 A 
ATOM     18  H   UNL     1     -45.565  36.783  30.187  1.00  0.00     0.063 H 
ATOM     19  H   UNL     1     -47.554  35.364  29.791  1.00  0.00     0.066 H 
BRANCH   6  20
ATOM     20  N   UNL     1     -45.069  41.043  25.680  1.00  0.00    -0.373 N 
ATOM     21  H   UNL     1     -44.918  40.618  24.771  1.00  0.00     0.161 HD
BRANCH  20  22
ATOM     22  C   UNL     1     -43.951  41.889  26.071  1.00  0.00     0.005 C 
ATOM     23  H   UNL     1     -43.244  41.950  25.237  1.00  0.00     0.045 H 
ATOM     24  H   UNL     1     -43.413  41.480  26.933  1.00  0.00     0.045 H 
ATOM     25  H   UNL     1     -44.282  42.910  26.290  1.00  0.00     0.045 H 
ENDBRANCH  20  22
ENDBRANCH   6  20
ENDBRANCH   4   5
ENDBRANCH   1   4
BRANCH   1  26
ATOM     26  C   UNL     1     -47.716  33.960  26.867  1.00  0.00     0.123 C 
ATOM     27  O   UNL     1     -47.992  32.537  26.861  1.00  0.00    -0.345 OA
ATOM     28  C   UNL     1     -46.717  34.217  25.739  1.00  0.00     0.114 C 
ATOM     29  H   UNL     1     -47.286  34.192  27.848  1.00  0.00     0.067 H 
ATOM     30  C   UNL     1     -47.357  31.961  25.697  1.00  0.00     0.164 C 
ATOM     31  C   UNL     1     -47.018  33.107  24.744  1.00  0.00     0.128 C 
ATOM     32  H   UNL     1     -46.769  35.217  25.299  1.00  0.00     0.066 H 
ATOM     33  H   UNL     1     -46.433  31.479  26.044  1.00  0.00     0.088 H 
ATOM     34  H   UNL     1     -47.856  33.389  24.102  1.00  0.00     0.068 H 
BRANCH  28  35
ATOM     35  O   UNL     1     -45.363  34.028  26.200  1.00  0.00    -0.387 OA
ATOM     36  H   UNL     1     -44.781  34.561  25.628  1.00  0.00     0.211 HD
ENDBRANCH  28  35
BRANCH  30  37
ATOM     37  N   UNL     1     -48.200  30.905  25.157  1.00  0.00    -0.303 N 
ATOM     38  C   UNL     1     -47.845  29.575  25.148  1.00  0.00     0.013 A 
ATOM     39  C   UNL     1     -49.441  31.044  24.592  1.00  0.00     0.147 A 
ATOM     40  C   UNL     1     -48.857  28.838  24.557  1.00  0.00    -0.014 A 
ATOM     41  H   UNL     1     -46.891  29.262  25.554  1.00  0.00     0.082 H 
ATOM     42  C   UNL     1     -49.895  29.780  24.224  1.00  0.00     0.065 A 
ATOM     43  N   UNL     1     -50.101  32.205  24.426  1.00  0.00    -0.218 NA
ATOM     44  C   UNL     1     -51.179  29.726  23.648  1.00  0.00     0.136 A 
ATOM     45  C   UNL     1     -51.307  32.021  23.865  1.00  0.00     0.120 A 
ATOM     46  N   UNL     1     -51.872  30.866  23.473  1.00  0.00    -0.219 NA
ATOM     47  H   UNL     1     -51.907  32.914  23.717  1.00  0.00     0.106 H 
BRANCH  40  48
ATOM     48  C   UNL     1     -48.875  27.342  24.318  1.00  0.00    -0.014 C 
ATOM     49  C   UNL     1     -47.491  26.668  24.460  1.00  0.00    -0.046 C 
ATOM     50  C   UNL     1     -49.947  26.650  25.175  1.00  0.00    -0.046 C 
ATOM     51  H   UNL     1     -49.160  27.201  23.268  1.00  0.00     0.035 H 
ATOM     52  C   UNL     1     -47.419  25.619  25.571  1.00  0.00    -0.053 C 
ATOM     53  H   UNL     1     -46.695  27.407  24.609  1.00  0.00     0.027 H 
ATOM     54  H   UNL     1     -47.242  26.168  23.515  1.00  0.00     0.027 H 
ATOM     55  C   UNL     1     -49.548  26.500  26.644  1.00  0.00    -0.053 C 
ATOM     56  H   UNL     1     -50.128  25.649  24.761  1.00  0.00     0.027 H 
ATOM     57  H   UNL     1     -50.905  27.180  25.113  1.00  0.00     0.027 H 
ATOM     58  C   UNL     1     -48.087  26.100  26.851  1.00  0.00    -0.053 C 
ATOM     59  H   UNL     1     -47.901  24.694  25.233  1.00  0.00     0.027 H 
ATOM     60  H   UNL     1     -46.371  25.368  25.769  1.00  0.00     0.027 H 
ATOM     61  H   UNL     1     -49.742  27.436  27.181  1.00  0.00     0.027 H 
ATOM     62  H   UNL     1     -50.201  25.750  27.107  1.00  0.00     0.027 H 
ATOM     63  H   UNL     1     -47.530  26.956  27.249  1.00  0.00     0.027 H 
ATOM     64  H   UNL     1     -48.027  25.319  27.618  1.00  0.00     0.027 H 
ENDBRANCH  40  48
BRANCH  44  65
ATOM     65  N   UNL     1     -51.826  28.555  23.264  1.00  0.00    -0.383 N 
ATOM     66  H   UNL     1     -52.826  28.715  23.268  1.00  0.00     0.158 HD
ATOM     67  H   UNL     1     -51.518  27.742  23.779  1.00  0.00     0.158 HD
ENDBRANCH  44  65
ENDBRANCH  30  37
BRANCH  31  68
ATOM     68  O   UNL     1     -45.882  32.847  23.918  1.00  0.00    -0.386 OA
ATOM     69  H   UNL     1     -45.311  33.640  24.003  1.00  0.00     0.211 HD
ENDBRANCH  31  68
ENDBRANCH   1  26
TORSDOF 10
ENDMDL
MODEL 5
REMARK VINA RESULT:      -8.7      3.584      5.818
REMARK SMILES CNc1ccc2ccc(OC[C@H]3O[C@@H](n4cc(C5CCCCC5)c5c(N)ncnc54)[C@H](O)[C@@H]3O)cc2n1
REMARK SMILES IDX 11 1 10 4 9 5 3 6 4 7 37 8 5 9 36 11 6 12 35 14 7 15 8 17
REMARK SMILES IDX 2 20 1 22 12 26 13 27 33 28 14 30 31 31 34 35 15 37 16 38
REMARK SMILES IDX 30 39 17 40 24 42 29 43 25 44 28 45 27 46 18 48 19 49 23 50
REMARK SMILES IDX 20 52 22 55 21 58 26 65 32 68
REMARK H PARENT 11 2 11 3 4 10 5 13 35 16 7 18 8 19 2 21 1 23 1 24 1 25 12 29
REMARK H PARENT 33 32 14 33 31 34 34 36 16 41 28 47 18 51 19 53 19 54 23 56
REMARK H PARENT 23 57 20 59 20 60 22 61 22 62 21 63 21 64 26 66 26 67 32 69
REMARK Flexibility Score: inf
ROOT
ATOM      1  C   UNL     1     -49.077  32.594  25.458  1.00  0.00     0.117 C 
ATOM      2  H   UNL     1     -49.167  31.793  26.203  1.00  0.00     0.073 H 
ATOM      3  H   UNL     1     -49.606  33.477  25.826  1.00  0.00     0.073 H 
ENDROOT
BRANCH   1   4
ATOM      4  O   UNL     1     -49.638  32.102  24.227  1.00  0.00    -0.491 OA
BRANCH   4   5
ATOM      5  C   UNL     1     -49.890  30.759  24.300  1.00  0.00     0.121 A 
ATOM      6  C   UNL     1     -48.928  26.506  26.176  1.00  0.00     0.126 A 
ATOM      7  C   UNL     1     -49.904  25.894  25.397  1.00  0.00    -0.019 A 
ATOM      8  N   UNL     1     -48.694  27.831  26.100  1.00  0.00    -0.231 NA
ATOM      9  C   UNL     1     -50.668  26.665  24.524  1.00  0.00    -0.049 A 
ATOM     10  H   UNL     1     -50.060  24.822  25.455  1.00  0.00     0.066 H 
ATOM     11  C   UNL     1     -49.433  28.584  25.265  1.00  0.00     0.076 A 
ATOM     12  C   UNL     1     -50.438  28.040  24.440  1.00  0.00     0.001 A 
ATOM     13  H   UNL     1     -51.425  26.185  23.912  1.00  0.00     0.063 H 
ATOM     14  C   UNL     1     -49.197  29.947  25.198  1.00  0.00     0.007 A 
ATOM     15  C   UNL     1     -51.173  28.867  23.572  1.00  0.00    -0.049 A 
ATOM     16  H   UNL     1     -48.457  30.386  25.860  1.00  0.00     0.069 H 
ATOM     17  C   UNL     1     -50.898  30.231  23.504  1.00  0.00    -0.019 A 
ATOM     18  H   UNL     1     -51.956  28.451  22.943  1.00  0.00     0.063 H 
ATOM     19  H   UNL     1     -51.463  30.874  22.835  1.00  0.00     0.066 H 
BRANCH   6  20
ATOM     20  N   UNL     1     -48.153  25.692  27.020  1.00  0.00    -0.373 N 
ATOM     21  H   UNL     1     -48.425  25.864  27.982  1.00  0.00     0.161 HD
BRANCH  20  22
ATOM     22  C   UNL     1     -46.717  25.834  26.832  1.00  0.00     0.005 C 
ATOM     23  H   UNL     1     -46.305  26.408  27.669  1.00  0.00     0.045 H 
ATOM     24  H   UNL     1     -46.478  26.376  25.911  1.00  0.00     0.045 H 
ATOM     25  H   UNL     1     -46.217  24.860  26.830  1.00  0.00     0.045 H 
ENDBRANCH  20  22
ENDBRANCH   6  20
ENDBRANCH   4   5
ENDBRANCH   1   4
BRANCH   1  26
ATOM     26  C   UNL     1     -47.598  32.923  25.226  1.00  0.00     0.123 C 
ATOM     27  O   UNL     1     -47.408  34.360  25.258  1.00  0.00    -0.345 OA
ATOM     28  C   UNL     1     -46.700  32.339  26.316  1.00  0.00     0.114 C 
ATOM     29  H   UNL     1     -47.293  32.589  24.228  1.00  0.00     0.067 H 
ATOM     30  C   UNL     1     -46.590  34.680  26.406  1.00  0.00     0.164 C 
ATOM     31  C   UNL     1     -46.604  33.464  27.334  1.00  0.00     0.128 C 
ATOM     32  H   UNL     1     -47.054  31.397  26.745  1.00  0.00     0.066 H 
ATOM     33  H   UNL     1     -45.572  34.852  26.033  1.00  0.00     0.088 H 
ATOM     34  H   UNL     1     -47.469  33.448  28.001  1.00  0.00     0.068 H 
BRANCH  28  35
ATOM     35  O   UNL     1     -45.370  32.100  25.810  1.00  0.00    -0.387 OA
ATOM     36  H   UNL     1     -45.429  31.376  25.159  1.00  0.00     0.211 HD
ENDBRANCH  28  35
BRANCH  30  37
ATOM     37  N   UNL     1     -47.038  35.936  26.988  1.00  0.00    -0.303 N 
ATOM     38  C   UNL     1     -46.195  36.981  27.291  1.00  0.00     0.013 A 
ATOM     39  C   UNL     1     -48.323  36.285  27.316  1.00  0.00     0.147 A 
ATOM     40  C   UNL     1     -46.932  38.017  27.838  1.00  0.00    -0.014 A 
ATOM     41  H   UNL     1     -45.132  36.896  27.102  1.00  0.00     0.082 H 
ATOM     42  C   UNL     1     -48.305  37.579  27.829  1.00  0.00     0.065 A 
ATOM     43  N   UNL     1     -49.410  35.505  27.165  1.00  0.00    -0.218 NA
ATOM     44  C   UNL     1     -49.552  38.119  28.196  1.00  0.00     0.136 A 
ATOM     45  C   UNL     1     -50.533  36.130  27.553  1.00  0.00     0.120 A 
ATOM     46  N   UNL     1     -50.662  37.372  28.052  1.00  0.00    -0.219 NA
ATOM     47  H   UNL     1     -51.456  35.567  27.442  1.00  0.00     0.106 H 
BRANCH  40  48
ATOM     48  C   UNL     1     -46.404  39.347  28.335  1.00  0.00    -0.014 C 
ATOM     49  C   UNL     1     -44.902  39.328  28.702  1.00  0.00    -0.046 C 
ATOM     50  C   UNL     1     -46.749  40.487  27.363  1.00  0.00    -0.046 C 
ATOM     51  H   UNL     1     -46.930  39.555  29.276  1.00  0.00     0.035 H 
ATOM     52  C   UNL     1     -44.044  40.280  27.866  1.00  0.00    -0.053 C 
ATOM     53  H   UNL     1     -44.484  38.317  28.641  1.00  0.00     0.027 H 
ATOM     54  H   UNL     1     -44.791  39.619  29.755  1.00  0.00     0.027 H 
ATOM     55  C   UNL     1     -45.870  40.505  26.112  1.00  0.00    -0.053 C 
ATOM     56  H   UNL     1     -46.623  41.441  27.890  1.00  0.00     0.027 H 
ATOM     57  H   UNL     1     -47.802  40.444  27.063  1.00  0.00     0.027 H 
ATOM     58  C   UNL     1     -44.395  40.211  26.387  1.00  0.00    -0.053 C 
ATOM     59  H   UNL     1     -44.180  41.307  28.225  1.00  0.00     0.027 H 
ATOM     60  H   UNL     1     -42.985  40.039  28.010  1.00  0.00     0.027 H 
ATOM     61  H   UNL     1     -46.248  39.783  25.378  1.00  0.00     0.027 H 
ATOM     62  H   UNL     1     -45.963  41.490  25.636  1.00  0.00     0.027 H 
ATOM     63  H   UNL     1     -44.147  39.214  26.004  1.00  0.00     0.027 H 
ATOM     64  H   UNL     1     -43.770  40.914  25.823  1.00  0.00     0.027 H 
ENDBRANCH  40  48
BRANCH  44  65
ATOM     65  N   UNL     1     -49.746  39.410  28.677  1.00  0.00    -0.383 N 
ATOM     66  H   UNL     1     -49.137  39.560  29.473  1.00  0.00     0.158 HD
ATOM     67  H   UNL     1     -50.718  39.636  28.831  1.00  0.00     0.158 HD
ENDBRANCH  44  65
ENDBRANCH  30  37
BRANCH  31  68
ATOM     68  O   UNL     1     -45.420  33.334  28.122  1.00  0.00    -0.386 OA
ATOM     69  H   UNL     1     -45.692  33.552  29.039  1.00  0.00     0.211 HD
ENDBRANCH  31  68
ENDBRANCH   1  26
TORSDOF 10
ENDMDL
MODEL 6
REMARK VINA RESULT:      -8.5      3.064      5.402
REMARK SMILES CNc1ccc2ccc(OC[C@H]3O[C@@H](n4cc(C5CCCCC5)c5c(N)ncnc54)[C@H](O)[C@@H]3O)cc2n1
REMARK SMILES IDX 11 1 10 4 9 5 3 6 4 7 37 8 5 9 36 11 6 12 35 14 7 15 8 17
REMARK SMILES IDX 2 20 1 22 12 26 13 27 33 28 14 30 31 31 34 35 15 37 16 38
REMARK SMILES IDX 30 39 17 40 24 42 29 43 25 44 28 45 27 46 18 48 19 49 23 50
REMARK SMILES IDX 20 52 22 55 21 58 26 65 32 68
REMARK H PARENT 11 2 11 3 4 10 5 13 35 16 7 18 8 19 2 21 1 23 1 24 1 25 12 29
REMARK H PARENT 33 32 14 33 31 34 34 36 16 41 28 47 18 51 19 53 19 54 23 56
REMARK H PARENT 23 57 20 59 20 60 22 61 22 62 21 63 21 64 26 66 26 67 32 69
REMARK Flexibility Score: inf
ROOT
ATOM      1  C   UNL     1     -49.328  39.900  28.269  1.00  0.00     0.117 C 
ATOM      2  H   UNL     1     -49.924  39.289  28.959  1.00  0.00     0.073 H 
ATOM      3  H   UNL     1     -49.534  39.576  27.245  1.00  0.00     0.073 H 
ENDROOT
BRANCH   1   4
ATOM      4  O   UNL     1     -47.943  39.722  28.623  1.00  0.00    -0.491 OA
BRANCH   4   5
ATOM      5  C   UNL     1     -47.482  38.500  28.216  1.00  0.00     0.121 A 
ATOM      6  C   UNL     1     -48.353  34.135  26.568  1.00  0.00     0.126 A 
ATOM      7  C   UNL     1     -46.999  33.819  26.566  1.00  0.00    -0.019 A 
ATOM      8  N   UNL     1     -48.794  35.345  26.964  1.00  0.00    -0.231 NA
ATOM      9  C   UNL     1     -46.071  34.775  26.971  1.00  0.00    -0.049 A 
ATOM     10  H   UNL     1     -46.666  32.831  26.266  1.00  0.00     0.066 H 
ATOM     11  C   UNL     1     -47.903  36.276  27.350  1.00  0.00     0.076 A 
ATOM     12  C   UNL     1     -46.515  36.035  27.379  1.00  0.00     0.001 A 
ATOM     13  H   UNL     1     -45.014  34.526  26.975  1.00  0.00     0.063 H 
ATOM     14  C   UNL     1     -48.359  37.523  27.745  1.00  0.00     0.007 A 
ATOM     15  C   UNL     1     -45.626  37.037  27.806  1.00  0.00    -0.049 A 
ATOM     16  H   UNL     1     -49.422  37.738  27.684  1.00  0.00     0.069 H 
ATOM     17  C   UNL     1     -46.112  38.274  28.224  1.00  0.00    -0.019 A 
ATOM     18  H   UNL     1     -44.553  36.856  27.819  1.00  0.00     0.063 H 
ATOM     19  H   UNL     1     -45.430  39.051  28.554  1.00  0.00     0.066 H 
BRANCH   6  20
ATOM     20  N   UNL     1     -49.263  33.133  26.185  1.00  0.00    -0.373 N 
ATOM     21  H   UNL     1     -49.613  32.673  27.019  1.00  0.00     0.161 HD
BRANCH  20  22
ATOM     22  C   UNL     1     -48.729  32.178  25.226  1.00  0.00     0.005 C 
ATOM     23  H   UNL     1     -49.518  31.910  24.516  1.00  0.00     0.045 H 
ATOM     24  H   UNL     1     -48.393  31.256  25.712  1.00  0.00     0.045 H 
ATOM     25  H   UNL     1     -47.908  32.614  24.646  1.00  0.00     0.045 H 
ENDBRANCH  20  22
ENDBRANCH   6  20
ENDBRANCH   4   5
ENDBRANCH   1   4
BRANCH   1  26
ATOM     26  C   UNL     1     -49.691  41.379  28.438  1.00  0.00     0.123 C 
ATOM     27  O   UNL     1     -48.517  42.198  28.210  1.00  0.00    -0.345 OA
ATOM     28  C   UNL     1     -50.744  41.833  27.427  1.00  0.00     0.114 C 
ATOM     29  H   UNL     1     -50.011  41.571  29.468  1.00  0.00     0.067 H 
ATOM     30  C   UNL     1     -48.742  42.987  27.020  1.00  0.00     0.164 C 
ATOM     31  C   UNL     1     -49.913  42.356  26.265  1.00  0.00     0.128 C 
ATOM     32  H   UNL     1     -51.459  41.060  27.133  1.00  0.00     0.066 H 
ATOM     33  H   UNL     1     -49.016  43.996  27.355  1.00  0.00     0.088 H 
ATOM     34  H   UNL     1     -49.606  41.532  25.617  1.00  0.00     0.068 H 
BRANCH  28  35
ATOM     35  O   UNL     1     -51.507  42.942  27.945  1.00  0.00    -0.387 OA
ATOM     36  H   UNL     1     -51.279  43.040  28.889  1.00  0.00     0.211 HD
ENDBRANCH  28  35
BRANCH  30  37
ATOM     37  N   UNL     1     -47.497  43.118  26.279  1.00  0.00    -0.303 N 
ATOM     38  C   UNL     1     -46.448  42.234  26.388  1.00  0.00     0.013 A 
ATOM     39  C   UNL     1     -47.169  44.098  25.378  1.00  0.00     0.147 A 
ATOM     40  C   UNL     1     -45.417  42.648  25.563  1.00  0.00    -0.014 A 
ATOM     41  H   UNL     1     -46.518  41.384  27.056  1.00  0.00     0.082 H 
ATOM     42  C   UNL     1     -45.891  43.831  24.892  1.00  0.00     0.065 A 
ATOM     43  N   UNL     1     -47.953  45.134  25.027  1.00  0.00    -0.218 NA
ATOM     44  C   UNL     1     -45.396  44.727  23.926  1.00  0.00     0.136 A 
ATOM     45  C   UNL     1     -47.368  45.915  24.105  1.00  0.00     0.120 A 
ATOM     46  N   UNL     1     -46.154  45.772  23.545  1.00  0.00    -0.219 NA
ATOM     47  H   UNL     1     -47.950  46.765  23.758  1.00  0.00     0.106 H 
BRANCH  40  48
ATOM     48  C   UNL     1     -44.066  41.984  25.390  1.00  0.00    -0.014 C 
ATOM     49  C   UNL     1     -42.873  42.867  25.823  1.00  0.00    -0.046 C 
ATOM     50  C   UNL     1     -44.032  40.598  26.054  1.00  0.00    -0.046 C 
ATOM     51  H   UNL     1     -43.935  41.828  24.311  1.00  0.00     0.035 H 
ATOM     52  C   UNL     1     -42.049  42.281  26.972  1.00  0.00    -0.053 C 
ATOM     53  H   UNL     1     -43.196  43.880  26.090  1.00  0.00     0.027 H 
ATOM     54  H   UNL     1     -42.201  43.000  24.966  1.00  0.00     0.027 H 
ATOM     55  C   UNL     1     -43.907  40.656  27.577  1.00  0.00    -0.053 C 
ATOM     56  H   UNL     1     -43.171  40.044  25.656  1.00  0.00     0.027 H 
ATOM     57  H   UNL     1     -44.918  40.010  25.787  1.00  0.00     0.027 H 
ATOM     58  C   UNL     1     -42.932  41.722  28.078  1.00  0.00    -0.053 C 
ATOM     59  H   UNL     1     -41.397  41.487  26.587  1.00  0.00     0.027 H 
ATOM     60  H   UNL     1     -41.387  43.056  27.378  1.00  0.00     0.027 H 
ATOM     61  H   UNL     1     -44.891  40.833  28.026  1.00  0.00     0.027 H 
ATOM     62  H   UNL     1     -43.587  39.670  27.938  1.00  0.00     0.027 H 
ATOM     63  H   UNL     1     -43.496  42.541  28.538  1.00  0.00     0.027 H 
ATOM     64  H   UNL     1     -42.307  41.301  28.875  1.00  0.00     0.027 H 
ENDBRANCH  40  48
BRANCH  44  65
ATOM     65  N   UNL     1     -44.167  44.602  23.286  1.00  0.00    -0.383 N 
ATOM     66  H   UNL     1     -44.222  45.046  22.377  1.00  0.00     0.158 HD
ATOM     67  H   UNL     1     -43.814  43.655  23.282  1.00  0.00     0.158 HD
ENDBRANCH  44  65
ENDBRANCH  30  37
BRANCH  31  68
ATOM     68  O   UNL     1     -50.663  43.291  25.488  1.00  0.00    -0.386 OA
ATOM     69  H   UNL     1     -50.810  42.852  24.624  1.00  0.00     0.211 HD
ENDBRANCH  31  68
ENDBRANCH   1  26
TORSDOF 10
ENDMDL
MODEL 7
REMARK VINA RESULT:      -8.5      4.280     12.251
REMARK SMILES CNc1ccc2ccc(OC[C@H]3O[C@@H](n4cc(C5CCCCC5)c5c(N)ncnc54)[C@H](O)[C@@H]3O)cc2n1
REMARK SMILES IDX 11 1 10 4 9 5 3 6 4 7 37 8 5 9 36 11 6 12 35 14 7 15 8 17
REMARK SMILES IDX 2 20 1 22 12 26 13 27 33 28 14 30 31 31 34 35 15 37 16 38
REMARK SMILES IDX 30 39 17 40 24 42 29 43 25 44 28 45 27 46 18 48 19 49 23 50
REMARK SMILES IDX 20 52 22 55 21 58 26 65 32 68
REMARK H PARENT 11 2 11 3 4 10 5 13 35 16 7 18 8 19 2 21 1 23 1 24 1 25 12 29
REMARK H PARENT 33 32 14 33 31 34 34 36 16 41 28 47 18 51 19 53 19 54 23 56
REMARK H PARENT 23 57 20 59 20 60 22 61 22 62 21 63 21 64 26 66 26 67 32 69
REMARK Flexibility Score: inf
ROOT
ATOM      1  C   UNL     1     -45.725  32.162  23.333  1.00  0.00     0.117 C 
ATOM      2  H   UNL     1     -44.748  32.558  23.638  1.00  0.00     0.073 H 
ATOM      3  H   UNL     1     -46.311  32.973  22.891  1.00  0.00     0.073 H 
ENDROOT
BRANCH   1   4
ATOM      4  O   UNL     1     -46.355  31.620  24.509  1.00  0.00    -0.491 OA
BRANCH   4   5
ATOM      5  C   UNL     1     -47.030  32.589  25.200  1.00  0.00     0.121 A 
ATOM      6  C   UNL     1     -47.102  36.884  27.218  1.00  0.00     0.126 A 
ATOM      7  C   UNL     1     -48.423  36.721  27.620  1.00  0.00    -0.019 A 
ATOM      8  N   UNL     1     -46.451  35.925  26.532  1.00  0.00    -0.231 NA
ATOM      9  C   UNL     1     -49.097  35.544  27.301  1.00  0.00    -0.049 A 
ATOM     10  H   UNL     1     -48.923  37.495  28.193  1.00  0.00     0.066 H 
ATOM     11  C   UNL     1     -47.097  34.789  26.213  1.00  0.00     0.076 A 
ATOM     12  C   UNL     1     -48.433  34.545  26.585  1.00  0.00     0.001 A 
ATOM     13  H   UNL     1     -50.126  35.414  27.620  1.00  0.00     0.063 H 
ATOM     14  C   UNL     1     -46.426  33.810  25.497  1.00  0.00     0.007 A 
ATOM     15  C   UNL     1     -49.060  33.334  26.241  1.00  0.00    -0.049 A 
ATOM     16  H   UNL     1     -45.411  34.004  25.165  1.00  0.00     0.069 H 
ATOM     17  C   UNL     1     -48.355  32.354  25.544  1.00  0.00    -0.019 A 
ATOM     18  H   UNL     1     -50.094  33.147  26.518  1.00  0.00     0.063 H 
ATOM     19  H   UNL     1     -48.834  31.417  25.275  1.00  0.00     0.066 H 
BRANCH   6  20
ATOM     20  N   UNL     1     -46.444  38.070  27.589  1.00  0.00    -0.373 N 
ATOM     21  H   UNL     1     -45.881  37.889  28.413  1.00  0.00     0.161 HD
BRANCH  20  22
ATOM     22  C   UNL     1     -47.330  39.209  27.780  1.00  0.00     0.005 C 
ATOM     23  H   UNL     1     -47.907  39.057  28.698  1.00  0.00     0.045 H 
ATOM     24  H   UNL     1     -48.042  39.314  26.955  1.00  0.00     0.045 H 
ATOM     25  H   UNL     1     -46.763  40.137  27.904  1.00  0.00     0.045 H 
ENDBRANCH  20  22
ENDBRANCH   6  20
ENDBRANCH   4   5
ENDBRANCH   1   4
BRANCH   1  26
ATOM     26  C   UNL     1     -45.535  31.033  22.314  1.00  0.00     0.123 C 
ATOM     27  O   UNL     1     -46.082  29.800  22.845  1.00  0.00    -0.345 OA
ATOM     28  C   UNL     1     -46.271  31.310  21.004  1.00  0.00     0.114 C 
ATOM     29  H   UNL     1     -44.466  30.856  22.148  1.00  0.00     0.067 H 
ATOM     30  C   UNL     1     -47.211  29.420  22.027  1.00  0.00     0.164 C 
ATOM     31  C   UNL     1     -47.623  30.648  21.214  1.00  0.00     0.128 C 
ATOM     32  H   UNL     1     -46.345  32.368  20.735  1.00  0.00     0.066 H 
ATOM     33  H   UNL     1     -46.861  28.627  21.352  1.00  0.00     0.088 H 
ATOM     34  H   UNL     1     -48.293  31.315  21.762  1.00  0.00     0.068 H 
BRANCH  28  35
ATOM     35  O   UNL     1     -45.627  30.636  19.903  1.00  0.00    -0.387 OA
ATOM     36  H   UNL     1     -44.804  31.120  19.703  1.00  0.00     0.211 HD
ENDBRANCH  28  35
BRANCH  30  37
ATOM     37  N   UNL     1     -48.243  28.829  22.865  1.00  0.00    -0.303 N 
ATOM     38  C   UNL     1     -47.982  28.161  24.040  1.00  0.00     0.013 A 
ATOM     39  C   UNL     1     -49.596  28.839  22.643  1.00  0.00     0.147 A 
ATOM     40  C   UNL     1     -49.174  27.716  24.584  1.00  0.00    -0.014 A 
ATOM     41  H   UNL     1     -46.963  28.047  24.388  1.00  0.00     0.082 H 
ATOM     42  C   UNL     1     -50.214  28.176  23.700  1.00  0.00     0.065 A 
ATOM     43  N   UNL     1     -50.212  29.397  21.585  1.00  0.00    -0.218 NA
ATOM     44  C   UNL     1     -51.620  28.113  23.655  1.00  0.00     0.136 A 
ATOM     45  C   UNL     1     -51.547  29.267  21.657  1.00  0.00     0.120 A 
ATOM     46  N   UNL     1     -52.272  28.666  22.616  1.00  0.00    -0.219 NA
ATOM     47  H   UNL     1     -52.115  29.711  20.844  1.00  0.00     0.106 H 
BRANCH  40  48
ATOM     48  C   UNL     1     -49.351  26.916  25.859  1.00  0.00    -0.014 C 
ATOM     49  C   UNL     1     -49.156  25.393  25.677  1.00  0.00    -0.046 C 
ATOM     50  C   UNL     1     -48.486  27.478  26.999  1.00  0.00    -0.046 C 
ATOM     51  H   UNL     1     -50.400  27.041  26.158  1.00  0.00     0.035 H 
ATOM     52  C   UNL     1     -48.002  24.810  26.494  1.00  0.00    -0.053 C 
ATOM     53  H   UNL     1     -49.023  25.127  24.622  1.00  0.00     0.027 H 
ATOM     54  H   UNL     1     -50.075  24.879  25.986  1.00  0.00     0.027 H 
ATOM     55  C   UNL     1     -47.006  27.117  26.874  1.00  0.00    -0.053 C 
ATOM     56  H   UNL     1     -48.862  27.077  27.949  1.00  0.00     0.027 H 
ATOM     57  H   UNL     1     -48.587  28.568  27.071  1.00  0.00     0.027 H 
ATOM     58  C   UNL     1     -46.755  25.680  26.418  1.00  0.00    -0.053 C 
ATOM     59  H   UNL     1     -48.310  24.705  27.541  1.00  0.00     0.027 H 
ATOM     60  H   UNL     1     -47.775  23.799  26.135  1.00  0.00     0.027 H 
ATOM     61  H   UNL     1     -46.511  27.804  26.177  1.00  0.00     0.027 H 
ATOM     62  H   UNL     1     -46.524  27.280  27.846  1.00  0.00     0.027 H 
ATOM     63  H   UNL     1     -46.382  25.687  25.387  1.00  0.00     0.027 H 
ATOM     64  H   UNL     1     -45.955  25.237  27.024  1.00  0.00     0.027 H 
ENDBRANCH  40  48
BRANCH  44  65
ATOM     65  N   UNL     1     -52.419  27.540  24.639  1.00  0.00    -0.383 N 
ATOM     66  H   UNL     1     -52.727  28.265  25.277  1.00  0.00     0.158 HD
ATOM     67  H   UNL     1     -51.996  26.734  25.077  1.00  0.00     0.158 HD
ENDBRANCH  44  65
ENDBRANCH  30  37
BRANCH  31  68
ATOM     68  O   UNL     1     -48.229  30.326  19.961  1.00  0.00    -0.386 OA
ATOM     69  H   UNL     1     -49.007  29.772  20.182  1.00  0.00     0.211 HD
ENDBRANCH  31  68
ENDBRANCH   1  26
TORSDOF 10
ENDMDL
