MODEL 1
REMARK VINA RESULT:     -10.3      0.000      0.000
REMARK SMILES O=C(NCc1ccc2cc(CN3CCC[C@@H]3CO)[nH]c2c1)c1cc(=O)n2ccccc2n1
REMARK SMILES IDX 5 1 6 2 7 3 8 4 9 5 10 6 19 7 20 8 21 9 4 15 3 18 1 19 2 20
REMARK SMILES IDX 22 22 23 23 32 24 24 25 31 27 25 28 26 29 30 30 27 31 29 32
REMARK SMILES IDX 28 34 11 38 12 41 13 42 16 43 14 44 15 47 17 53 18 56
REMARK H PARENT 6 10 7 11 9 12 19 13 21 14 4 16 4 17 3 21 23 26 30 33 27 35
REMARK H PARENT 29 36 28 37 11 39 11 40 13 45 13 46 16 48 14 49 14 50 15 51
REMARK H PARENT 15 52 17 54 17 55 18 57
REMARK Flexibility Score: inf
ROOT
ATOM      1  C   UNL     1     -47.772  35.456  26.930  1.00  0.00    -0.027 A 
ATOM      2  C   UNL     1     -46.510  35.225  26.364  1.00  0.00    -0.057 A 
ATOM      3  C   UNL     1     -46.253  34.071  25.614  1.00  0.00    -0.052 A 
ATOM      4  C   UNL     1     -47.277  33.123  25.434  1.00  0.00    -0.000 A 
ATOM      5  C   UNL     1     -47.364  31.879  24.757  1.00  0.00    -0.032 A 
ATOM      6  C   UNL     1     -48.637  31.372  24.942  1.00  0.00     0.030 A 
ATOM      7  N   UNL     1     -49.331  32.298  25.686  1.00  0.00    -0.357 N 
ATOM      8  C   UNL     1     -48.522  33.363  26.012  1.00  0.00     0.046 A 
ATOM      9  C   UNL     1     -48.800  34.513  26.764  1.00  0.00    -0.033 A 
ATOM     10  H   UNL     1     -45.711  35.951  26.505  1.00  0.00     0.063 H 
ATOM     11  H   UNL     1     -45.271  33.909  25.180  1.00  0.00     0.063 H 
ATOM     12  H   UNL     1     -46.575  31.388  24.200  1.00  0.00     0.065 H 
ATOM     13  H   UNL     1     -50.297  32.212  25.968  1.00  0.00     0.166 HD
ATOM     14  H   UNL     1     -49.780  34.668  27.203  1.00  0.00     0.065 H 
ENDROOT
BRANCH   1  15
ATOM     15  C   UNL     1     -48.009  36.702  27.748  1.00  0.00     0.043 C 
ATOM     16  H   UNL     1     -48.203  36.441  28.794  1.00  0.00     0.054 H 
ATOM     17  H   UNL     1     -48.892  37.236  27.378  1.00  0.00     0.054 H 
BRANCH  15  18
ATOM     18  N   UNL     1     -46.850  37.556  27.728  1.00  0.00    -0.347 N 
ATOM     19  O   UNL     1     -46.184  37.173  29.897  1.00  0.00    -0.268 OA
ATOM     20  C   UNL     1     -46.069  37.775  28.836  1.00  0.00     0.270 C 
ATOM     21  H   UNL     1     -46.718  38.201  26.956  1.00  0.00     0.164 HD
BRANCH  20  22
ATOM     22  C   UNL     1     -45.044  38.862  28.611  1.00  0.00     0.136 A 
ATOM     23  C   UNL     1     -44.144  39.038  29.580  1.00  0.00     0.035 A 
ATOM     24  N   UNL     1     -45.101  39.596  27.447  1.00  0.00    -0.225 NA
ATOM     25  C   UNL     1     -43.131  40.087  29.407  1.00  0.00     0.258 A 
ATOM     26  H   UNL     1     -44.111  38.456  30.492  1.00  0.00     0.071 H 
ATOM     27  C   UNL     1     -44.206  40.524  27.300  1.00  0.00     0.140 A 
ATOM     28  O   UNL     1     -42.295  40.253  30.292  1.00  0.00    -0.269 OA
ATOM     29  N   UNL     1     -43.211  40.814  28.228  1.00  0.00    -0.268 N 
ATOM     30  C   UNL     1     -44.228  41.346  26.057  1.00  0.00    -0.019 A 
ATOM     31  C   UNL     1     -42.288  41.826  27.993  1.00  0.00     0.014 A 
ATOM     32  C   UNL     1     -43.318  42.310  25.876  1.00  0.00    -0.057 A 
ATOM     33  H   UNL     1     -44.998  41.128  25.327  1.00  0.00     0.066 H 
ATOM     34  C   UNL     1     -42.314  42.561  26.875  1.00  0.00    -0.045 A 
ATOM     35  H   UNL     1     -41.538  41.999  28.762  1.00  0.00     0.082 H 
ATOM     36  H   UNL     1     -43.317  42.919  24.977  1.00  0.00     0.062 H 
ATOM     37  H   UNL     1     -41.587  43.349  26.703  1.00  0.00     0.064 H 
ENDBRANCH  20  22
ENDBRANCH  15  18
ENDBRANCH   1  15
BRANCH   6  38
ATOM     38  C   UNL     1     -49.277  30.111  24.459  1.00  0.00     0.039 C 
ATOM     39  H   UNL     1     -49.817  30.386  23.542  1.00  0.00     0.050 H 
ATOM     40  H   UNL     1     -50.035  29.759  25.170  1.00  0.00     0.050 H 
BRANCH  38  41
ATOM     41  N   UNL     1     -48.284  29.073  24.153  1.00  0.00    -0.292 NA
ATOM     42  C   UNL     1     -48.369  28.671  22.738  1.00  0.00    -0.001 C 
ATOM     43  C   UNL     1     -48.472  27.789  24.873  1.00  0.00     0.033 C 
ATOM     44  C   UNL     1     -49.459  27.612  22.667  1.00  0.00    -0.039 C 
ATOM     45  H   UNL     1     -48.549  29.504  22.049  1.00  0.00     0.043 H 
ATOM     46  H   UNL     1     -47.409  28.228  22.443  1.00  0.00     0.043 H 
ATOM     47  C   UNL     1     -49.551  27.043  24.077  1.00  0.00    -0.034 C 
ATOM     48  H   UNL     1     -47.538  27.220  24.745  1.00  0.00     0.049 H 
ATOM     49  H   UNL     1     -50.418  28.057  22.383  1.00  0.00     0.028 H 
ATOM     50  H   UNL     1     -49.216  26.837  21.933  1.00  0.00     0.028 H 
ATOM     51  H   UNL     1     -49.376  25.962  24.081  1.00  0.00     0.028 H 
ATOM     52  H   UNL     1     -50.553  27.222  24.485  1.00  0.00     0.028 H 
BRANCH  43  53
ATOM     53  C   UNL     1     -48.752  27.806  26.383  1.00  0.00     0.059 C 
ATOM     54  H   UNL     1     -47.872  27.466  26.938  1.00  0.00     0.058 H 
ATOM     55  H   UNL     1     -49.039  28.801  26.733  1.00  0.00     0.058 H 
BRANCH  53  56
ATOM     56  O   UNL     1     -49.831  26.922  26.692  1.00  0.00    -0.395 OA
ATOM     57  H   UNL     1     -50.510  27.462  27.133  1.00  0.00     0.210 HD
ENDBRANCH  53  56
ENDBRANCH  43  53
ENDBRANCH  38  41
ENDBRANCH   6  38
TORSDOF 7
ENDMDL
MODEL 2
REMARK VINA RESULT:     -10.2      1.564      2.059
REMARK SMILES O=C(NCc1ccc2cc(CN3CCC[C@@H]3CO)[nH]c2c1)c1cc(=O)n2ccccc2n1
REMARK SMILES IDX 5 1 6 2 7 3 8 4 9 5 10 6 19 7 20 8 21 9 4 15 3 18 1 19 2 20
REMARK SMILES IDX 22 22 23 23 32 24 24 25 31 27 25 28 26 29 30 30 27 31 29 32
REMARK SMILES IDX 28 34 11 38 12 41 13 42 16 43 14 44 15 47 17 53 18 56
REMARK H PARENT 6 10 7 11 9 12 19 13 21 14 4 16 4 17 3 21 23 26 30 33 27 35
REMARK H PARENT 29 36 28 37 11 39 11 40 13 45 13 46 16 48 14 49 14 50 15 51
REMARK H PARENT 15 52 17 54 17 55 18 57
REMARK Flexibility Score: inf
ROOT
ATOM      1  C   UNL     1     -47.915  35.782  27.040  1.00  0.00    -0.027 A 
ATOM      2  C   UNL     1     -46.621  35.582  26.540  1.00  0.00    -0.057 A 
ATOM      3  C   UNL     1     -46.277  34.403  25.868  1.00  0.00    -0.052 A 
ATOM      4  C   UNL     1     -47.247  33.398  25.700  1.00  0.00    -0.000 A 
ATOM      5  C   UNL     1     -47.246  32.115  25.091  1.00  0.00    -0.032 A 
ATOM      6  C   UNL     1     -48.502  31.558  25.253  1.00  0.00     0.030 A 
ATOM      7  N   UNL     1     -49.269  32.487  25.915  1.00  0.00    -0.357 N 
ATOM      8  C   UNL     1     -48.527  33.607  26.212  1.00  0.00     0.046 A 
ATOM      9  C   UNL     1     -48.890  34.781  26.887  1.00  0.00    -0.033 A 
ATOM     10  H   UNL     1     -45.864  36.353  26.673  1.00  0.00     0.063 H 
ATOM     11  H   UNL     1     -45.271  34.266  25.484  1.00  0.00     0.063 H 
ATOM     12  H   UNL     1     -46.412  31.634  24.596  1.00  0.00     0.065 H 
ATOM     13  H   UNL     1     -50.242  32.370  26.161  1.00  0.00     0.166 HD
ATOM     14  H   UNL     1     -49.894  34.911  27.276  1.00  0.00     0.065 H 
ENDROOT
BRANCH   1  15
ATOM     15  C   UNL     1     -48.246  37.057  27.776  1.00  0.00     0.043 C 
ATOM     16  H   UNL     1     -48.517  36.839  28.815  1.00  0.00     0.054 H 
ATOM     17  H   UNL     1     -49.109  37.549  27.313  1.00  0.00     0.054 H 
BRANCH  15  18
ATOM     18  N   UNL     1     -47.109  37.940  27.807  1.00  0.00    -0.347 N 
ATOM     19  O   UNL     1     -48.261  39.890  27.396  1.00  0.00    -0.268 OA
ATOM     20  C   UNL     1     -47.206  39.284  27.542  1.00  0.00     0.270 C 
ATOM     21  H   UNL     1     -46.173  37.550  27.794  1.00  0.00     0.164 HD
BRANCH  20  22
ATOM     22  C   UNL     1     -45.852  39.947  27.437  1.00  0.00     0.136 A 
ATOM     23  C   UNL     1     -45.603  40.609  26.305  1.00  0.00     0.035 A 
ATOM     24  N   UNL     1     -44.971  39.828  28.489  1.00  0.00    -0.225 NA
ATOM     25  C   UNL     1     -44.297  41.265  26.156  1.00  0.00     0.258 A 
ATOM     26  H   UNL     1     -46.303  40.693  25.484  1.00  0.00     0.071 H 
ATOM     27  C   UNL     1     -43.818  40.407  28.351  1.00  0.00     0.140 A 
ATOM     28  O   UNL     1     -44.060  41.880  25.119  1.00  0.00    -0.269 OA
ATOM     29  N   UNL     1     -43.427  41.128  27.228  1.00  0.00    -0.268 N 
ATOM     30  C   UNL     1     -42.831  40.304  29.463  1.00  0.00    -0.019 A 
ATOM     31  C   UNL     1     -42.171  41.719  27.159  1.00  0.00     0.014 A 
ATOM     32  C   UNL     1     -41.633  40.891  29.351  1.00  0.00    -0.057 A 
ATOM     33  H   UNL     1     -43.126  39.746  30.343  1.00  0.00     0.066 H 
ATOM     34  C   UNL     1     -41.289  41.623  28.162  1.00  0.00    -0.045 A 
ATOM     35  H   UNL     1     -41.932  42.268  26.251  1.00  0.00     0.082 H 
ATOM     36  H   UNL     1     -40.901  40.828  30.150  1.00  0.00     0.062 H 
ATOM     37  H   UNL     1     -40.311  42.089  28.096  1.00  0.00     0.064 H 
ENDBRANCH  20  22
ENDBRANCH  15  18
ENDBRANCH   1  15
BRANCH   6  38
ATOM     38  C   UNL     1     -49.060  30.242  24.816  1.00  0.00     0.039 C 
ATOM     39  H   UNL     1     -49.594  30.445  23.878  1.00  0.00     0.050 H 
ATOM     40  H   UNL     1     -49.813  29.880  25.528  1.00  0.00     0.050 H 
BRANCH  38  41
ATOM     41  N   UNL     1     -48.005  29.249  24.578  1.00  0.00    -0.292 NA
ATOM     42  C   UNL     1     -47.808  29.034  23.133  1.00  0.00    -0.001 C 
ATOM     43  C   UNL     1     -48.299  27.883  25.078  1.00  0.00     0.033 C 
ATOM     44  C   UNL     1     -48.841  27.996  22.719  1.00  0.00    -0.039 C 
ATOM     45  H   UNL     1     -47.871  29.949  22.534  1.00  0.00     0.043 H 
ATOM     46  H   UNL     1     -46.800  28.630  22.975  1.00  0.00     0.043 H 
ATOM     47  C   UNL     1     -49.189  27.250  24.001  1.00  0.00    -0.034 C 
ATOM     48  H   UNL     1     -47.346  27.332  25.061  1.00  0.00     0.049 H 
ATOM     49  H   UNL     1     -49.738  28.478  22.314  1.00  0.00     0.028 H 
ATOM     50  H   UNL     1     -48.446  27.322  21.953  1.00  0.00     0.028 H 
ATOM     51  H   UNL     1     -48.995  26.177  23.900  1.00  0.00     0.028 H 
ATOM     52  H   UNL     1     -50.254  27.379  24.227  1.00  0.00     0.028 H 
BRANCH  43  53
ATOM     53  C   UNL     1     -48.863  27.706  26.495  1.00  0.00     0.059 C 
ATOM     54  H   UNL     1     -49.429  28.594  26.794  1.00  0.00     0.058 H 
ATOM     55  H   UNL     1     -49.506  26.824  26.572  1.00  0.00     0.058 H 
BRANCH  53  56
ATOM     56  O   UNL     1     -47.796  27.532  27.429  1.00  0.00    -0.395 OA
ATOM     57  H   UNL     1     -46.976  27.502  26.907  1.00  0.00     0.210 HD
ENDBRANCH  53  56
ENDBRANCH  43  53
ENDBRANCH  38  41
ENDBRANCH   6  38
TORSDOF 7
ENDMDL
MODEL 3
REMARK VINA RESULT:     -10.0      1.855      2.556
REMARK SMILES O=C(NCc1ccc2cc(CN3CCC[C@@H]3CO)[nH]c2c1)c1cc(=O)n2ccccc2n1
REMARK SMILES IDX 5 1 6 2 7 3 8 4 9 5 10 6 19 7 20 8 21 9 4 15 3 18 1 19 2 20
REMARK SMILES IDX 22 22 23 23 32 24 24 25 31 27 25 28 26 29 30 30 27 31 29 32
REMARK SMILES IDX 28 34 11 38 12 41 13 42 16 43 14 44 15 47 17 53 18 56
REMARK H PARENT 6 10 7 11 9 12 19 13 21 14 4 16 4 17 3 21 23 26 30 33 27 35
REMARK H PARENT 29 36 28 37 11 39 11 40 13 45 13 46 16 48 14 49 14 50 15 51
REMARK H PARENT 15 52 17 54 17 55 18 57
REMARK Flexibility Score: inf
ROOT
ATOM      1  C   UNL     1     -46.686  35.625  28.585  1.00  0.00    -0.027 A 
ATOM      2  C   UNL     1     -47.926  36.014  28.059  1.00  0.00    -0.057 A 
ATOM      3  C   UNL     1     -48.543  35.279  27.039  1.00  0.00    -0.052 A 
ATOM      4  C   UNL     1     -47.902  34.135  26.529  1.00  0.00    -0.000 A 
ATOM      5  C   UNL     1     -48.227  33.185  25.526  1.00  0.00    -0.032 A 
ATOM      6  C   UNL     1     -47.191  32.273  25.440  1.00  0.00     0.030 A 
ATOM      7  N   UNL     1     -46.265  32.631  26.392  1.00  0.00    -0.357 N 
ATOM      8  C   UNL     1     -46.665  33.768  27.056  1.00  0.00     0.046 A 
ATOM      9  C   UNL     1     -46.032  34.490  28.077  1.00  0.00    -0.033 A 
ATOM     10  H   UNL     1     -48.424  36.902  28.444  1.00  0.00     0.063 H 
ATOM     11  H   UNL     1     -49.505  35.593  26.646  1.00  0.00     0.063 H 
ATOM     12  H   UNL     1     -49.120  33.171  24.913  1.00  0.00     0.065 H 
ATOM     13  H   UNL     1     -45.403  32.139  26.578  1.00  0.00     0.166 HD
ATOM     14  H   UNL     1     -45.067  34.178  28.463  1.00  0.00     0.065 H 
ENDROOT
BRANCH   1  15
ATOM     15  C   UNL     1     -46.040  36.451  29.670  1.00  0.00     0.043 C 
ATOM     16  H   UNL     1     -45.369  35.831  30.275  1.00  0.00     0.054 H 
ATOM     17  H   UNL     1     -46.804  36.854  30.345  1.00  0.00     0.054 H 
BRANCH  15  18
ATOM     18  N   UNL     1     -45.249  37.513  29.104  1.00  0.00    -0.347 N 
ATOM     19  O   UNL     1     -44.311  38.242  31.075  1.00  0.00    -0.268 OA
ATOM     20  C   UNL     1     -44.499  38.370  29.870  1.00  0.00     0.270 C 
ATOM     21  H   UNL     1     -45.411  37.799  28.144  1.00  0.00     0.164 HD
BRANCH  20  22
ATOM     22  C   UNL     1     -43.930  39.513  29.063  1.00  0.00     0.136 A 
ATOM     23  C   UNL     1     -42.871  40.138  29.584  1.00  0.00     0.035 A 
ATOM     24  N   UNL     1     -44.526  39.841  27.865  1.00  0.00    -0.225 NA
ATOM     25  C   UNL     1     -42.288  41.258  28.836  1.00  0.00     0.258 A 
ATOM     26  H   UNL     1     -42.413  39.872  30.527  1.00  0.00     0.071 H 
ATOM     27  C   UNL     1     -44.009  40.834  27.210  1.00  0.00     0.140 A 
ATOM     28  O   UNL     1     -41.310  41.837  29.305  1.00  0.00    -0.269 OA
ATOM     29  N   UNL     1     -42.907  41.571  27.635  1.00  0.00    -0.268 N 
ATOM     30  C   UNL     1     -44.621  41.227  25.909  1.00  0.00    -0.019 A 
ATOM     31  C   UNL     1     -42.413  42.622  26.871  1.00  0.00     0.014 A 
ATOM     32  C   UNL     1     -44.110  42.247  25.210  1.00  0.00    -0.057 A 
ATOM     33  H   UNL     1     -45.478  40.659  25.569  1.00  0.00     0.066 H 
ATOM     34  C   UNL     1     -42.969  42.970  25.704  1.00  0.00    -0.045 A 
ATOM     35  H   UNL     1     -41.550  43.155  27.264  1.00  0.00     0.082 H 
ATOM     36  H   UNL     1     -44.541  42.548  24.260  1.00  0.00     0.062 H 
ATOM     37  H   UNL     1     -42.574  43.793  25.117  1.00  0.00     0.064 H 
ENDBRANCH  20  22
ENDBRANCH  15  18
ENDBRANCH   1  15
BRANCH   6  38
ATOM     38  C   UNL     1     -47.002  31.074  24.568  1.00  0.00     0.039 C 
ATOM     39  H   UNL     1     -46.548  30.310  25.212  1.00  0.00     0.050 H 
ATOM     40  H   UNL     1     -46.275  31.280  23.772  1.00  0.00     0.050 H 
BRANCH  38  41
ATOM     41  N   UNL     1     -48.277  30.576  24.034  1.00  0.00    -0.292 NA
ATOM     42  C   UNL     1     -48.948  29.706  25.016  1.00  0.00    -0.001 C 
ATOM     43  C   UNL     1     -48.162  29.701  22.841  1.00  0.00     0.033 C 
ATOM     44  C   UNL     1     -48.354  28.318  24.821  1.00  0.00    -0.039 C 
ATOM     45  H   UNL     1     -48.864  30.055  26.051  1.00  0.00     0.043 H 
ATOM     46  H   UNL     1     -50.020  29.681  24.784  1.00  0.00     0.043 H 
ATOM     47  C   UNL     1     -47.811  28.316  23.398  1.00  0.00    -0.034 C 
ATOM     48  H   UNL     1     -49.174  29.621  22.415  1.00  0.00     0.049 H 
ATOM     49  H   UNL     1     -47.539  28.139  25.530  1.00  0.00     0.028 H 
ATOM     50  H   UNL     1     -49.107  27.537  24.968  1.00  0.00     0.028 H 
ATOM     51  H   UNL     1     -48.265  27.517  22.801  1.00  0.00     0.028 H 
ATOM     52  H   UNL     1     -46.728  28.147  23.415  1.00  0.00     0.028 H 
BRANCH  43  53
ATOM     53  C   UNL     1     -47.249  30.125  21.682  1.00  0.00     0.059 C 
ATOM     54  H   UNL     1     -46.690  31.028  21.947  1.00  0.00     0.058 H 
ATOM     55  H   UNL     1     -46.547  29.333  21.404  1.00  0.00     0.058 H 
BRANCH  53  56
ATOM     56  O   UNL     1     -48.031  30.421  20.524  1.00  0.00    -0.395 OA
ATOM     57  H   UNL     1     -48.319  29.565  20.161  1.00  0.00     0.210 HD
ENDBRANCH  53  56
ENDBRANCH  43  53
ENDBRANCH  38  41
ENDBRANCH   6  38
TORSDOF 7
ENDMDL
MODEL 4
REMARK VINA RESULT:      -9.7      2.377      3.215
REMARK SMILES O=C(NCc1ccc2cc(CN3CCC[C@@H]3CO)[nH]c2c1)c1cc(=O)n2ccccc2n1
REMARK SMILES IDX 5 1 6 2 7 3 8 4 9 5 10 6 19 7 20 8 21 9 4 15 3 18 1 19 2 20
REMARK SMILES IDX 22 22 23 23 32 24 24 25 31 27 25 28 26 29 30 30 27 31 29 32
REMARK SMILES IDX 28 34 11 38 12 41 13 42 16 43 14 44 15 47 17 53 18 56
REMARK H PARENT 6 10 7 11 9 12 19 13 21 14 4 16 4 17 3 21 23 26 30 33 27 35
REMARK H PARENT 29 36 28 37 11 39 11 40 13 45 13 46 16 48 14 49 14 50 15 51
REMARK H PARENT 15 52 17 54 17 55 18 57
REMARK Flexibility Score: inf
ROOT
ATOM      1  C   UNL     1     -46.370  35.787  28.047  1.00  0.00    -0.027 A 
ATOM      2  C   UNL     1     -47.672  36.240  27.799  1.00  0.00    -0.057 A 
ATOM      3  C   UNL     1     -48.591  35.456  27.090  1.00  0.00    -0.052 A 
ATOM      4  C   UNL     1     -48.194  34.193  26.613  1.00  0.00    -0.000 A 
ATOM      5  C   UNL     1     -48.843  33.166  25.879  1.00  0.00    -0.032 A 
ATOM      6  C   UNL     1     -47.937  32.142  25.672  1.00  0.00     0.030 A 
ATOM      7  N   UNL     1     -46.768  32.512  26.294  1.00  0.00    -0.357 N 
ATOM      8  C   UNL     1     -46.892  33.761  26.859  1.00  0.00     0.046 A 
ATOM      9  C   UNL     1     -45.959  34.531  27.567  1.00  0.00    -0.033 A 
ATOM     10  H   UNL     1     -47.983  37.219  28.159  1.00  0.00     0.063 H 
ATOM     11  H   UNL     1     -49.597  35.822  26.911  1.00  0.00     0.063 H 
ATOM     12  H   UNL     1     -49.865  33.173  25.520  1.00  0.00     0.065 H 
ATOM     13  H   UNL     1     -45.926  31.955  26.329  1.00  0.00     0.166 HD
ATOM     14  H   UNL     1     -44.952  34.166  27.739  1.00  0.00     0.065 H 
ENDROOT
BRANCH   1  15
ATOM     15  C   UNL     1     -45.400  36.667  28.797  1.00  0.00     0.043 C 
ATOM     16  H   UNL     1     -44.450  36.143  28.952  1.00  0.00     0.054 H 
ATOM     17  H   UNL     1     -45.799  36.911  29.788  1.00  0.00     0.054 H 
BRANCH  15  18
ATOM     18  N   UNL     1     -45.113  37.865  28.052  1.00  0.00    -0.347 N 
ATOM     19  O   UNL     1     -44.076  39.011  29.757  1.00  0.00    -0.268 OA
ATOM     20  C   UNL     1     -44.533  38.972  28.620  1.00  0.00     0.270 C 
ATOM     21  H   UNL     1     -45.547  38.005  27.146  1.00  0.00     0.164 HD
BRANCH  20  22
ATOM     22  C   UNL     1     -44.527  40.160  27.687  1.00  0.00     0.136 A 
ATOM     23  C   UNL     1     -45.704  40.513  27.168  1.00  0.00     0.035 A 
ATOM     24  N   UNL     1     -43.331  40.792  27.426  1.00  0.00    -0.225 NA
ATOM     25  C   UNL     1     -45.745  41.659  26.251  1.00  0.00     0.258 A 
ATOM     26  H   UNL     1     -46.637  40.006  27.379  1.00  0.00     0.071 H 
ATOM     27  C   UNL     1     -43.372  41.803  26.613  1.00  0.00     0.140 A 
ATOM     28  O   UNL     1     -46.827  41.994  25.772  1.00  0.00    -0.269 OA
ATOM     29  N   UNL     1     -44.529  42.277  26.003  1.00  0.00    -0.268 N 
ATOM     30  C   UNL     1     -42.102  42.518  26.299  1.00  0.00    -0.019 A 
ATOM     31  C   UNL     1     -44.487  43.367  25.142  1.00  0.00     0.014 A 
ATOM     32  C   UNL     1     -42.113  43.563  25.464  1.00  0.00    -0.057 A 
ATOM     33  H   UNL     1     -41.196  42.157  26.770  1.00  0.00     0.066 H 
ATOM     34  C   UNL     1     -43.343  44.005  24.864  1.00  0.00    -0.045 A 
ATOM     35  H   UNL     1     -45.429  43.684  24.700  1.00  0.00     0.082 H 
ATOM     36  H   UNL     1     -41.199  44.098  25.223  1.00  0.00     0.062 H 
ATOM     37  H   UNL     1     -43.323  44.856  24.190  1.00  0.00     0.064 H 
ENDBRANCH  20  22
ENDBRANCH  15  18
ENDBRANCH   1  15
BRANCH   6  38
ATOM     38  C   UNL     1     -48.075  30.830  24.971  1.00  0.00     0.039 C 
ATOM     39  H   UNL     1     -48.893  30.306  25.483  1.00  0.00     0.050 H 
ATOM     40  H   UNL     1     -47.177  30.214  25.111  1.00  0.00     0.050 H 
BRANCH  38  41
ATOM     41  N   UNL     1     -48.411  30.998  23.551  1.00  0.00    -0.292 NA
ATOM     42  C   UNL     1     -49.511  30.097  23.165  1.00  0.00    -0.001 C 
ATOM     43  C   UNL     1     -47.332  30.630  22.600  1.00  0.00     0.033 C 
ATOM     44  C   UNL     1     -48.861  28.764  22.826  1.00  0.00    -0.039 C 
ATOM     45  H   UNL     1     -50.294  30.000  23.925  1.00  0.00     0.043 H 
ATOM     46  H   UNL     1     -49.998  30.505  22.270  1.00  0.00     0.043 H 
ATOM     47  C   UNL     1     -47.418  29.103  22.477  1.00  0.00    -0.034 C 
ATOM     48  H   UNL     1     -47.626  31.040  21.621  1.00  0.00     0.049 H 
ATOM     49  H   UNL     1     -48.887  28.087  23.687  1.00  0.00     0.028 H 
ATOM     50  H   UNL     1     -49.374  28.270  21.994  1.00  0.00     0.028 H 
ATOM     51  H   UNL     1     -47.166  28.767  21.465  1.00  0.00     0.028 H 
ATOM     52  H   UNL     1     -46.740  28.601  23.176  1.00  0.00     0.028 H 
BRANCH  43  53
ATOM     53  C   UNL     1     -45.902  31.127  22.854  1.00  0.00     0.059 C 
ATOM     54  H   UNL     1     -45.779  31.416  23.902  1.00  0.00     0.058 H 
ATOM     55  H   UNL     1     -45.155  30.370  22.596  1.00  0.00     0.058 H 
BRANCH  53  56
ATOM     56  O   UNL     1     -45.632  32.276  22.049  1.00  0.00    -0.395 OA
ATOM     57  H   UNL     1     -46.139  33.010  22.439  1.00  0.00     0.210 HD
ENDBRANCH  53  56
ENDBRANCH  43  53
ENDBRANCH  38  41
ENDBRANCH   6  38
TORSDOF 7
ENDMDL
MODEL 5
REMARK VINA RESULT:      -9.7      2.088      2.611
REMARK SMILES O=C(NCc1ccc2cc(CN3CCC[C@@H]3CO)[nH]c2c1)c1cc(=O)n2ccccc2n1
REMARK SMILES IDX 5 1 6 2 7 3 8 4 9 5 10 6 19 7 20 8 21 9 4 15 3 18 1 19 2 20
REMARK SMILES IDX 22 22 23 23 32 24 24 25 31 27 25 28 26 29 30 30 27 31 29 32
REMARK SMILES IDX 28 34 11 38 12 41 13 42 16 43 14 44 15 47 17 53 18 56
REMARK H PARENT 6 10 7 11 9 12 19 13 21 14 4 16 4 17 3 21 23 26 30 33 27 35
REMARK H PARENT 29 36 28 37 11 39 11 40 13 45 13 46 16 48 14 49 14 50 15 51
REMARK H PARENT 15 52 17 54 17 55 18 57
REMARK Flexibility Score: inf
ROOT
ATOM      1  C   UNL     1     -47.242  36.742  27.805  1.00  0.00    -0.027 A 
ATOM      2  C   UNL     1     -45.918  36.283  27.800  1.00  0.00    -0.057 A 
ATOM      3  C   UNL     1     -45.584  35.038  27.253  1.00  0.00    -0.052 A 
ATOM      4  C   UNL     1     -46.599  34.232  26.705  1.00  0.00    -0.000 A 
ATOM      5  C   UNL     1     -46.620  32.954  26.087  1.00  0.00    -0.032 A 
ATOM      6  C   UNL     1     -47.930  32.652  25.760  1.00  0.00     0.030 A 
ATOM      7  N   UNL     1     -48.694  33.733  26.135  1.00  0.00    -0.357 N 
ATOM      8  C   UNL     1     -47.912  34.699  26.726  1.00  0.00     0.046 A 
ATOM      9  C   UNL     1     -48.265  35.942  27.269  1.00  0.00    -0.033 A 
ATOM     10  H   UNL     1     -45.129  36.898  28.230  1.00  0.00     0.063 H 
ATOM     11  H   UNL     1     -44.553  34.699  27.255  1.00  0.00     0.063 H 
ATOM     12  H   UNL     1     -45.770  32.306  25.909  1.00  0.00     0.065 H 
ATOM     13  H   UNL     1     -49.692  33.812  26.007  1.00  0.00     0.166 HD
ATOM     14  H   UNL     1     -49.298  36.275  27.272  1.00  0.00     0.065 H 
ENDROOT
BRANCH   1  15
ATOM     15  C   UNL     1     -47.568  38.080  28.421  1.00  0.00     0.043 C 
ATOM     16  H   UNL     1     -47.601  38.001  29.513  1.00  0.00     0.054 H 
ATOM     17  H   UNL     1     -48.558  38.418  28.092  1.00  0.00     0.054 H 
BRANCH  15  18
ATOM     18  N   UNL     1     -46.562  39.056  28.092  1.00  0.00    -0.347 N 
ATOM     19  O   UNL     1     -47.577  39.876  26.197  1.00  0.00    -0.268 OA
ATOM     20  C   UNL     1     -46.618  39.829  26.959  1.00  0.00     0.270 C 
ATOM     21  H   UNL     1     -45.667  39.029  28.570  1.00  0.00     0.164 HD
BRANCH  20  22
ATOM     22  C   UNL     1     -45.350  40.620  26.740  1.00  0.00     0.136 A 
ATOM     23  C   UNL     1     -44.401  40.489  27.669  1.00  0.00     0.035 A 
ATOM     24  N   UNL     1     -45.251  41.418  25.621  1.00  0.00    -0.225 NA
ATOM     25  C   UNL     1     -43.153  41.243  27.500  1.00  0.00     0.258 A 
ATOM     26  H   UNL     1     -44.492  39.860  28.545  1.00  0.00     0.071 H 
ATOM     27  C   UNL     1     -44.147  42.085  25.478  1.00  0.00     0.140 A 
ATOM     28  O   UNL     1     -42.272  41.125  28.349  1.00  0.00    -0.269 OA
ATOM     29  N   UNL     1     -43.078  42.041  26.368  1.00  0.00    -0.268 N 
ATOM     30  C   UNL     1     -43.994  42.964  24.284  1.00  0.00    -0.019 A 
ATOM     31  C   UNL     1     -41.928  42.788  26.141  1.00  0.00     0.014 A 
ATOM     32  C   UNL     1     -42.867  43.664  24.108  1.00  0.00    -0.057 A 
ATOM     33  H   UNL     1     -44.820  43.004  23.584  1.00  0.00     0.066 H 
ATOM     34  C   UNL     1     -41.798  43.575  25.066  1.00  0.00    -0.045 A 
ATOM     35  H   UNL     1     -41.132  42.706  26.877  1.00  0.00     0.082 H 
ATOM     36  H   UNL     1     -42.736  44.309  23.245  1.00  0.00     0.062 H 
ATOM     37  H   UNL     1     -40.895  44.154  24.900  1.00  0.00     0.064 H 
ENDBRANCH  20  22
ENDBRANCH  15  18
ENDBRANCH   1  15
BRANCH   6  38
ATOM     38  C   UNL     1     -48.530  31.455  25.098  1.00  0.00     0.039 C 
ATOM     39  H   UNL     1     -49.530  31.344  25.539  1.00  0.00     0.050 H 
ATOM     40  H   UNL     1     -47.975  30.544  25.359  1.00  0.00     0.050 H 
BRANCH  38  41
ATOM     41  N   UNL     1     -48.649  31.631  23.645  1.00  0.00    -0.292 NA
ATOM     42  C   UNL     1     -50.034  31.389  23.202  1.00  0.00    -0.001 C 
ATOM     43  C   UNL     1     -47.867  30.670  22.827  1.00  0.00     0.033 C 
ATOM     44  C   UNL     1     -50.153  29.885  23.003  1.00  0.00    -0.039 C 
ATOM     45  H   UNL     1     -50.794  31.783  23.885  1.00  0.00     0.043 H 
ATOM     46  H   UNL     1     -50.186  31.899  22.242  1.00  0.00     0.043 H 
ATOM     47  C   UNL     1     -48.727  29.400  22.780  1.00  0.00    -0.034 C 
ATOM     48  H   UNL     1     -47.850  31.074  21.803  1.00  0.00     0.049 H 
ATOM     49  H   UNL     1     -50.575  29.406  23.893  1.00  0.00     0.028 H 
ATOM     50  H   UNL     1     -50.800  29.645  22.152  1.00  0.00     0.028 H 
ATOM     51  H   UNL     1     -48.629  28.885  21.818  1.00  0.00     0.028 H 
ATOM     52  H   UNL     1     -48.449  28.692  23.570  1.00  0.00     0.028 H 
BRANCH  43  53
ATOM     53  C   UNL     1     -46.404  30.385  23.194  1.00  0.00     0.059 C 
ATOM     54  H   UNL     1     -45.769  30.447  22.304  1.00  0.00     0.058 H 
ATOM     55  H   UNL     1     -46.032  31.077  23.954  1.00  0.00     0.058 H 
BRANCH  53  56
ATOM     56  O   UNL     1     -46.280  29.065  23.727  1.00  0.00    -0.395 OA
ATOM     57  H   UNL     1     -45.613  28.611  23.184  1.00  0.00     0.210 HD
ENDBRANCH  53  56
ENDBRANCH  43  53
ENDBRANCH  38  41
ENDBRANCH   6  38
TORSDOF 7
ENDMDL
MODEL 6
REMARK VINA RESULT:      -9.6      1.829      2.528
REMARK SMILES O=C(NCc1ccc2cc(CN3CCC[C@@H]3CO)[nH]c2c1)c1cc(=O)n2ccccc2n1
REMARK SMILES IDX 5 1 6 2 7 3 8 4 9 5 10 6 19 7 20 8 21 9 4 15 3 18 1 19 2 20
REMARK SMILES IDX 22 22 23 23 32 24 24 25 31 27 25 28 26 29 30 30 27 31 29 32
REMARK SMILES IDX 28 34 11 38 12 41 13 42 16 43 14 44 15 47 17 53 18 56
REMARK H PARENT 6 10 7 11 9 12 19 13 21 14 4 16 4 17 3 21 23 26 30 33 27 35
REMARK H PARENT 29 36 28 37 11 39 11 40 13 45 13 46 16 48 14 49 14 50 15 51
REMARK H PARENT 15 52 17 54 17 55 18 57
REMARK Flexibility Score: inf
ROOT
ATOM      1  C   UNL     1     -47.756  34.790  26.779  1.00  0.00    -0.027 A 
ATOM      2  C   UNL     1     -46.484  34.632  26.211  1.00  0.00    -0.057 A 
ATOM      3  C   UNL     1     -46.215  33.590  25.315  1.00  0.00    -0.052 A 
ATOM      4  C   UNL     1     -47.239  32.683  24.986  1.00  0.00    -0.000 A 
ATOM      5  C   UNL     1     -47.316  31.544  24.141  1.00  0.00    -0.032 A 
ATOM      6  C   UNL     1     -48.595  31.025  24.230  1.00  0.00     0.030 A 
ATOM      7  N   UNL     1     -49.300  31.843  25.081  1.00  0.00    -0.357 N 
ATOM      8  C   UNL     1     -48.495  32.849  25.567  1.00  0.00     0.046 A 
ATOM      9  C   UNL     1     -48.783  33.885  26.465  1.00  0.00    -0.033 A 
ATOM     10  H   UNL     1     -45.686  35.326  26.468  1.00  0.00     0.063 H 
ATOM     11  H   UNL     1     -45.225  33.484  24.882  1.00  0.00     0.063 H 
ATOM     12  H   UNL     1     -46.518  31.130  23.538  1.00  0.00     0.065 H 
ATOM     13  H   UNL     1     -50.272  31.725  25.330  1.00  0.00     0.166 HD
ATOM     14  H   UNL     1     -49.772  33.984  26.902  1.00  0.00     0.065 H 
ENDROOT
BRANCH   1  15
ATOM     15  C   UNL     1     -48.005  35.913  27.757  1.00  0.00     0.043 C 
ATOM     16  H   UNL     1     -48.026  35.528  28.783  1.00  0.00     0.054 H 
ATOM     17  H   UNL     1     -48.981  36.373  27.564  1.00  0.00     0.054 H 
BRANCH  15  18
ATOM     18  N   UNL     1     -46.955  36.895  27.688  1.00  0.00    -0.347 N 
ATOM     19  O   UNL     1     -46.395  36.860  29.920  1.00  0.00    -0.268 OA
ATOM     20  C   UNL     1     -46.280  37.340  28.799  1.00  0.00     0.270 C 
ATOM     21  H   UNL     1     -46.848  37.454  26.848  1.00  0.00     0.164 HD
BRANCH  20  22
ATOM     22  C   UNL     1     -45.376  38.510  28.490  1.00  0.00     0.136 A 
ATOM     23  C   UNL     1     -45.633  39.177  27.363  1.00  0.00     0.035 A 
ATOM     24  N   UNL     1     -44.357  38.811  29.367  1.00  0.00    -0.225 NA
ATOM     25  C   UNL     1     -44.776  40.319  27.020  1.00  0.00     0.258 A 
ATOM     26  H   UNL     1     -46.436  38.930  26.681  1.00  0.00     0.071 H 
ATOM     27  C   UNL     1     -43.601  39.819  29.058  1.00  0.00     0.140 A 
ATOM     28  O   UNL     1     -45.008  40.943  25.986  1.00  0.00    -0.269 OA
ATOM     29  N   UNL     1     -43.756  40.600  27.917  1.00  0.00    -0.268 N 
ATOM     30  C   UNL     1     -42.484  40.181  29.976  1.00  0.00    -0.019 A 
ATOM     31  C   UNL     1     -42.901  41.665  27.658  1.00  0.00     0.014 A 
ATOM     32  C   UNL     1     -41.687  41.215  29.684  1.00  0.00    -0.057 A 
ATOM     33  H   UNL     1     -42.355  39.580  30.867  1.00  0.00     0.066 H 
ATOM     34  C   UNL     1     -41.900  41.985  28.487  1.00  0.00    -0.045 A 
ATOM     35  H   UNL     1     -43.081  42.233  26.748  1.00  0.00     0.082 H 
ATOM     36  H   UNL     1     -40.868  41.495  30.340  1.00  0.00     0.062 H 
ATOM     37  H   UNL     1     -41.239  42.819  28.274  1.00  0.00     0.064 H 
ENDBRANCH  20  22
ENDBRANCH  15  18
ENDBRANCH   1  15
BRANCH   6  38
ATOM     38  C   UNL     1     -49.229  29.846  23.565  1.00  0.00     0.039 C 
ATOM     39  H   UNL     1     -50.232  29.764  24.005  1.00  0.00     0.050 H 
ATOM     40  H   UNL     1     -48.701  28.920  23.824  1.00  0.00     0.050 H 
BRANCH  38  41
ATOM     41  N   UNL     1     -49.340  30.029  22.112  1.00  0.00    -0.292 NA
ATOM     42  C   UNL     1     -50.208  31.178  21.797  1.00  0.00    -0.001 C 
ATOM     43  C   UNL     1     -49.993  28.912  21.384  1.00  0.00     0.033 C 
ATOM     44  C   UNL     1     -51.633  30.644  21.812  1.00  0.00    -0.039 C 
ATOM     45  H   UNL     1     -50.074  32.034  22.468  1.00  0.00     0.043 H 
ATOM     46  H   UNL     1     -49.962  31.534  20.788  1.00  0.00     0.043 H 
ATOM     47  C   UNL     1     -51.498  29.147  21.566  1.00  0.00    -0.034 C 
ATOM     48  H   UNL     1     -49.778  29.069  20.316  1.00  0.00     0.049 H 
ATOM     49  H   UNL     1     -52.105  30.820  22.785  1.00  0.00     0.028 H 
ATOM     50  H   UNL     1     -52.249  31.126  21.046  1.00  0.00     0.028 H 
ATOM     51  H   UNL     1     -52.062  28.839  20.679  1.00  0.00     0.028 H 
ATOM     52  H   UNL     1     -51.894  28.593  22.425  1.00  0.00     0.028 H 
BRANCH  43  53
ATOM     53  C   UNL     1     -49.575  27.468  21.691  1.00  0.00     0.059 C 
ATOM     54  H   UNL     1     -49.295  26.947  20.769  1.00  0.00     0.058 H 
ATOM     55  H   UNL     1     -48.742  27.425  22.398  1.00  0.00     0.058 H 
BRANCH  53  56
ATOM     56  O   UNL     1     -50.665  26.756  22.280  1.00  0.00    -0.395 OA
ATOM     57  H   UNL     1     -50.517  25.815  22.082  1.00  0.00     0.210 HD
ENDBRANCH  53  56
ENDBRANCH  43  53
ENDBRANCH  38  41
ENDBRANCH   6  38
TORSDOF 7
ENDMDL
